MODEL 1
REMARK VINA RESULT:     -11.6      0.000      0.000
REMARK SMILES Cc1ccc(C)c(N2C(=O)S[C@H](CC(=O)Nc3ccc(C(=O)OCCOCCOC(=O)c4ccc(-c5c6nc(c(-c7cccc(S(=O)(=O)[O-])c7F)c7ccc([nH]7)c(-c7cccc(S(=O)(=O)[O-])c7F)c7nc(c(-c8cccc(S(=O)(=O)[O-])c8F)c8ccc5[nH]8)C=C7)C=C6)cc4)c(O)c3)C2=O)c1
REMARK SMILES IDX 25 1 24 2 23 3 21 4 22 5 20 6 17 7 18 8 97 9 19 10 95 11
REMARK SMILES IDX 16 12 14 13 15 14 13 16 12 17 8 18 9 19 98 20 10 21 11 22
REMARK SMILES IDX 99 23 7 24 1 25 2 26 3 27 100 28 4 29 5 30 6 31 96 32 26 34
REMARK SMILES IDX 27 35 28 36 29 37 30 38 31 39 32 40 33 41 94 42 34 43 93 44
REMARK SMILES IDX 35 45 36 46 37 47 87 48 38 49 92 50 86 51 88 52 39 53 91 54
REMARK SMILES IDX 85 55 84 56 40 58 72 59 52 60 71 61 53 62 56 63 70 64 89 65
REMARK SMILES IDX 54 66 55 67 69 69 90 70 57 71 41 72 42 73 50 74 43 75 45 76
REMARK SMILES IDX 51 77 44 78 46 79 47 80 48 81 49 82 73 83 74 84 82 85 75 86
REMARK SMILES IDX 77 87 83 88 76 89 78 90 79 91 80 92 81 93 58 94 59 95 67 96
REMARK SMILES IDX 60 97 62 98 68 99 61 100 63 101 64 102 65 103 66 104
REMARK H PARENT 16 15 96 33 88 57 56 68
REMARK Flexibility Score: inf
ROOT
ATOM      1  C   UNL A   1      38.894  21.016  25.770  1.00  0.00     0.202 C 
ENDROOT
BRANCH   1   2
ATOM      2  C   UNL A   1      37.601  21.836  25.738  1.00  0.00     0.261 C 
BRANCH   2   3
ATOM      3  O   UNL A   1      36.660  21.106  24.922  1.00  0.00    -0.460 OA
BRANCH   3   4
ATOM      4  C   UNL A   1      35.383  21.349  25.331  1.00  0.00     0.341 C 
ATOM      5  O   UNL A   1      34.970  21.139  26.439  1.00  0.00    -0.246 OA
BRANCH   4   6
ATOM      6  C   UNL A   1      34.597  22.013  24.260  1.00  0.00     0.101 A 
ATOM      7  C   UNL A   1      33.345  23.481  22.210  1.00  0.00     0.044 A 
ATOM      8  C   UNL A   1      34.646  23.711  22.576  1.00  0.00     0.027 A 
ATOM      9  C   UNL A   1      32.594  22.615  23.000  1.00  0.00     0.073 A 
ATOM     10  C   UNL A   1      35.313  22.883  23.457  1.00  0.00     0.022 A 
ATOM     11  C   UNL A   1      33.223  21.895  24.039  1.00  0.00     0.132 A 
BRANCH   7  12
ATOM     12  N   UNL A   1      32.848  24.169  21.094  1.00  0.00    -0.326 N 
ATOM     13  C   UNL A   1      32.315  25.455  21.056  1.00  0.00     0.226 C 
ATOM     14  O   UNL A   1      31.647  25.767  20.068  1.00  0.00    -0.275 OA
ATOM     15  H   UNL A   1      32.877  23.685  20.238  1.00  0.00     0.169 HD
BRANCH  13  16
ATOM     16  C   UNL A   1      32.807  26.528  22.060  1.00  0.00     0.125 C 
BRANCH  16  17
ATOM     17  C   UNL A   1      31.850  27.655  22.494  1.00  0.00     0.156 C 
ATOM     18  N   UNL A   1      31.993  28.507  24.761  1.00  0.00    -0.240 N 
ATOM     19  C   UNL A   1      31.129  27.481  24.972  1.00  0.00     0.293 C 
ATOM     20  C   UNL A   1      32.520  28.634  23.483  1.00  0.00     0.248 C 
ATOM     21  O   UNL A   1      30.882  26.904  26.017  1.00  0.00    -0.261 OA
ATOM     22  S   UNL A   1      30.481  26.994  23.471  1.00  0.00    -0.050 SA
ATOM     23  O   UNL A   1      33.493  29.327  23.191  1.00  0.00    -0.273 OA
BRANCH  18  24
ATOM     24  C   UNL A   1      32.312  29.315  25.869  1.00  0.00     0.056 A 
ATOM     25  C   UNL A   1      31.652  32.953  26.814  1.00  0.00     0.044 C 
ATOM     26  C   UNL A   1      32.233  31.570  26.802  1.00  0.00    -0.049 A 
ATOM     27  C   UNL A   1      33.351  31.269  27.583  1.00  0.00     0.004 A 
ATOM     28  C   UNL A   1      31.700  30.577  25.972  1.00  0.00     0.030 A 
ATOM     29  C   UNL A   1      33.970  30.021  27.482  1.00  0.00     0.006 A 
ATOM     30  C   UNL A   1      33.491  29.047  26.591  1.00  0.00    -0.027 A 
ATOM     31  C   UNL A   1      34.320  27.804  26.383  1.00  0.00     0.046 C 
ENDBRANCH  18  24
ENDBRANCH  16  17
ENDBRANCH  13  16
ENDBRANCH   7  12
BRANCH  11  32
ATOM     32  O   UNL A   1      32.433  21.073  24.797  1.00  0.00    -0.507 OA
ATOM     33  H   UNL A   1      32.249  21.293  25.689  1.00  0.00     0.293 HD
ENDBRANCH  11  32
ENDBRANCH   4   6
ENDBRANCH   3   4
ENDBRANCH   2   3
ENDBRANCH   1   2
BRANCH   1  34
ATOM     34  O   UNL A   1      39.757  21.563  26.761  1.00  0.00    -0.374 OA
BRANCH  34  35
ATOM     35  C   UNL A   1      40.917  22.247  26.308  1.00  0.00     0.202 C 
BRANCH  35  36
ATOM     36  C   UNL A   1      41.279  23.496  27.124  1.00  0.00     0.261 C 
BRANCH  36  37
ATOM     37  O   UNL A   1      40.789  24.748  26.593  1.00  0.00    -0.460 OA
BRANCH  37  38
ATOM     38  C   UNL A   1      39.572  25.157  27.050  1.00  0.00     0.338 C 
ATOM     39  O   UNL A   1      38.506  24.753  26.615  1.00  0.00    -0.246 OA
BRANCH  38  40
ATOM     40  C   UNL A   1      39.748  26.238  28.055  1.00  0.00     0.060 A 
ATOM     41  C   UNL A   1      39.321  26.046  29.377  1.00  0.00     0.016 A 
ATOM     42  C   UNL A   1      40.088  27.514  27.612  1.00  0.00     0.016 A 
ATOM     43  C   UNL A   1      39.099  27.160  30.204  1.00  0.00     0.010 A 
ATOM     44  C   UNL A   1      39.775  28.606  28.403  1.00  0.00     0.010 A 
ATOM     45  C   UNL A   1      39.249  28.458  29.694  1.00  0.00    -0.014 A 
BRANCH  45  46
ATOM     46  C   UNL A   1      39.395  29.658  30.547  1.00  0.00     0.031 A 
ATOM     47  C   UNL A   1      38.168  30.460  30.419  1.00  0.00     0.074 A 
ATOM     48  C   UNL A   1      40.364  30.053  31.414  1.00  0.00     0.049 A 
ATOM     49  N   UNL A   1      38.103  31.525  29.687  1.00  0.00    -0.248 NA
ATOM     50  C   UNL A   1      36.863  29.961  30.877  1.00  0.00     0.031 C 
ATOM     51  C   UNL A   1      41.731  29.582  31.502  1.00  0.00     0.029 A 
ATOM     52  N   UNL A   1      40.319  30.930  32.483  1.00  0.00    -0.354 N 
ATOM     53  C   UNL A   1      36.845  32.016  29.948  1.00  0.00     0.074 A 
ATOM     54  C   UNL A   1      36.049  30.900  30.386  1.00  0.00     0.031 C 
ATOM     55  C   UNL A   1      42.299  29.896  32.687  1.00  0.00     0.029 A 
ATOM     56  C   UNL A   1      41.387  30.774  33.388  1.00  0.00     0.049 A 
ATOM     57  H   UNL A   1      39.609  31.602  32.601  1.00  0.00     0.167 HD
ATOM     58  C   UNL A   1      36.723  33.329  30.266  1.00  0.00     0.034 A 
ATOM     59  C   UNL A   1      41.704  31.503  34.491  1.00  0.00     0.034 A 
ATOM     60  C   UNL A   1      37.890  34.094  29.906  1.00  0.00     0.049 A 
ATOM     61  C   UNL A   1      41.409  32.887  34.107  1.00  0.00     0.074 A 
ATOM     62  C   UNL A   1      38.490  34.525  28.742  1.00  0.00     0.029 A 
ATOM     63  N   UNL A   1      38.835  34.165  30.895  1.00  0.00    -0.354 N 
ATOM     64  N   UNL A   1      42.122  33.554  33.242  1.00  0.00    -0.248 NA
ATOM     65  C   UNL A   1      40.120  33.460  34.461  1.00  0.00     0.031 C 
ATOM     66  C   UNL A   1      39.843  34.837  29.065  1.00  0.00     0.029 A 
ATOM     67  C   UNL A   1      40.043  34.603  30.422  1.00  0.00     0.049 A 
ATOM     68  H   UNL A   1      38.665  33.929  31.835  1.00  0.00     0.167 HD
ATOM     69  C   UNL A   1      41.172  34.313  32.591  1.00  0.00     0.074 A 
ATOM     70  C   UNL A   1      40.032  34.378  33.497  1.00  0.00     0.031 C 
ATOM     71  C   UNL A   1      41.228  34.508  31.245  1.00  0.00     0.034 A 
BRANCH  58  72
ATOM     72  C   UNL A   1      35.782  33.806  31.334  1.00  0.00     0.023 A 
ATOM     73  C   UNL A   1      35.952  33.290  32.629  1.00  0.00     0.012 A 
ATOM     74  C   UNL A   1      34.606  34.550  31.081  1.00  0.00     0.148 A 
ATOM     75  C   UNL A   1      35.011  33.541  33.632  1.00  0.00     0.002 A 
ATOM     76  C   UNL A   1      33.742  34.900  32.104  1.00  0.00     0.091 A 
ATOM     77  F   UNL A   1      34.222  34.794  29.823  1.00  0.00    -0.205 F 
ATOM     78  C   UNL A   1      33.925  34.376  33.382  1.00  0.00     0.022 A 
BRANCH  76  79
ATOM     79  S   UNL A   1      32.399  36.054  31.811  1.00  0.00     0.127 S 
ATOM     80  O   UNL A   1      31.302  35.424  32.536  1.00  0.00    -0.237 OA
ATOM     81  O   UNL A   1      32.919  37.283  32.413  1.00  0.00    -0.237 OA
ATOM     82  O   UNL A   1      32.266  36.118  30.360  1.00  0.00    -0.744 OA
ENDBRANCH  76  79
ENDBRANCH  58  72
BRANCH  59  83
ATOM     83  C   UNL A   1      42.370  31.202  35.785  1.00  0.00     0.023 A 
ATOM     84  C   UNL A   1      43.710  30.782  35.854  1.00  0.00     0.012 A 
ATOM     85  C   UNL A   1      41.798  31.701  36.967  1.00  0.00     0.148 A 
ATOM     86  C   UNL A   1      44.453  30.916  37.040  1.00  0.00     0.002 A 
ATOM     87  C   UNL A   1      42.524  31.837  38.148  1.00  0.00     0.091 A 
ATOM     88  F   UNL A   1      40.556  32.159  36.894  1.00  0.00    -0.205 F 
ATOM     89  C   UNL A   1      43.868  31.463  38.182  1.00  0.00     0.022 A 
BRANCH  87  90
ATOM     90  S   UNL A   1      41.803  32.645  39.590  1.00  0.00     0.127 S 
ATOM     91  O   UNL A   1      40.398  32.268  39.477  1.00  0.00    -0.237 OA
ATOM     92  O   UNL A   1      42.517  32.024  40.705  1.00  0.00    -0.237 OA
ATOM     93  O   UNL A   1      42.076  34.069  39.421  1.00  0.00    -0.744 OA
ENDBRANCH  87  90
ENDBRANCH  59  83
BRANCH  71  94
ATOM     94  C   UNL A   1      42.571  34.473  30.580  1.00  0.00     0.023 A 
ATOM     95  C   UNL A   1      43.499  35.529  30.649  1.00  0.00     0.012 A 
ATOM     96  C   UNL A   1      42.938  33.287  29.919  1.00  0.00     0.148 A 
ATOM     97  C   UNL A   1      44.763  35.406  30.061  1.00  0.00     0.002 A 
ATOM     98  C   UNL A   1      44.207  33.151  29.375  1.00  0.00     0.091 A 
ATOM     99  F   UNL A   1      42.030  32.301  29.839  1.00  0.00    -0.205 F 
ATOM    100  C   UNL A   1      45.122  34.212  29.436  1.00  0.00     0.022 A 
BRANCH  98 101
ATOM    101  S   UNL A   1      44.752  31.597  28.662  1.00  0.00     0.127 S 
ATOM    102  O   UNL A   1      43.918  31.499  27.466  1.00  0.00    -0.237 OA
ATOM    103  O   UNL A   1      46.170  31.849  28.401  1.00  0.00    -0.237 OA
ATOM    104  O   UNL A   1      44.509  30.584  29.684  1.00  0.00    -0.744 OA
ENDBRANCH  98 101
ENDBRANCH  71  94
ENDBRANCH  45  46
ENDBRANCH  38  40
ENDBRANCH  37  38
ENDBRANCH  36  37
ENDBRANCH  35  36
ENDBRANCH  34  35
ENDBRANCH   1  34
TORSDOF 22
ENDMDL
MODEL 2
REMARK VINA RESULT:     -10.6      6.355     12.249
REMARK SMILES Cc1ccc(C)c(N2C(=O)S[C@H](CC(=O)Nc3ccc(C(=O)OCCOCCOC(=O)c4ccc(-c5c6nc(c(-c7cccc(S(=O)(=O)[O-])c7F)c7ccc([nH]7)c(-c7cccc(S(=O)(=O)[O-])c7F)c7nc(c(-c8cccc(S(=O)(=O)[O-])c8F)c8ccc5[nH]8)C=C7)C=C6)cc4)c(O)c3)C2=O)c1
REMARK SMILES IDX 25 1 24 2 23 3 21 4 22 5 20 6 17 7 18 8 97 9 19 10 95 11
REMARK SMILES IDX 16 12 14 13 15 14 13 16 12 17 8 18 9 19 98 20 10 21 11 22
REMARK SMILES IDX 99 23 7 24 1 25 2 26 3 27 100 28 4 29 5 30 6 31 96 32 26 34
REMARK SMILES IDX 27 35 28 36 29 37 30 38 31 39 32 40 33 41 94 42 34 43 93 44
REMARK SMILES IDX 35 45 36 46 37 47 87 48 38 49 92 50 86 51 88 52 39 53 91 54
REMARK SMILES IDX 85 55 84 56 40 58 72 59 52 60 71 61 53 62 56 63 70 64 89 65
REMARK SMILES IDX 54 66 55 67 69 69 90 70 57 71 41 72 42 73 50 74 43 75 45 76
REMARK SMILES IDX 51 77 44 78 46 79 47 80 48 81 49 82 73 83 74 84 82 85 75 86
REMARK SMILES IDX 77 87 83 88 76 89 78 90 79 91 80 92 81 93 58 94 59 95 67 96
REMARK SMILES IDX 60 97 62 98 68 99 61 100 63 101 64 102 65 103 66 104
REMARK H PARENT 16 15 96 33 88 57 56 68
REMARK Flexibility Score: inf
ROOT
ATOM      1  C   UNL A   1      34.348  34.197  30.577  1.00  0.00     0.202 C 
ENDROOT
BRANCH   1   2
ATOM      2  C   UNL A   1      34.861  33.520  29.301  1.00  0.00     0.261 C 
BRANCH   2   3
ATOM      3  O   UNL A   1      33.839  32.591  28.879  1.00  0.00    -0.460 OA
BRANCH   3   4
ATOM      4  C   UNL A   1      34.403  31.480  28.327  1.00  0.00     0.341 C 
ATOM      5  O   UNL A   1      35.404  30.952  28.730  1.00  0.00    -0.246 OA
BRANCH   4   6
ATOM      6  C   UNL A   1      33.557  30.940  27.233  1.00  0.00     0.101 A 
ATOM      7  C   UNL A   1      31.713  30.070  25.292  1.00  0.00     0.044 A 
ATOM      8  C   UNL A   1      31.394  31.032  26.216  1.00  0.00     0.027 A 
ATOM      9  C   UNL A   1      32.925  29.402  25.445  1.00  0.00     0.073 A 
ATOM     10  C   UNL A   1      32.344  31.580  27.054  1.00  0.00     0.022 A 
ATOM     11  C   UNL A   1      33.838  29.831  26.432  1.00  0.00     0.132 A 
BRANCH   7  12
ATOM     12  N   UNL A   1      30.776  29.795  24.286  1.00  0.00    -0.326 N 
ATOM     13  C   UNL A   1      30.598  28.599  23.593  1.00  0.00     0.226 C 
ATOM     14  O   UNL A   1      29.956  28.639  22.542  1.00  0.00    -0.275 OA
ATOM     15  H   UNL A   1      30.175  30.533  24.038  1.00  0.00     0.169 HD
BRANCH  13  16
ATOM     16  C   UNL A   1      30.927  27.250  24.280  1.00  0.00     0.125 C 
BRANCH  16  17
ATOM     17  C   UNL A   1      30.765  25.938  23.489  1.00  0.00     0.156 C 
ATOM     18  N   UNL A   1      32.482  24.235  23.676  1.00  0.00    -0.240 N 
ATOM     19  C   UNL A   1      33.013  24.963  22.661  1.00  0.00     0.293 C 
ATOM     20  C   UNL A   1      31.322  24.723  24.263  1.00  0.00     0.248 C 
ATOM     21  O   UNL A   1      34.174  25.012  22.292  1.00  0.00    -0.261 OA
ATOM     22  S   UNL A   1      31.791  25.954  22.002  1.00  0.00    -0.050 SA
ATOM     23  O   UNL A   1      30.867  24.341  25.339  1.00  0.00    -0.273 OA
BRANCH  18  24
ATOM     24  C   UNL A   1      33.185  23.081  24.073  1.00  0.00     0.056 A 
ATOM     25  C   UNL A   1      32.528  19.329  23.844  1.00  0.00     0.044 C 
ATOM     26  C   UNL A   1      33.116  20.647  24.253  1.00  0.00    -0.049 A 
ATOM     27  C   UNL A   1      34.021  20.715  25.313  1.00  0.00     0.004 A 
ATOM     28  C   UNL A   1      32.728  21.832  23.617  1.00  0.00     0.030 A 
ATOM     29  C   UNL A   1      34.476  21.952  25.779  1.00  0.00     0.006 A 
ATOM     30  C   UNL A   1      34.028  23.150  25.199  1.00  0.00    -0.027 A 
ATOM     31  C   UNL A   1      34.396  24.447  25.876  1.00  0.00     0.046 C 
ENDBRANCH  18  24
ENDBRANCH  16  17
ENDBRANCH  13  16
ENDBRANCH   7  12
BRANCH  11  32
ATOM     32  O   UNL A   1      35.005  29.125  26.551  1.00  0.00    -0.507 OA
ATOM     33  H   UNL A   1      35.485  29.145  27.356  1.00  0.00     0.293 HD
ENDBRANCH  11  32
ENDBRANCH   4   6
ENDBRANCH   3   4
ENDBRANCH   2   3
ENDBRANCH   1   2
BRANCH   1  34
ATOM     34  O   UNL A   1      35.432  34.333  31.488  1.00  0.00    -0.374 OA
BRANCH  34  35
ATOM     35  C   UNL A   1      36.402  33.295  31.506  1.00  0.00     0.202 C 
BRANCH  35  36
ATOM     36  C   UNL A   1      37.857  33.783  31.517  1.00  0.00     0.261 C 
BRANCH  36  37
ATOM     37  O   UNL A   1      38.453  33.993  30.216  1.00  0.00    -0.460 OA
BRANCH  37  38
ATOM     38  C   UNL A   1      39.708  33.489  30.045  1.00  0.00     0.338 C 
ATOM     39  O   UNL A   1      40.021  32.334  30.281  1.00  0.00    -0.246 OA
BRANCH  38  40
ATOM     40  C   UNL A   1      40.638  34.580  29.650  1.00  0.00     0.060 A 
ATOM     41  C   UNL A   1      40.392  35.327  28.489  1.00  0.00     0.016 A 
ATOM     42  C   UNL A   1      41.873  34.669  30.286  1.00  0.00     0.016 A 
ATOM     43  C   UNL A   1      41.441  36.047  27.893  1.00  0.00     0.010 A 
ATOM     44  C   UNL A   1      42.919  35.303  29.639  1.00  0.00     0.010 A 
ATOM     45  C   UNL A   1      42.738  35.975  28.422  1.00  0.00    -0.014 A 
BRANCH  45  46
ATOM     46  C   UNL A   1      43.804  36.951  28.106  1.00  0.00     0.031 A 
ATOM     47  C   UNL A   1      45.038  36.200  27.824  1.00  0.00     0.074 A 
ATOM     48  C   UNL A   1      43.797  38.302  27.966  1.00  0.00     0.049 A 
ATOM     49  N   UNL A   1      45.999  36.090  28.684  1.00  0.00    -0.248 NA
ATOM     50  C   UNL A   1      45.151  35.294  26.672  1.00  0.00     0.031 C 
ATOM     51  C   UNL A   1      42.803  39.244  28.437  1.00  0.00     0.029 A 
ATOM     52  N   UNL A   1      44.660  39.147  27.290  1.00  0.00    -0.354 N 
ATOM     53  C   UNL A   1      46.982  35.431  27.982  1.00  0.00     0.074 A 
ATOM     54  C   UNL A   1      46.321  34.704  26.931  1.00  0.00     0.031 C 
ATOM     55  C   UNL A   1      42.904  40.440  27.815  1.00  0.00     0.029 A 
ATOM     56  C   UNL A   1      44.112  40.416  27.020  1.00  0.00     0.049 A 
ATOM     57  H   UNL A   1      45.571  38.886  27.024  1.00  0.00     0.167 HD
ATOM     58  C   UNL A   1      48.239  35.941  28.008  1.00  0.00     0.034 A 
ATOM     59  C   UNL A   1      44.691  41.509  26.455  1.00  0.00     0.034 A 
ATOM     60  C   UNL A   1      48.430  36.882  29.083  1.00  0.00     0.049 A 
ATOM     61  C   UNL A   1      46.054  41.518  26.998  1.00  0.00     0.074 A 
ATOM     62  C   UNL A   1      48.518  36.833  30.458  1.00  0.00     0.029 A 
ATOM     63  N   UNL A   1      48.144  38.178  28.744  1.00  0.00    -0.354 N 
ATOM     64  N   UNL A   1      46.322  41.800  28.243  1.00  0.00    -0.248 NA
ATOM     65  C   UNL A   1      47.128  40.915  26.225  1.00  0.00     0.031 C 
ATOM     66  C   UNL A   1      48.250  38.150  30.935  1.00  0.00     0.029 A 
ATOM     67  C   UNL A   1      48.016  38.981  29.845  1.00  0.00     0.049 A 
ATOM     68  H   UNL A   1      48.043  38.494  27.817  1.00  0.00     0.167 HD
ATOM     69  C   UNL A   1      47.378  40.957  28.520  1.00  0.00     0.074 A 
ATOM     70  C   UNL A   1      47.954  40.610  27.228  1.00  0.00     0.031 C 
ATOM     71  C   UNL A   1      47.472  40.316  29.717  1.00  0.00     0.034 A 
BRANCH  58  72
ATOM     72  C   UNL A   1      49.113  35.969  26.788  1.00  0.00     0.023 A 
ATOM     73  C   UNL A   1      48.797  36.898  25.783  1.00  0.00     0.012 A 
ATOM     74  C   UNL A   1      50.077  34.982  26.480  1.00  0.00     0.148 A 
ATOM     75  C   UNL A   1      49.444  36.864  24.544  1.00  0.00     0.002 A 
ATOM     76  C   UNL A   1      50.802  35.028  25.302  1.00  0.00     0.091 A 
ATOM     77  F   UNL A   1      50.194  33.892  27.248  1.00  0.00    -0.205 F 
ATOM     78  C   UNL A   1      50.473  35.954  24.315  1.00  0.00     0.022 A 
BRANCH  76  79
ATOM     79  S   UNL A   1      52.193  33.924  25.042  1.00  0.00     0.127 S 
ATOM     80  O   UNL A   1      52.402  33.387  26.382  1.00  0.00    -0.237 OA
ATOM     81  O   UNL A   1      51.651  32.976  24.068  1.00  0.00    -0.237 OA
ATOM     82  O   UNL A   1      53.255  34.772  24.511  1.00  0.00    -0.744 OA
ENDBRANCH  76  79
ENDBRANCH  58  72
BRANCH  59  83
ATOM     83  C   UNL A   1      44.199  42.640  25.627  1.00  0.00     0.023 A 
ATOM     84  C   UNL A   1      44.888  43.864  25.551  1.00  0.00     0.012 A 
ATOM     85  C   UNL A   1      43.262  42.374  24.615  1.00  0.00     0.148 A 
ATOM     86  C   UNL A   1      44.685  44.746  24.476  1.00  0.00     0.002 A 
ATOM     87  C   UNL A   1      43.051  43.242  23.545  1.00  0.00     0.091 A 
ATOM     88  F   UNL A   1      42.656  41.195  24.643  1.00  0.00    -0.205 F 
ATOM     89  C   UNL A   1      43.782  44.427  23.460  1.00  0.00     0.022 A 
BRANCH  87  90
ATOM     90  S   UNL A   1      41.970  42.780  22.178  1.00  0.00     0.127 S 
ATOM     91  O   UNL A   1      42.008  43.977  21.344  1.00  0.00    -0.237 OA
ATOM     92  O   UNL A   1      42.643  41.614  21.607  1.00  0.00    -0.237 OA
ATOM     93  O   UNL A   1      40.673  42.490  22.782  1.00  0.00    -0.744 OA
ENDBRANCH  87  90
ENDBRANCH  59  83
BRANCH  71  94
ATOM     94  C   UNL A   1      46.849  40.962  30.918  1.00  0.00     0.023 A 
ATOM     95  C   UNL A   1      45.487  40.835  31.249  1.00  0.00     0.012 A 
ATOM     96  C   UNL A   1      47.699  41.664  31.791  1.00  0.00     0.148 A 
ATOM     97  C   UNL A   1      44.983  41.409  32.421  1.00  0.00     0.002 A 
ATOM     98  C   UNL A   1      47.206  42.194  32.974  1.00  0.00     0.091 A 
ATOM     99  F   UNL A   1      48.990  41.798  31.445  1.00  0.00    -0.205 F 
ATOM    100  C   UNL A   1      45.845  42.076  33.291  1.00  0.00     0.022 A 
BRANCH  98 101
ATOM    101  S   UNL A   1      48.296  42.961  34.176  1.00  0.00     0.127 S 
ATOM    102  O   UNL A   1      47.532  42.825  35.414  1.00  0.00    -0.237 OA
ATOM    103  O   UNL A   1      49.492  42.121  34.100  1.00  0.00    -0.237 OA
ATOM    104  O   UNL A   1      48.502  44.328  33.710  1.00  0.00    -0.744 OA
ENDBRANCH  98 101
ENDBRANCH  71  94
ENDBRANCH  45  46
ENDBRANCH  38  40
ENDBRANCH  37  38
ENDBRANCH  36  37
ENDBRANCH  35  36
ENDBRANCH  34  35
ENDBRANCH   1  34
TORSDOF 22
ENDMDL
MODEL 3
REMARK VINA RESULT:     -10.6      4.598     10.880
REMARK SMILES Cc1ccc(C)c(N2C(=O)S[C@H](CC(=O)Nc3ccc(C(=O)OCCOCCOC(=O)c4ccc(-c5c6nc(c(-c7cccc(S(=O)(=O)[O-])c7F)c7ccc([nH]7)c(-c7cccc(S(=O)(=O)[O-])c7F)c7nc(c(-c8cccc(S(=O)(=O)[O-])c8F)c8ccc5[nH]8)C=C7)C=C6)cc4)c(O)c3)C2=O)c1
REMARK SMILES IDX 25 1 24 2 23 3 21 4 22 5 20 6 17 7 18 8 97 9 19 10 95 11
REMARK SMILES IDX 16 12 14 13 15 14 13 16 12 17 8 18 9 19 98 20 10 21 11 22
REMARK SMILES IDX 99 23 7 24 1 25 2 26 3 27 100 28 4 29 5 30 6 31 96 32 26 34
REMARK SMILES IDX 27 35 28 36 29 37 30 38 31 39 32 40 33 41 94 42 34 43 93 44
REMARK SMILES IDX 35 45 36 46 37 47 87 48 38 49 92 50 86 51 88 52 39 53 91 54
REMARK SMILES IDX 85 55 84 56 40 58 72 59 52 60 71 61 53 62 56 63 70 64 89 65
REMARK SMILES IDX 54 66 55 67 69 69 90 70 57 71 41 72 42 73 50 74 43 75 45 76
REMARK SMILES IDX 51 77 44 78 46 79 47 80 48 81 49 82 73 83 74 84 82 85 75 86
REMARK SMILES IDX 77 87 83 88 76 89 78 90 79 91 80 92 81 93 58 94 59 95 67 96
REMARK SMILES IDX 60 97 62 98 68 99 61 100 63 101 64 102 65 103 66 104
REMARK H PARENT 16 15 96 33 88 57 56 68
REMARK Flexibility Score: inf
ROOT
ATOM      1  C   UNL A   1      45.046  33.858  25.334  1.00  0.00     0.202 C 
ENDROOT
BRANCH   1   2
ATOM      2  C   UNL A   1      45.126  32.745  26.385  1.00  0.00     0.261 C 
BRANCH   2   3
ATOM      3  O   UNL A   1      45.771  31.618  25.754  1.00  0.00    -0.460 OA
BRANCH   3   4
ATOM      4  C   UNL A   1      45.175  30.453  26.131  1.00  0.00     0.341 C 
ATOM      5  O   UNL A   1      43.992  30.311  26.285  1.00  0.00    -0.246 OA
BRANCH   4   6
ATOM      6  C   UNL A   1      46.166  29.350  26.220  1.00  0.00     0.101 A 
ATOM      7  C   UNL A   1      48.080  27.341  26.691  1.00  0.00     0.044 A 
ATOM      8  C   UNL A   1      47.530  28.072  27.712  1.00  0.00     0.027 A 
ATOM      9  C   UNL A   1      47.797  27.736  25.386  1.00  0.00     0.073 A 
ATOM     10  C   UNL A   1      46.472  28.934  27.503  1.00  0.00     0.022 A 
ATOM     11  C   UNL A   1      46.849  28.757  25.156  1.00  0.00     0.132 A 
BRANCH   7  12
ATOM     12  N   UNL A   1      48.927  26.276  27.031  1.00  0.00    -0.326 N 
ATOM     13  C   UNL A   1      48.566  24.964  27.328  1.00  0.00     0.226 C 
ATOM     14  O   UNL A   1      49.397  24.261  27.907  1.00  0.00    -0.275 OA
ATOM     15  H   UNL A   1      49.889  26.481  27.066  1.00  0.00     0.169 HD
BRANCH  13  16
ATOM     16  C   UNL A   1      47.303  24.342  26.681  1.00  0.00     0.125 C 
BRANCH  16  17
ATOM     17  C   UNL A   1      45.920  24.953  26.980  1.00  0.00     0.156 C 
ATOM     18  N   UNL A   1      43.954  23.541  26.818  1.00  0.00    -0.240 N 
ATOM     19  C   UNL A   1      44.029  23.953  25.526  1.00  0.00     0.293 C 
ATOM     20  C   UNL A   1      44.977  23.941  27.667  1.00  0.00     0.248 C 
ATOM     21  O   UNL A   1      43.554  23.426  24.535  1.00  0.00    -0.261 OA
ATOM     22  S   UNL A   1      45.038  25.326  25.448  1.00  0.00    -0.050 SA
ATOM     23  O   UNL A   1      45.201  23.452  28.773  1.00  0.00    -0.273 OA
BRANCH  18  24
ATOM     24  C   UNL A   1      42.875  22.705  27.162  1.00  0.00     0.056 A 
ATOM     25  C   UNL A   1      41.643  19.293  25.977  1.00  0.00     0.044 C 
ATOM     26  C   UNL A   1      41.680  20.643  26.629  1.00  0.00    -0.049 A 
ATOM     27  C   UNL A   1      40.518  21.196  27.171  1.00  0.00     0.004 A 
ATOM     28  C   UNL A   1      42.862  21.392  26.659  1.00  0.00     0.030 A 
ATOM     29  C   UNL A   1      40.519  22.502  27.667  1.00  0.00     0.006 A 
ATOM     30  C   UNL A   1      41.680  23.289  27.625  1.00  0.00    -0.027 A 
ATOM     31  C   UNL A   1      41.563  24.749  27.987  1.00  0.00     0.046 C 
ENDBRANCH  18  24
ENDBRANCH  16  17
ENDBRANCH  13  16
ENDBRANCH   7  12
BRANCH  11  32
ATOM     32  O   UNL A   1      46.625  29.118  23.855  1.00  0.00    -0.507 OA
ATOM     33  H   UNL A   1      46.288  29.970  23.657  1.00  0.00     0.293 HD
ENDBRANCH  11  32
ENDBRANCH   4   6
ENDBRANCH   3   4
ENDBRANCH   2   3
ENDBRANCH   1   2
BRANCH   1  34
ATOM     34  O   UNL A   1      46.317  34.492  25.244  1.00  0.00    -0.374 OA
BRANCH  34  35
ATOM     35  C   UNL A   1      46.734  35.276  26.353  1.00  0.00     0.202 C 
BRANCH  35  36
ATOM     36  C   UNL A   1      46.596  36.791  26.150  1.00  0.00     0.261 C 
BRANCH  36  37
ATOM     37  O   UNL A   1      46.094  37.529  27.287  1.00  0.00    -0.460 OA
BRANCH  37  38
ATOM     38  C   UNL A   1      44.770  37.851  27.253  1.00  0.00     0.338 C 
ATOM     39  O   UNL A   1      44.317  38.826  26.676  1.00  0.00    -0.246 OA
BRANCH  38  40
ATOM     40  C   UNL A   1      44.001  36.915  28.114  1.00  0.00     0.060 A 
ATOM     41  C   UNL A   1      44.410  36.679  29.435  1.00  0.00     0.016 A 
ATOM     42  C   UNL A   1      43.051  36.087  27.522  1.00  0.00     0.016 A 
ATOM     43  C   UNL A   1      43.967  35.524  30.102  1.00  0.00     0.010 A 
ATOM     44  C   UNL A   1      42.699  34.907  28.153  1.00  0.00     0.010 A 
ATOM     45  C   UNL A   1      43.168  34.585  29.434  1.00  0.00    -0.014 A 
BRANCH  45  46
ATOM     46  C   UNL A   1      42.368  33.553  30.129  1.00  0.00     0.031 A 
ATOM     47  C   UNL A   1      43.073  32.267  29.999  1.00  0.00     0.074 A 
ATOM     48  C   UNL A   1      41.232  33.620  30.870  1.00  0.00     0.049 A 
ATOM     49  N   UNL A   1      42.711  31.355  29.155  1.00  0.00    -0.248 NA
ATOM     50  C   UNL A   1      44.392  32.039  30.606  1.00  0.00     0.031 C 
ATOM     51  C   UNL A   1      40.253  34.687  30.912  1.00  0.00     0.029 A 
ATOM     52  N   UNL A   1      40.725  32.762  31.831  1.00  0.00    -0.354 N 
ATOM     53  C   UNL A   1      43.543  30.300  29.449  1.00  0.00     0.074 A 
ATOM     54  C   UNL A   1      44.714  30.859  30.071  1.00  0.00     0.031 C 
ATOM     55  C   UNL A   1      39.466  34.609  32.007  1.00  0.00     0.029 A 
ATOM     56  C   UNL A   1      39.760  33.356  32.667  1.00  0.00     0.049 A 
ATOM     57  H   UNL A   1      41.012  31.824  31.921  1.00  0.00     0.167 HD
ATOM     58  C   UNL A   1      42.987  29.075  29.620  1.00  0.00     0.034 A 
ATOM     59  C   UNL A   1      39.004  32.800  33.651  1.00  0.00     0.034 A 
ATOM     60  C   UNL A   1      41.650  28.997  29.088  1.00  0.00     0.049 A 
ATOM     61  C   UNL A   1      38.650  31.475  33.131  1.00  0.00     0.074 A 
ATOM     62  C   UNL A   1      41.063  28.989  27.841  1.00  0.00     0.029 A 
ATOM     63  N   UNL A   1      40.674  29.327  29.990  1.00  0.00    -0.354 N 
ATOM     64  N   UNL A   1      37.816  31.297  32.145  1.00  0.00    -0.248 NA
ATOM     65  C   UNL A   1      39.459  30.327  33.510  1.00  0.00     0.031 C 
ATOM     66  C   UNL A   1      39.696  29.351  28.026  1.00  0.00     0.029 A 
ATOM     67  C   UNL A   1      39.470  29.561  29.382  1.00  0.00     0.049 A 
ATOM     68  H   UNL A   1      40.820  29.387  30.961  1.00  0.00     0.167 HD
ATOM     69  C   UNL A   1      38.362  30.217  31.482  1.00  0.00     0.074 A 
ATOM     70  C   UNL A   1      39.215  29.548  32.454  1.00  0.00     0.031 C 
ATOM     71  C   UNL A   1      38.382  30.164  30.122  1.00  0.00     0.034 A 
BRANCH  58  72
ATOM     72  C   UNL A   1      43.452  28.132  30.691  1.00  0.00     0.023 A 
ATOM     73  C   UNL A   1      43.923  26.872  30.289  1.00  0.00     0.012 A 
ATOM     74  C   UNL A   1      43.233  28.331  32.074  1.00  0.00     0.148 A 
ATOM     75  C   UNL A   1      44.201  25.874  31.228  1.00  0.00     0.002 A 
ATOM     76  C   UNL A   1      43.626  27.388  33.008  1.00  0.00     0.091 A 
ATOM     77  F   UNL A   1      42.497  29.365  32.497  1.00  0.00    -0.205 F 
ATOM     78  C   UNL A   1      44.089  26.143  32.590  1.00  0.00     0.022 A 
BRANCH  76  79
ATOM     79  S   UNL A   1      43.577  27.764  34.762  1.00  0.00     0.127 S 
ATOM     80  O   UNL A   1      44.276  26.617  35.332  1.00  0.00    -0.237 OA
ATOM     81  O   UNL A   1      44.307  29.031  34.822  1.00  0.00    -0.237 OA
ATOM     82  O   UNL A   1      42.159  27.884  35.084  1.00  0.00    -0.744 OA
ENDBRANCH  76  79
ENDBRANCH  58  72
BRANCH  59  83
ATOM     83  C   UNL A   1      38.411  33.299  34.919  1.00  0.00     0.023 A 
ATOM     84  C   UNL A   1      37.022  33.309  35.139  1.00  0.00     0.012 A 
ATOM     85  C   UNL A   1      39.235  33.401  36.052  1.00  0.00     0.148 A 
ATOM     86  C   UNL A   1      36.493  33.360  36.440  1.00  0.00     0.002 A 
ATOM     87  C   UNL A   1      38.722  33.453  37.346  1.00  0.00     0.091 A 
ATOM     88  F   UNL A   1      40.545  33.327  35.859  1.00  0.00    -0.205 F 
ATOM     89  C   UNL A   1      37.342  33.409  37.546  1.00  0.00     0.022 A 
BRANCH  87  90
ATOM     90  S   UNL A   1      39.817  33.405  38.779  1.00  0.00     0.127 S 
ATOM     91  O   UNL A   1      40.598  32.199  38.523  1.00  0.00    -0.237 OA
ATOM     92  O   UNL A   1      40.564  34.656  38.661  1.00  0.00    -0.237 OA
ATOM     93  O   UNL A   1      38.939  33.336  39.943  1.00  0.00    -0.744 OA
ENDBRANCH  87  90
ENDBRANCH  59  83
BRANCH  71  94
ATOM     94  C   UNL A   1      37.308  30.889  29.368  1.00  0.00     0.023 A 
ATOM     95  C   UNL A   1      37.311  32.281  29.160  1.00  0.00     0.012 A 
ATOM     96  C   UNL A   1      36.293  30.115  28.778  1.00  0.00     0.148 A 
ATOM     97  C   UNL A   1      36.313  32.889  28.390  1.00  0.00     0.002 A 
ATOM     98  C   UNL A   1      35.330  30.714  27.979  1.00  0.00     0.091 A 
ATOM     99  F   UNL A   1      36.291  28.792  29.009  1.00  0.00    -0.205 F 
ATOM    100  C   UNL A   1      35.330  32.102  27.787  1.00  0.00     0.022 A 
BRANCH  98 101
ATOM    101  S   UNL A   1      34.116  29.733  27.093  1.00  0.00     0.127 S 
ATOM    102  O   UNL A   1      34.950  28.988  26.152  1.00  0.00    -0.237 OA
ATOM    103  O   UNL A   1      33.524  28.924  28.159  1.00  0.00    -0.237 OA
ATOM    104  O   UNL A   1      33.192  30.690  26.494  1.00  0.00    -0.744 OA
ENDBRANCH  98 101
ENDBRANCH  71  94
ENDBRANCH  45  46
ENDBRANCH  38  40
ENDBRANCH  37  38
ENDBRANCH  36  37
ENDBRANCH  35  36
ENDBRANCH  34  35
ENDBRANCH   1  34
TORSDOF 22
ENDMDL
