MODEL 1
REMARK VINA RESULT:     -11.3      0.000      0.000
REMARK SMILES Cc1ccc(-c2nc(C)cc(N3CCCC[C@H]3C(=O)OCCOCCOC(=O)c3ccc(-c4c5nc(c(-c6cccc(S(=O)(=O)[O-])c6F)c6ccc([nH]6)c(-c6cccc(S(=O)(=O)[O-])c6F)c6nc(c(-c7cccc(S(=O)(=O)[O-])c7F)c7ccc4[nH]7)C=C6)C=C5)cc3)n2)cc1
REMARK SMILES IDX 24 1 23 2 22 3 21 4 20 5 18 6 19 7 17 8 12 9 13 10 14 11
REMARK SMILES IDX 16 12 15 13 11 14 6 15 7 16 92 17 8 18 9 19 10 20 5 21 1 22
REMARK SMILES IDX 2 23 3 24 94 25 4 26 93 27 25 28 26 29 27 30 28 31 29 32
REMARK SMILES IDX 30 33 91 34 31 35 90 36 32 37 33 38 34 39 84 40 35 41 89 42
REMARK SMILES IDX 83 43 85 44 36 45 88 46 82 47 81 48 37 50 69 51 49 52 68 53
REMARK SMILES IDX 50 54 53 55 67 56 86 57 51 58 52 59 66 61 87 62 54 63 38 64
REMARK SMILES IDX 39 65 47 66 40 67 42 68 48 69 41 70 43 71 44 72 45 73 46 74
REMARK SMILES IDX 70 75 71 76 79 77 72 78 74 79 80 80 73 81 75 82 76 83 77 84
REMARK SMILES IDX 78 85 55 86 56 87 64 88 57 89 59 90 65 91 58 92 60 93 61 94
REMARK SMILES IDX 62 95 63 96
REMARK H PARENT 85 49 53 60
REMARK Flexibility Score: inf
ROOT
ATOM      1  C   UNL A   1      38.293  21.320  25.582  1.00  0.00     0.202 C 
ENDROOT
BRANCH   1   2
ATOM      2  O   UNL A   1      37.740  22.122  24.583  1.00  0.00    -0.374 OA
BRANCH   2   3
ATOM      3  C   UNL A   1      36.366  21.885  24.450  1.00  0.00     0.202 C 
BRANCH   3   4
ATOM      4  C   UNL A   1      35.447  22.868  23.692  1.00  0.00     0.261 C 
BRANCH   4   5
ATOM      5  O   UNL A   1      35.076  24.009  24.415  1.00  0.00    -0.462 OA
BRANCH   5   6
ATOM      6  C   UNL A   1      33.736  24.174  24.481  1.00  0.00     0.328 C 
ATOM      7  O   UNL A   1      32.960  24.021  23.546  1.00  0.00    -0.250 OA
BRANCH   6   8
ATOM      8  C   UNL A   1      33.335  24.359  25.928  1.00  0.00     0.193 C 
ATOM      9  N   UNL A   1      32.308  25.395  26.030  1.00  0.00    -0.343 N 
ATOM     10  C   UNL A   1      30.898  25.073  25.797  1.00  0.00     0.119 C 
ATOM     11  C   UNL A   1      30.447  23.785  26.462  1.00  0.00     0.022 C 
ATOM     12  C   UNL A   1      32.853  23.073  26.619  1.00  0.00     0.037 C 
ATOM     13  C   UNL A   1      31.429  22.643  26.263  1.00  0.00     0.005 C 
BRANCH   9  14
ATOM     14  C   UNL A   1      32.634  26.724  25.917  1.00  0.00     0.133 A 
ATOM     15  C   UNL A   1      31.992  28.676  24.922  1.00  0.00     0.161 A 
ATOM     16  N   UNL A   1      32.888  29.449  25.544  1.00  0.00    -0.233 NA
ATOM     17  N   UNL A   1      31.877  27.357  25.039  1.00  0.00    -0.211 NA
ATOM     18  C   UNL A   1      33.695  28.795  26.403  1.00  0.00     0.043 A 
ATOM     19  C   UNL A   1      34.696  29.627  27.152  1.00  0.00     0.067 C 
ATOM     20  C   UNL A   1      33.577  27.430  26.641  1.00  0.00     0.070 A 
BRANCH  15  21
ATOM     21  C   UNL A   1      30.927  29.243  24.120  1.00  0.00     0.019 A 
ATOM     22  C   UNL A   1      27.456  30.874  22.186  1.00  0.00     0.044 C 
ATOM     23  C   UNL A   1      28.671  30.317  22.857  1.00  0.00    -0.051 A 
ATOM     24  C   UNL A   1      29.133  29.034  22.525  1.00  0.00     0.004 A 
ATOM     25  C   UNL A   1      29.339  31.066  23.825  1.00  0.00     0.004 A 
ATOM     26  C   UNL A   1      30.261  28.502  23.148  1.00  0.00     0.012 A 
ATOM     27  C   UNL A   1      30.455  30.531  24.448  1.00  0.00     0.012 A 
ENDBRANCH  15  21
ENDBRANCH   9  14
ENDBRANCH   6   8
ENDBRANCH   5   6
ENDBRANCH   4   5
ENDBRANCH   3   4
ENDBRANCH   2   3
ENDBRANCH   1   2
BRANCH   1  28
ATOM     28  C   UNL A   1      39.726  21.512  26.158  1.00  0.00     0.261 C 
BRANCH  28  29
ATOM     29  O   UNL A   1      40.537  22.790  26.418  1.00  0.00    -0.460 OA
BRANCH  29  30
ATOM     30  C   UNL A   1      41.190  23.952  26.648  1.00  0.00     0.338 C 
ATOM     31  O   UNL A   1      42.392  23.912  26.864  1.00  0.00    -0.246 OA
BRANCH  30  32
ATOM     32  C   UNL A   1      40.501  25.293  26.791  1.00  0.00     0.060 A 
ATOM     33  C   UNL A   1      40.955  26.466  26.190  1.00  0.00     0.016 A 
ATOM     34  C   UNL A   1      39.412  25.476  27.584  1.00  0.00     0.016 A 
ATOM     35  C   UNL A   1      40.849  27.701  26.867  1.00  0.00     0.010 A 
ATOM     36  C   UNL A   1      39.460  26.605  28.383  1.00  0.00     0.010 A 
ATOM     37  C   UNL A   1      40.310  27.682  28.125  1.00  0.00    -0.014 A 
BRANCH  37  38
ATOM     38  C   UNL A   1      40.475  28.654  29.220  1.00  0.00     0.031 A 
ATOM     39  C   UNL A   1      39.485  29.773  29.215  1.00  0.00     0.074 A 
ATOM     40  C   UNL A   1      41.300  28.471  30.298  1.00  0.00     0.049 A 
ATOM     41  N   UNL A   1      39.719  30.969  29.634  1.00  0.00    -0.248 NA
ATOM     42  C   UNL A   1      38.137  29.647  28.648  1.00  0.00     0.031 C 
ATOM     43  C   UNL A   1      41.188  29.175  31.588  1.00  0.00     0.029 A 
ATOM     44  N   UNL A   1      42.404  27.626  30.533  1.00  0.00    -0.354 N 
ATOM     45  C   UNL A   1      38.495  31.619  29.678  1.00  0.00     0.074 A 
ATOM     46  C   UNL A   1      37.594  30.829  28.905  1.00  0.00     0.031 C 
ATOM     47  C   UNL A   1      42.270  28.930  32.345  1.00  0.00     0.029 A 
ATOM     48  C   UNL A   1      43.220  28.218  31.518  1.00  0.00     0.049 A 
ATOM     49  H   UNL A   1      42.576  26.767  30.083  1.00  0.00     0.167 HD
ATOM     50  C   UNL A   1      38.282  32.626  30.563  1.00  0.00     0.034 A 
ATOM     51  C   UNL A   1      44.528  28.596  31.370  1.00  0.00     0.034 A 
ATOM     52  C   UNL A   1      39.474  32.788  31.406  1.00  0.00     0.049 A 
ATOM     53  C   UNL A   1      44.674  30.118  31.369  1.00  0.00     0.074 A 
ATOM     54  C   UNL A   1      39.794  32.343  32.679  1.00  0.00     0.029 A 
ATOM     55  N   UNL A   1      40.677  33.133  30.805  1.00  0.00    -0.354 N 
ATOM     56  N   UNL A   1      43.677  30.934  31.588  1.00  0.00    -0.248 NA
ATOM     57  C   UNL A   1      45.912  30.853  31.106  1.00  0.00     0.031 C 
ATOM     58  C   UNL A   1      41.209  32.400  32.822  1.00  0.00     0.029 A 
ATOM     59  C   UNL A   1      41.752  32.899  31.649  1.00  0.00     0.049 A 
ATOM     60  H   UNL A   1      40.757  33.497  29.895  1.00  0.00     0.167 HD
ATOM     61  C   UNL A   1      44.037  32.224  31.311  1.00  0.00     0.074 A 
ATOM     62  C   UNL A   1      45.475  32.129  31.115  1.00  0.00     0.031 C 
ATOM     63  C   UNL A   1      43.107  33.229  31.204  1.00  0.00     0.034 A 
BRANCH  50  64
ATOM     64  C   UNL A   1      36.910  33.201  30.895  1.00  0.00     0.023 A 
ATOM     65  C   UNL A   1      36.457  33.035  32.220  1.00  0.00     0.012 A 
ATOM     66  C   UNL A   1      36.020  33.890  30.025  1.00  0.00     0.148 A 
ATOM     67  C   UNL A   1      35.188  33.446  32.642  1.00  0.00     0.002 A 
ATOM     68  C   UNL A   1      34.721  34.232  30.424  1.00  0.00     0.091 A 
ATOM     69  F   UNL A   1      36.445  34.322  28.833  1.00  0.00    -0.205 F 
ATOM     70  C   UNL A   1      34.306  34.015  31.738  1.00  0.00     0.022 A 
BRANCH  68  71
ATOM     71  S   UNL A   1      33.493  34.903  29.283  1.00  0.00     0.127 S 
ATOM     72  O   UNL A   1      33.280  33.785  28.360  1.00  0.00    -0.237 OA
ATOM     73  O   UNL A   1      32.363  35.184  30.163  1.00  0.00    -0.237 OA
ATOM     74  O   UNL A   1      34.117  36.064  28.660  1.00  0.00    -0.744 OA
ENDBRANCH  68  71
ENDBRANCH  50  64
BRANCH  51  75
ATOM     75  C   UNL A   1      45.340  27.616  30.601  1.00  0.00     0.023 A 
ATOM     76  C   UNL A   1      45.341  27.798  29.193  1.00  0.00     0.012 A 
ATOM     77  C   UNL A   1      46.437  27.006  31.217  1.00  0.00     0.148 A 
ATOM     78  C   UNL A   1      46.505  27.605  28.452  1.00  0.00     0.002 A 
ATOM     79  C   UNL A   1      47.602  26.854  30.479  1.00  0.00     0.091 A 
ATOM     80  F   UNL A   1      46.378  26.758  32.532  1.00  0.00    -0.205 F 
ATOM     81  C   UNL A   1      47.649  27.190  29.111  1.00  0.00     0.022 A 
BRANCH  79  82
ATOM     82  S   UNL A   1      49.196  26.676  31.265  1.00  0.00     0.127 S 
ATOM     83  O   UNL A   1      49.286  27.867  32.100  1.00  0.00    -0.237 OA
ATOM     84  O   UNL A   1      48.952  25.437  31.996  1.00  0.00    -0.237 OA
ATOM     85  O   UNL A   1      50.159  26.591  30.179  1.00  0.00    -0.744 OA
ENDBRANCH  79  82
ENDBRANCH  51  75
BRANCH  63  86
ATOM     86  C   UNL A   1      43.369  34.629  30.658  1.00  0.00     0.023 A 
ATOM     87  C   UNL A   1      43.733  35.706  31.484  1.00  0.00     0.012 A 
ATOM     88  C   UNL A   1      43.369  34.889  29.258  1.00  0.00     0.148 A 
ATOM     89  C   UNL A   1      43.979  36.986  30.973  1.00  0.00     0.002 A 
ATOM     90  C   UNL A   1      43.763  36.121  28.747  1.00  0.00     0.091 A 
ATOM     91  F   UNL A   1      42.946  33.955  28.395  1.00  0.00    -0.205 F 
ATOM     92  C   UNL A   1      44.017  37.189  29.603  1.00  0.00     0.022 A 
BRANCH  90  93
ATOM     93  S   UNL A   1      44.103  36.353  26.995  1.00  0.00     0.127 S 
ATOM     94  O   UNL A   1      42.759  36.316  26.424  1.00  0.00    -0.237 OA
ATOM     95  O   UNL A   1      44.739  37.671  26.981  1.00  0.00    -0.237 OA
ATOM     96  O   UNL A   1      44.988  35.259  26.621  1.00  0.00    -0.744 OA
ENDBRANCH  90  93
ENDBRANCH  63  86
ENDBRANCH  37  38
ENDBRANCH  30  32
ENDBRANCH  29  30
ENDBRANCH  28  29
ENDBRANCH   1  28
TORSDOF 19
ENDMDL
MODEL 2
REMARK VINA RESULT:     -11.2      4.317      9.585
REMARK SMILES Cc1ccc(-c2nc(C)cc(N3CCCC[C@H]3C(=O)OCCOCCOC(=O)c3ccc(-c4c5nc(c(-c6cccc(S(=O)(=O)[O-])c6F)c6ccc([nH]6)c(-c6cccc(S(=O)(=O)[O-])c6F)c6nc(c(-c7cccc(S(=O)(=O)[O-])c7F)c7ccc4[nH]7)C=C6)C=C5)cc3)n2)cc1
REMARK SMILES IDX 24 1 23 2 22 3 21 4 20 5 18 6 19 7 17 8 12 9 13 10 14 11
REMARK SMILES IDX 16 12 15 13 11 14 6 15 7 16 92 17 8 18 9 19 10 20 5 21 1 22
REMARK SMILES IDX 2 23 3 24 94 25 4 26 93 27 25 28 26 29 27 30 28 31 29 32
REMARK SMILES IDX 30 33 91 34 31 35 90 36 32 37 33 38 34 39 84 40 35 41 89 42
REMARK SMILES IDX 83 43 85 44 36 45 88 46 82 47 81 48 37 50 69 51 49 52 68 53
REMARK SMILES IDX 50 54 53 55 67 56 86 57 51 58 52 59 66 61 87 62 54 63 38 64
REMARK SMILES IDX 39 65 47 66 40 67 42 68 48 69 41 70 43 71 44 72 45 73 46 74
REMARK SMILES IDX 70 75 71 76 79 77 72 78 74 79 80 80 73 81 75 82 76 83 77 84
REMARK SMILES IDX 78 85 55 86 56 87 64 88 57 89 59 90 65 91 58 92 60 93 61 94
REMARK SMILES IDX 62 95 63 96
REMARK H PARENT 85 49 53 60
REMARK Flexibility Score: inf
ROOT
ATOM      1  C   UNL A   1      34.970  30.950  27.589  1.00  0.00     0.202 C 
ENDROOT
BRANCH   1   2
ATOM      2  O   UNL A   1      34.713  29.591  27.774  1.00  0.00    -0.374 OA
BRANCH   2   3
ATOM      3  C   UNL A   1      34.188  29.016  26.610  1.00  0.00     0.202 C 
BRANCH   3   4
ATOM      4  C   UNL A   1      33.320  27.739  26.662  1.00  0.00     0.261 C 
BRANCH   4   5
ATOM      5  O   UNL A   1      33.105  27.119  25.425  1.00  0.00    -0.462 OA
BRANCH   5   6
ATOM      6  C   UNL A   1      33.060  25.771  25.517  1.00  0.00     0.328 C 
ATOM      7  O   UNL A   1      32.822  25.142  26.540  1.00  0.00    -0.250 OA
BRANCH   6   8
ATOM      8  C   UNL A   1      33.135  25.181  24.125  1.00  0.00     0.193 C 
ATOM      9  N   UNL A   1      33.018  23.725  24.196  1.00  0.00    -0.343 N 
ATOM     10  C   UNL A   1      31.703  23.085  24.275  1.00  0.00     0.119 C 
ATOM     11  C   UNL A   1      30.678  23.673  23.322  1.00  0.00     0.022 C 
ATOM     12  C   UNL A   1      32.093  25.744  23.145  1.00  0.00     0.037 C 
ATOM     13  C   UNL A   1      30.677  25.192  23.320  1.00  0.00     0.005 C 
BRANCH   9  14
ATOM     14  C   UNL A   1      34.074  22.953  24.614  1.00  0.00     0.133 A 
ATOM     15  C   UNL A   1      34.691  20.798  25.050  1.00  0.00     0.161 A 
ATOM     16  N   UNL A   1      35.979  21.069  25.285  1.00  0.00    -0.233 NA
ATOM     17  N   UNL A   1      33.739  21.685  24.776  1.00  0.00    -0.211 NA
ATOM     18  C   UNL A   1      36.311  22.370  25.169  1.00  0.00     0.043 A 
ATOM     19  C   UNL A   1      37.755  22.719  25.391  1.00  0.00     0.067 C 
ATOM     20  C   UNL A   1      35.387  23.343  24.802  1.00  0.00     0.070 A 
BRANCH  15  21
ATOM     21  C   UNL A   1      34.210  19.437  24.940  1.00  0.00     0.019 A 
ATOM     22  C   UNL A   1      32.814  15.380  25.157  1.00  0.00     0.044 C 
ATOM     23  C   UNL A   1      33.289  16.796  25.075  1.00  0.00    -0.051 A 
ATOM     24  C   UNL A   1      34.576  17.081  24.592  1.00  0.00     0.004 A 
ATOM     25  C   UNL A   1      32.460  17.835  25.494  1.00  0.00     0.004 A 
ATOM     26  C   UNL A   1      35.032  18.395  24.517  1.00  0.00     0.012 A 
ATOM     27  C   UNL A   1      32.919  19.141  25.426  1.00  0.00     0.012 A 
ENDBRANCH  15  21
ENDBRANCH   9  14
ENDBRANCH   6   8
ENDBRANCH   5   6
ENDBRANCH   4   5
ENDBRANCH   3   4
ENDBRANCH   2   3
ENDBRANCH   1   2
BRANCH   1  28
ATOM     28  C   UNL A   1      33.995  32.086  28.015  1.00  0.00     0.261 C 
BRANCH  28  29
ATOM     29  O   UNL A   1      33.984  32.979  29.264  1.00  0.00    -0.460 OA
BRANCH  29  30
ATOM     30  C   UNL A   1      34.046  33.760  30.367  1.00  0.00     0.338 C 
ATOM     31  O   UNL A   1      33.337  34.753  30.418  1.00  0.00    -0.246 OA
BRANCH  30  32
ATOM     32  C   UNL A   1      35.041  33.556  31.490  1.00  0.00     0.060 A 
ATOM     33  C   UNL A   1      35.976  34.513  31.881  1.00  0.00     0.016 A 
ATOM     34  C   UNL A   1      35.150  32.383  32.169  1.00  0.00     0.016 A 
ATOM     35  C   UNL A   1      37.270  34.121  32.289  1.00  0.00     0.010 A 
ATOM     36  C   UNL A   1      36.448  31.941  32.359  1.00  0.00     0.010 A 
ATOM     37  C   UNL A   1      37.558  32.782  32.260  1.00  0.00    -0.014 A 
BRANCH  37  38
ATOM     38  C   UNL A   1      38.869  32.117  32.176  1.00  0.00     0.031 A 
ATOM     39  C   UNL A   1      38.878  30.853  31.381  1.00  0.00     0.074 A 
ATOM     40  C   UNL A   1      40.049  32.681  32.582  1.00  0.00     0.049 A 
ATOM     41  N   UNL A   1      39.645  29.842  31.607  1.00  0.00    -0.248 NA
ATOM     42  C   UNL A   1      37.939  30.591  30.282  1.00  0.00     0.031 C 
ATOM     43  C   UNL A   1      41.392  32.260  32.144  1.00  0.00     0.029 A 
ATOM     44  N   UNL A   1      40.357  33.754  33.444  1.00  0.00    -0.354 N 
ATOM     45  C   UNL A   1      39.508  28.992  30.520  1.00  0.00     0.074 A 
ATOM     46  C   UNL A   1      38.332  29.409  29.829  1.00  0.00     0.031 C 
ATOM     47  C   UNL A   1      42.333  32.866  32.887  1.00  0.00     0.029 A 
ATOM     48  C   UNL A   1      41.652  33.555  33.962  1.00  0.00     0.049 A 
ATOM     49  H   UNL A   1      39.766  34.514  33.649  1.00  0.00     0.167 HD
ATOM     50  C   UNL A   1      40.529  28.175  30.153  1.00  0.00     0.034 A 
ATOM     51  C   UNL A   1      41.987  33.415  35.283  1.00  0.00     0.034 A 
ATOM     52  C   UNL A   1      41.687  28.430  31.020  1.00  0.00     0.049 A 
ATOM     53  C   UNL A   1      42.426  31.985  35.601  1.00  0.00     0.074 A 
ATOM     54  C   UNL A   1      42.835  29.189  30.857  1.00  0.00     0.029 A 
ATOM     55  N   UNL A   1      41.564  28.205  32.385  1.00  0.00    -0.354 N 
ATOM     56  N   UNL A   1      42.560  31.058  34.690  1.00  0.00    -0.248 NA
ATOM     57  C   UNL A   1      42.728  31.465  36.934  1.00  0.00     0.031 C 
ATOM     58  C   UNL A   1      43.383  29.439  32.147  1.00  0.00     0.029 A 
ATOM     59  C   UNL A   1      42.585  28.816  33.094  1.00  0.00     0.049 A 
ATOM     60  H   UNL A   1      40.843  27.677  32.796  1.00  0.00     0.167 HD
ATOM     61  C   UNL A   1      42.745  29.833  35.270  1.00  0.00     0.074 A 
ATOM     62  C   UNL A   1      42.947  30.161  36.672  1.00  0.00     0.031 C 
ATOM     63  C   UNL A   1      42.646  28.668  34.549  1.00  0.00     0.034 A 
BRANCH  50  64
ATOM     64  C   UNL A   1      40.596  27.429  28.825  1.00  0.00     0.023 A 
ATOM     65  C   UNL A   1      39.685  26.367  28.649  1.00  0.00     0.012 A 
ATOM     66  C   UNL A   1      41.474  27.672  27.732  1.00  0.00     0.148 A 
ATOM     67  C   UNL A   1      39.686  25.552  27.512  1.00  0.00     0.002 A 
ATOM     68  C   UNL A   1      41.529  26.809  26.630  1.00  0.00     0.091 A 
ATOM     69  F   UNL A   1      42.196  28.797  27.687  1.00  0.00    -0.205 F 
ATOM     70  C   UNL A   1      40.628  25.750  26.516  1.00  0.00     0.022 A 
BRANCH  68  71
ATOM     71  S   UNL A   1      42.778  26.958  25.335  1.00  0.00     0.127 S 
ATOM     72  O   UNL A   1      44.016  27.086  26.108  1.00  0.00    -0.237 OA
ATOM     73  O   UNL A   1      42.643  25.694  24.617  1.00  0.00    -0.237 OA
ATOM     74  O   UNL A   1      42.432  28.157  24.580  1.00  0.00    -0.744 OA
ENDBRANCH  68  71
ENDBRANCH  50  64
BRANCH  51  75
ATOM     75  C   UNL A   1      41.250  34.347  36.178  1.00  0.00     0.023 A 
ATOM     76  C   UNL A   1      40.050  33.834  36.737  1.00  0.00     0.012 A 
ATOM     77  C   UNL A   1      41.959  35.339  36.863  1.00  0.00     0.148 A 
ATOM     78  C   UNL A   1      39.700  34.121  38.054  1.00  0.00     0.002 A 
ATOM     79  C   UNL A   1      41.624  35.587  38.186  1.00  0.00     0.091 A 
ATOM     80  F   UNL A   1      43.037  35.877  36.277  1.00  0.00    -0.205 F 
ATOM     81  C   UNL A   1      40.524  34.951  38.793  1.00  0.00     0.022 A 
BRANCH  79  82
ATOM     82  S   UNL A   1      42.781  36.337  39.322  1.00  0.00     0.127 S 
ATOM     83  O   UNL A   1      42.937  37.685  38.792  1.00  0.00    -0.237 OA
ATOM     84  O   UNL A   1      41.988  36.251  40.544  1.00  0.00    -0.237 OA
ATOM     85  O   UNL A   1      43.969  35.499  39.280  1.00  0.00    -0.744 OA
ENDBRANCH  79  82
ENDBRANCH  51  75
BRANCH  63  86
ATOM     86  C   UNL A   1      42.584  27.261  35.137  1.00  0.00     0.023 A 
ATOM     87  C   UNL A   1      41.505  26.816  35.920  1.00  0.00     0.012 A 
ATOM     88  C   UNL A   1      43.572  26.284  34.822  1.00  0.00     0.148 A 
ATOM     89  C   UNL A   1      41.454  25.521  36.448  1.00  0.00     0.002 A 
ATOM     90  C   UNL A   1      43.436  24.959  35.221  1.00  0.00     0.091 A 
ATOM     91  F   UNL A   1      44.683  26.633  34.160  1.00  0.00    -0.205 F 
ATOM     92  C   UNL A   1      42.407  24.584  36.081  1.00  0.00     0.022 A 
BRANCH  90  93
ATOM     93  S   UNL A   1      44.477  23.657  34.544  1.00  0.00     0.127 S 
ATOM     94  O   UNL A   1      43.848  22.458  35.092  1.00  0.00    -0.237 OA
ATOM     95  O   UNL A   1      44.294  23.840  33.103  1.00  0.00    -0.237 OA
ATOM     96  O   UNL A   1      45.823  23.947  35.016  1.00  0.00    -0.744 OA
ENDBRANCH  90  93
ENDBRANCH  63  86
ENDBRANCH  37  38
ENDBRANCH  30  32
ENDBRANCH  29  30
ENDBRANCH  28  29
ENDBRANCH   1  28
TORSDOF 19
ENDMDL
MODEL 3
REMARK VINA RESULT:     -10.7      2.363      3.576
REMARK SMILES Cc1ccc(-c2nc(C)cc(N3CCCC[C@H]3C(=O)OCCOCCOC(=O)c3ccc(-c4c5nc(c(-c6cccc(S(=O)(=O)[O-])c6F)c6ccc([nH]6)c(-c6cccc(S(=O)(=O)[O-])c6F)c6nc(c(-c7cccc(S(=O)(=O)[O-])c7F)c7ccc4[nH]7)C=C6)C=C5)cc3)n2)cc1
REMARK SMILES IDX 24 1 23 2 22 3 21 4 20 5 18 6 19 7 17 8 12 9 13 10 14 11
REMARK SMILES IDX 16 12 15 13 11 14 6 15 7 16 92 17 8 18 9 19 10 20 5 21 1 22
REMARK SMILES IDX 2 23 3 24 94 25 4 26 93 27 25 28 26 29 27 30 28 31 29 32
REMARK SMILES IDX 30 33 91 34 31 35 90 36 32 37 33 38 34 39 84 40 35 41 89 42
REMARK SMILES IDX 83 43 85 44 36 45 88 46 82 47 81 48 37 50 69 51 49 52 68 53
REMARK SMILES IDX 50 54 53 55 67 56 86 57 51 58 52 59 66 61 87 62 54 63 38 64
REMARK SMILES IDX 39 65 47 66 40 67 42 68 48 69 41 70 43 71 44 72 45 73 46 74
REMARK SMILES IDX 70 75 71 76 79 77 72 78 74 79 80 80 73 81 75 82 76 83 77 84
REMARK SMILES IDX 78 85 55 86 56 87 64 88 57 89 59 90 65 91 58 92 60 93 61 94
REMARK SMILES IDX 62 95 63 96
REMARK H PARENT 85 49 53 60
REMARK Flexibility Score: inf
ROOT
ATOM      1  C   UNL A   1      36.976  23.402  25.738  1.00  0.00     0.202 C 
ENDROOT
BRANCH   1   2
ATOM      2  O   UNL A   1      35.811  23.181  26.473  1.00  0.00    -0.374 OA
BRANCH   2   3
ATOM      3  C   UNL A   1      34.696  23.082  25.632  1.00  0.00     0.202 C 
BRANCH   3   4
ATOM      4  C   UNL A   1      33.263  23.305  26.162  1.00  0.00     0.261 C 
BRANCH   4   5
ATOM      5  O   UNL A   1      32.708  24.556  25.860  1.00  0.00    -0.462 OA
BRANCH   5   6
ATOM      6  C   UNL A   1      31.356  24.540  25.857  1.00  0.00     0.328 C 
ATOM      7  O   UNL A   1      30.652  24.304  26.831  1.00  0.00    -0.250 OA
BRANCH   6   8
ATOM      8  C   UNL A   1      30.862  25.071  24.530  1.00  0.00     0.193 C 
ATOM      9  N   UNL A   1      31.762  26.117  24.046  1.00  0.00    -0.343 N 
ATOM     10  C   UNL A   1      32.988  25.770  23.323  1.00  0.00     0.119 C 
ATOM     11  C   UNL A   1      32.796  24.684  22.280  1.00  0.00     0.022 C 
ATOM     12  C   UNL A   1      30.680  23.993  23.448  1.00  0.00     0.037 C 
ATOM     13  C   UNL A   1      31.974  23.512  22.791  1.00  0.00     0.005 C 
BRANCH   9  14
ATOM     14  C   UNL A   1      31.739  27.375  24.593  1.00  0.00     0.133 A 
ATOM     15  C   UNL A   1      30.877  29.470  24.300  1.00  0.00     0.161 A 
ATOM     16  N   UNL A   1      31.341  29.971  25.449  1.00  0.00    -0.233 NA
ATOM     17  N   UNL A   1      31.093  28.243  23.834  1.00  0.00    -0.211 NA
ATOM     18  C   UNL A   1      32.043  29.100  26.201  1.00  0.00     0.043 A 
ATOM     19  C   UNL A   1      32.556  29.608  27.518  1.00  0.00     0.067 C 
ATOM     20  C   UNL A   1      32.237  27.777  25.819  1.00  0.00     0.070 A 
BRANCH  15  21
ATOM     21  C   UNL A   1      29.944  30.206  23.473  1.00  0.00     0.019 A 
ATOM     22  C   UNL A   1      27.606  32.515  20.706  1.00  0.00     0.044 C 
ATOM     23  C   UNL A   1      28.413  31.701  21.667  1.00  0.00    -0.051 A 
ATOM     24  C   UNL A   1      28.680  32.192  22.955  1.00  0.00     0.004 A 
ATOM     25  C   UNL A   1      28.914  30.459  21.280  1.00  0.00     0.004 A 
ATOM     26  C   UNL A   1      29.435  31.445  23.857  1.00  0.00     0.012 A 
ATOM     27  C   UNL A   1      29.672  29.722  22.176  1.00  0.00     0.012 A 
ENDBRANCH  15  21
ENDBRANCH   9  14
ENDBRANCH   6   8
ENDBRANCH   5   6
ENDBRANCH   4   5
ENDBRANCH   3   4
ENDBRANCH   2   3
ENDBRANCH   1   2
BRANCH   1  28
ATOM     28  C   UNL A   1      38.036  22.303  25.435  1.00  0.00     0.261 C 
BRANCH  28  29
ATOM     29  O   UNL A   1      39.293  21.884  26.211  1.00  0.00    -0.460 OA
BRANCH  29  30
ATOM     30  C   UNL A   1      40.425  21.583  26.888  1.00  0.00     0.338 C 
ATOM     31  O   UNL A   1      40.424  20.601  27.615  1.00  0.00    -0.246 OA
BRANCH  30  32
ATOM     32  C   UNL A   1      41.655  22.465  26.910  1.00  0.00     0.060 A 
ATOM     33  C   UNL A   1      42.710  22.302  27.807  1.00  0.00     0.016 A 
ATOM     34  C   UNL A   1      41.800  23.542  26.092  1.00  0.00     0.016 A 
ATOM     35  C   UNL A   1      43.376  23.429  28.336  1.00  0.00     0.010 A 
ATOM     36  C   UNL A   1      42.265  24.685  26.717  1.00  0.00     0.010 A 
ATOM     37  C   UNL A   1      42.927  24.663  27.947  1.00  0.00    -0.014 A 
BRANCH  37  38
ATOM     38  C   UNL A   1      43.078  25.962  28.625  1.00  0.00     0.031 A 
ATOM     39  C   UNL A   1      41.833  26.784  28.684  1.00  0.00     0.074 A 
ATOM     40  C   UNL A   1      44.180  26.332  29.349  1.00  0.00     0.049 A 
ATOM     41  N   UNL A   1      41.795  28.072  28.672  1.00  0.00    -0.248 NA
ATOM     42  C   UNL A   1      40.486  26.198  28.684  1.00  0.00     0.031 C 
ATOM     43  C   UNL A   1      44.215  27.395  30.369  1.00  0.00     0.029 A 
ATOM     44  N   UNL A   1      45.510  25.863  29.385  1.00  0.00    -0.354 N 
ATOM     45  C   UNL A   1      40.492  28.432  28.978  1.00  0.00     0.074 A 
ATOM     46  C   UNL A   1      39.700  27.259  28.804  1.00  0.00     0.031 C 
ATOM     47  C   UNL A   1      45.483  27.650  30.729  1.00  0.00     0.029 A 
ATOM     48  C   UNL A   1      46.342  26.910  29.831  1.00  0.00     0.049 A 
ATOM     49  H   UNL A   1      45.807  24.957  29.140  1.00  0.00     0.167 HD
ATOM     50  C   UNL A   1      40.231  29.614  29.592  1.00  0.00     0.034 A 
ATOM     51  C   UNL A   1      47.380  27.474  29.139  1.00  0.00     0.034 A 
ATOM     52  C   UNL A   1      41.498  30.295  29.887  1.00  0.00     0.049 A 
ATOM     53  C   UNL A   1      47.048  28.900  28.696  1.00  0.00     0.074 A 
ATOM     54  C   UNL A   1      42.272  30.388  31.033  1.00  0.00     0.029 A 
ATOM     55  N   UNL A   1      42.328  30.653  28.832  1.00  0.00    -0.354 N 
ATOM     56  N   UNL A   1      45.950  29.519  29.038  1.00  0.00    -0.248 NA
ATOM     57  C   UNL A   1      47.882  29.738  27.834  1.00  0.00     0.031 C 
ATOM     58  C   UNL A   1      43.585  30.779  30.646  1.00  0.00     0.029 A 
ATOM     59  C   UNL A   1      43.609  30.947  29.271  1.00  0.00     0.049 A 
ATOM     60  H   UNL A   1      42.041  30.693  27.892  1.00  0.00     0.167 HD
ATOM     61  C   UNL A   1      45.809  30.681  28.331  1.00  0.00     0.074 A 
ATOM     62  C   UNL A   1      47.096  30.821  27.670  1.00  0.00     0.031 C 
ATOM     63  C   UNL A   1      44.624  31.375  28.306  1.00  0.00     0.034 A 
BRANCH  50  64
ATOM     64  C   UNL A   1      38.893  29.974  30.229  1.00  0.00     0.023 A 
ATOM     65  C   UNL A   1      38.419  29.108  31.236  1.00  0.00     0.012 A 
ATOM     66  C   UNL A   1      38.055  31.084  29.929  1.00  0.00     0.148 A 
ATOM     67  C   UNL A   1      37.174  29.276  31.852  1.00  0.00     0.002 A 
ATOM     68  C   UNL A   1      36.776  31.209  30.487  1.00  0.00     0.091 A 
ATOM     69  F   UNL A   1      38.517  32.093  29.184  1.00  0.00    -0.205 F 
ATOM     70  C   UNL A   1      36.336  30.306  31.456  1.00  0.00     0.022 A 
BRANCH  68  71
ATOM     71  S   UNL A   1      35.602  32.477  29.964  1.00  0.00     0.127 S 
ATOM     72  O   UNL A   1      34.753  32.625  31.149  1.00  0.00    -0.237 OA
ATOM     73  O   UNL A   1      36.469  33.620  29.695  1.00  0.00    -0.237 OA
ATOM     74  O   UNL A   1      34.903  31.925  28.809  1.00  0.00    -0.744 OA
ENDBRANCH  68  71
ENDBRANCH  50  64
BRANCH  51  75
ATOM     75  C   UNL A   1      48.211  26.479  28.410  1.00  0.00     0.023 A 
ATOM     76  C   UNL A   1      47.803  26.203  27.078  1.00  0.00     0.012 A 
ATOM     77  C   UNL A   1      49.554  26.321  28.765  1.00  0.00     0.148 A 
ATOM     78  C   UNL A   1      48.745  26.016  26.070  1.00  0.00     0.002 A 
ATOM     79  C   UNL A   1      50.487  26.173  27.748  1.00  0.00     0.091 A 
ATOM     80  F   UNL A   1      49.904  26.495  30.046  1.00  0.00    -0.205 F 
ATOM     81  C   UNL A   1      50.088  26.062  26.402  1.00  0.00     0.022 A 
BRANCH  79  82
ATOM     82  S   UNL A   1      52.212  26.567  27.992  1.00  0.00     0.127 S 
ATOM     83  O   UNL A   1      52.267  27.996  27.710  1.00  0.00    -0.237 OA
ATOM     84  O   UNL A   1      52.328  26.220  29.405  1.00  0.00    -0.237 OA
ATOM     85  O   UNL A   1      52.942  25.711  27.069  1.00  0.00    -0.744 OA
ENDBRANCH  79  82
ENDBRANCH  51  75
BRANCH  63  86
ATOM     86  C   UNL A   1      44.286  32.527  27.364  1.00  0.00     0.023 A 
ATOM     87  C   UNL A   1      44.181  32.359  25.973  1.00  0.00     0.012 A 
ATOM     88  C   UNL A   1      43.946  33.816  27.865  1.00  0.00     0.148 A 
ATOM     89  C   UNL A   1      43.864  33.420  25.117  1.00  0.00     0.002 A 
ATOM     90  C   UNL A   1      43.483  34.823  27.024  1.00  0.00     0.091 A 
ATOM     91  F   UNL A   1      44.104  34.102  29.164  1.00  0.00    -0.205 F 
ATOM     92  C   UNL A   1      43.492  34.647  25.643  1.00  0.00     0.022 A 
BRANCH  90  93
ATOM     93  S   UNL A   1      42.724  36.320  27.672  1.00  0.00     0.127 S 
ATOM     94  O   UNL A   1      42.412  37.050  26.446  1.00  0.00    -0.237 OA
ATOM     95  O   UNL A   1      41.559  35.788  28.382  1.00  0.00    -0.237 OA
ATOM     96  O   UNL A   1      43.727  36.922  28.539  1.00  0.00    -0.744 OA
ENDBRANCH  90  93
ENDBRANCH  63  86
ENDBRANCH  37  38
ENDBRANCH  30  32
ENDBRANCH  29  30
ENDBRANCH  28  29
ENDBRANCH   1  28
TORSDOF 19
ENDMDL
