MODEL 1
REMARK VINA RESULT:      -9.4      0.000      0.000
REMARK SMILES C[C@H]1[C@H](C(=O)OCCOCCOC(=O)c2ccc(-c3c4nc(c(-c5cccc(S(=O)(=O)[O-])c5F)c5ccc([nH]5)c(-c5cccc(S(=O)(=O)[O-])c5F)c5nc(c(-c6cccc(S(=O)(=O)[O-])c6F)c6ccc3[nH]6)C=C5)C=C4)cc2)CCN1C(=O)COc1ccccc1F
REMARK SMILES IDX 8 1 7 2 6 3 4 4 5 5 3 6 1 7 2 8 80 9 78 10 79 11 81 12 82 13
REMARK SMILES IDX 83 14 84 15 85 16 86 17 90 18 87 19 89 20 91 21 88 22 9 23
REMARK SMILES IDX 10 24 11 25 12 26 13 27 14 28 15 29 16 30 77 31 17 32 76 33
REMARK SMILES IDX 18 34 19 35 20 36 70 37 21 38 75 39 69 40 71 41 22 42 74 43
REMARK SMILES IDX 68 44 67 45 23 47 55 48 35 49 54 50 36 51 39 52 53 53 72 54
REMARK SMILES IDX 37 55 38 56 52 58 73 59 40 60 24 61 25 62 33 63 26 64 28 65
REMARK SMILES IDX 34 66 27 67 29 68 30 69 31 70 32 71 56 72 57 73 65 74 58 75
REMARK SMILES IDX 60 76 66 77 59 78 61 79 62 80 63 81 64 82 41 83 42 84 50 85
REMARK SMILES IDX 43 86 45 87 51 88 44 89 46 90 47 91 48 92 49 93
REMARK H PARENT 71 46 39 57
REMARK Flexibility Score: inf
ROOT
ATOM      1  C   UNL A   1      43.532  18.712  25.397  1.00  0.00     0.202 C 
ENDROOT
BRANCH   1   2
ATOM      2  C   UNL A   1      44.501  19.533  24.541  1.00  0.00     0.261 C 
BRANCH   2   3
ATOM      3  O   UNL A   1      44.290  20.948  24.700  1.00  0.00    -0.463 OA
BRANCH   3   4
ATOM      4  C   UNL A   1      45.368  21.674  25.091  1.00  0.00     0.311 C 
ATOM      5  O   UNL A   1      46.528  21.276  25.089  1.00  0.00    -0.252 OA
BRANCH   4   6
ATOM      6  C   UNL A   1      44.994  23.049  25.586  1.00  0.00     0.123 C 
ATOM      7  C   UNL A   1      46.623  24.086  27.182  1.00  0.00     0.032 C 
ATOM      8  C   UNL A   1      46.147  24.072  25.727  1.00  0.00     0.096 C 
ATOM      9  N   UNL A   1      45.554  25.340  25.266  1.00  0.00    -0.336 N 
ATOM     10  C   UNL A   1      44.000  23.698  24.636  1.00  0.00     0.039 C 
ATOM     11  C   UNL A   1      44.150  25.169  24.942  1.00  0.00     0.121 C 
BRANCH   9  12
ATOM     12  C   UNL A   1      46.139  26.568  25.017  1.00  0.00     0.260 C 
ATOM     13  O   UNL A   1      45.527  27.461  24.417  1.00  0.00    -0.271 OA
BRANCH  12  14
ATOM     14  C   UNL A   1      47.562  26.851  25.506  1.00  0.00     0.329 C 
BRANCH  14  15
ATOM     15  O   UNL A   1      48.698  26.415  24.779  1.00  0.00    -0.481 OA
BRANCH  15  16
ATOM     16  C   UNL A   1      49.908  26.349  25.409  1.00  0.00     0.155 A 
ATOM     17  C   UNL A   1      49.917  25.591  26.585  1.00  0.00     0.049 A 
ATOM     18  C   UNL A   1      51.050  27.087  25.094  1.00  0.00     0.165 A 
ATOM     19  C   UNL A   1      51.047  25.559  27.409  1.00  0.00     0.004 A 
ATOM     20  C   UNL A   1      52.183  27.051  25.906  1.00  0.00     0.043 A 
ATOM     21  F   UNL A   1      51.086  27.935  24.063  1.00  0.00    -0.203 F 
ATOM     22  C   UNL A   1      52.183  26.289  27.069  1.00  0.00     0.003 A 
ENDBRANCH  15  16
ENDBRANCH  14  15
ENDBRANCH  12  14
ENDBRANCH   9  12
ENDBRANCH   4   6
ENDBRANCH   3   4
ENDBRANCH   2   3
ENDBRANCH   1   2
BRANCH   1  23
ATOM     23  O   UNL A   1      42.161  19.113  25.359  1.00  0.00    -0.374 OA
BRANCH  23  24
ATOM     24  C   UNL A   1      41.600  19.626  26.566  1.00  0.00     0.202 C 
BRANCH  24  25
ATOM     25  C   UNL A   1      40.252  20.346  26.448  1.00  0.00     0.261 C 
BRANCH  25  26
ATOM     26  O   UNL A   1      40.201  21.539  27.252  1.00  0.00    -0.460 OA
BRANCH  26  27
ATOM     27  C   UNL A   1      39.594  22.588  26.652  1.00  0.00     0.338 C 
ATOM     28  O   UNL A   1      38.514  22.571  26.065  1.00  0.00    -0.246 OA
BRANCH  27  29
ATOM     29  C   UNL A   1      40.310  23.846  26.922  1.00  0.00     0.060 A 
ATOM     30  C   UNL A   1      40.980  23.942  28.148  1.00  0.00     0.016 A 
ATOM     31  C   UNL A   1      40.246  24.945  26.062  1.00  0.00     0.016 A 
ATOM     32  C   UNL A   1      41.509  25.160  28.561  1.00  0.00     0.010 A 
ATOM     33  C   UNL A   1      40.779  26.172  26.480  1.00  0.00     0.010 A 
ATOM     34  C   UNL A   1      41.360  26.296  27.754  1.00  0.00    -0.014 A 
BRANCH  34  35
ATOM     35  C   UNL A   1      41.650  27.626  28.347  1.00  0.00     0.031 A 
ATOM     36  C   UNL A   1      43.079  28.100  28.414  1.00  0.00     0.074 A 
ATOM     37  C   UNL A   1      40.654  28.432  28.757  1.00  0.00     0.049 A 
ATOM     38  N   UNL A   1      43.551  29.258  28.796  1.00  0.00    -0.248 NA
ATOM     39  C   UNL A   1      44.115  27.142  27.989  1.00  0.00     0.031 C 
ATOM     40  C   UNL A   1      39.233  28.088  28.749  1.00  0.00     0.029 A 
ATOM     41  N   UNL A   1      40.691  29.706  29.263  1.00  0.00    -0.354 N 
ATOM     42  C   UNL A   1      44.931  29.164  28.677  1.00  0.00     0.074 A 
ATOM     43  C   UNL A   1      45.227  27.828  28.208  1.00  0.00     0.031 C 
ATOM     44  C   UNL A   1      38.532  29.125  29.241  1.00  0.00     0.029 A 
ATOM     45  C   UNL A   1      39.455  30.201  29.601  1.00  0.00     0.049 A 
ATOM     46  H   UNL A   1      41.525  30.218  29.372  1.00  0.00     0.167 HD
ATOM     47  C   UNL A   1      45.872  30.111  28.909  1.00  0.00     0.034 A 
ATOM     48  C   UNL A   1      39.107  31.387  30.140  1.00  0.00     0.034 A 
ATOM     49  C   UNL A   1      45.580  31.448  29.349  1.00  0.00     0.049 A 
ATOM     50  C   UNL A   1      40.172  32.425  30.386  1.00  0.00     0.074 A 
ATOM     51  C   UNL A   1      46.460  32.493  29.570  1.00  0.00     0.029 A 
ATOM     52  N   UNL A   1      44.312  31.924  29.641  1.00  0.00    -0.354 N 
ATOM     53  N   UNL A   1      41.458  32.365  30.138  1.00  0.00    -0.248 NA
ATOM     54  C   UNL A   1      39.730  33.710  30.948  1.00  0.00     0.031 C 
ATOM     55  C   UNL A   1      45.724  33.598  30.012  1.00  0.00     0.029 A 
ATOM     56  C   UNL A   1      44.384  33.246  30.047  1.00  0.00     0.049 A 
ATOM     57  H   UNL A   1      43.482  31.400  29.570  1.00  0.00     0.167 HD
ATOM     58  C   UNL A   1      41.972  33.613  30.477  1.00  0.00     0.074 A 
ATOM     59  C   UNL A   1      40.852  34.416  30.926  1.00  0.00     0.031 C 
ATOM     60  C   UNL A   1      43.255  34.051  30.437  1.00  0.00     0.034 A 
BRANCH  47  61
ATOM     61  C   UNL A   1      47.309  29.742  28.652  1.00  0.00     0.023 A 
ATOM     62  C   UNL A   1      47.902  30.081  27.419  1.00  0.00     0.012 A 
ATOM     63  C   UNL A   1      48.085  29.107  29.640  1.00  0.00     0.148 A 
ATOM     64  C   UNL A   1      49.237  29.768  27.161  1.00  0.00     0.002 A 
ATOM     65  C   UNL A   1      49.426  28.833  29.392  1.00  0.00     0.091 A 
ATOM     66  F   UNL A   1      47.496  28.768  30.796  1.00  0.00    -0.205 F 
ATOM     67  C   UNL A   1      50.000  29.155  28.151  1.00  0.00     0.022 A 
BRANCH  65  68
ATOM     68  S   UNL A   1      50.508  28.109  30.629  1.00  0.00     0.127 S 
ATOM     69  O   UNL A   1      50.110  26.702  30.581  1.00  0.00    -0.237 OA
ATOM     70  O   UNL A   1      51.836  28.385  30.079  1.00  0.00    -0.237 OA
ATOM     71  O   UNL A   1      50.213  28.803  31.874  1.00  0.00    -0.744 OA
ENDBRANCH  65  68
ENDBRANCH  47  61
BRANCH  48  72
ATOM     72  C   UNL A   1      37.674  31.682  30.426  1.00  0.00     0.023 A 
ATOM     73  C   UNL A   1      37.189  31.567  31.743  1.00  0.00     0.012 A 
ATOM     74  C   UNL A   1      36.798  32.092  29.404  1.00  0.00     0.148 A 
ATOM     75  C   UNL A   1      35.848  31.827  32.032  1.00  0.00     0.002 A 
ATOM     76  C   UNL A   1      35.477  32.402  29.707  1.00  0.00     0.091 A 
ATOM     77  F   UNL A   1      37.274  32.175  28.154  1.00  0.00    -0.205 F 
ATOM     78  C   UNL A   1      34.995  32.255  31.017  1.00  0.00     0.022 A 
BRANCH  76  79
ATOM     79  S   UNL A   1      34.347  33.083  28.489  1.00  0.00     0.127 S 
ATOM     80  O   UNL A   1      33.428  33.848  29.327  1.00  0.00    -0.237 OA
ATOM     81  O   UNL A   1      35.244  33.890  27.661  1.00  0.00    -0.237 OA
ATOM     82  O   UNL A   1      33.774  31.932  27.803  1.00  0.00    -0.744 OA
ENDBRANCH  76  79
ENDBRANCH  48  72
BRANCH  60  83
ATOM     83  C   UNL A   1      43.522  35.472  30.860  1.00  0.00     0.023 A 
ATOM     84  C   UNL A   1      43.858  35.751  32.199  1.00  0.00     0.012 A 
ATOM     85  C   UNL A   1      43.506  36.521  29.920  1.00  0.00     0.148 A 
ATOM     86  C   UNL A   1      44.138  37.055  32.604  1.00  0.00     0.002 A 
ATOM     87  C   UNL A   1      43.832  37.812  30.321  1.00  0.00     0.091 A 
ATOM     88  F   UNL A   1      43.166  36.243  28.653  1.00  0.00    -0.205 F 
ATOM     89  C   UNL A   1      44.136  38.083  31.665  1.00  0.00     0.022 A 
BRANCH  87  90
ATOM     90  S   UNL A   1      43.945  39.173  29.153  1.00  0.00     0.127 S 
ATOM     91  O   UNL A   1      44.767  40.132  29.889  1.00  0.00    -0.237 OA
ATOM     92  O   UNL A   1      44.611  38.552  28.008  1.00  0.00    -0.237 OA
ATOM     93  O   UNL A   1      42.571  39.586  28.896  1.00  0.00    -0.744 OA
ENDBRANCH  87  90
ENDBRANCH  60  83
ENDBRANCH  34  35
ENDBRANCH  27  29
ENDBRANCH  26  27
ENDBRANCH  25  26
ENDBRANCH  24  25
ENDBRANCH  23  24
ENDBRANCH   1  23
TORSDOF 21
ENDMDL
MODEL 2
REMARK VINA RESULT:      -9.4      4.690      8.898
REMARK SMILES C[C@H]1[C@H](C(=O)OCCOCCOC(=O)c2ccc(-c3c4nc(c(-c5cccc(S(=O)(=O)[O-])c5F)c5ccc([nH]5)c(-c5cccc(S(=O)(=O)[O-])c5F)c5nc(c(-c6cccc(S(=O)(=O)[O-])c6F)c6ccc3[nH]6)C=C5)C=C4)cc2)CCN1C(=O)COc1ccccc1F
REMARK SMILES IDX 8 1 7 2 6 3 4 4 5 5 3 6 1 7 2 8 80 9 78 10 79 11 81 12 82 13
REMARK SMILES IDX 83 14 84 15 85 16 86 17 90 18 87 19 89 20 91 21 88 22 9 23
REMARK SMILES IDX 10 24 11 25 12 26 13 27 14 28 15 29 16 30 77 31 17 32 76 33
REMARK SMILES IDX 18 34 19 35 20 36 70 37 21 38 75 39 69 40 71 41 22 42 74 43
REMARK SMILES IDX 68 44 67 45 23 47 55 48 35 49 54 50 36 51 39 52 53 53 72 54
REMARK SMILES IDX 37 55 38 56 52 58 73 59 40 60 24 61 25 62 33 63 26 64 28 65
REMARK SMILES IDX 34 66 27 67 29 68 30 69 31 70 32 71 56 72 57 73 65 74 58 75
REMARK SMILES IDX 60 76 66 77 59 78 61 79 62 80 63 81 64 82 41 83 42 84 50 85
REMARK SMILES IDX 43 86 45 87 51 88 44 89 46 90 47 91 48 92 49 93
REMARK H PARENT 71 46 39 57
REMARK Flexibility Score: inf
ROOT
ATOM      1  C   UNL A   1      36.021  20.542  25.002  1.00  0.00     0.202 C 
ENDROOT
BRANCH   1   2
ATOM      2  C   UNL A   1      34.701  21.085  25.555  1.00  0.00     0.261 C 
BRANCH   2   3
ATOM      3  O   UNL A   1      33.816  21.516  24.505  1.00  0.00    -0.463 OA
BRANCH   3   4
ATOM      4  C   UNL A   1      32.506  21.643  24.839  1.00  0.00     0.311 C 
ATOM      5  O   UNL A   1      31.785  20.733  25.234  1.00  0.00    -0.252 OA
BRANCH   4   6
ATOM      6  C   UNL A   1      31.986  23.044  24.632  1.00  0.00     0.123 C 
ATOM      7  C   UNL A   1      33.600  24.873  25.199  1.00  0.00     0.032 C 
ATOM      8  C   UNL A   1      32.983  24.074  24.048  1.00  0.00     0.096 C 
ATOM      9  N   UNL A   1      32.164  24.873  23.119  1.00  0.00    -0.336 N 
ATOM     10  C   UNL A   1      30.814  23.031  23.664  1.00  0.00     0.039 C 
ATOM     11  C   UNL A   1      30.774  24.455  23.161  1.00  0.00     0.121 C 
BRANCH   9  12
ATOM     12  C   UNL A   1      32.532  25.834  22.196  1.00  0.00     0.260 C 
ATOM     13  O   UNL A   1      33.636  25.801  21.638  1.00  0.00    -0.271 OA
BRANCH  12  14
ATOM     14  C   UNL A   1      31.556  26.956  21.831  1.00  0.00     0.329 C 
BRANCH  14  15
ATOM     15  O   UNL A   1      31.147  27.924  22.782  1.00  0.00    -0.481 OA
BRANCH  15  16
ATOM     16  C   UNL A   1      29.936  28.538  22.630  1.00  0.00     0.155 A 
ATOM     17  C   UNL A   1      29.997  29.835  22.110  1.00  0.00     0.049 A 
ATOM     18  C   UNL A   1      28.705  28.073  23.096  1.00  0.00     0.165 A 
ATOM     19  C   UNL A   1      28.850  30.634  22.039  1.00  0.00     0.004 A 
ATOM     20  C   UNL A   1      27.557  28.862  23.020  1.00  0.00     0.043 A 
ATOM     21  F   UNL A   1      28.579  26.902  23.724  1.00  0.00    -0.203 F 
ATOM     22  C   UNL A   1      27.628  30.147  22.495  1.00  0.00     0.003 A 
ENDBRANCH  15  16
ENDBRANCH  14  15
ENDBRANCH  12  14
ENDBRANCH   9  12
ENDBRANCH   4   6
ENDBRANCH   3   4
ENDBRANCH   2   3
ENDBRANCH   1   2
BRANCH   1  23
ATOM     23  O   UNL A   1      37.006  21.515  24.649  1.00  0.00    -0.374 OA
BRANCH  23  24
ATOM     24  C   UNL A   1      38.238  21.484  25.368  1.00  0.00     0.202 C 
BRANCH  24  25
ATOM     25  C   UNL A   1      38.954  20.131  25.451  1.00  0.00     0.261 C 
BRANCH  25  26
ATOM     26  O   UNL A   1      39.816  20.043  26.601  1.00  0.00    -0.460 OA
BRANCH  26  27
ATOM     27  C   UNL A   1      41.127  19.892  26.302  1.00  0.00     0.338 C 
ATOM     28  O   UNL A   1      41.644  18.928  25.741  1.00  0.00    -0.246 OA
BRANCH  27  29
ATOM     29  C   UNL A   1      41.883  21.124  26.581  1.00  0.00     0.060 A 
ATOM     30  C   UNL A   1      42.200  21.383  27.920  1.00  0.00     0.016 A 
ATOM     31  C   UNL A   1      42.182  22.062  25.588  1.00  0.00     0.016 A 
ATOM     32  C   UNL A   1      42.734  22.613  28.286  1.00  0.00     0.010 A 
ATOM     33  C   UNL A   1      42.720  23.302  25.959  1.00  0.00     0.010 A 
ATOM     34  C   UNL A   1      42.943  23.602  27.315  1.00  0.00    -0.014 A 
BRANCH  34  35
ATOM     35  C   UNL A   1      43.213  24.990  27.767  1.00  0.00     0.031 A 
ATOM     36  C   UNL A   1      44.620  25.522  27.692  1.00  0.00     0.074 A 
ATOM     37  C   UNL A   1      42.211  25.791  28.172  1.00  0.00     0.049 A 
ATOM     38  N   UNL A   1      45.065  26.727  27.938  1.00  0.00    -0.248 NA
ATOM     39  C   UNL A   1      45.667  24.569  27.283  1.00  0.00     0.031 C 
ATOM     40  C   UNL A   1      40.809  25.395  28.293  1.00  0.00     0.029 A 
ATOM     41  N   UNL A   1      42.225  27.107  28.560  1.00  0.00    -0.354 N 
ATOM     42  C   UNL A   1      46.438  26.675  27.732  1.00  0.00     0.074 A 
ATOM     43  C   UNL A   1      46.760  25.314  27.363  1.00  0.00     0.031 C 
ATOM     44  C   UNL A   1      40.097  26.444  28.739  1.00  0.00     0.029 A 
ATOM     45  C   UNL A   1      40.993  27.583  28.938  1.00  0.00     0.049 A 
ATOM     46  H   UNL A   1      43.041  27.658  28.566  1.00  0.00     0.167 HD
ATOM     47  C   UNL A   1      47.348  27.675  27.814  1.00  0.00     0.034 A 
ATOM     48  C   UNL A   1      40.629  28.799  29.394  1.00  0.00     0.034 A 
ATOM     49  C   UNL A   1      47.028  29.034  28.153  1.00  0.00     0.049 A 
ATOM     50  C   UNL A   1      41.661  29.894  29.473  1.00  0.00     0.074 A 
ATOM     51  C   UNL A   1      47.873  30.127  28.220  1.00  0.00     0.029 A 
ATOM     52  N   UNL A   1      45.762  29.486  28.490  1.00  0.00    -0.354 N 
ATOM     53  N   UNL A   1      42.930  29.861  29.142  1.00  0.00    -0.248 NA
ATOM     54  C   UNL A   1      41.201  31.208  29.948  1.00  0.00     0.031 C 
ATOM     55  C   UNL A   1      47.120  31.239  28.613  1.00  0.00     0.029 A 
ATOM     56  C   UNL A   1      45.802  30.841  28.772  1.00  0.00     0.049 A 
ATOM     57  H   UNL A   1      44.953  28.926  28.523  1.00  0.00     0.167 HD
ATOM     58  C   UNL A   1      43.409  31.153  29.334  1.00  0.00     0.074 A 
ATOM     59  C   UNL A   1      42.288  31.951  29.787  1.00  0.00     0.031 C 
ATOM     60  C   UNL A   1      44.666  31.635  29.166  1.00  0.00     0.034 A 
BRANCH  47  61
ATOM     61  C   UNL A   1      48.781  27.338  27.491  1.00  0.00     0.023 A 
ATOM     62  C   UNL A   1      49.545  26.601  28.418  1.00  0.00     0.012 A 
ATOM     63  C   UNL A   1      49.354  27.705  26.258  1.00  0.00     0.148 A 
ATOM     64  C   UNL A   1      50.868  26.259  28.136  1.00  0.00     0.002 A 
ATOM     65  C   UNL A   1      50.660  27.327  25.968  1.00  0.00     0.091 A 
ATOM     66  F   UNL A   1      48.619  28.428  25.401  1.00  0.00    -0.205 F 
ATOM     67  C   UNL A   1      51.420  26.612  26.908  1.00  0.00     0.022 A 
BRANCH  65  68
ATOM     68  S   UNL A   1      51.436  27.674  24.385  1.00  0.00     0.127 S 
ATOM     69  O   UNL A   1      52.758  27.077  24.568  1.00  0.00    -0.237 OA
ATOM     70  O   UNL A   1      50.568  26.957  23.450  1.00  0.00    -0.237 OA
ATOM     71  O   UNL A   1      51.415  29.123  24.239  1.00  0.00    -0.744 OA
ENDBRANCH  65  68
ENDBRANCH  47  61
BRANCH  48  72
ATOM     72  C   UNL A   1      39.207  29.064  29.751  1.00  0.00     0.023 A 
ATOM     73  C   UNL A   1      38.735  28.720  31.032  1.00  0.00     0.012 A 
ATOM     74  C   UNL A   1      38.327  29.671  28.835  1.00  0.00     0.148 A 
ATOM     75  C   UNL A   1      37.404  28.949  31.384  1.00  0.00     0.002 A 
ATOM     76  C   UNL A   1      37.017  29.945  29.210  1.00  0.00     0.091 A 
ATOM     77  F   UNL A   1      38.790  29.970  27.613  1.00  0.00    -0.205 F 
ATOM     78  C   UNL A   1      36.548  29.571  30.479  1.00  0.00     0.022 A 
BRANCH  76  79
ATOM     79  S   UNL A   1      35.888  30.858  28.153  1.00  0.00     0.127 S 
ATOM     80  O   UNL A   1      36.635  32.089  27.910  1.00  0.00    -0.237 OA
ATOM     81  O   UNL A   1      35.769  29.969  26.996  1.00  0.00    -0.237 OA
ATOM     82  O   UNL A   1      34.661  31.000  28.925  1.00  0.00    -0.744 OA
ENDBRANCH  76  79
ENDBRANCH  48  72
BRANCH  60  83
ATOM     83  C   UNL A   1      44.898  33.097  29.443  1.00  0.00     0.023 A 
ATOM     84  C   UNL A   1      45.364  33.504  30.709  1.00  0.00     0.012 A 
ATOM     85  C   UNL A   1      44.719  34.062  28.432  1.00  0.00     0.148 A 
ATOM     86  C   UNL A   1      45.613  34.849  30.975  1.00  0.00     0.002 A 
ATOM     87  C   UNL A   1      45.014  35.396  28.690  1.00  0.00     0.091 A 
ATOM     88  F   UNL A   1      44.257  33.661  27.238  1.00  0.00    -0.205 F 
ATOM     89  C   UNL A   1      45.449  35.793  29.965  1.00  0.00     0.022 A 
BRANCH  87  90
ATOM     90  S   UNL A   1      44.919  36.657  27.414  1.00  0.00     0.127 S 
ATOM     91  O   UNL A   1      45.296  37.860  28.153  1.00  0.00    -0.237 OA
ATOM     92  O   UNL A   1      45.916  36.201  26.444  1.00  0.00    -0.237 OA
ATOM     93  O   UNL A   1      43.547  36.620  26.925  1.00  0.00    -0.744 OA
ENDBRANCH  87  90
ENDBRANCH  60  83
ENDBRANCH  34  35
ENDBRANCH  27  29
ENDBRANCH  26  27
ENDBRANCH  25  26
ENDBRANCH  24  25
ENDBRANCH  23  24
ENDBRANCH   1  23
TORSDOF 21
ENDMDL
MODEL 3
REMARK VINA RESULT:      -9.2      4.275      8.228
REMARK SMILES C[C@H]1[C@H](C(=O)OCCOCCOC(=O)c2ccc(-c3c4nc(c(-c5cccc(S(=O)(=O)[O-])c5F)c5ccc([nH]5)c(-c5cccc(S(=O)(=O)[O-])c5F)c5nc(c(-c6cccc(S(=O)(=O)[O-])c6F)c6ccc3[nH]6)C=C5)C=C4)cc2)CCN1C(=O)COc1ccccc1F
REMARK SMILES IDX 8 1 7 2 6 3 4 4 5 5 3 6 1 7 2 8 80 9 78 10 79 11 81 12 82 13
REMARK SMILES IDX 83 14 84 15 85 16 86 17 90 18 87 19 89 20 91 21 88 22 9 23
REMARK SMILES IDX 10 24 11 25 12 26 13 27 14 28 15 29 16 30 77 31 17 32 76 33
REMARK SMILES IDX 18 34 19 35 20 36 70 37 21 38 75 39 69 40 71 41 22 42 74 43
REMARK SMILES IDX 68 44 67 45 23 47 55 48 35 49 54 50 36 51 39 52 53 53 72 54
REMARK SMILES IDX 37 55 38 56 52 58 73 59 40 60 24 61 25 62 33 63 26 64 28 65
REMARK SMILES IDX 34 66 27 67 29 68 30 69 31 70 32 71 56 72 57 73 65 74 58 75
REMARK SMILES IDX 60 76 66 77 59 78 61 79 62 80 63 81 64 82 41 83 42 84 50 85
REMARK SMILES IDX 43 86 45 87 51 88 44 89 46 90 47 91 48 92 49 93
REMARK H PARENT 71 46 39 57
REMARK Flexibility Score: inf
ROOT
ATOM      1  C   UNL A   1      36.331  22.269  24.232  1.00  0.00     0.202 C 
ENDROOT
BRANCH   1   2
ATOM      2  C   UNL A   1      35.141  21.461  24.755  1.00  0.00     0.261 C 
BRANCH   2   3
ATOM      3  O   UNL A   1      33.948  21.704  23.986  1.00  0.00    -0.463 OA
BRANCH   3   4
ATOM      4  C   UNL A   1      32.804  21.884  24.695  1.00  0.00     0.311 C 
ATOM      5  O   UNL A   1      32.228  21.015  25.340  1.00  0.00    -0.252 OA
BRANCH   4   6
ATOM      6  C   UNL A   1      32.261  23.286  24.578  1.00  0.00     0.123 C 
ATOM      7  C   UNL A   1      33.832  25.099  25.298  1.00  0.00     0.032 C 
ATOM      8  C   UNL A   1      33.248  24.372  24.085  1.00  0.00     0.096 C 
ATOM      9  N   UNL A   1      32.429  25.220  23.200  1.00  0.00    -0.336 N 
ATOM     10  C   UNL A   1      31.105  23.321  23.591  1.00  0.00     0.039 C 
ATOM     11  C   UNL A   1      31.047  24.776  23.189  1.00  0.00     0.121 C 
BRANCH   9  12
ATOM     12  C   UNL A   1      32.793  26.250  22.353  1.00  0.00     0.260 C 
ATOM     13  O   UNL A   1      33.692  26.106  21.515  1.00  0.00    -0.271 OA
BRANCH  12  14
ATOM     14  C   UNL A   1      32.064  27.594  22.426  1.00  0.00     0.329 C 
BRANCH  14  15
ATOM     15  O   UNL A   1      32.559  28.667  23.210  1.00  0.00    -0.481 OA
BRANCH  15  16
ATOM     16  C   UNL A   1      32.535  28.564  24.571  1.00  0.00     0.155 A 
ATOM     17  C   UNL A   1      33.747  28.858  25.204  1.00  0.00     0.049 A 
ATOM     18  C   UNL A   1      31.499  28.041  25.347  1.00  0.00     0.165 A 
ATOM     19  C   UNL A   1      33.908  28.652  26.579  1.00  0.00     0.004 A 
ATOM     20  C   UNL A   1      31.649  27.842  26.718  1.00  0.00     0.043 A 
ATOM     21  F   UNL A   1      30.354  27.613  24.808  1.00  0.00    -0.203 F 
ATOM     22  C   UNL A   1      32.857  28.144  27.337  1.00  0.00     0.003 A 
ENDBRANCH  15  16
ENDBRANCH  14  15
ENDBRANCH  12  14
ENDBRANCH   9  12
ENDBRANCH   4   6
ENDBRANCH   3   4
ENDBRANCH   2   3
ENDBRANCH   1   2
BRANCH   1  23
ATOM     23  O   UNL A   1      37.416  22.459  25.143  1.00  0.00    -0.374 OA
BRANCH  23  24
ATOM     24  C   UNL A   1      38.242  21.329  25.415  1.00  0.00     0.202 C 
BRANCH  24  25
ATOM     25  C   UNL A   1      39.562  21.599  26.145  1.00  0.00     0.261 C 
BRANCH  25  26
ATOM     26  O   UNL A   1      40.206  20.385  26.571  1.00  0.00    -0.460 OA
BRANCH  26  27
ATOM     27  C   UNL A   1      41.478  20.247  26.132  1.00  0.00     0.338 C 
ATOM     28  O   UNL A   1      41.918  19.334  25.436  1.00  0.00    -0.246 OA
BRANCH  27  29
ATOM     29  C   UNL A   1      42.284  21.438  26.449  1.00  0.00     0.060 A 
ATOM     30  C   UNL A   1      42.517  21.701  27.804  1.00  0.00     0.016 A 
ATOM     31  C   UNL A   1      42.711  22.337  25.468  1.00  0.00     0.016 A 
ATOM     32  C   UNL A   1      43.096  22.905  28.192  1.00  0.00     0.010 A 
ATOM     33  C   UNL A   1      43.293  23.551  25.861  1.00  0.00     0.010 A 
ATOM     34  C   UNL A   1      43.434  23.862  27.225  1.00  0.00    -0.014 A 
BRANCH  34  35
ATOM     35  C   UNL A   1      43.752  25.239  27.676  1.00  0.00     0.031 A 
ATOM     36  C   UNL A   1      45.188  25.696  27.674  1.00  0.00     0.074 A 
ATOM     37  C   UNL A   1      42.774  26.098  28.016  1.00  0.00     0.049 A 
ATOM     38  N   UNL A   1      45.682  26.879  27.930  1.00  0.00    -0.248 NA
ATOM     39  C   UNL A   1      46.203  24.684  27.333  1.00  0.00     0.031 C 
ATOM     40  C   UNL A   1      41.348  25.778  28.064  1.00  0.00     0.029 A 
ATOM     41  N   UNL A   1      42.837  27.417  28.391  1.00  0.00    -0.354 N 
ATOM     42  C   UNL A   1      47.059  26.752  27.801  1.00  0.00     0.074 A 
ATOM     43  C   UNL A   1      47.328  25.371  27.465  1.00  0.00     0.031 C 
ATOM     44  C   UNL A   1      40.670  26.869  28.459  1.00  0.00     0.029 A 
ATOM     45  C   UNL A   1      41.613  27.962  28.695  1.00  0.00     0.049 A 
ATOM     46  H   UNL A   1      43.679  27.924  28.436  1.00  0.00     0.167 HD
ATOM     47  C   UNL A   1      48.016  27.703  27.922  1.00  0.00     0.034 A 
ATOM     48  C   UNL A   1      41.291  29.201  29.117  1.00  0.00     0.034 A 
ATOM     49  C   UNL A   1      47.750  29.082  28.229  1.00  0.00     0.049 A 
ATOM     50  C   UNL A   1      42.374  30.242  29.241  1.00  0.00     0.074 A 
ATOM     51  C   UNL A   1      48.648  30.130  28.330  1.00  0.00     0.029 A 
ATOM     52  N   UNL A   1      46.494  29.605  28.490  1.00  0.00    -0.354 N 
ATOM     53  N   UNL A   1      43.655  30.137  28.981  1.00  0.00    -0.248 NA
ATOM     54  C   UNL A   1      41.959  31.584  29.676  1.00  0.00     0.031 C 
ATOM     55  C   UNL A   1      47.935  31.286  28.669  1.00  0.00     0.029 A 
ATOM     56  C   UNL A   1      46.591  30.959  28.759  1.00  0.00     0.049 A 
ATOM     57  H   UNL A   1      45.656  29.089  28.485  1.00  0.00     0.167 HD
ATOM     58  C   UNL A   1      44.191  31.405  29.185  1.00  0.00     0.074 A 
ATOM     59  C   UNL A   1      43.091  32.267  29.567  1.00  0.00     0.031 C 
ATOM     60  C   UNL A   1      45.479  31.817  29.082  1.00  0.00     0.034 A 
BRANCH  47  61
ATOM     61  C   UNL A   1      49.444  27.287  27.683  1.00  0.00     0.023 A 
ATOM     62  C   UNL A   1      50.165  26.658  28.717  1.00  0.00     0.012 A 
ATOM     63  C   UNL A   1      50.055  27.472  26.427  1.00  0.00     0.148 A 
ATOM     64  C   UNL A   1      51.483  26.245  28.516  1.00  0.00     0.002 A 
ATOM     65  C   UNL A   1      51.354  27.023  26.222  1.00  0.00     0.091 A 
ATOM     66  F   UNL A   1      49.361  28.097  25.464  1.00  0.00    -0.205 F 
ATOM     67  C   UNL A   1      52.072  26.418  27.266  1.00  0.00     0.022 A 
BRANCH  65  68
ATOM     68  S   UNL A   1      52.174  27.138  24.627  1.00  0.00     0.127 S 
ATOM     69  O   UNL A   1      53.349  26.293  24.839  1.00  0.00    -0.237 OA
ATOM     70  O   UNL A   1      51.173  26.572  23.722  1.00  0.00    -0.237 OA
ATOM     71  O   UNL A   1      52.447  28.552  24.419  1.00  0.00    -0.744 OA
ENDBRANCH  65  68
ENDBRANCH  47  61
BRANCH  48  72
ATOM     72  C   UNL A   1      39.867  29.546  29.392  1.00  0.00     0.023 A 
ATOM     73  C   UNL A   1      38.992  29.798  28.319  1.00  0.00     0.012 A 
ATOM     74  C   UNL A   1      39.375  29.606  30.709  1.00  0.00     0.148 A 
ATOM     75  C   UNL A   1      37.657  30.135  28.554  1.00  0.00     0.002 A 
ATOM     76  C   UNL A   1      38.032  29.888  30.935  1.00  0.00     0.091 A 
ATOM     77  F   UNL A   1      40.229  29.384  31.718  1.00  0.00    -0.205 F 
ATOM     78  C   UNL A   1      37.175  30.168  29.860  1.00  0.00     0.022 A 
BRANCH  76  79
ATOM     79  S   UNL A   1      37.301  29.825  32.574  1.00  0.00     0.127 S 
ATOM     80  O   UNL A   1      38.102  30.809  33.297  1.00  0.00    -0.237 OA
ATOM     81  O   UNL A   1      35.920  30.230  32.307  1.00  0.00    -0.237 OA
ATOM     82  O   UNL A   1      37.444  28.443  33.011  1.00  0.00    -0.744 OA
ENDBRANCH  76  79
ENDBRANCH  48  72
BRANCH  60  83
ATOM     83  C   UNL A   1      45.774  33.269  29.355  1.00  0.00     0.023 A 
ATOM     84  C   UNL A   1      46.183  33.669  30.643  1.00  0.00     0.012 A 
ATOM     85  C   UNL A   1      45.710  34.227  28.324  1.00  0.00     0.148 A 
ATOM     86  C   UNL A   1      46.488  35.003  30.908  1.00  0.00     0.002 A 
ATOM     87  C   UNL A   1      46.060  35.547  28.584  1.00  0.00     0.091 A 
ATOM     88  F   UNL A   1      45.300  33.834  27.108  1.00  0.00    -0.205 F 
ATOM     89  C   UNL A   1      46.438  35.939  29.878  1.00  0.00     0.022 A 
BRANCH  87  90
ATOM     90  S   UNL A   1      46.113  36.792  27.290  1.00  0.00     0.127 S 
ATOM     91  O   UNL A   1      46.940  37.828  27.904  1.00  0.00    -0.237 OA
ATOM     92  O   UNL A   1      46.754  36.074  26.187  1.00  0.00    -0.237 OA
ATOM     93  O   UNL A   1      44.725  37.158  27.040  1.00  0.00    -0.744 OA
ENDBRANCH  87  90
ENDBRANCH  60  83
ENDBRANCH  34  35
ENDBRANCH  27  29
ENDBRANCH  26  27
ENDBRANCH  25  26
ENDBRANCH  24  25
ENDBRANCH  23  24
ENDBRANCH   1  23
TORSDOF 21
ENDMDL
