MODEL 1
REMARK VINA RESULT:      -9.5      0.000      0.000
REMARK SMILES [NH3+][C@H](C(=O)OCCOCCOC(=O)c1ccc(-c2c3nc(c(-c4cccc(S(=O)(=O)[O-])c4F)c4ccc([nH]4)c(-c4cccc(S(=O)(=O)[O-])c4F)c4nc(c(-c5cccc(S(=O)(=O)[O-])c5F)c5ccc2[nH]5)C=C4)C=C3)cc1)c1ccc(Cl)c(OC(F)(F)F)c1
REMARK SMILES IDX 8 1 7 2 6 3 5 4 3 5 4 6 2 7 1 8 77 12 78 13 88 14 79 15
REMARK SMILES IDX 82 16 80 17 81 18 83 19 84 20 85 21 86 22 87 23 9 24 10 25
REMARK SMILES IDX 11 26 12 27 13 28 14 29 15 30 76 31 16 32 75 33 17 34 18 35
REMARK SMILES IDX 19 36 69 37 20 38 74 39 68 40 70 41 21 42 73 43 67 44 66 45
REMARK SMILES IDX 22 47 54 48 34 49 53 50 35 51 38 52 52 53 71 54 36 55 37 56
REMARK SMILES IDX 51 58 72 59 39 60 23 61 24 62 32 63 25 64 27 65 33 66 26 67
REMARK SMILES IDX 28 68 29 69 30 70 31 71 55 72 56 73 64 74 57 75 59 76 65 77
REMARK SMILES IDX 58 78 60 79 61 80 62 81 63 82 40 83 41 84 49 85 42 86 44 87
REMARK SMILES IDX 50 88 43 89 45 90 46 91 47 92 48 93
REMARK H PARENT 1 9 1 10 1 11 70 46 38 57
REMARK Flexibility Score: inf
ROOT
ATOM      1  O   UNL A   1      33.035  35.554  29.257  1.00  0.00    -0.374 OA
ENDROOT
BRANCH   1   2
ATOM      2  C   UNL A   1      33.212  36.514  30.297  1.00  0.00     0.202 C 
BRANCH   2   3
ATOM      3  C   UNL A   1      33.404  35.971  31.719  1.00  0.00     0.261 C 
BRANCH   3   4
ATOM      4  O   UNL A   1      33.398  34.533  31.772  1.00  0.00    -0.459 OA
BRANCH   4   5
ATOM      5  C   UNL A   1      33.876  33.997  32.926  1.00  0.00     0.369 C 
ATOM      6  O   UNL A   1      33.497  32.928  33.407  1.00  0.00    -0.245 OA
BRANCH   5   7
ATOM      7  C   UNL A   1      34.957  34.855  33.624  1.00  0.00     0.323 C 
BRANCH   7   8
ATOM      8  N   UNL A   1      34.789  34.691  35.099  1.00  0.00    -0.342 N 
ATOM      9  H   UNL A   1      34.024  35.285  35.421  1.00  0.00     0.345 HD
ATOM     10  H   UNL A   1      35.651  34.962  35.572  1.00  0.00     0.345 HD
ATOM     11  H   UNL A   1      34.575  33.717  35.311  1.00  0.00     0.345 HD
ENDBRANCH   7   8
BRANCH   7  12
ATOM     12  C   UNL A   1      36.411  34.637  33.205  1.00  0.00     0.025 A 
ATOM     13  C   UNL A   1      37.466  34.582  34.132  1.00  0.00     0.012 A 
ATOM     14  C   UNL A   1      36.730  34.552  31.832  1.00  0.00     0.059 A 
ATOM     15  C   UNL A   1      38.790  34.466  33.708  1.00  0.00     0.025 A 
ATOM     16  C   UNL A   1      38.061  34.470  31.392  1.00  0.00     0.148 A 
ATOM     17  C   UNL A   1      39.085  34.416  32.347  1.00  0.00     0.083 A 
ATOM     18  Cl  UNL A   1      40.750  34.326  31.885  1.00  0.00    -0.080 Cl
BRANCH  16  19
ATOM     19  O   UNL A   1      38.453  34.439  30.082  1.00  0.00    -0.404 OA
BRANCH  19  20
ATOM     20  C   UNL A   1      38.159  33.279  29.322  1.00  0.00     0.573 C 
ATOM     21  F   UNL A   1      37.446  33.603  28.226  1.00  0.00    -0.132 F 
ATOM     22  F   UNL A   1      39.291  32.642  28.951  1.00  0.00    -0.132 F 
ATOM     23  F   UNL A   1      37.433  32.434  30.083  1.00  0.00    -0.132 F 
ENDBRANCH  19  20
ENDBRANCH  16  19
ENDBRANCH   7  12
ENDBRANCH   5   7
ENDBRANCH   4   5
ENDBRANCH   3   4
ENDBRANCH   2   3
ENDBRANCH   1   2
BRANCH   1  24
ATOM     24  C   UNL A   1      34.165  34.750  28.914  1.00  0.00     0.202 C 
BRANCH  24  25
ATOM     25  C   UNL A   1      33.891  33.409  28.224  1.00  0.00     0.261 C 
BRANCH  25  26
ATOM     26  O   UNL A   1      34.662  32.339  28.798  1.00  0.00    -0.460 OA
BRANCH  26  27
ATOM     27  C   UNL A   1      34.582  31.165  28.126  1.00  0.00     0.338 C 
ATOM     28  O   UNL A   1      33.711  30.833  27.331  1.00  0.00    -0.246 OA
BRANCH  27  29
ATOM     29  C   UNL A   1      35.811  30.374  28.320  1.00  0.00     0.060 A 
ATOM     30  C   UNL A   1      35.940  29.685  29.533  1.00  0.00     0.016 A 
ATOM     31  C   UNL A   1      36.848  30.363  27.384  1.00  0.00     0.016 A 
ATOM     32  C   UNL A   1      37.133  29.038  29.846  1.00  0.00     0.010 A 
ATOM     33  C   UNL A   1      38.048  29.716  27.703  1.00  0.00     0.010 A 
ATOM     34  C   UNL A   1      38.210  29.090  28.952  1.00  0.00    -0.014 A 
BRANCH  34  35
ATOM     35  C   UNL A   1      39.544  28.619  29.400  1.00  0.00     0.031 A 
ATOM     36  C   UNL A   1      40.226  29.330  30.537  1.00  0.00     0.074 A 
ATOM     37  C   UNL A   1      40.126  27.553  28.821  1.00  0.00     0.049 A 
ATOM     38  N   UNL A   1      41.379  29.077  31.099  1.00  0.00    -0.248 NA
ATOM     39  C   UNL A   1      39.516  30.482  31.118  1.00  0.00     0.031 C 
ATOM     40  C   UNL A   1      39.562  26.779  27.718  1.00  0.00     0.029 A 
ATOM     41  N   UNL A   1      41.333  26.951  29.073  1.00  0.00    -0.354 N 
ATOM     42  C   UNL A   1      41.547  30.049  32.078  1.00  0.00     0.074 A 
ATOM     43  C   UNL A   1      40.382  30.906  32.028  1.00  0.00     0.031 C 
ATOM     44  C   UNL A   1      40.432  25.815  27.372  1.00  0.00     0.029 A 
ATOM     45  C   UNL A   1      41.622  25.917  28.216  1.00  0.00     0.049 A 
ATOM     46  H   UNL A   1      41.935  27.233  29.800  1.00  0.00     0.167 HD
ATOM     47  C   UNL A   1      42.568  30.206  32.952  1.00  0.00     0.034 A 
ATOM     48  C   UNL A   1      42.726  25.150  28.115  1.00  0.00     0.034 A 
ATOM     49  C   UNL A   1      43.713  29.337  33.019  1.00  0.00     0.049 A 
ATOM     50  C   UNL A   1      43.857  25.358  29.088  1.00  0.00     0.074 A 
ATOM     51  C   UNL A   1      44.772  29.379  33.908  1.00  0.00     0.029 A 
ATOM     52  N   UNL A   1      43.953  28.279  32.158  1.00  0.00    -0.354 N 
ATOM     53  N   UNL A   1      43.940  26.197  30.092  1.00  0.00    -0.248 NA
ATOM     54  C   UNL A   1      45.035  24.489  28.936  1.00  0.00     0.031 C 
ATOM     55  C   UNL A   1      45.668  28.360  33.567  1.00  0.00     0.029 A 
ATOM     56  C   UNL A   1      45.152  27.669  32.482  1.00  0.00     0.049 A 
ATOM     57  H   UNL A   1      43.359  28.002  31.423  1.00  0.00     0.167 HD
ATOM     58  C   UNL A   1      45.157  25.933  30.713  1.00  0.00     0.074 A 
ATOM     59  C   UNL A   1      45.770  24.843  29.982  1.00  0.00     0.031 C 
ATOM     60  C   UNL A   1      45.723  26.547  31.782  1.00  0.00     0.034 A 
BRANCH  47  61
ATOM     61  C   UNL A   1      42.485  31.348  33.930  1.00  0.00     0.023 A 
ATOM     62  C   UNL A   1      43.242  32.516  33.705  1.00  0.00     0.012 A 
ATOM     63  C   UNL A   1      41.616  31.288  35.038  1.00  0.00     0.148 A 
ATOM     64  C   UNL A   1      43.155  33.597  34.581  1.00  0.00     0.002 A 
ATOM     65  C   UNL A   1      41.505  32.386  35.884  1.00  0.00     0.091 A 
ATOM     66  F   UNL A   1      40.925  30.160  35.248  1.00  0.00    -0.205 F 
ATOM     67  C   UNL A   1      42.281  33.535  35.663  1.00  0.00     0.022 A 
BRANCH  65  68
ATOM     68  S   UNL A   1      40.352  32.432  37.260  1.00  0.00     0.127 S 
ATOM     69  O   UNL A   1      41.199  31.997  38.370  1.00  0.00    -0.237 OA
ATOM     70  O   UNL A   1      39.976  33.846  37.300  1.00  0.00    -0.237 OA
ATOM     71  O   UNL A   1      39.269  31.526  36.907  1.00  0.00    -0.744 OA
ENDBRANCH  65  68
ENDBRANCH  47  61
BRANCH  48  72
ATOM     72  C   UNL A   1      42.800  24.083  27.076  1.00  0.00     0.023 A 
ATOM     73  C   UNL A   1      43.534  24.312  25.896  1.00  0.00     0.012 A 
ATOM     74  C   UNL A   1      42.162  22.841  27.257  1.00  0.00     0.148 A 
ATOM     75  C   UNL A   1      43.608  23.334  24.903  1.00  0.00     0.002 A 
ATOM     76  C   UNL A   1      42.286  21.851  26.290  1.00  0.00     0.091 A 
ATOM     77  F   UNL A   1      41.450  22.649  28.377  1.00  0.00    -0.205 F 
ATOM     78  C   UNL A   1      42.994  22.101  25.105  1.00  0.00     0.022 A 
BRANCH  76  79
ATOM     79  S   UNL A   1      41.638  20.192  26.526  1.00  0.00     0.127 S 
ATOM     80  O   UNL A   1      40.197  20.426  26.503  1.00  0.00    -0.237 OA
ATOM     81  O   UNL A   1      42.168  19.491  25.354  1.00  0.00    -0.237 OA
ATOM     82  O   UNL A   1      42.188  19.734  27.794  1.00  0.00    -0.744 OA
ENDBRANCH  76  79
ENDBRANCH  48  72
BRANCH  60  83
ATOM     83  C   UNL A   1      47.060  26.039  32.256  1.00  0.00     0.023 A 
ATOM     84  C   UNL A   1      48.246  26.582  31.724  1.00  0.00     0.012 A 
ATOM     85  C   UNL A   1      47.140  25.082  33.288  1.00  0.00     0.148 A 
ATOM     86  C   UNL A   1      49.490  26.158  32.188  1.00  0.00     0.002 A 
ATOM     87  C   UNL A   1      48.383  24.700  33.779  1.00  0.00     0.091 A 
ATOM     88  F   UNL A   1      46.002  24.563  33.770  1.00  0.00    -0.205 F 
ATOM     89  C   UNL A   1      49.559  25.228  33.223  1.00  0.00     0.022 A 
BRANCH  87  90
ATOM     90  S   UNL A   1      48.563  23.581  35.173  1.00  0.00     0.127 S 
ATOM     91  O   UNL A   1      47.584  24.118  36.116  1.00  0.00    -0.237 OA
ATOM     92  O   UNL A   1      48.200  22.290  34.586  1.00  0.00    -0.237 OA
ATOM     93  O   UNL A   1      49.956  23.682  35.588  1.00  0.00    -0.744 OA
ENDBRANCH  87  90
ENDBRANCH  60  83
ENDBRANCH  34  35
ENDBRANCH  27  29
ENDBRANCH  26  27
ENDBRANCH  25  26
ENDBRANCH  24  25
ENDBRANCH   1  24
TORSDOF 21
ENDMDL
MODEL 2
REMARK VINA RESULT:      -9.4      4.572      6.906
REMARK SMILES [NH3+][C@H](C(=O)OCCOCCOC(=O)c1ccc(-c2c3nc(c(-c4cccc(S(=O)(=O)[O-])c4F)c4ccc([nH]4)c(-c4cccc(S(=O)(=O)[O-])c4F)c4nc(c(-c5cccc(S(=O)(=O)[O-])c5F)c5ccc2[nH]5)C=C4)C=C3)cc1)c1ccc(Cl)c(OC(F)(F)F)c1
REMARK SMILES IDX 8 1 7 2 6 3 5 4 3 5 4 6 2 7 1 8 77 12 78 13 88 14 79 15
REMARK SMILES IDX 82 16 80 17 81 18 83 19 84 20 85 21 86 22 87 23 9 24 10 25
REMARK SMILES IDX 11 26 12 27 13 28 14 29 15 30 76 31 16 32 75 33 17 34 18 35
REMARK SMILES IDX 19 36 69 37 20 38 74 39 68 40 70 41 21 42 73 43 67 44 66 45
REMARK SMILES IDX 22 47 54 48 34 49 53 50 35 51 38 52 52 53 71 54 36 55 37 56
REMARK SMILES IDX 51 58 72 59 39 60 23 61 24 62 32 63 25 64 27 65 33 66 26 67
REMARK SMILES IDX 28 68 29 69 30 70 31 71 55 72 56 73 64 74 57 75 59 76 65 77
REMARK SMILES IDX 58 78 60 79 61 80 62 81 63 82 40 83 41 84 49 85 42 86 44 87
REMARK SMILES IDX 50 88 43 89 45 90 46 91 47 92 48 93
REMARK H PARENT 1 9 1 10 1 11 70 46 38 57
REMARK Flexibility Score: inf
ROOT
ATOM      1  O   UNL A   1      32.451  30.237  26.365  1.00  0.00    -0.374 OA
ENDROOT
BRANCH   1   2
ATOM      2  C   UNL A   1      32.378  29.050  25.577  1.00  0.00     0.202 C 
BRANCH   2   3
ATOM      3  C   UNL A   1      31.328  29.020  24.459  1.00  0.00     0.261 C 
BRANCH   3   4
ATOM      4  O   UNL A   1      31.895  28.726  23.169  1.00  0.00    -0.459 OA
BRANCH   4   5
ATOM      5  C   UNL A   1      31.204  27.820  22.429  1.00  0.00     0.369 C 
ATOM      6  O   UNL A   1      30.032  27.957  22.078  1.00  0.00    -0.245 OA
BRANCH   5   7
ATOM      7  C   UNL A   1      32.014  26.558  22.053  1.00  0.00     0.323 C 
BRANCH   7   8
ATOM      8  N   UNL A   1      33.166  26.989  21.206  1.00  0.00    -0.342 N 
ATOM      9  H   UNL A   1      33.702  26.170  20.920  1.00  0.00     0.345 HD
ATOM     10  H   UNL A   1      33.765  27.617  21.742  1.00  0.00     0.345 HD
ATOM     11  H   UNL A   1      32.818  27.474  20.379  1.00  0.00     0.345 HD
ENDBRANCH   7   8
BRANCH   7  12
ATOM     12  C   UNL A   1      32.473  25.648  23.192  1.00  0.00     0.025 A 
ATOM     13  C   UNL A   1      33.814  25.574  23.607  1.00  0.00     0.012 A 
ATOM     14  C   UNL A   1      31.537  24.796  23.817  1.00  0.00     0.059 A 
ATOM     15  C   UNL A   1      34.211  24.671  24.595  1.00  0.00     0.025 A 
ATOM     16  C   UNL A   1      31.931  23.859  24.786  1.00  0.00     0.148 A 
ATOM     17  C   UNL A   1      33.276  23.816  25.176  1.00  0.00     0.083 A 
ATOM     18  Cl  UNL A   1      33.842  22.683  26.354  1.00  0.00    -0.080 Cl
BRANCH  16  19
ATOM     19  O   UNL A   1      31.095  22.963  25.397  1.00  0.00    -0.404 OA
BRANCH  19  20
ATOM     20  C   UNL A   1      30.454  23.358  26.597  1.00  0.00     0.573 C 
ATOM     21  F   UNL A   1      29.659  22.371  27.052  1.00  0.00    -0.132 F 
ATOM     22  F   UNL A   1      31.360  23.681  27.547  1.00  0.00    -0.132 F 
ATOM     23  F   UNL A   1      29.700  24.449  26.349  1.00  0.00    -0.132 F 
ENDBRANCH  19  20
ENDBRANCH  16  19
ENDBRANCH   7  12
ENDBRANCH   5   7
ENDBRANCH   4   5
ENDBRANCH   3   4
ENDBRANCH   2   3
ENDBRANCH   1   2
BRANCH   1  24
ATOM     24  C   UNL A   1      31.369  31.162  26.249  1.00  0.00     0.202 C 
BRANCH  24  25
ATOM     25  C   UNL A   1      31.488  32.485  27.016  1.00  0.00     0.261 C 
BRANCH  25  26
ATOM     26  O   UNL A   1      32.750  33.133  26.784  1.00  0.00    -0.460 OA
BRANCH  26  27
ATOM     27  C   UNL A   1      33.332  33.646  27.894  1.00  0.00     0.338 C 
ATOM     28  O   UNL A   1      32.849  34.469  28.662  1.00  0.00    -0.246 OA
BRANCH  27  29
ATOM     29  C   UNL A   1      34.588  32.934  28.195  1.00  0.00     0.060 A 
ATOM     30  C   UNL A   1      34.476  31.628  28.692  1.00  0.00     0.016 A 
ATOM     31  C   UNL A   1      35.840  33.542  28.073  1.00  0.00     0.016 A 
ATOM     32  C   UNL A   1      35.609  30.951  29.135  1.00  0.00     0.010 A 
ATOM     33  C   UNL A   1      36.976  32.860  28.525  1.00  0.00     0.010 A 
ATOM     34  C   UNL A   1      36.859  31.581  29.098  1.00  0.00    -0.014 A 
BRANCH  34  35
ATOM     35  C   UNL A   1      38.006  30.952  29.798  1.00  0.00     0.031 A 
ATOM     36  C   UNL A   1      38.299  31.347  31.220  1.00  0.00     0.074 A 
ATOM     37  C   UNL A   1      38.759  30.021  29.185  1.00  0.00     0.049 A 
ATOM     38  N   UNL A   1      39.234  30.913  32.024  1.00  0.00    -0.248 NA
ATOM     39  C   UNL A   1      37.421  32.369  31.817  1.00  0.00     0.031 C 
ATOM     40  C   UNL A   1      38.570  29.551  27.815  1.00  0.00     0.029 A 
ATOM     41  N   UNL A   1      39.847  29.317  29.636  1.00  0.00    -0.354 N 
ATOM     42  C   UNL A   1      39.078  31.624  33.208  1.00  0.00     0.074 A 
ATOM     43  C   UNL A   1      37.964  32.527  33.016  1.00  0.00     0.031 C 
ATOM     44  C   UNL A   1      39.525  28.650  27.527  1.00  0.00     0.029 A 
ATOM     45  C   UNL A   1      40.403  28.495  28.686  1.00  0.00     0.049 A 
ATOM     46  H   UNL A   1      40.196  29.394  30.554  1.00  0.00     0.167 HD
ATOM     47  C   UNL A   1      39.786  31.524  34.357  1.00  0.00     0.034 A 
ATOM     48  C   UNL A   1      41.503  27.717  28.740  1.00  0.00     0.034 A 
ATOM     49  C   UNL A   1      40.876  30.607  34.556  1.00  0.00     0.049 A 
ATOM     50  C   UNL A   1      42.284  27.638  30.027  1.00  0.00     0.074 A 
ATOM     51  C   UNL A   1      41.618  30.389  35.703  1.00  0.00     0.029 A 
ATOM     52  N   UNL A   1      41.388  29.764  33.582  1.00  0.00    -0.354 N 
ATOM     53  N   UNL A   1      42.042  28.218  31.177  1.00  0.00    -0.248 NA
ATOM     54  C   UNL A   1      43.472  26.770  30.032  1.00  0.00     0.031 C 
ATOM     55  C   UNL A   1      42.597  29.433  35.415  1.00  0.00     0.029 A 
ATOM     56  C   UNL A   1      42.447  29.037  34.095  1.00  0.00     0.049 A 
ATOM     57  H   UNL A   1      41.049  29.695  32.661  1.00  0.00     0.167 HD
ATOM     58  C   UNL A   1      43.022  27.758  32.052  1.00  0.00     0.074 A 
ATOM     59  C   UNL A   1      43.851  26.836  31.302  1.00  0.00     0.031 C 
ATOM     60  C   UNL A   1      43.227  28.080  33.354  1.00  0.00     0.034 A 
BRANCH  47  61
ATOM     61  C   UNL A   1      39.388  32.413  35.506  1.00  0.00     0.023 A 
ATOM     62  C   UNL A   1      38.550  31.908  36.521  1.00  0.00     0.012 A 
ATOM     63  C   UNL A   1      39.890  33.725  35.612  1.00  0.00     0.148 A 
ATOM     64  C   UNL A   1      38.195  32.703  37.610  1.00  0.00     0.002 A 
ATOM     65  C   UNL A   1      39.565  34.498  36.721  1.00  0.00     0.091 A 
ATOM     66  F   UNL A   1      40.665  34.195  34.624  1.00  0.00    -0.205 F 
ATOM     67  C   UNL A   1      38.710  33.992  37.714  1.00  0.00     0.022 A 
BRANCH  65  68
ATOM     68  S   UNL A   1      40.238  36.142  36.983  1.00  0.00     0.127 S 
ATOM     69  O   UNL A   1      39.873  36.814  35.737  1.00  0.00    -0.237 OA
ATOM     70  O   UNL A   1      39.494  36.595  38.160  1.00  0.00    -0.237 OA
ATOM     71  O   UNL A   1      41.666  35.961  37.202  1.00  0.00    -0.744 OA
ENDBRANCH  65  68
ENDBRANCH  47  61
BRANCH  48  72
ATOM     72  C   UNL A   1      41.909  26.917  27.551  1.00  0.00     0.023 A 
ATOM     73  C   UNL A   1      42.529  27.558  26.460  1.00  0.00     0.012 A 
ATOM     74  C   UNL A   1      41.701  25.525  27.500  1.00  0.00     0.148 A 
ATOM     75  C   UNL A   1      42.907  26.832  25.330  1.00  0.00     0.002 A 
ATOM     76  C   UNL A   1      42.130  24.800  26.396  1.00  0.00     0.091 A 
ATOM     77  F   UNL A   1      41.091  24.935  28.538  1.00  0.00    -0.205 F 
ATOM     78  C   UNL A   1      42.719  25.453  25.302  1.00  0.00     0.022 A 
BRANCH  76  79
ATOM     79  S   UNL A   1      42.046  23.006  26.332  1.00  0.00     0.127 S 
ATOM     80  O   UNL A   1      40.606  22.771  26.398  1.00  0.00    -0.237 OA
ATOM     81  O   UNL A   1      42.659  22.720  25.034  1.00  0.00    -0.237 OA
ATOM     82  O   UNL A   1      42.819  22.537  27.474  1.00  0.00    -0.744 OA
ENDBRANCH  76  79
ENDBRANCH  48  72
BRANCH  60  83
ATOM     83  C   UNL A   1      44.370  27.409  34.071  1.00  0.00     0.023 A 
ATOM     84  C   UNL A   1      45.656  27.981  34.029  1.00  0.00     0.012 A 
ATOM     85  C   UNL A   1      44.151  26.257  34.854  1.00  0.00     0.148 A 
ATOM     86  C   UNL A   1      46.713  27.400  34.728  1.00  0.00     0.002 A 
ATOM     87  C   UNL A   1      45.198  25.712  35.587  1.00  0.00     0.091 A 
ATOM     88  F   UNL A   1      42.924  25.717  34.868  1.00  0.00    -0.205 F 
ATOM     89  C   UNL A   1      46.483  26.275  35.516  1.00  0.00     0.022 A 
BRANCH  87  90
ATOM     90  S   UNL A   1      44.970  24.323  36.702  1.00  0.00     0.127 S 
ATOM     91  O   UNL A   1      44.436  23.302  35.802  1.00  0.00    -0.237 OA
ATOM     92  O   UNL A   1      46.334  24.070  37.169  1.00  0.00    -0.237 OA
ATOM     93  O   UNL A   1      44.057  24.787  37.737  1.00  0.00    -0.744 OA
ENDBRANCH  87  90
ENDBRANCH  60  83
ENDBRANCH  34  35
ENDBRANCH  27  29
ENDBRANCH  26  27
ENDBRANCH  25  26
ENDBRANCH  24  25
ENDBRANCH   1  24
TORSDOF 21
ENDMDL
MODEL 3
REMARK VINA RESULT:      -9.4      1.721      7.822
REMARK SMILES [NH3+][C@H](C(=O)OCCOCCOC(=O)c1ccc(-c2c3nc(c(-c4cccc(S(=O)(=O)[O-])c4F)c4ccc([nH]4)c(-c4cccc(S(=O)(=O)[O-])c4F)c4nc(c(-c5cccc(S(=O)(=O)[O-])c5F)c5ccc2[nH]5)C=C4)C=C3)cc1)c1ccc(Cl)c(OC(F)(F)F)c1
REMARK SMILES IDX 8 1 7 2 6 3 5 4 3 5 4 6 2 7 1 8 77 12 78 13 88 14 79 15
REMARK SMILES IDX 82 16 80 17 81 18 83 19 84 20 85 21 86 22 87 23 9 24 10 25
REMARK SMILES IDX 11 26 12 27 13 28 14 29 15 30 76 31 16 32 75 33 17 34 18 35
REMARK SMILES IDX 19 36 69 37 20 38 74 39 68 40 70 41 21 42 73 43 67 44 66 45
REMARK SMILES IDX 22 47 54 48 34 49 53 50 35 51 38 52 52 53 71 54 36 55 37 56
REMARK SMILES IDX 51 58 72 59 39 60 23 61 24 62 32 63 25 64 27 65 33 66 26 67
REMARK SMILES IDX 28 68 29 69 30 70 31 71 55 72 56 73 64 74 57 75 59 76 65 77
REMARK SMILES IDX 58 78 60 79 61 80 62 81 63 82 40 83 41 84 49 85 42 86 44 87
REMARK SMILES IDX 50 88 43 89 45 90 46 91 47 92 48 93
REMARK H PARENT 1 9 1 10 1 11 70 46 38 57
REMARK Flexibility Score: inf
ROOT
ATOM      1  O   UNL A   1      32.811  34.820  29.471  1.00  0.00    -0.374 OA
ENDROOT
BRANCH   1   2
ATOM      2  C   UNL A   1      33.340  35.923  30.205  1.00  0.00     0.202 C 
BRANCH   2   3
ATOM      3  C   UNL A   1      32.882  36.073  31.662  1.00  0.00     0.261 C 
BRANCH   3   4
ATOM      4  O   UNL A   1      32.700  34.807  32.322  1.00  0.00    -0.459 OA
BRANCH   4   5
ATOM      5  C   UNL A   1      33.848  34.153  32.643  1.00  0.00     0.369 C 
ATOM      6  O   UNL A   1      34.057  32.961  32.417  1.00  0.00    -0.245 OA
BRANCH   5   7
ATOM      7  C   UNL A   1      34.905  35.037  33.345  1.00  0.00     0.323 C 
BRANCH   7   8
ATOM      8  N   UNL A   1      34.580  35.070  34.802  1.00  0.00    -0.342 N 
ATOM      9  H   UNL A   1      35.338  34.636  35.329  1.00  0.00     0.345 HD
ATOM     10  H   UNL A   1      33.713  34.558  34.968  1.00  0.00     0.345 HD
ATOM     11  H   UNL A   1      34.467  36.038  35.104  1.00  0.00     0.345 HD
ENDBRANCH   7   8
BRANCH   7  12
ATOM     12  C   UNL A   1      36.377  34.695  33.114  1.00  0.00     0.025 A 
ATOM     13  C   UNL A   1      37.286  34.512  34.170  1.00  0.00     0.012 A 
ATOM     14  C   UNL A   1      36.871  34.621  31.794  1.00  0.00     0.059 A 
ATOM     15  C   UNL A   1      38.640  34.283  33.922  1.00  0.00     0.025 A 
ATOM     16  C   UNL A   1      38.237  34.425  31.531  1.00  0.00     0.148 A 
ATOM     17  C   UNL A   1      39.113  34.246  32.611  1.00  0.00     0.083 A 
ATOM     18  Cl  UNL A   1      40.810  34.013  32.371  1.00  0.00    -0.080 Cl
BRANCH  16  19
ATOM     19  O   UNL A   1      38.800  34.397  30.285  1.00  0.00    -0.404 OA
BRANCH  19  20
ATOM     20  C   UNL A   1      38.556  33.265  29.467  1.00  0.00     0.573 C 
ATOM     21  F   UNL A   1      38.025  33.643  28.288  1.00  0.00    -0.132 F 
ATOM     22  F   UNL A   1      39.695  32.571  29.247  1.00  0.00    -0.132 F 
ATOM     23  F   UNL A   1      37.686  32.452  30.098  1.00  0.00    -0.132 F 
ENDBRANCH  19  20
ENDBRANCH  16  19
ENDBRANCH   7  12
ENDBRANCH   5   7
ENDBRANCH   4   5
ENDBRANCH   3   4
ENDBRANCH   2   3
ENDBRANCH   1   2
BRANCH   1  24
ATOM     24  C   UNL A   1      33.623  34.284  28.426  1.00  0.00     0.202 C 
BRANCH  24  25
ATOM     25  C   UNL A   1      34.683  33.248  28.820  1.00  0.00     0.261 C 
BRANCH  25  26
ATOM     26  O   UNL A   1      35.009  32.368  27.732  1.00  0.00    -0.460 OA
BRANCH  26  27
ATOM     27  C   UNL A   1      34.726  31.063  27.959  1.00  0.00     0.338 C 
ATOM     28  O   UNL A   1      33.646  30.508  27.794  1.00  0.00    -0.246 OA
BRANCH  27  29
ATOM     29  C   UNL A   1      35.958  30.311  28.257  1.00  0.00     0.060 A 
ATOM     30  C   UNL A   1      36.004  29.620  29.476  1.00  0.00     0.016 A 
ATOM     31  C   UNL A   1      37.072  30.336  27.414  1.00  0.00     0.016 A 
ATOM     32  C   UNL A   1      37.185  29.010  29.889  1.00  0.00     0.010 A 
ATOM     33  C   UNL A   1      38.260  29.726  27.834  1.00  0.00     0.010 A 
ATOM     34  C   UNL A   1      38.333  29.101  29.092  1.00  0.00    -0.014 A 
BRANCH  34  35
ATOM     35  C   UNL A   1      39.638  28.670  29.652  1.00  0.00     0.031 A 
ATOM     36  C   UNL A   1      40.392  27.557  28.975  1.00  0.00     0.074 A 
ATOM     37  C   UNL A   1      40.158  29.281  30.732  1.00  0.00     0.049 A 
ATOM     38  N   UNL A   1      41.552  27.038  29.282  1.00  0.00    -0.248 NA
ATOM     39  C   UNL A   1      39.755  26.948  27.795  1.00  0.00     0.031 C 
ATOM     40  C   UNL A   1      39.526  30.374  31.469  1.00  0.00     0.029 A 
ATOM     41  N   UNL A   1      41.332  29.054  31.406  1.00  0.00    -0.354 N 
ATOM     42  C   UNL A   1      41.772  26.025  28.355  1.00  0.00     0.074 A 
ATOM     43  C   UNL A   1      40.620  25.995  27.480  1.00  0.00     0.031 C 
ATOM     44  C   UNL A   1      40.310  30.709  32.508  1.00  0.00     0.029 A 
ATOM     45  C   UNL A   1      41.488  29.842  32.520  1.00  0.00     0.049 A 
ATOM     46  H   UNL A   1      41.999  28.389  31.117  1.00  0.00     0.167 HD
ATOM     47  C   UNL A   1      42.841  25.205  28.232  1.00  0.00     0.034 A 
ATOM     48  C   UNL A   1      42.463  29.853  33.452  1.00  0.00     0.034 A 
ATOM     49  C   UNL A   1      43.998  25.254  29.086  1.00  0.00     0.049 A 
ATOM     50  C   UNL A   1      43.634  28.916  33.301  1.00  0.00     0.074 A 
ATOM     51  C   UNL A   1      45.158  24.505  29.006  1.00  0.00     0.029 A 
ATOM     52  N   UNL A   1      44.136  26.090  30.183  1.00  0.00    -0.354 N 
ATOM     53  N   UNL A   1      43.887  28.058  32.343  1.00  0.00    -0.248 NA
ATOM     54  C   UNL A   1      44.671  28.975  34.342  1.00  0.00     0.031 C 
ATOM     55  C   UNL A   1      45.987  24.869  30.072  1.00  0.00     0.029 A 
ATOM     56  C   UNL A   1      45.354  25.864  30.799  1.00  0.00     0.049 A 
ATOM     57  H   UNL A   1      43.465  26.746  30.480  1.00  0.00     0.167 HD
ATOM     58  C   UNL A   1      45.126  27.501  32.645  1.00  0.00     0.074 A 
ATOM     59  C   UNL A   1      45.581  28.135  33.866  1.00  0.00     0.031 C 
ATOM     60  C   UNL A   1      45.819  26.543  31.981  1.00  0.00     0.034 A 
BRANCH  47  61
ATOM     61  C   UNL A   1      42.827  24.197  27.114  1.00  0.00     0.023 A 
ATOM     62  C   UNL A   1      43.461  24.501  25.892  1.00  0.00     0.012 A 
ATOM     63  C   UNL A   1      42.240  22.928  27.292  1.00  0.00     0.148 A 
ATOM     64  C   UNL A   1      43.487  23.569  24.855  1.00  0.00     0.002 A 
ATOM     65  C   UNL A   1      42.306  21.990  26.269  1.00  0.00     0.091 A 
ATOM     66  F   UNL A   1      41.621  22.668  28.452  1.00  0.00    -0.205 F 
ATOM     67  C   UNL A   1      42.920  22.313  25.047  1.00  0.00     0.022 A 
BRANCH  65  68
ATOM     68  S   UNL A   1      41.671  20.320  26.446  1.00  0.00     0.127 S 
ATOM     69  O   UNL A   1      42.230  19.927  27.740  1.00  0.00    -0.237 OA
ATOM     70  O   UNL A   1      40.224  20.538  26.449  1.00  0.00    -0.237 OA
ATOM     71  O   UNL A   1      42.170  19.576  25.298  1.00  0.00    -0.744 OA
ENDBRANCH  65  68
ENDBRANCH  47  61
BRANCH  48  72
ATOM     72  C   UNL A   1      42.395  30.813  34.589  1.00  0.00     0.023 A 
ATOM     73  C   UNL A   1      41.692  30.457  35.757  1.00  0.00     0.012 A 
ATOM     74  C   UNL A   1      43.034  32.066  34.528  1.00  0.00     0.148 A 
ATOM     75  C   UNL A   1      41.604  31.343  36.832  1.00  0.00     0.002 A 
ATOM     76  C   UNL A   1      42.990  32.921  35.623  1.00  0.00     0.091 A 
ATOM     77  F   UNL A   1      43.680  32.396  33.401  1.00  0.00    -0.205 F 
ATOM     78  C   UNL A   1      42.261  32.569  36.770  1.00  0.00     0.022 A 
BRANCH  76  79
ATOM     79  S   UNL A   1      43.915  34.460  35.678  1.00  0.00     0.127 S 
ATOM     80  O   UNL A   1      43.251  35.246  34.641  1.00  0.00    -0.237 OA
ATOM     81  O   UNL A   1      43.668  34.913  37.048  1.00  0.00    -0.237 OA
ATOM     82  O   UNL A   1      45.299  34.094  35.410  1.00  0.00    -0.744 OA
ENDBRANCH  76  79
ENDBRANCH  48  72
BRANCH  60  83
ATOM     83  C   UNL A   1      47.161  26.137  32.533  1.00  0.00     0.023 A 
ATOM     84  C   UNL A   1      47.243  25.107  33.491  1.00  0.00     0.012 A 
ATOM     85  C   UNL A   1      48.347  26.720  32.042  1.00  0.00     0.148 A 
ATOM     86  C   UNL A   1      48.481  24.686  33.974  1.00  0.00     0.002 A 
ATOM     87  C   UNL A   1      49.579  26.261  32.493  1.00  0.00     0.091 A 
ATOM     88  F   UNL A   1      48.248  27.711  31.144  1.00  0.00    -0.205 F 
ATOM     89  C   UNL A   1      49.648  25.253  33.467  1.00  0.00     0.022 A 
BRANCH  87  90
ATOM     90  S   UNL A   1      51.133  26.867  31.825  1.00  0.00     0.127 S 
ATOM     91  O   UNL A   1      51.083  28.282  32.190  1.00  0.00    -0.237 OA
ATOM     92  O   UNL A   1      52.119  26.080  32.567  1.00  0.00    -0.237 OA
ATOM     93  O   UNL A   1      51.091  26.585  30.397  1.00  0.00    -0.744 OA
ENDBRANCH  87  90
ENDBRANCH  60  83
ENDBRANCH  34  35
ENDBRANCH  27  29
ENDBRANCH  26  27
ENDBRANCH  25  26
ENDBRANCH  24  25
ENDBRANCH   1  24
TORSDOF 21
ENDMDL
