MODEL 1
REMARK VINA RESULT:     -12.7      0.000      0.000
REMARK SMILES Cc1ccc(-c2nc(NC(=O)[C@H]3[C@@H](C(=O)OCCOCCOC(=O)c4ccc(-c5c6nc(c(-c7cccc(S(=O)(=O)[O-])c7F)c7ccc([nH]7)c(-c7cccc(S(=O)(=O)[O-])c7F)c7nc(c(-c8cccc(S(=O)(=O)[O-])c8F)c8ccc5[nH]8)C=C7)C=C6)cc4)[C@@H]4CC[C@H]3O4)sc2C)cc1
REMARK SMILES IDX 19 1 18 2 17 3 16 4 14 5 15 6 13 7 12 8 91 9 88 10 90 11
REMARK SMILES IDX 92 12 89 13 10 14 9 15 11 17 8 18 6 19 7 20 94 21 93 22
REMARK SMILES IDX 95 23 5 24 1 25 2 26 3 27 97 28 4 29 96 30 20 31 21 32 22 33
REMARK SMILES IDX 23 34 24 35 25 36 26 37 87 38 27 39 86 40 28 41 29 42 30 43
REMARK SMILES IDX 80 44 31 45 85 46 79 47 81 48 32 49 84 50 78 51 77 52 33 54
REMARK SMILES IDX 65 55 45 56 64 57 46 58 49 59 63 60 82 61 47 62 48 63 62 65
REMARK SMILES IDX 83 66 50 67 34 68 35 69 43 70 36 71 38 72 44 73 37 74 39 75
REMARK SMILES IDX 40 76 41 77 42 78 66 79 67 80 75 81 68 82 70 83 76 84 69 85
REMARK SMILES IDX 71 86 72 87 73 88 74 89 51 90 52 91 60 92 53 93 55 94 61 95
REMARK SMILES IDX 54 96 56 97 57 98 58 99 59 100
REMARK H PARENT 9 16 81 53 49 64
REMARK Flexibility Score: inf
ROOT
ATOM      1  O   UNL A   1      38.016  22.972  25.691  1.00  0.00    -0.374 OA
ENDROOT
BRANCH   1   2
ATOM      2  C   UNL A   1      36.821  23.644  26.104  1.00  0.00     0.202 C 
BRANCH   2   3
ATOM      3  C   UNL A   1      35.727  23.665  24.987  1.00  0.00     0.261 C 
BRANCH   3   4
ATOM      4  O   UNL A   1      34.571  24.621  24.712  1.00  0.00    -0.463 OA
BRANCH   4   5
ATOM      5  C   UNL A   1      33.866  25.667  24.257  1.00  0.00     0.312 C 
ATOM      6  O   UNL A   1      33.463  25.753  23.096  1.00  0.00    -0.252 OA
BRANCH   5   7
ATOM      7  C   UNL A   1      33.671  26.856  25.104  1.00  0.00     0.143 C 
ATOM      8  C   UNL A   1      33.052  26.492  26.387  1.00  0.00     0.124 C 
ATOM      9  C   UNL A   1      32.716  27.887  26.912  1.00  0.00     0.132 C 
ATOM     10  C   UNL A   1      32.793  28.093  24.745  1.00  0.00     0.133 C 
ATOM     11  C   UNL A   1      33.755  29.014  26.674  1.00  0.00     0.035 C 
ATOM     12  O   UNL A   1      31.797  28.193  25.831  1.00  0.00    -0.373 OA
ATOM     13  C   UNL A   1      33.510  29.360  25.186  1.00  0.00     0.036 C 
BRANCH   8  14
ATOM     14  C   UNL A   1      31.694  25.753  26.279  1.00  0.00     0.232 C 
ATOM     15  N   UNL A   1      31.340  24.535  25.777  1.00  0.00    -0.302 N 
ATOM     16  H   UNL A   1      30.455  24.347  26.166  1.00  0.00     0.172 HD
ATOM     17  O   UNL A   1      30.806  26.341  26.937  1.00  0.00    -0.274 OA
BRANCH  15  18
ATOM     18  C   UNL A   1      31.623  23.437  24.985  1.00  0.00     0.190 A 
ATOM     19  C   UNL A   1      32.148  21.256  24.669  1.00  0.00     0.086 A 
ATOM     20  N   UNL A   1      31.799  22.266  25.570  1.00  0.00    -0.220 NA
ATOM     21  C   UNL A   1      31.911  21.622  23.360  1.00  0.00     0.031 A 
ATOM     22  S   UNL A   1      31.487  23.324  23.297  1.00  0.00    -0.101 S 
ATOM     23  C   UNL A   1      32.087  20.810  22.130  1.00  0.00     0.059 C 
BRANCH  19  24
ATOM     24  C   UNL A   1      32.991  20.098  25.111  1.00  0.00     0.001 A 
ATOM     25  C   UNL A   1      35.787  15.942  25.485  1.00  0.00     0.044 C 
ATOM     26  C   UNL A   1      34.967  17.019  24.780  1.00  0.00    -0.051 A 
ATOM     27  C   UNL A   1      35.765  18.632  24.692  1.00  0.00     0.004 A 
ATOM     28  C   UNL A   1      33.173  16.901  24.972  1.00  0.00     0.004 A 
ATOM     29  C   UNL A   1      34.769  20.166  24.806  1.00  0.00     0.010 A 
ATOM     30  C   UNL A   1      32.216  18.450  25.298  1.00  0.00     0.010 A 
ENDBRANCH  19  24
ENDBRANCH  15  18
ENDBRANCH   8  14
ENDBRANCH   5   7
ENDBRANCH   4   5
ENDBRANCH   3   4
ENDBRANCH   2   3
ENDBRANCH   1   2
BRANCH   1  31
ATOM     31  C   UNL A   1      38.019  21.600  25.281  1.00  0.00     0.202 C 
BRANCH  31  32
ATOM     32  C   UNL A   1      39.153  20.689  25.737  1.00  0.00     0.261 C 
BRANCH  32  33
ATOM     33  O   UNL A   1      40.030  21.337  26.681  1.00  0.00    -0.460 OA
BRANCH  33  34
ATOM     34  C   UNL A   1      41.372  21.241  26.419  1.00  0.00     0.338 C 
ATOM     35  O   UNL A   1      41.861  20.283  25.850  1.00  0.00    -0.246 OA
BRANCH  34  36
ATOM     36  C   UNL A   1      42.093  22.420  27.006  1.00  0.00     0.060 A 
ATOM     37  C   UNL A   1      42.614  22.491  28.305  1.00  0.00     0.016 A 
ATOM     38  C   UNL A   1      41.946  23.595  26.320  1.00  0.00     0.016 A 
ATOM     39  C   UNL A   1      42.838  23.758  28.937  1.00  0.00     0.010 A 
ATOM     40  C   UNL A   1      41.780  24.724  27.080  1.00  0.00     0.010 A 
ATOM     41  C   UNL A   1      42.354  24.932  28.342  1.00  0.00    -0.014 A 
BRANCH  41  42
ATOM     42  C   UNL A   1      42.273  26.513  28.967  1.00  0.00     0.031 A 
ATOM     43  C   UNL A   1      40.554  27.714  29.493  1.00  0.00     0.074 A 
ATOM     44  C   UNL A   1      43.724  26.630  29.227  1.00  0.00     0.049 A 
ATOM     45  N   UNL A   1      40.401  29.087  29.427  1.00  0.00    -0.248 NA
ATOM     46  C   UNL A   1      39.039  27.442  30.137  1.00  0.00     0.031 C 
ATOM     47  C   UNL A   1      44.444  27.263  30.391  1.00  0.00     0.029 A 
ATOM     48  N   UNL A   1      44.837  26.502  28.341  1.00  0.00    -0.354 N 
ATOM     49  C   UNL A   1      39.565  29.632  30.326  1.00  0.00     0.074 A 
ATOM     50  C   UNL A   1      38.638  28.600  30.658  1.00  0.00     0.031 C 
ATOM     51  C   UNL A   1      45.611  27.776  30.062  1.00  0.00     0.029 A 
ATOM     52  C   UNL A   1      45.847  27.397  28.715  1.00  0.00     0.049 A 
ATOM     53  H   UNL A   1      44.888  25.878  27.581  1.00  0.00     0.167 HD
ATOM     54  C   UNL A   1      39.804  30.892  30.786  1.00  0.00     0.034 A 
ATOM     55  C   UNL A   1      46.860  28.030  28.102  1.00  0.00     0.034 A 
ATOM     56  C   UNL A   1      41.238  31.328  30.723  1.00  0.00     0.049 A 
ATOM     57  C   UNL A   1      46.601  29.516  28.197  1.00  0.00     0.074 A 
ATOM     58  C   UNL A   1      42.222  31.405  31.706  1.00  0.00     0.029 A 
ATOM     59  N   UNL A   1      41.929  31.558  29.517  1.00  0.00    -0.354 N 
ATOM     60  N   UNL A   1      45.507  30.019  28.738  1.00  0.00    -0.248 NA
ATOM     61  C   UNL A   1      47.498  30.551  27.705  1.00  0.00     0.031 C 
ATOM     62  C   UNL A   1      43.497  31.583  31.086  1.00  0.00     0.029 A 
ATOM     63  C   UNL A   1      43.322  31.705  29.715  1.00  0.00     0.049 A 
ATOM     64  H   UNL A   1      41.491  31.612  28.636  1.00  0.00     0.167 HD
ATOM     65  C   UNL A   1      45.444  31.361  28.503  1.00  0.00     0.074 A 
ATOM     66  C   UNL A   1      46.754  31.652  27.921  1.00  0.00     0.031 C 
ATOM     67  C   UNL A   1      44.289  32.095  28.653  1.00  0.00     0.034 A 
BRANCH  54  68
ATOM     68  C   UNL A   1      38.716  31.542  31.599  1.00  0.00     0.023 A 
ATOM     69  C   UNL A   1      38.761  31.570  32.999  1.00  0.00     0.012 A 
ATOM     70  C   UNL A   1      37.609  32.182  30.985  1.00  0.00     0.148 A 
ATOM     71  C   UNL A   1      37.702  32.110  33.744  1.00  0.00     0.002 A 
ATOM     72  C   UNL A   1      36.493  32.558  31.715  1.00  0.00     0.091 A 
ATOM     73  F   UNL A   1      37.645  32.474  29.676  1.00  0.00    -0.205 F 
ATOM     74  C   UNL A   1      36.542  32.548  33.106  1.00  0.00     0.022 A 
BRANCH  72  75
ATOM     75  S   UNL A   1      34.922  32.837  30.880  1.00  0.00     0.127 S 
ATOM     76  O   UNL A   1      35.071  34.207  30.380  1.00  0.00    -0.237 OA
ATOM     77  O   UNL A   1      34.914  31.808  29.848  1.00  0.00    -0.237 OA
ATOM     78  O   UNL A   1      33.910  32.711  31.925  1.00  0.00    -0.744 OA
ENDBRANCH  72  75
ENDBRANCH  54  68
BRANCH  55  79
ATOM     79  C   UNL A   1      47.767  27.128  27.372  1.00  0.00     0.023 A 
ATOM     80  C   UNL A   1      48.765  26.478  28.156  1.00  0.00     0.012 A 
ATOM     81  C   UNL A   1      47.210  26.439  26.296  1.00  0.00     0.148 A 
ATOM     82  C   UNL A   1      49.062  25.121  27.966  1.00  0.00     0.002 A 
ATOM     83  C   UNL A   1      47.418  25.067  26.195  1.00  0.00     0.091 A 
ATOM     84  F   UNL A   1      46.327  27.088  25.525  1.00  0.00    -0.205 F 
ATOM     85  C   UNL A   1      48.335  24.401  27.025  1.00  0.00     0.022 A 
BRANCH  83  86
ATOM     86  S   UNL A   1      46.236  24.073  25.280  1.00  0.00     0.127 S 
ATOM     87  O   UNL A   1      46.756  24.158  23.921  1.00  0.00    -0.237 OA
ATOM     88  O   UNL A   1      46.375  22.767  25.921  1.00  0.00    -0.237 OA
ATOM     89  O   UNL A   1      44.956  24.723  25.528  1.00  0.00    -0.744 OA
ENDBRANCH  83  86
ENDBRANCH  55  79
BRANCH  67  90
ATOM     90  C   UNL A   1      44.042  33.314  27.780  1.00  0.00     0.023 A 
ATOM     91  C   UNL A   1      44.055  33.240  26.367  1.00  0.00     0.012 A 
ATOM     92  C   UNL A   1      43.603  34.534  28.334  1.00  0.00     0.148 A 
ATOM     93  C   UNL A   1      43.723  34.323  25.551  1.00  0.00     0.002 A 
ATOM     94  C   UNL A   1      43.128  35.557  27.520  1.00  0.00     0.091 A 
ATOM     95  F   UNL A   1      43.655  34.728  29.659  1.00  0.00    -0.205 F 
ATOM     96  C   UNL A   1      43.224  35.475  26.130  1.00  0.00     0.022 A 
BRANCH  94  97
ATOM     97  S   UNL A   1      42.191  36.918  28.222  1.00  0.00     0.127 S 
ATOM     98  O   UNL A   1      41.085  36.218  28.869  1.00  0.00    -0.237 OA
ATOM     99  O   UNL A   1      43.159  37.519  29.142  1.00  0.00    -0.237 OA
ATOM    100  O   UNL A   1      41.850  37.759  27.083  1.00  0.00    -0.744 OA
ENDBRANCH  94  97
ENDBRANCH  67  90
ENDBRANCH  41  42
ENDBRANCH  34  36
ENDBRANCH  33  34
ENDBRANCH  32  33
ENDBRANCH  31  32
ENDBRANCH   1  31
TORSDOF 20
ENDMDL
MODEL 2
REMARK VINA RESULT:     -12.6      2.529      3.748
REMARK SMILES Cc1ccc(-c2nc(NC(=O)[C@H]3[C@@H](C(=O)OCCOCCOC(=O)c4ccc(-c5c6nc(c(-c7cccc(S(=O)(=O)[O-])c7F)c7ccc([nH]7)c(-c7cccc(S(=O)(=O)[O-])c7F)c7nc(c(-c8cccc(S(=O)(=O)[O-])c8F)c8ccc5[nH]8)C=C7)C=C6)cc4)[C@@H]4CC[C@H]3O4)sc2C)cc1
REMARK SMILES IDX 19 1 18 2 17 3 16 4 14 5 15 6 13 7 12 8 91 9 88 10 90 11
REMARK SMILES IDX 92 12 89 13 10 14 9 15 11 17 8 18 6 19 7 20 94 21 93 22
REMARK SMILES IDX 95 23 5 24 1 25 2 26 3 27 97 28 4 29 96 30 20 31 21 32 22 33
REMARK SMILES IDX 23 34 24 35 25 36 26 37 87 38 27 39 86 40 28 41 29 42 30 43
REMARK SMILES IDX 80 44 31 45 85 46 79 47 81 48 32 49 84 50 78 51 77 52 33 54
REMARK SMILES IDX 65 55 45 56 64 57 46 58 49 59 63 60 82 61 47 62 48 63 62 65
REMARK SMILES IDX 83 66 50 67 34 68 35 69 43 70 36 71 38 72 44 73 37 74 39 75
REMARK SMILES IDX 40 76 41 77 42 78 66 79 67 80 75 81 68 82 70 83 76 84 69 85
REMARK SMILES IDX 71 86 72 87 73 88 74 89 51 90 52 91 60 92 53 93 55 94 61 95
REMARK SMILES IDX 54 96 56 97 57 98 58 99 59 100
REMARK H PARENT 9 16 81 53 49 64
REMARK Flexibility Score: inf
ROOT
ATOM      1  O   UNL A   1      37.401  22.873  25.455  1.00  0.00    -0.374 OA
ENDROOT
BRANCH   1   2
ATOM      2  C   UNL A   1      36.187  22.869  26.214  1.00  0.00     0.202 C 
BRANCH   2   3
ATOM      3  C   UNL A   1      35.011  23.580  25.468  1.00  0.00     0.261 C 
BRANCH   3   4
ATOM      4  O   UNL A   1      33.637  24.044  25.941  1.00  0.00    -0.463 OA
BRANCH   4   5
ATOM      5  C   UNL A   1      32.675  24.663  26.640  1.00  0.00     0.312 C 
ATOM      6  O   UNL A   1      31.802  24.058  27.265  1.00  0.00    -0.252 OA
BRANCH   5   7
ATOM      7  C   UNL A   1      32.523  26.126  26.560  1.00  0.00     0.143 C 
ATOM      8  C   UNL A   1      31.113  26.517  26.698  1.00  0.00     0.124 C 
ATOM      9  C   UNL A   1      31.216  27.988  26.301  1.00  0.00     0.132 C 
ATOM     10  C   UNL A   1      32.909  27.013  25.337  1.00  0.00     0.133 C 
ATOM     11  C   UNL A   1      32.450  28.784  26.803  1.00  0.00     0.035 C 
ATOM     12  O   UNL A   1      31.663  27.706  24.949  1.00  0.00    -0.373 OA
ATOM     13  C   UNL A   1      33.554  28.298  25.835  1.00  0.00     0.036 C 
BRANCH   8  14
ATOM     14  C   UNL A   1      30.146  25.877  25.670  1.00  0.00     0.232 C 
ATOM     15  N   UNL A   1      30.329  24.977  24.661  1.00  0.00    -0.302 N 
ATOM     16  H   UNL A   1      29.429  24.636  24.458  1.00  0.00     0.172 HD
ATOM     17  O   UNL A   1      28.953  26.129  25.954  1.00  0.00    -0.274 OA
BRANCH  15  18
ATOM     18  C   UNL A   1      31.170  24.313  23.786  1.00  0.00     0.190 A 
ATOM     19  C   UNL A   1      32.065  22.443  22.872  1.00  0.00     0.086 A 
ATOM     20  N   UNL A   1      31.120  22.994  23.742  1.00  0.00    -0.220 NA
ATOM     21  C   UNL A   1      32.601  23.388  22.022  1.00  0.00     0.031 A 
ATOM     22  S   UNL A   1      32.074  24.988  22.518  1.00  0.00    -0.101 S 
ATOM     23  C   UNL A   1      33.577  23.189  20.921  1.00  0.00     0.059 C 
BRANCH  19  24
ATOM     24  C   UNL A   1      32.629  21.078  23.125  1.00  0.00     0.001 A 
ATOM     25  C   UNL A   1      33.476  16.289  24.385  1.00  0.00     0.044 C 
ATOM     26  C   UNL A   1      32.665  17.572  24.224  1.00  0.00    -0.051 A 
ATOM     27  C   UNL A   1      32.258  17.993  22.519  1.00  0.00     0.004 A 
ATOM     28  C   UNL A   1      33.001  18.879  25.427  1.00  0.00     0.004 A 
ATOM     29  C   UNL A   1      32.192  19.746  21.988  1.00  0.00     0.010 A 
ATOM     30  C   UNL A   1      33.137  20.622  24.823  1.00  0.00     0.010 A 
ENDBRANCH  19  24
ENDBRANCH  15  18
ENDBRANCH   8  14
ENDBRANCH   5   7
ENDBRANCH   4   5
ENDBRANCH   3   4
ENDBRANCH   2   3
ENDBRANCH   1   2
BRANCH   1  31
ATOM     31  C   UNL A   1      38.126  21.673  25.166  1.00  0.00     0.202 C 
BRANCH  31  32
ATOM     32  C   UNL A   1      39.274  21.257  26.078  1.00  0.00     0.261 C 
BRANCH  32  33
ATOM     33  O   UNL A   1      40.412  22.136  25.962  1.00  0.00    -0.460 OA
BRANCH  33  34
ATOM     34  C   UNL A   1      40.768  22.812  27.100  1.00  0.00     0.338 C 
ATOM     35  O   UNL A   1      41.364  22.281  28.018  1.00  0.00    -0.246 OA
BRANCH  34  36
ATOM     36  C   UNL A   1      40.244  24.218  27.044  1.00  0.00     0.060 A 
ATOM     37  C   UNL A   1      40.899  25.307  26.451  1.00  0.00     0.016 A 
ATOM     38  C   UNL A   1      39.213  24.492  27.899  1.00  0.00     0.016 A 
ATOM     39  C   UNL A   1      40.594  26.650  26.848  1.00  0.00     0.010 A 
ATOM     40  C   UNL A   1      39.252  25.710  28.527  1.00  0.00     0.010 A 
ATOM     41  C   UNL A   1      39.785  26.881  27.969  1.00  0.00    -0.014 A 
BRANCH  41  42
ATOM     42  C   UNL A   1      39.454  28.336  28.788  1.00  0.00     0.031 A 
ATOM     43  C   UNL A   1      38.052  29.912  28.310  1.00  0.00     0.074 A 
ATOM     44  C   UNL A   1      40.251  28.002  29.987  1.00  0.00     0.049 A 
ATOM     45  N   UNL A   1      38.155  31.269  28.556  1.00  0.00    -0.248 NA
ATOM     46  C   UNL A   1      36.532  30.014  27.629  1.00  0.00     0.031 C 
ATOM     47  C   UNL A   1      39.954  28.264  31.442  1.00  0.00     0.029 A 
ATOM     48  N   UNL A   1      41.632  27.663  30.116  1.00  0.00    -0.354 N 
ATOM     49  C   UNL A   1      36.997  31.924  28.744  1.00  0.00     0.074 A 
ATOM     50  C   UNL A   1      36.014  31.171  28.037  1.00  0.00     0.031 C 
ATOM     51  C   UNL A   1      41.037  28.455  32.166  1.00  0.00     0.029 A 
ATOM     52  C   UNL A   1      42.139  28.181  31.315  1.00  0.00     0.049 A 
ATOM     53  H   UNL A   1      42.151  27.141  29.462  1.00  0.00     0.167 HD
ATOM     54  C   UNL A   1      36.965  33.002  29.578  1.00  0.00     0.034 A 
ATOM     55  C   UNL A   1      43.340  28.563  31.777  1.00  0.00     0.034 A 
ATOM     56  C   UNL A   1      38.024  33.012  30.641  1.00  0.00     0.049 A 
ATOM     57  C   UNL A   1      43.267  30.039  32.090  1.00  0.00     0.074 A 
ATOM     58  C   UNL A   1      37.973  32.690  31.995  1.00  0.00     0.029 A 
ATOM     59  N   UNL A   1      39.397  33.171  30.369  1.00  0.00    -0.354 N 
ATOM     60  N   UNL A   1      42.193  30.770  31.850  1.00  0.00    -0.248 NA
ATOM     61  C   UNL A   1      44.347  30.823  32.669  1.00  0.00     0.031 C 
ATOM     62  C   UNL A   1      39.303  32.565  32.501  1.00  0.00     0.029 A 
ATOM     63  C   UNL A   1      40.204  32.888  31.496  1.00  0.00     0.049 A 
ATOM     64  H   UNL A   1      39.754  33.448  29.494  1.00  0.00     0.167 HD
ATOM     65  C   UNL A   1      42.477  32.091  32.034  1.00  0.00     0.074 A 
ATOM     66  C   UNL A   1      43.816  32.058  32.622  1.00  0.00     0.031 C 
ATOM     67  C   UNL A   1      41.676  33.103  31.556  1.00  0.00     0.034 A 
BRANCH  54  68
ATOM     68  C   UNL A   1      35.713  33.839  29.566  1.00  0.00     0.023 A 
ATOM     69  C   UNL A   1      35.269  34.480  28.403  1.00  0.00     0.012 A 
ATOM     70  C   UNL A   1      34.910  33.994  30.725  1.00  0.00     0.148 A 
ATOM     71  C   UNL A   1      34.144  35.318  28.427  1.00  0.00     0.002 A 
ATOM     72  C   UNL A   1      33.908  34.949  30.790  1.00  0.00     0.091 A 
ATOM     73  F   UNL A   1      35.084  33.176  31.775  1.00  0.00    -0.205 F 
ATOM     74  C   UNL A   1      33.501  35.601  29.631  1.00  0.00     0.022 A 
BRANCH  72  75
ATOM     75  S   UNL A   1      33.298  35.506  32.390  1.00  0.00     0.127 S 
ATOM     76  O   UNL A   1      32.643  34.304  32.912  1.00  0.00    -0.237 OA
ATOM     77  O   UNL A   1      34.519  35.889  33.090  1.00  0.00    -0.237 OA
ATOM     78  O   UNL A   1      32.364  36.586  32.084  1.00  0.00    -0.744 OA
ENDBRANCH  72  75
ENDBRANCH  54  68
BRANCH  55  79
ATOM     79  C   UNL A   1      44.380  27.528  31.648  1.00  0.00     0.023 A 
ATOM     80  C   UNL A   1      44.159  26.326  32.383  1.00  0.00     0.012 A 
ATOM     81  C   UNL A   1      45.011  27.445  30.408  1.00  0.00     0.148 A 
ATOM     82  C   UNL A   1      44.410  25.072  31.810  1.00  0.00     0.002 A 
ATOM     83  C   UNL A   1      45.139  26.200  29.800  1.00  0.00     0.091 A 
ATOM     84  F   UNL A   1      45.277  28.588  29.762  1.00  0.00    -0.205 F 
ATOM     85  C   UNL A   1      44.838  25.013  30.488  1.00  0.00     0.022 A 
BRANCH  83  86
ATOM     86  S   UNL A   1      45.309  26.117  28.015  1.00  0.00     0.127 S 
ATOM     87  O   UNL A   1      45.322  24.679  27.778  1.00  0.00    -0.237 OA
ATOM     88  O   UNL A   1      44.107  26.814  27.561  1.00  0.00    -0.237 OA
ATOM     89  O   UNL A   1      46.548  26.832  27.741  1.00  0.00    -0.744 OA
ENDBRANCH  83  86
ENDBRANCH  55  79
BRANCH  67  90
ATOM     90  C   UNL A   1      42.288  34.434  31.151  1.00  0.00     0.023 A 
ATOM     91  C   UNL A   1      42.823  35.335  32.102  1.00  0.00     0.012 A 
ATOM     92  C   UNL A   1      42.523  34.748  29.796  1.00  0.00     0.148 A 
ATOM     93  C   UNL A   1      43.485  36.509  31.740  1.00  0.00     0.002 A 
ATOM     94  C   UNL A   1      43.314  35.837  29.444  1.00  0.00     0.091 A 
ATOM     95  F   UNL A   1      41.967  34.007  28.828  1.00  0.00    -0.205 F 
ATOM     96  C   UNL A   1      43.762  36.743  30.406  1.00  0.00     0.022 A 
BRANCH  94  97
ATOM     97  S   UNL A   1      43.955  35.994  27.774  1.00  0.00     0.127 S 
ATOM     98  O   UNL A   1      44.595  34.696  27.577  1.00  0.00    -0.237 OA
ATOM     99  O   UNL A   1      42.734  36.202  26.992  1.00  0.00    -0.237 OA
ATOM    100  O   UNL A   1      44.835  37.152  27.822  1.00  0.00    -0.744 OA
ENDBRANCH  94  97
ENDBRANCH  67  90
ENDBRANCH  41  42
ENDBRANCH  34  36
ENDBRANCH  33  34
ENDBRANCH  32  33
ENDBRANCH  31  32
ENDBRANCH   1  31
TORSDOF 20
ENDMDL
MODEL 3
REMARK VINA RESULT:     -12.6      2.139      3.013
REMARK SMILES Cc1ccc(-c2nc(NC(=O)[C@H]3[C@@H](C(=O)OCCOCCOC(=O)c4ccc(-c5c6nc(c(-c7cccc(S(=O)(=O)[O-])c7F)c7ccc([nH]7)c(-c7cccc(S(=O)(=O)[O-])c7F)c7nc(c(-c8cccc(S(=O)(=O)[O-])c8F)c8ccc5[nH]8)C=C7)C=C6)cc4)[C@@H]4CC[C@H]3O4)sc2C)cc1
REMARK SMILES IDX 19 1 18 2 17 3 16 4 14 5 15 6 13 7 12 8 91 9 88 10 90 11
REMARK SMILES IDX 92 12 89 13 10 14 9 15 11 17 8 18 6 19 7 20 94 21 93 22
REMARK SMILES IDX 95 23 5 24 1 25 2 26 3 27 97 28 4 29 96 30 20 31 21 32 22 33
REMARK SMILES IDX 23 34 24 35 25 36 26 37 87 38 27 39 86 40 28 41 29 42 30 43
REMARK SMILES IDX 80 44 31 45 85 46 79 47 81 48 32 49 84 50 78 51 77 52 33 54
REMARK SMILES IDX 65 55 45 56 64 57 46 58 49 59 63 60 82 61 47 62 48 63 62 65
REMARK SMILES IDX 83 66 50 67 34 68 35 69 43 70 36 71 38 72 44 73 37 74 39 75
REMARK SMILES IDX 40 76 41 77 42 78 66 79 67 80 75 81 68 82 70 83 76 84 69 85
REMARK SMILES IDX 71 86 72 87 73 88 74 89 51 90 52 91 60 92 53 93 55 94 61 95
REMARK SMILES IDX 54 96 56 97 57 98 58 99 59 100
REMARK H PARENT 9 16 81 53 49 64
REMARK Flexibility Score: inf
ROOT
ATOM      1  O   UNL A   1      36.396  23.393  25.633  1.00  0.00    -0.374 OA
ENDROOT
BRANCH   1   2
ATOM      2  C   UNL A   1      35.526  23.340  26.770  1.00  0.00     0.202 C 
BRANCH   2   3
ATOM      3  C   UNL A   1      34.015  23.345  26.369  1.00  0.00     0.261 C 
BRANCH   3   4
ATOM      4  O   UNL A   1      32.869  24.285  26.730  1.00  0.00    -0.463 OA
BRANCH   4   5
ATOM      5  C   UNL A   1      31.823  25.117  26.620  1.00  0.00     0.312 C 
ATOM      6  O   UNL A   1      30.667  24.725  26.447  1.00  0.00    -0.252 OA
BRANCH   5   7
ATOM      7  C   UNL A   1      32.037  26.572  26.542  1.00  0.00     0.143 C 
ATOM      8  C   UNL A   1      30.891  27.238  25.907  1.00  0.00     0.124 C 
ATOM      9  C   UNL A   1      31.487  28.630  25.702  1.00  0.00     0.132 C 
ATOM     10  C   UNL A   1      33.194  27.280  25.774  1.00  0.00     0.133 C 
ATOM     11  C   UNL A   1      32.379  29.204  26.835  1.00  0.00     0.035 C 
ATOM     12  O   UNL A   1      32.530  28.172  24.802  1.00  0.00    -0.373 OA
ATOM     13  C   UNL A   1      33.708  28.445  26.605  1.00  0.00     0.036 C 
BRANCH   8  14
ATOM     14  C   UNL A   1      30.534  26.729  24.487  1.00  0.00     0.232 C 
ATOM     15  N   UNL A   1      31.018  25.711  23.719  1.00  0.00    -0.302 N 
ATOM     16  H   UNL A   1      30.330  25.561  23.031  1.00  0.00     0.172 HD
ATOM     17  O   UNL A   1      29.489  27.271  24.062  1.00  0.00    -0.274 OA
BRANCH  15  18
ATOM     18  C   UNL A   1      32.009  24.786  23.441  1.00  0.00     0.190 A 
ATOM     19  C   UNL A   1      32.752  22.692  23.003  1.00  0.00     0.086 A 
ATOM     20  N   UNL A   1      31.657  23.537  23.199  1.00  0.00    -0.220 NA
ATOM     21  C   UNL A   1      33.918  23.395  22.778  1.00  0.00     0.031 A 
ATOM     22  S   UNL A   1      33.635  25.103  23.070  1.00  0.00    -0.101 S 
ATOM     23  C   UNL A   1      35.268  22.865  22.464  1.00  0.00     0.059 C 
BRANCH  19  24
ATOM     24  C   UNL A   1      32.666  21.238  23.356  1.00  0.00     0.001 A 
ATOM     25  C   UNL A   1      33.307  16.283  23.880  1.00  0.00     0.044 C 
ATOM     26  C   UNL A   1      33.626  17.691  23.386  1.00  0.00    -0.051 A 
ATOM     27  C   UNL A   1      34.231  18.814  24.659  1.00  0.00     0.004 A 
ATOM     28  C   UNL A   1      32.587  18.315  22.044  1.00  0.00     0.004 A 
ATOM     29  C   UNL A   1      33.791  20.593  24.611  1.00  0.00     0.010 A 
ATOM     30  C   UNL A   1      31.983  20.061  22.132  1.00  0.00     0.010 A 
ENDBRANCH  19  24
ENDBRANCH  15  18
ENDBRANCH   8  14
ENDBRANCH   5   7
ENDBRANCH   4   5
ENDBRANCH   3   4
ENDBRANCH   2   3
ENDBRANCH   1   2
BRANCH   1  31
ATOM     31  C   UNL A   1      37.105  22.244  25.158  1.00  0.00     0.202 C 
BRANCH  31  32
ATOM     32  C   UNL A   1      38.346  21.772  25.906  1.00  0.00     0.261 C 
BRANCH  32  33
ATOM     33  O   UNL A   1      39.493  22.606  25.646  1.00  0.00    -0.460 OA
BRANCH  33  34
ATOM     34  C   UNL A   1      40.158  23.074  26.750  1.00  0.00     0.338 C 
ATOM     35  O   UNL A   1      40.844  22.357  27.454  1.00  0.00    -0.246 OA
BRANCH  34  36
ATOM     36  C   UNL A   1      39.835  24.524  26.965  1.00  0.00     0.060 A 
ATOM     37  C   UNL A   1      40.515  25.604  26.383  1.00  0.00     0.016 A 
ATOM     38  C   UNL A   1      39.028  24.791  28.036  1.00  0.00     0.016 A 
ATOM     39  C   UNL A   1      40.479  26.903  26.987  1.00  0.00     0.010 A 
ATOM     40  C   UNL A   1      39.353  25.896  28.781  1.00  0.00     0.010 A 
ATOM     41  C   UNL A   1      39.931  27.065  28.268  1.00  0.00    -0.014 A 
BRANCH  41  42
ATOM     42  C   UNL A   1      39.964  28.417  29.300  1.00  0.00     0.031 A 
ATOM     43  C   UNL A   1      38.408  29.842  29.775  1.00  0.00     0.074 A 
ATOM     44  C   UNL A   1      41.285  28.107  29.889  1.00  0.00     0.049 A 
ATOM     45  N   UNL A   1      38.526  31.184  30.087  1.00  0.00    -0.248 NA
ATOM     46  C   UNL A   1      36.751  29.805  29.967  1.00  0.00     0.031 C 
ATOM     47  C   UNL A   1      41.756  28.243  31.315  1.00  0.00     0.029 A 
ATOM     48  N   UNL A   1      42.557  27.927  29.266  1.00  0.00    -0.354 N 
ATOM     49  C   UNL A   1      37.584  31.685  30.904  1.00  0.00     0.074 A 
ATOM     50  C   UNL A   1      36.434  30.865  30.708  1.00  0.00     0.031 C 
ATOM     51  C   UNL A   1      43.041  28.517  31.412  1.00  0.00     0.029 A 
ATOM     52  C   UNL A   1      43.568  28.427  30.098  1.00  0.00     0.049 A 
ATOM     53  H   UNL A   1      42.703  27.512  28.386  1.00  0.00     0.167 HD
ATOM     54  C   UNL A   1      37.908  32.698  31.757  1.00  0.00     0.034 A 
ATOM     55  C   UNL A   1      44.805  28.919  29.932  1.00  0.00     0.034 A 
ATOM     56  C   UNL A   1      39.358  32.768  32.136  1.00  0.00     0.049 A 
ATOM     57  C   UNL A   1      44.798  30.355  30.404  1.00  0.00     0.074 A 
ATOM     58  C   UNL A   1      40.030  32.361  33.286  1.00  0.00     0.029 A 
ATOM     59  N   UNL A   1      40.383  33.106  31.230  1.00  0.00    -0.354 N 
ATOM     60  N   UNL A   1      43.705  30.967  30.821  1.00  0.00    -0.248 NA
ATOM     61  C   UNL A   1      45.964  31.224  30.446  1.00  0.00     0.031 C 
ATOM     62  C   UNL A   1      41.437  32.363  33.036  1.00  0.00     0.029 A 
ATOM     63  C   UNL A   1      41.671  32.852  31.758  1.00  0.00     0.049 A 
ATOM     64  H   UNL A   1      40.221  33.476  30.333  1.00  0.00     0.167 HD
ATOM     65  C   UNL A   1      43.949  32.298  30.986  1.00  0.00     0.074 A 
ATOM     66  C   UNL A   1      45.398  32.389  30.812  1.00  0.00     0.031 C 
ATOM     67  C   UNL A   1      42.946  33.235  31.094  1.00  0.00     0.034 A 
BRANCH  54  68
ATOM     68  C   UNL A   1      36.771  33.380  32.471  1.00  0.00     0.023 A 
ATOM     69  C   UNL A   1      36.558  33.209  33.845  1.00  0.00     0.012 A 
ATOM     70  C   UNL A   1      35.880  34.251  31.793  1.00  0.00     0.148 A 
ATOM     71  C   UNL A   1      35.450  33.789  34.480  1.00  0.00     0.002 A 
ATOM     72  C   UNL A   1      34.700  34.680  32.378  1.00  0.00     0.091 A 
ATOM     73  F   UNL A   1      36.194  34.712  30.571  1.00  0.00    -0.205 F 
ATOM     74  C   UNL A   1      34.488  34.472  33.737  1.00  0.00     0.022 A 
BRANCH  72  75
ATOM     75  S   UNL A   1      33.356  35.295  31.349  1.00  0.00     0.127 S 
ATOM     76  O   UNL A   1      32.188  35.108  32.214  1.00  0.00    -0.237 OA
ATOM     77  O   UNL A   1      33.730  36.685  31.119  1.00  0.00    -0.237 OA
ATOM     78  O   UNL A   1      33.350  34.426  30.175  1.00  0.00    -0.744 OA
ENDBRANCH  72  75
ENDBRANCH  54  68
BRANCH  55  79
ATOM     79  C   UNL A   1      45.703  28.025  29.181  1.00  0.00     0.023 A 
ATOM     80  C   UNL A   1      45.842  26.703  29.698  1.00  0.00     0.012 A 
ATOM     81  C   UNL A   1      45.735  28.209  27.800  1.00  0.00     0.148 A 
ATOM     82  C   UNL A   1      45.838  25.591  28.845  1.00  0.00     0.002 A 
ATOM     83  C   UNL A   1      45.607  27.099  26.971  1.00  0.00     0.091 A 
ATOM     84  F   UNL A   1      45.678  29.463  27.333  1.00  0.00    -0.205 F 
ATOM     85  C   UNL A   1      45.653  25.791  27.482  1.00  0.00     0.022 A 
BRANCH  83  86
ATOM     86  S   UNL A   1      44.988  27.328  25.301  1.00  0.00     0.127 S 
ATOM     87  O   UNL A   1      44.900  25.955  24.820  1.00  0.00    -0.237 OA
ATOM     88  O   UNL A   1      43.707  27.991  25.539  1.00  0.00    -0.237 OA
ATOM     89  O   UNL A   1      45.986  28.177  24.664  1.00  0.00    -0.744 OA
ENDBRANCH  83  86
ENDBRANCH  55  79
BRANCH  67  90
ATOM     90  C   UNL A   1      43.169  34.652  30.589  1.00  0.00     0.023 A 
ATOM     91  C   UNL A   1      43.554  35.705  31.452  1.00  0.00     0.012 A 
ATOM     92  C   UNL A   1      43.185  34.942  29.209  1.00  0.00     0.148 A 
ATOM     93  C   UNL A   1      43.868  36.984  30.989  1.00  0.00     0.002 A 
ATOM     94  C   UNL A   1      43.645  36.170  28.744  1.00  0.00     0.091 A 
ATOM     95  F   UNL A   1      42.738  34.038  28.326  1.00  0.00    -0.205 F 
ATOM     96  C   UNL A   1      43.947  37.207  29.627  1.00  0.00     0.022 A 
BRANCH  94  97
ATOM     97  S   UNL A   1      44.062  36.389  27.012  1.00  0.00     0.127 S 
ATOM     98  O   UNL A   1      44.572  37.757  26.998  1.00  0.00    -0.237 OA
ATOM     99  O   UNL A   1      45.076  35.353  26.803  1.00  0.00    -0.237 OA
ATOM    100  O   UNL A   1      42.815  36.153  26.298  1.00  0.00    -0.744 OA
ENDBRANCH  94  97
ENDBRANCH  67  90
ENDBRANCH  41  42
ENDBRANCH  34  36
ENDBRANCH  33  34
ENDBRANCH  32  33
ENDBRANCH  31  32
ENDBRANCH   1  31
TORSDOF 20
ENDMDL
