MODEL 1
REMARK VINA RESULT:     -11.7      0.000      0.000
REMARK SMILES CC1(C)CC2=NC(=O)[C@H](C(=O)OCCOCCOC(=O)c3ccc(-c4c5nc(c(-c6cccc(S(=O)(=O)[O-])c6F)c6ccc([nH]6)c(-c6cccc(S(=O)(=O)[O-])c6F)c6nc(c(-c7cccc(S(=O)(=O)[O-])c7F)c7ccc4[nH]7)C=C6)C=C5)cc3)C=C2CS1
REMARK SMILES IDX 16 1 15 2 14 3 13 4 12 5 10 6 11 7 9 8 1 9 2 10 3 11 4 12
REMARK SMILES IDX 87 13 5 14 86 15 6 16 85 17 7 18 84 19 8 20 17 21 18 22
REMARK SMILES IDX 19 23 20 24 21 25 22 26 83 27 23 28 82 29 24 30 25 31 26 32
REMARK SMILES IDX 76 33 27 34 81 35 75 36 77 37 28 38 80 39 74 40 73 41 29 43
REMARK SMILES IDX 61 44 41 45 60 46 42 47 45 48 59 49 78 50 43 51 44 52 58 54
REMARK SMILES IDX 79 55 46 56 30 57 31 58 39 59 32 60 34 61 40 62 33 63 35 64
REMARK SMILES IDX 36 65 37 66 38 67 62 68 63 69 71 70 64 71 66 72 72 73 65 74
REMARK SMILES IDX 67 75 68 76 69 77 70 78 47 79 48 80 56 81 49 82 51 83 57 84
REMARK SMILES IDX 50 85 52 86 53 87 54 88 55 89
REMARK H PARENT 77 42 45 53
REMARK Flexibility Score: inf
ROOT
ATOM      1  C   UNL A   1      31.504  30.477  25.697  1.00  0.00     0.202 C 
ENDROOT
BRANCH   1   2
ATOM      2  O   UNL A   1      32.158  29.338  26.262  1.00  0.00    -0.374 OA
BRANCH   2   3
ATOM      3  C   UNL A   1      33.213  28.741  25.505  1.00  0.00     0.202 C 
BRANCH   3   4
ATOM      4  C   UNL A   1      33.200  28.994  23.995  1.00  0.00     0.261 C 
BRANCH   4   5
ATOM      5  O   UNL A   1      32.343  28.058  23.323  1.00  0.00    -0.462 OA
BRANCH   5   6
ATOM      6  C   UNL A   1      32.888  27.426  22.255  1.00  0.00     0.322 C 
ATOM      7  O   UNL A   1      33.983  27.708  21.770  1.00  0.00    -0.251 OA
BRANCH   6   8
ATOM      8  C   UNL A   1      32.068  26.246  21.769  1.00  0.00     0.213 C 
ATOM      9  C   UNL A   1      33.855  20.708  24.951  1.00  0.00     0.023 C 
ATOM     10  C   UNL A   1      33.453  22.156  24.636  1.00  0.00     0.016 C 
ATOM     11  C   UNL A   1      34.480  23.106  25.270  1.00  0.00     0.023 C 
ATOM     12  C   UNL A   1      33.366  22.351  23.125  1.00  0.00     0.074 C 
ATOM     13  S   UNL A   1      31.771  22.375  25.330  1.00  0.00    -0.150 SA
ATOM     14  C   UNL A   1      32.862  23.710  22.662  1.00  0.00     0.049 C 
ATOM     15  C   UNL A   1      31.490  24.087  24.890  1.00  0.00     0.107 C 
ATOM     16  N   UNL A   1      33.276  24.086  21.493  1.00  0.00    -0.217 NA
ATOM     17  C   UNL A   1      31.883  24.460  23.500  1.00  0.00    -0.019 C 
ATOM     18  C   UNL A   1      32.822  25.248  20.916  1.00  0.00     0.264 C 
ATOM     19  C   UNL A   1      31.463  25.623  22.988  1.00  0.00     0.004 C 
ATOM     20  O   UNL A   1      32.994  25.483  19.721  1.00  0.00    -0.271 OA
ENDBRANCH   6   8
ENDBRANCH   5   6
ENDBRANCH   4   5
ENDBRANCH   3   4
ENDBRANCH   2   3
ENDBRANCH   1   2
BRANCH   1  21
ATOM     21  C   UNL A   1      31.569  31.796  26.474  1.00  0.00     0.261 C 
BRANCH  21  22
ATOM     22  O   UNL A   1      32.468  31.723  27.590  1.00  0.00    -0.460 OA
BRANCH  22  23
ATOM     23  C   UNL A   1      33.388  32.717  27.642  1.00  0.00     0.338 C 
ATOM     24  O   UNL A   1      33.177  33.915  27.582  1.00  0.00    -0.246 OA
BRANCH  23  25
ATOM     25  C   UNL A   1      34.710  32.160  27.991  1.00  0.00     0.060 A 
ATOM     26  C   UNL A   1      34.771  30.785  28.253  1.00  0.00     0.016 A 
ATOM     27  C   UNL A   1      35.844  32.962  28.123  1.00  0.00     0.016 A 
ATOM     28  C   UNL A   1      35.954  30.218  28.716  1.00  0.00     0.010 A 
ATOM     29  C   UNL A   1      37.030  32.391  28.599  1.00  0.00     0.010 A 
ATOM     30  C   UNL A   1      37.075  31.026  28.937  1.00  0.00    -0.014 A 
BRANCH  30  31
ATOM     31  C   UNL A   1      38.235  30.463  29.667  1.00  0.00     0.031 A 
ATOM     32  C   UNL A   1      38.472  30.883  31.092  1.00  0.00     0.074 A 
ATOM     33  C   UNL A   1      39.046  29.566  29.079  1.00  0.00     0.049 A 
ATOM     34  N   UNL A   1      39.402  30.495  31.925  1.00  0.00    -0.248 NA
ATOM     35  C   UNL A   1      37.535  31.870  31.655  1.00  0.00     0.031 C 
ATOM     36  C   UNL A   1      38.915  29.084  27.705  1.00  0.00     0.029 A 
ATOM     37  N   UNL A   1      40.152  28.914  29.563  1.00  0.00    -0.354 N 
ATOM     38  C   UNL A   1      39.178  31.203  33.099  1.00  0.00     0.074 A 
ATOM     39  C   UNL A   1      38.033  32.057  32.867  1.00  0.00     0.031 C 
ATOM     40  C   UNL A   1      39.920  28.229  27.447  1.00  0.00     0.029 A 
ATOM     41  C   UNL A   1      40.772  28.118  28.629  1.00  0.00     0.049 A 
ATOM     42  H   UNL A   1      40.471  29.009  30.490  1.00  0.00     0.167 HD
ATOM     43  C   UNL A   1      39.851  31.135  34.272  1.00  0.00     0.034 A 
ATOM     44  C   UNL A   1      41.906  27.395  28.718  1.00  0.00     0.034 A 
ATOM     45  C   UNL A   1      40.978  30.272  34.505  1.00  0.00     0.049 A 
ATOM     46  C   UNL A   1      42.647  27.349  30.029  1.00  0.00     0.074 A 
ATOM     47  C   UNL A   1      41.700  30.095  35.671  1.00  0.00     0.029 A 
ATOM     48  N   UNL A   1      41.554  29.449  33.549  1.00  0.00    -0.354 N 
ATOM     49  N   UNL A   1      42.346  27.924  31.170  1.00  0.00    -0.248 NA
ATOM     50  C   UNL A   1      43.864  26.527  30.076  1.00  0.00     0.031 C 
ATOM     51  C   UNL A   1      42.728  29.182  35.415  1.00  0.00     0.029 A 
ATOM     52  C   UNL A   1      42.630  28.771  34.095  1.00  0.00     0.049 A 
ATOM     53  H   UNL A   1      41.243  29.361  32.619  1.00  0.00     0.167 HD
ATOM     54  C   UNL A   1      43.315  27.506  32.076  1.00  0.00     0.074 A 
ATOM     55  C   UNL A   1      44.200  26.612  31.356  1.00  0.00     0.031 C 
ATOM     56  C   UNL A   1      43.469  27.844  33.380  1.00  0.00     0.034 A 
BRANCH  43  57
ATOM     57  C   UNL A   1      39.365  31.997  35.406  1.00  0.00     0.023 A 
ATOM     58  C   UNL A   1      38.468  31.460  36.352  1.00  0.00     0.012 A 
ATOM     59  C   UNL A   1      39.833  33.315  35.568  1.00  0.00     0.148 A 
ATOM     60  C   UNL A   1      38.021  32.230  37.425  1.00  0.00     0.002 A 
ATOM     61  C   UNL A   1      39.416  34.063  36.662  1.00  0.00     0.091 A 
ATOM     62  F   UNL A   1      40.666  33.816  34.645  1.00  0.00    -0.205 F 
ATOM     63  C   UNL A   1      38.503  33.527  37.585  1.00  0.00     0.022 A 
BRANCH  61  64
ATOM     64  S   UNL A   1      40.036  35.717  36.997  1.00  0.00     0.127 S 
ATOM     65  O   UNL A   1      39.351  36.041  38.248  1.00  0.00    -0.237 OA
ATOM     66  O   UNL A   1      41.474  35.484  37.133  1.00  0.00    -0.237 OA
ATOM     67  O   UNL A   1      39.659  36.526  35.848  1.00  0.00    -0.744 OA
ENDBRANCH  61  64
ENDBRANCH  43  57
BRANCH  44  68
ATOM     68  C   UNL A   1      42.385  26.619  27.540  1.00  0.00     0.023 A 
ATOM     69  C   UNL A   1      43.208  27.243  26.583  1.00  0.00     0.012 A 
ATOM     70  C   UNL A   1      42.047  25.260  27.375  1.00  0.00     0.148 A 
ATOM     71  C   UNL A   1      43.664  26.538  25.468  1.00  0.00     0.002 A 
ATOM     72  C   UNL A   1      42.550  24.549  26.292  1.00  0.00     0.091 A 
ATOM     73  F   UNL A   1      41.247  24.689  28.286  1.00  0.00    -0.205 F 
ATOM     74  C   UNL A   1      43.344  25.189  25.328  1.00  0.00     0.022 A 
BRANCH  72  75
ATOM     75  S   UNL A   1      42.300  22.780  26.104  1.00  0.00     0.127 S 
ATOM     76  O   UNL A   1      42.915  22.527  24.804  1.00  0.00    -0.237 OA
ATOM     77  O   UNL A   1      43.038  22.246  27.250  1.00  0.00    -0.237 OA
ATOM     78  O   UNL A   1      40.859  22.577  26.175  1.00  0.00    -0.744 OA
ENDBRANCH  72  75
ENDBRANCH  44  68
BRANCH  56  79
ATOM     79  C   UNL A   1      44.619  27.224  34.132  1.00  0.00     0.023 A 
ATOM     80  C   UNL A   1      45.885  27.845  34.110  1.00  0.00     0.012 A 
ATOM     81  C   UNL A   1      44.429  26.072  34.920  1.00  0.00     0.148 A 
ATOM     82  C   UNL A   1      46.950  27.310  34.834  1.00  0.00     0.002 A 
ATOM     83  C   UNL A   1      45.483  25.571  35.676  1.00  0.00     0.091 A 
ATOM     84  F   UNL A   1      43.223  25.484  34.915  1.00  0.00    -0.205 F 
ATOM     85  C   UNL A   1      46.747  26.182  35.625  1.00  0.00     0.022 A 
BRANCH  83  86
ATOM     86  S   UNL A   1      45.286  24.179  36.796  1.00  0.00     0.127 S 
ATOM     87  O   UNL A   1      44.279  24.685  37.726  1.00  0.00    -0.237 OA
ATOM     88  O   UNL A   1      44.814  23.122  35.900  1.00  0.00    -0.237 OA
ATOM     89  O   UNL A   1      46.604  23.938  37.368  1.00  0.00    -0.744 OA
ENDBRANCH  83  86
ENDBRANCH  56  79
ENDBRANCH  30  31
ENDBRANCH  23  25
ENDBRANCH  22  23
ENDBRANCH  21  22
ENDBRANCH   1  21
TORSDOF 17
ENDMDL
MODEL 2
REMARK VINA RESULT:     -11.5      4.941     10.380
REMARK SMILES CC1(C)CC2=NC(=O)[C@H](C(=O)OCCOCCOC(=O)c3ccc(-c4c5nc(c(-c6cccc(S(=O)(=O)[O-])c6F)c6ccc([nH]6)c(-c6cccc(S(=O)(=O)[O-])c6F)c6nc(c(-c7cccc(S(=O)(=O)[O-])c7F)c7ccc4[nH]7)C=C6)C=C5)cc3)C=C2CS1
REMARK SMILES IDX 16 1 15 2 14 3 13 4 12 5 10 6 11 7 9 8 1 9 2 10 3 11 4 12
REMARK SMILES IDX 87 13 5 14 86 15 6 16 85 17 7 18 84 19 8 20 17 21 18 22
REMARK SMILES IDX 19 23 20 24 21 25 22 26 83 27 23 28 82 29 24 30 25 31 26 32
REMARK SMILES IDX 76 33 27 34 81 35 75 36 77 37 28 38 80 39 74 40 73 41 29 43
REMARK SMILES IDX 61 44 41 45 60 46 42 47 45 48 59 49 78 50 43 51 44 52 58 54
REMARK SMILES IDX 79 55 46 56 30 57 31 58 39 59 32 60 34 61 40 62 33 63 35 64
REMARK SMILES IDX 36 65 37 66 38 67 62 68 63 69 71 70 64 71 66 72 72 73 65 74
REMARK SMILES IDX 67 75 68 76 69 77 70 78 47 79 48 80 56 81 49 82 51 83 57 84
REMARK SMILES IDX 50 85 52 86 53 87 54 88 55 89
REMARK H PARENT 77 42 45 53
REMARK Flexibility Score: inf
ROOT
ATOM      1  C   UNL A   1      36.308  19.837  24.796  1.00  0.00     0.202 C 
ENDROOT
BRANCH   1   2
ATOM      2  O   UNL A   1      35.685  21.101  25.036  1.00  0.00    -0.374 OA
BRANCH   2   3
ATOM      3  C   UNL A   1      34.677  21.157  26.046  1.00  0.00     0.202 C 
BRANCH   3   4
ATOM      4  C   UNL A   1      33.228  21.251  25.563  1.00  0.00     0.261 C 
BRANCH   4   5
ATOM      5  O   UNL A   1      32.776  22.614  25.545  1.00  0.00    -0.462 OA
BRANCH   5   6
ATOM      6  C   UNL A   1      31.962  22.948  24.515  1.00  0.00     0.322 C 
ATOM      7  O   UNL A   1      32.140  22.596  23.350  1.00  0.00    -0.251 OA
BRANCH   6   8
ATOM      8  C   UNL A   1      30.726  23.716  24.948  1.00  0.00     0.213 C 
ATOM      9  C   UNL A   1      32.229  30.076  26.085  1.00  0.00     0.023 C 
ATOM     10  C   UNL A   1      32.132  28.681  25.452  1.00  0.00     0.016 C 
ATOM     11  C   UNL A   1      33.548  28.183  25.127  1.00  0.00     0.023 C 
ATOM     12  C   UNL A   1      31.407  27.731  26.402  1.00  0.00     0.074 C 
ATOM     13  S   UNL A   1      31.094  28.877  23.953  1.00  0.00    -0.150 SA
ATOM     14  C   UNL A   1      31.131  26.336  25.860  1.00  0.00     0.049 C 
ATOM     15  C   UNL A   1      31.113  27.189  23.358  1.00  0.00     0.107 C 
ATOM     16  N   UNL A   1      31.037  25.403  26.754  1.00  0.00    -0.217 NA
ATOM     17  C   UNL A   1      30.897  26.144  24.400  1.00  0.00    -0.019 C 
ATOM     18  C   UNL A   1      30.698  24.117  26.407  1.00  0.00     0.264 C 
ATOM     19  C   UNL A   1      30.616  24.890  24.025  1.00  0.00     0.004 C 
ATOM     20  O   UNL A   1      30.350  23.294  27.253  1.00  0.00    -0.271 OA
ENDBRANCH   6   8
ENDBRANCH   5   6
ENDBRANCH   4   5
ENDBRANCH   3   4
ENDBRANCH   2   3
ENDBRANCH   1   2
BRANCH   1  21
ATOM     21  C   UNL A   1      37.832  19.753  24.937  1.00  0.00     0.261 C 
BRANCH  21  22
ATOM     22  O   UNL A   1      38.397  20.971  25.445  1.00  0.00    -0.460 OA
BRANCH  22  23
ATOM     23  C   UNL A   1      39.555  20.816  26.130  1.00  0.00     0.338 C 
ATOM     24  O   UNL A   1      40.289  19.844  26.120  1.00  0.00    -0.246 OA
BRANCH  23  25
ATOM     25  C   UNL A   1      39.938  22.093  26.764  1.00  0.00     0.060 A 
ATOM     26  C   UNL A   1      39.295  23.249  26.303  1.00  0.00     0.016 A 
ATOM     27  C   UNL A   1      40.940  22.173  27.732  1.00  0.00     0.016 A 
ATOM     28  C   UNL A   1      39.700  24.499  26.761  1.00  0.00     0.010 A 
ATOM     29  C   UNL A   1      41.353  23.432  28.182  1.00  0.00     0.010 A 
ATOM     30  C   UNL A   1      40.763  24.599  27.666  1.00  0.00    -0.014 A 
BRANCH  30  31
ATOM     31  C   UNL A   1      41.349  25.932  27.942  1.00  0.00     0.031 A 
ATOM     32  C   UNL A   1      42.742  26.230  27.457  1.00  0.00     0.074 A 
ATOM     33  C   UNL A   1      40.638  26.873  28.587  1.00  0.00     0.049 A 
ATOM     34  N   UNL A   1      43.435  27.334  27.561  1.00  0.00    -0.248 NA
ATOM     35  C   UNL A   1      43.446  25.140  26.761  1.00  0.00     0.031 C 
ATOM     36  C   UNL A   1      39.281  26.699  29.103  1.00  0.00     0.029 A 
ATOM     37  N   UNL A   1      40.970  28.159  28.933  1.00  0.00    -0.354 N 
ATOM     38  C   UNL A   1      44.661  27.067  26.966  1.00  0.00     0.074 A 
ATOM     39  C   UNL A   1      44.625  25.692  26.516  1.00  0.00     0.031 C 
ATOM     40  C   UNL A   1      38.904  27.831  29.723  1.00  0.00     0.029 A 
ATOM     41  C   UNL A   1      39.997  28.800  29.663  1.00  0.00     0.049 A 
ATOM     42  H   UNL A   1      41.823  28.582  28.683  1.00  0.00     0.167 HD
ATOM     43  C   UNL A   1      45.717  27.897  26.790  1.00  0.00     0.034 A 
ATOM     44  C   UNL A   1      39.997  30.023  30.228  1.00  0.00     0.034 A 
ATOM     45  C   UNL A   1      45.743  29.269  27.222  1.00  0.00     0.049 A 
ATOM     46  C   UNL A   1      41.191  30.922  30.034  1.00  0.00     0.074 A 
ATOM     47  C   UNL A   1      46.746  30.206  27.050  1.00  0.00     0.029 A 
ATOM     48  N   UNL A   1      44.724  29.897  27.921  1.00  0.00    -0.354 N 
ATOM     49  N   UNL A   1      42.291  30.699  29.354  1.00  0.00    -0.248 NA
ATOM     50  C   UNL A   1      41.128  32.253  30.652  1.00  0.00     0.031 C 
ATOM     51  C   UNL A   1      46.343  31.395  27.667  1.00  0.00     0.029 A 
ATOM     52  C   UNL A   1      45.079  31.205  28.201  1.00  0.00     0.049 A 
ATOM     53  H   UNL A   1      43.875  29.474  28.182  1.00  0.00     0.167 HD
ATOM     54  C   UNL A   1      43.035  31.872  29.435  1.00  0.00     0.074 A 
ATOM     55  C   UNL A   1      42.249  32.810  30.212  1.00  0.00     0.031 C 
ATOM     56  C   UNL A   1      44.263  32.143  28.929  1.00  0.00     0.034 A 
BRANCH  43  57
ATOM     57  C   UNL A   1      46.921  27.352  26.070  1.00  0.00     0.023 A 
ATOM     58  C   UNL A   1      47.024  27.506  24.672  1.00  0.00     0.012 A 
ATOM     59  C   UNL A   1      47.971  26.736  26.777  1.00  0.00     0.148 A 
ATOM     60  C   UNL A   1      48.140  27.031  23.986  1.00  0.00     0.002 A 
ATOM     61  C   UNL A   1      49.099  26.301  26.091  1.00  0.00     0.091 A 
ATOM     62  F   UNL A   1      47.843  26.576  28.101  1.00  0.00    -0.205 F 
ATOM     63  C   UNL A   1      49.182  26.438  24.696  1.00  0.00     0.022 A 
BRANCH  61  64
ATOM     64  S   UNL A   1      50.525  25.591  26.925  1.00  0.00     0.127 S 
ATOM     65  O   UNL A   1      50.940  26.695  27.789  1.00  0.00    -0.237 OA
ATOM     66  O   UNL A   1      49.934  24.454  27.630  1.00  0.00    -0.237 OA
ATOM     67  O   UNL A   1      51.465  25.230  25.874  1.00  0.00    -0.744 OA
ENDBRANCH  61  64
ENDBRANCH  43  57
BRANCH  44  68
ATOM     68  C   UNL A   1      38.807  30.486  30.996  1.00  0.00     0.023 A 
ATOM     69  C   UNL A   1      38.761  30.295  32.390  1.00  0.00     0.012 A 
ATOM     70  C   UNL A   1      37.732  31.135  30.355  1.00  0.00     0.148 A 
ATOM     71  C   UNL A   1      37.653  30.714  33.129  1.00  0.00     0.002 A 
ATOM     72  C   UNL A   1      36.658  31.600  31.104  1.00  0.00     0.091 A 
ATOM     73  F   UNL A   1      37.787  31.291  29.025  1.00  0.00    -0.205 F 
ATOM     74  C   UNL A   1      36.608  31.376  32.489  1.00  0.00     0.022 A 
BRANCH  72  75
ATOM     75  S   UNL A   1      35.335  32.578  30.383  1.00  0.00     0.127 S 
ATOM     76  O   UNL A   1      34.884  31.715  29.295  1.00  0.00    -0.237 OA
ATOM     77  O   UNL A   1      34.402  32.698  31.504  1.00  0.00    -0.237 OA
ATOM     78  O   UNL A   1      35.950  33.836  29.982  1.00  0.00    -0.744 OA
ENDBRANCH  72  75
ENDBRANCH  44  68
BRANCH  56  79
ATOM     79  C   UNL A   1      44.829  33.520  29.167  1.00  0.00     0.023 A 
ATOM     80  C   UNL A   1      45.600  33.769  30.320  1.00  0.00     0.012 A 
ATOM     81  C   UNL A   1      44.663  34.544  28.213  1.00  0.00     0.148 A 
ATOM     82  C   UNL A   1      46.168  35.024  30.537  1.00  0.00     0.002 A 
ATOM     83  C   UNL A   1      45.271  35.778  28.413  1.00  0.00     0.091 A 
ATOM     84  F   UNL A   1      43.911  34.295  27.130  1.00  0.00    -0.205 F 
ATOM     85  C   UNL A   1      46.014  36.023  29.579  1.00  0.00     0.022 A 
BRANCH  83  86
ATOM     86  S   UNL A   1      45.204  37.091  27.188  1.00  0.00     0.127 S 
ATOM     87  O   UNL A   1      46.015  36.533  26.108  1.00  0.00    -0.237 OA
ATOM     88  O   UNL A   1      43.772  37.173  26.896  1.00  0.00    -0.237 OA
ATOM     89  O   UNL A   1      45.753  38.273  27.840  1.00  0.00    -0.744 OA
ENDBRANCH  83  86
ENDBRANCH  56  79
ENDBRANCH  30  31
ENDBRANCH  23  25
ENDBRANCH  22  23
ENDBRANCH  21  22
ENDBRANCH   1  21
TORSDOF 17
ENDMDL
MODEL 3
REMARK VINA RESULT:     -11.4      5.168     10.412
REMARK SMILES CC1(C)CC2=NC(=O)[C@H](C(=O)OCCOCCOC(=O)c3ccc(-c4c5nc(c(-c6cccc(S(=O)(=O)[O-])c6F)c6ccc([nH]6)c(-c6cccc(S(=O)(=O)[O-])c6F)c6nc(c(-c7cccc(S(=O)(=O)[O-])c7F)c7ccc4[nH]7)C=C6)C=C5)cc3)C=C2CS1
REMARK SMILES IDX 16 1 15 2 14 3 13 4 12 5 10 6 11 7 9 8 1 9 2 10 3 11 4 12
REMARK SMILES IDX 87 13 5 14 86 15 6 16 85 17 7 18 84 19 8 20 17 21 18 22
REMARK SMILES IDX 19 23 20 24 21 25 22 26 83 27 23 28 82 29 24 30 25 31 26 32
REMARK SMILES IDX 76 33 27 34 81 35 75 36 77 37 28 38 80 39 74 40 73 41 29 43
REMARK SMILES IDX 61 44 41 45 60 46 42 47 45 48 59 49 78 50 43 51 44 52 58 54
REMARK SMILES IDX 79 55 46 56 30 57 31 58 39 59 32 60 34 61 40 62 33 63 35 64
REMARK SMILES IDX 36 65 37 66 38 67 62 68 63 69 71 70 64 71 66 72 72 73 65 74
REMARK SMILES IDX 67 75 68 76 69 77 70 78 47 79 48 80 56 81 49 82 51 83 57 84
REMARK SMILES IDX 50 85 52 86 53 87 54 88 55 89
REMARK H PARENT 77 42 45 53
REMARK Flexibility Score: inf
ROOT
ATOM      1  C   UNL A   1      36.069  21.199  25.351  1.00  0.00     0.202 C 
ENDROOT
BRANCH   1   2
ATOM      2  O   UNL A   1      35.371  21.685  24.201  1.00  0.00    -0.374 OA
BRANCH   2   3
ATOM      3  C   UNL A   1      35.120  23.090  24.129  1.00  0.00     0.202 C 
BRANCH   3   4
ATOM      4  C   UNL A   1      33.940  23.530  23.259  1.00  0.00     0.261 C 
BRANCH   4   5
ATOM      5  O   UNL A   1      32.902  24.120  24.057  1.00  0.00    -0.462 OA
BRANCH   5   6
ATOM      6  C   UNL A   1      31.805  23.349  24.256  1.00  0.00     0.322 C 
ATOM      7  O   UNL A   1      31.744  22.151  23.981  1.00  0.00    -0.251 OA
BRANCH   6   8
ATOM      8  C   UNL A   1      30.677  24.075  24.965  1.00  0.00     0.213 C 
ATOM      9  C   UNL A   1      32.555  30.215  26.630  1.00  0.00     0.023 C 
ATOM     10  C   UNL A   1      32.315  28.913  25.853  1.00  0.00     0.016 C 
ATOM     11  C   UNL A   1      33.648  28.438  25.255  1.00  0.00     0.023 C 
ATOM     12  C   UNL A   1      31.709  27.862  26.779  1.00  0.00     0.074 C 
ATOM     13  S   UNL A   1      31.071  29.314  24.567  1.00  0.00    -0.150 SA
ATOM     14  C   UNL A   1      31.306  26.551  26.119  1.00  0.00     0.049 C 
ATOM     15  C   UNL A   1      30.941  27.715  23.773  1.00  0.00     0.107 C 
ATOM     16  N   UNL A   1      31.315  25.514  26.895  1.00  0.00    -0.217 NA
ATOM     17  C   UNL A   1      30.848  26.550  24.700  1.00  0.00    -0.019 C 
ATOM     18  C   UNL A   1      30.883  24.288  26.449  1.00  0.00     0.264 C 
ATOM     19  C   UNL A   1      30.470  25.358  24.221  1.00  0.00     0.004 C 
ATOM     20  O   UNL A   1      30.638  23.370  27.231  1.00  0.00    -0.271 OA
ENDBRANCH   6   8
ENDBRANCH   5   6
ENDBRANCH   4   5
ENDBRANCH   3   4
ENDBRANCH   2   3
ENDBRANCH   1   2
BRANCH   1  21
ATOM     21  C   UNL A   1      37.314  20.337  25.119  1.00  0.00     0.261 C 
BRANCH  21  22
ATOM     22  O   UNL A   1      38.507  21.127  25.010  1.00  0.00    -0.460 OA
BRANCH  22  23
ATOM     23  C   UNL A   1      39.431  20.893  25.973  1.00  0.00     0.338 C 
ATOM     24  O   UNL A   1      40.013  19.846  26.193  1.00  0.00    -0.246 OA
BRANCH  23  25
ATOM     25  C   UNL A   1      39.808  22.162  26.626  1.00  0.00     0.060 A 
ATOM     26  C   UNL A   1      39.191  23.328  26.154  1.00  0.00     0.016 A 
ATOM     27  C   UNL A   1      40.783  22.226  27.623  1.00  0.00     0.016 A 
ATOM     28  C   UNL A   1      39.595  24.570  26.630  1.00  0.00     0.010 A 
ATOM     29  C   UNL A   1      41.195  23.478  28.093  1.00  0.00     0.010 A 
ATOM     30  C   UNL A   1      40.632  24.655  27.567  1.00  0.00    -0.014 A 
BRANCH  30  31
ATOM     31  C   UNL A   1      41.223  25.980  27.868  1.00  0.00     0.031 A 
ATOM     32  C   UNL A   1      42.622  26.277  27.402  1.00  0.00     0.074 A 
ATOM     33  C   UNL A   1      40.510  26.916  28.520  1.00  0.00     0.049 A 
ATOM     34  N   UNL A   1      43.320  27.374  27.528  1.00  0.00    -0.248 NA
ATOM     35  C   UNL A   1      43.327  25.193  26.697  1.00  0.00     0.031 C 
ATOM     36  C   UNL A   1      39.148  26.743  29.019  1.00  0.00     0.029 A 
ATOM     37  N   UNL A   1      40.847  28.195  28.888  1.00  0.00    -0.354 N 
ATOM     38  C   UNL A   1      44.552  27.109  26.942  1.00  0.00     0.074 A 
ATOM     39  C   UNL A   1      44.512  25.741  26.472  1.00  0.00     0.031 C 
ATOM     40  C   UNL A   1      38.771  27.868  29.652  1.00  0.00     0.029 A 
ATOM     41  C   UNL A   1      39.870  28.831  29.616  1.00  0.00     0.049 A 
ATOM     42  H   UNL A   1      41.705  28.616  28.652  1.00  0.00     0.167 HD
ATOM     43  C   UNL A   1      45.614  27.935  26.788  1.00  0.00     0.034 A 
ATOM     44  C   UNL A   1      39.872  30.045  30.199  1.00  0.00     0.034 A 
ATOM     45  C   UNL A   1      45.644  29.300  27.240  1.00  0.00     0.049 A 
ATOM     46  C   UNL A   1      41.072  30.940  30.030  1.00  0.00     0.074 A 
ATOM     47  C   UNL A   1      46.654  30.233  27.092  1.00  0.00     0.029 A 
ATOM     48  N   UNL A   1      44.622  29.924  27.939  1.00  0.00    -0.354 N 
ATOM     49  N   UNL A   1      42.178  30.721  29.358  1.00  0.00    -0.248 NA
ATOM     50  C   UNL A   1      41.012  32.263  30.667  1.00  0.00     0.031 C 
ATOM     51  C   UNL A   1      46.252  31.416  27.723  1.00  0.00     0.029 A 
ATOM     52  C   UNL A   1      44.981  31.226  28.241  1.00  0.00     0.049 A 
ATOM     53  H   UNL A   1      43.767  29.502  28.185  1.00  0.00     0.167 HD
ATOM     54  C   UNL A   1      42.929  31.887  29.464  1.00  0.00     0.074 A 
ATOM     55  C   UNL A   1      42.140  32.819  30.246  1.00  0.00     0.031 C 
ATOM     56  C   UNL A   1      44.163  32.159  28.974  1.00  0.00     0.034 A 
BRANCH  43  57
ATOM     57  C   UNL A   1      46.822  27.392  26.073  1.00  0.00     0.023 A 
ATOM     58  C   UNL A   1      47.683  26.499  26.743  1.00  0.00     0.012 A 
ATOM     59  C   UNL A   1      47.077  27.721  24.728  1.00  0.00     0.148 A 
ATOM     60  C   UNL A   1      48.795  25.964  26.095  1.00  0.00     0.002 A 
ATOM     61  C   UNL A   1      48.165  27.153  24.076  1.00  0.00     0.091 A 
ATOM     62  F   UNL A   1      46.262  28.592  24.117  1.00  0.00    -0.205 F 
ATOM     63  C   UNL A   1      49.030  26.283  24.759  1.00  0.00     0.022 A 
BRANCH  61  64
ATOM     64  S   UNL A   1      48.509  27.443  22.336  1.00  0.00     0.127 S 
ATOM     65  O   UNL A   1      49.753  28.208  22.405  1.00  0.00    -0.237 OA
ATOM     66  O   UNL A   1      48.660  26.082  21.821  1.00  0.00    -0.237 OA
ATOM     67  O   UNL A   1      47.357  28.164  21.815  1.00  0.00    -0.744 OA
ENDBRANCH  61  64
ENDBRANCH  43  57
BRANCH  44  68
ATOM     68  C   UNL A   1      38.677  30.504  30.962  1.00  0.00     0.023 A 
ATOM     69  C   UNL A   1      38.579  30.224  32.338  1.00  0.00     0.012 A 
ATOM     70  C   UNL A   1      37.649  31.238  30.335  1.00  0.00     0.148 A 
ATOM     71  C   UNL A   1      37.466  30.637  33.071  1.00  0.00     0.002 A 
ATOM     72  C   UNL A   1      36.570  31.696  31.082  1.00  0.00     0.091 A 
ATOM     73  F   UNL A   1      37.751  31.479  29.021  1.00  0.00    -0.205 F 
ATOM     74  C   UNL A   1      36.467  31.383  32.446  1.00  0.00     0.022 A 
BRANCH  72  75
ATOM     75  S   UNL A   1      35.310  32.773  30.391  1.00  0.00     0.127 S 
ATOM     76  O   UNL A   1      36.103  33.917  29.950  1.00  0.00    -0.237 OA
ATOM     77  O   UNL A   1      34.765  31.948  29.312  1.00  0.00    -0.237 OA
ATOM     78  O   UNL A   1      34.374  33.030  31.477  1.00  0.00    -0.744 OA
ENDBRANCH  72  75
ENDBRANCH  44  68
BRANCH  56  79
ATOM     79  C   UNL A   1      44.735  33.528  29.237  1.00  0.00     0.023 A 
ATOM     80  C   UNL A   1      45.458  33.767  30.424  1.00  0.00     0.012 A 
ATOM     81  C   UNL A   1      44.623  34.554  28.279  1.00  0.00     0.148 A 
ATOM     82  C   UNL A   1      46.032  35.015  30.665  1.00  0.00     0.002 A 
ATOM     83  C   UNL A   1      45.236  35.781  28.506  1.00  0.00     0.091 A 
ATOM     84  F   UNL A   1      43.916  34.315  27.164  1.00  0.00    -0.205 F 
ATOM     85  C   UNL A   1      45.931  36.017  29.703  1.00  0.00     0.022 A 
BRANCH  83  86
ATOM     86  S   UNL A   1      45.238  37.096  27.280  1.00  0.00     0.127 S 
ATOM     87  O   UNL A   1      43.807  37.296  27.057  1.00  0.00    -0.237 OA
ATOM     88  O   UNL A   1      45.903  38.186  27.994  1.00  0.00    -0.237 OA
ATOM     89  O   UNL A   1      45.985  36.578  26.141  1.00  0.00    -0.744 OA
ENDBRANCH  83  86
ENDBRANCH  56  79
ENDBRANCH  30  31
ENDBRANCH  23  25
ENDBRANCH  22  23
ENDBRANCH  21  22
ENDBRANCH   1  21
TORSDOF 17
ENDMDL
