MODEL 1
REMARK VINA RESULT:     -11.6      0.000      0.000
REMARK SMILES O=C(OCCOCCOC(=O)[C@@H](CO)NC(=O)[C@H]1CCCc2ccccc21)c1ccc(-c2c3nc(c(-c4cccc(S(=O)(=O)[O-])c4F)c4ccc([nH]4)c(-c4cccc(S(=O)(=O)[O-])c4F)c4nc(c(-c5cccc(S(=O)(=O)[O-])c5F)c5ccc2[nH]5)C=C4)C=C3)cc1
REMARK SMILES IDX 5 1 4 2 3 3 2 4 1 5 28 6 29 7 90 8 30 9 89 10 31 11 32 12
REMARK SMILES IDX 33 13 83 14 34 15 88 16 82 17 84 18 35 19 87 20 81 21 80 22
REMARK SMILES IDX 36 24 68 25 48 26 67 27 49 28 52 29 66 30 85 31 50 32 51 33
REMARK SMILES IDX 65 35 86 36 53 37 37 38 38 39 46 40 39 41 41 42 47 43 40 44
REMARK SMILES IDX 42 45 43 46 44 47 45 48 69 49 70 50 78 51 71 52 73 53 79 54
REMARK SMILES IDX 72 55 74 56 75 57 76 58 77 59 54 60 55 61 63 62 56 63 58 64
REMARK SMILES IDX 64 65 57 66 59 67 60 68 61 69 62 70 6 71 7 72 8 73 9 74
REMARK SMILES IDX 10 75 11 76 12 77 13 78 14 79 15 81 16 82 17 84 18 85 19 86
REMARK SMILES IDX 27 87 20 88 22 89 26 90 21 91 23 92 25 93 24 94
REMARK H PARENT 84 23 52 34 14 80 15 83
REMARK Flexibility Score: inf
ROOT
ATOM      1  C   UNL A   1      35.615  21.818  24.850  1.00  0.00     0.202 C 
ENDROOT
BRANCH   1   2
ATOM      2  C   UNL A   1      37.117  21.585  24.592  1.00  0.00     0.261 C 
BRANCH   2   3
ATOM      3  O   UNL A   1      37.801  21.077  25.748  1.00  0.00    -0.460 OA
BRANCH   3   4
ATOM      4  C   UNL A   1      39.115  21.201  26.066  1.00  0.00     0.338 C 
ATOM      5  O   UNL A   1      39.853  20.231  25.910  1.00  0.00    -0.246 OA
BRANCH   4   6
ATOM      6  C   UNL A   1      39.699  22.464  26.609  1.00  0.00     0.060 A 
ATOM      7  C   UNL A   1      39.278  23.739  26.242  1.00  0.00     0.016 A 
ATOM      8  C   UNL A   1      40.695  22.363  27.593  1.00  0.00     0.016 A 
ATOM      9  C   UNL A   1      39.873  24.876  26.727  1.00  0.00     0.010 A 
ATOM     10  C   UNL A   1      41.270  23.515  28.144  1.00  0.00     0.010 A 
ATOM     11  C   UNL A   1      40.867  24.772  27.686  1.00  0.00    -0.014 A 
BRANCH  11  12
ATOM     12  C   UNL A   1      41.499  26.040  28.062  1.00  0.00     0.031 A 
ATOM     13  C   UNL A   1      42.858  26.334  27.515  1.00  0.00     0.074 A 
ATOM     14  C   UNL A   1      40.741  26.976  28.663  1.00  0.00     0.049 A 
ATOM     15  N   UNL A   1      43.575  27.412  27.644  1.00  0.00    -0.248 NA
ATOM     16  C   UNL A   1      43.481  25.287  26.683  1.00  0.00     0.031 C 
ATOM     17  C   UNL A   1      39.345  26.789  29.080  1.00  0.00     0.029 A 
ATOM     18  N   UNL A   1      41.009  28.277  28.978  1.00  0.00    -0.354 N 
ATOM     19  C   UNL A   1      44.753  27.159  26.957  1.00  0.00     0.074 A 
ATOM     20  C   UNL A   1      44.650  25.836  26.388  1.00  0.00     0.031 C 
ATOM     21  C   UNL A   1      38.879  27.941  29.585  1.00  0.00     0.029 A 
ATOM     22  C   UNL A   1      39.960  28.917  29.595  1.00  0.00     0.049 A 
ATOM     23  H   UNL A   1      41.870  28.715  28.782  1.00  0.00     0.167 HD
ATOM     24  C   UNL A   1      45.826  27.970  26.828  1.00  0.00     0.034 A 
ATOM     25  C   UNL A   1      39.908  30.142  30.146  1.00  0.00     0.034 A 
ATOM     26  C   UNL A   1      45.883  29.282  27.404  1.00  0.00     0.049 A 
ATOM     27  C   UNL A   1      41.148  30.988  30.054  1.00  0.00     0.074 A 
ATOM     28  C   UNL A   1      46.936  30.173  27.421  1.00  0.00     0.029 A 
ATOM     29  N   UNL A   1      44.827  29.888  28.074  1.00  0.00    -0.354 N 
ATOM     30  N   UNL A   1      42.274  30.733  29.428  1.00  0.00    -0.248 NA
ATOM     31  C   UNL A   1      41.115  32.287  30.732  1.00  0.00     0.031 C 
ATOM     32  C   UNL A   1      46.523  31.312  28.121  1.00  0.00     0.029 A 
ATOM     33  C   UNL A   1      45.203  31.142  28.512  1.00  0.00     0.049 A 
ATOM     34  H   UNL A   1      43.941  29.483  28.214  1.00  0.00     0.167 HD
ATOM     35  C   UNL A   1      43.080  31.844  29.625  1.00  0.00     0.074 A 
ATOM     36  C   UNL A   1      42.294  32.791  30.394  1.00  0.00     0.031 C 
ATOM     37  C   UNL A   1      44.362  32.060  29.238  1.00  0.00     0.034 A 
BRANCH  24  38
ATOM     38  C   UNL A   1      47.011  27.429  26.082  1.00  0.00     0.023 A 
ATOM     39  C   UNL A   1      47.935  26.588  26.734  1.00  0.00     0.012 A 
ATOM     40  C   UNL A   1      47.213  27.765  24.730  1.00  0.00     0.148 A 
ATOM     41  C   UNL A   1      49.058  26.111  26.055  1.00  0.00     0.002 A 
ATOM     42  C   UNL A   1      48.313  27.257  24.050  1.00  0.00     0.091 A 
ATOM     43  F   UNL A   1      46.338  28.593  24.142  1.00  0.00    -0.205 F 
ATOM     44  C   UNL A   1      49.242  26.439  24.714  1.00  0.00     0.022 A 
BRANCH  42  45
ATOM     45  S   UNL A   1      48.615  27.582  22.311  1.00  0.00     0.127 S 
ATOM     46  O   UNL A   1      49.991  28.078  22.338  1.00  0.00    -0.237 OA
ATOM     47  O   UNL A   1      48.457  26.252  21.722  1.00  0.00    -0.237 OA
ATOM     48  O   UNL A   1      47.615  28.558  21.901  1.00  0.00    -0.744 OA
ENDBRANCH  42  45
ENDBRANCH  24  38
BRANCH  25  49
ATOM     49  C   UNL A   1      38.686  30.606  30.862  1.00  0.00     0.023 A 
ATOM     50  C   UNL A   1      38.552  30.395  32.247  1.00  0.00     0.012 A 
ATOM     51  C   UNL A   1      37.645  31.257  30.169  1.00  0.00     0.148 A 
ATOM     52  C   UNL A   1      37.391  30.789  32.918  1.00  0.00     0.002 A 
ATOM     53  C   UNL A   1      36.520  31.703  30.853  1.00  0.00     0.091 A 
ATOM     54  F   UNL A   1      37.769  31.427  28.844  1.00  0.00    -0.205 F 
ATOM     55  C   UNL A   1      36.381  31.452  32.225  1.00  0.00     0.022 A 
BRANCH  53  56
ATOM     56  S   UNL A   1      35.245  32.677  30.047  1.00  0.00     0.127 S 
ATOM     57  O   UNL A   1      34.783  31.767  29.006  1.00  0.00    -0.237 OA
ATOM     58  O   UNL A   1      34.295  32.906  31.135  1.00  0.00    -0.237 OA
ATOM     59  O   UNL A   1      35.922  33.887  29.586  1.00  0.00    -0.744 OA
ENDBRANCH  53  56
ENDBRANCH  25  49
BRANCH  37  60
ATOM     60  C   UNL A   1      44.968  33.379  29.624  1.00  0.00     0.023 A 
ATOM     61  C   UNL A   1      45.677  33.494  30.835  1.00  0.00     0.012 A 
ATOM     62  C   UNL A   1      44.888  34.481  28.753  1.00  0.00     0.148 A 
ATOM     63  C   UNL A   1      46.269  34.703  31.192  1.00  0.00     0.002 A 
ATOM     64  C   UNL A   1      45.527  35.665  29.090  1.00  0.00     0.091 A 
ATOM     65  F   UNL A   1      44.188  34.351  27.617  1.00  0.00    -0.205 F 
ATOM     66  C   UNL A   1      46.205  35.782  30.314  1.00  0.00     0.022 A 
BRANCH  64  67
ATOM     67  S   UNL A   1      45.586  37.065  27.969  1.00  0.00     0.127 S 
ATOM     68  O   UNL A   1      44.169  37.277  27.683  1.00  0.00    -0.237 OA
ATOM     69  O   UNL A   1      46.205  38.101  28.797  1.00  0.00    -0.237 OA
ATOM     70  O   UNL A   1      46.399  36.635  26.838  1.00  0.00    -0.744 OA
ENDBRANCH  64  67
ENDBRANCH  37  60
ENDBRANCH  11  12
ENDBRANCH   4   6
ENDBRANCH   3   4
ENDBRANCH   2   3
ENDBRANCH   1   2
BRANCH   1  71
ATOM     71  O   UNL A   1      35.073  23.127  24.653  1.00  0.00    -0.374 OA
BRANCH  71  72
ATOM     72  C   UNL A   1      34.543  23.425  23.351  1.00  0.00     0.202 C 
BRANCH  72  73
ATOM     73  C   UNL A   1      33.372  22.525  23.005  1.00  0.00     0.261 C 
BRANCH  73  74
ATOM     74  O   UNL A   1      32.215  23.178  23.553  1.00  0.00    -0.462 OA
BRANCH  74  75
ATOM     75  C   UNL A   1      31.814  22.657  24.737  1.00  0.00     0.331 C 
ATOM     76  O   UNL A   1      31.902  21.469  25.021  1.00  0.00    -0.250 OA
BRANCH  75  77
ATOM     77  C   UNL A   1      31.306  23.724  25.730  1.00  0.00     0.218 C 
BRANCH  77  78
ATOM     78  C   UNL A   1      30.391  23.245  26.871  1.00  0.00     0.193 C 
BRANCH  78  79
ATOM     79  O   UNL A   1      29.632  22.080  26.581  1.00  0.00    -0.394 OA
ATOM     80  H   UNL A   1      28.768  22.338  26.223  1.00  0.00     0.210 HD
ENDBRANCH  78  79
ENDBRANCH  77  78
BRANCH  77  81
ATOM     81  N   UNL A   1      32.523  24.362  26.208  1.00  0.00    -0.340 N 
ATOM     82  C   UNL A   1      32.825  25.689  26.010  1.00  0.00     0.228 C 
ATOM     83  H   UNL A   1      33.171  23.810  26.704  1.00  0.00     0.164 HD
ATOM     84  O   UNL A   1      34.001  25.941  25.733  1.00  0.00    -0.274 OA
BRANCH  82  85
ATOM     85  C   UNL A   1      31.778  26.783  26.322  1.00  0.00     0.109 C 
ATOM     86  C   UNL A   1      32.554  27.796  27.210  1.00  0.00     0.018 C 
ATOM     87  C   UNL A   1      31.065  27.442  25.131  1.00  0.00    -0.032 A 
ATOM     88  C   UNL A   1      31.958  29.191  27.214  1.00  0.00     0.006 C 
ATOM     89  C   UNL A   1      31.154  28.830  24.890  1.00  0.00    -0.044 A 
ATOM     90  C   UNL A   1      30.174  26.722  24.317  1.00  0.00     0.005 A 
ATOM     91  C   UNL A   1      31.952  29.732  25.791  1.00  0.00     0.036 C 
ATOM     92  C   UNL A   1      30.476  29.418  23.803  1.00  0.00     0.004 A 
ATOM     93  C   UNL A   1      29.474  27.315  23.260  1.00  0.00     0.000 A 
ATOM     94  C   UNL A   1      29.639  28.663  22.990  1.00  0.00     0.000 A 
ENDBRANCH  82  85
ENDBRANCH  77  81
ENDBRANCH  75  77
ENDBRANCH  74  75
ENDBRANCH  73  74
ENDBRANCH  72  73
ENDBRANCH  71  72
ENDBRANCH   1  71
TORSDOF 21
ENDMDL
MODEL 2
REMARK VINA RESULT:     -11.4      1.246      1.575
REMARK SMILES O=C(OCCOCCOC(=O)[C@@H](CO)NC(=O)[C@H]1CCCc2ccccc21)c1ccc(-c2c3nc(c(-c4cccc(S(=O)(=O)[O-])c4F)c4ccc([nH]4)c(-c4cccc(S(=O)(=O)[O-])c4F)c4nc(c(-c5cccc(S(=O)(=O)[O-])c5F)c5ccc2[nH]5)C=C4)C=C3)cc1
REMARK SMILES IDX 5 1 4 2 3 3 2 4 1 5 28 6 29 7 90 8 30 9 89 10 31 11 32 12
REMARK SMILES IDX 33 13 83 14 34 15 88 16 82 17 84 18 35 19 87 20 81 21 80 22
REMARK SMILES IDX 36 24 68 25 48 26 67 27 49 28 52 29 66 30 85 31 50 32 51 33
REMARK SMILES IDX 65 35 86 36 53 37 37 38 38 39 46 40 39 41 41 42 47 43 40 44
REMARK SMILES IDX 42 45 43 46 44 47 45 48 69 49 70 50 78 51 71 52 73 53 79 54
REMARK SMILES IDX 72 55 74 56 75 57 76 58 77 59 54 60 55 61 63 62 56 63 58 64
REMARK SMILES IDX 64 65 57 66 59 67 60 68 61 69 62 70 6 71 7 72 8 73 9 74
REMARK SMILES IDX 10 75 11 76 12 77 13 78 14 79 15 81 16 82 17 84 18 85 19 86
REMARK SMILES IDX 27 87 20 88 22 89 26 90 21 91 23 92 25 93 24 94
REMARK H PARENT 84 23 52 34 14 80 15 83
REMARK Flexibility Score: inf
ROOT
ATOM      1  C   UNL A   1      35.543  21.694  24.708  1.00  0.00     0.202 C 
ENDROOT
BRANCH   1   2
ATOM      2  C   UNL A   1      37.063  21.507  24.530  1.00  0.00     0.261 C 
BRANCH   2   3
ATOM      3  O   UNL A   1      37.716  21.126  25.751  1.00  0.00    -0.460 OA
BRANCH   3   4
ATOM      4  C   UNL A   1      39.027  21.263  26.078  1.00  0.00     0.338 C 
ATOM      5  O   UNL A   1      39.771  20.294  25.947  1.00  0.00    -0.246 OA
BRANCH   4   6
ATOM      6  C   UNL A   1      39.599  22.538  26.603  1.00  0.00     0.060 A 
ATOM      7  C   UNL A   1      39.154  23.804  26.232  1.00  0.00     0.016 A 
ATOM      8  C   UNL A   1      40.611  22.460  27.572  1.00  0.00     0.016 A 
ATOM      9  C   UNL A   1      39.738  24.954  26.700  1.00  0.00     0.010 A 
ATOM     10  C   UNL A   1      41.177  23.625  28.105  1.00  0.00     0.010 A 
ATOM     11  C   UNL A   1      40.748  24.873  27.644  1.00  0.00    -0.014 A 
BRANCH  11  12
ATOM     12  C   UNL A   1      41.367  26.153  28.000  1.00  0.00     0.031 A 
ATOM     13  C   UNL A   1      42.711  26.464  27.430  1.00  0.00     0.074 A 
ATOM     14  C   UNL A   1      40.603  27.081  28.607  1.00  0.00     0.049 A 
ATOM     15  N   UNL A   1      43.413  27.554  27.539  1.00  0.00    -0.248 NA
ATOM     16  C   UNL A   1      43.337  25.421  26.595  1.00  0.00     0.031 C 
ATOM     17  C   UNL A   1      39.218  26.875  29.049  1.00  0.00     0.029 A 
ATOM     18  N   UNL A   1      40.856  28.389  28.909  1.00  0.00    -0.354 N 
ATOM     19  C   UNL A   1      44.584  27.314  26.835  1.00  0.00     0.074 A 
ATOM     20  C   UNL A   1      44.492  25.986  26.277  1.00  0.00     0.031 C 
ATOM     21  C   UNL A   1      38.742  28.024  29.553  1.00  0.00     0.029 A 
ATOM     22  C   UNL A   1      39.808  29.016  29.539  1.00  0.00     0.049 A 
ATOM     23  H   UNL A   1      41.707  28.838  28.695  1.00  0.00     0.167 HD
ATOM     24  C   UNL A   1      45.641  28.141  26.682  1.00  0.00     0.034 A 
ATOM     25  C   UNL A   1      39.746  30.245  30.082  1.00  0.00     0.034 A 
ATOM     26  C   UNL A   1      45.687  29.458  27.249  1.00  0.00     0.049 A 
ATOM     27  C   UNL A   1      40.970  31.109  29.963  1.00  0.00     0.074 A 
ATOM     28  C   UNL A   1      46.727  30.365  27.242  1.00  0.00     0.029 A 
ATOM     29  N   UNL A   1      44.633  30.052  27.931  1.00  0.00    -0.354 N 
ATOM     30  N   UNL A   1      42.089  30.867  29.321  1.00  0.00    -0.248 NA
ATOM     31  C   UNL A   1      40.927  32.413  30.632  1.00  0.00     0.031 C 
ATOM     32  C   UNL A   1      46.307  31.503  27.940  1.00  0.00     0.029 A 
ATOM     33  C   UNL A   1      44.996  31.315  28.354  1.00  0.00     0.049 A 
ATOM     34  H   UNL A   1      43.756  29.635  28.089  1.00  0.00     0.167 HD
ATOM     35  C   UNL A   1      42.881  31.992  29.497  1.00  0.00     0.074 A 
ATOM     36  C   UNL A   1      42.093  32.932  30.272  1.00  0.00     0.031 C 
ATOM     37  C   UNL A   1      44.153  32.226  29.087  1.00  0.00     0.034 A 
BRANCH  24  38
ATOM     38  C   UNL A   1      46.823  27.613  25.921  1.00  0.00     0.023 A 
ATOM     39  C   UNL A   1      46.886  27.757  24.521  1.00  0.00     0.012 A 
ATOM     40  C   UNL A   1      47.869  26.960  26.599  1.00  0.00     0.148 A 
ATOM     41  C   UNL A   1      47.965  27.237  23.804  1.00  0.00     0.002 A 
ATOM     42  C   UNL A   1      48.958  26.476  25.884  1.00  0.00     0.091 A 
ATOM     43  F   UNL A   1      47.769  26.805  27.926  1.00  0.00    -0.205 F 
ATOM     44  C   UNL A   1      49.002  26.605  24.485  1.00  0.00     0.022 A 
BRANCH  42  45
ATOM     45  S   UNL A   1      50.365  25.689  26.671  1.00  0.00     0.127 S 
ATOM     46  O   UNL A   1      51.273  25.506  25.538  1.00  0.00    -0.237 OA
ATOM     47  O   UNL A   1      50.785  26.708  27.632  1.00  0.00    -0.237 OA
ATOM     48  O   UNL A   1      49.862  24.457  27.263  1.00  0.00    -0.744 OA
ENDBRANCH  42  45
ENDBRANCH  24  38
BRANCH  25  49
ATOM     49  C   UNL A   1      38.528  30.695  30.814  1.00  0.00     0.023 A 
ATOM     50  C   UNL A   1      38.410  30.471  32.199  1.00  0.00     0.012 A 
ATOM     51  C   UNL A   1      37.475  31.345  30.138  1.00  0.00     0.148 A 
ATOM     52  C   UNL A   1      37.254  30.852  32.886  1.00  0.00     0.002 A 
ATOM     53  C   UNL A   1      36.355  31.778  30.838  1.00  0.00     0.091 A 
ATOM     54  F   UNL A   1      37.585  31.527  28.813  1.00  0.00    -0.205 F 
ATOM     55  C   UNL A   1      36.232  31.514  32.209  1.00  0.00     0.022 A 
BRANCH  53  56
ATOM     56  S   UNL A   1      35.066  32.751  30.053  1.00  0.00     0.127 S 
ATOM     57  O   UNL A   1      34.079  32.861  31.121  1.00  0.00    -0.237 OA
ATOM     58  O   UNL A   1      35.768  33.992  29.728  1.00  0.00    -0.237 OA
ATOM     59  O   UNL A   1      34.659  31.976  28.883  1.00  0.00    -0.744 OA
ENDBRANCH  53  56
ENDBRANCH  25  49
BRANCH  37  60
ATOM     60  C   UNL A   1      44.745  33.556  29.454  1.00  0.00     0.023 A 
ATOM     61  C   UNL A   1      45.482  33.688  30.646  1.00  0.00     0.012 A 
ATOM     62  C   UNL A   1      44.622  34.654  28.582  1.00  0.00     0.148 A 
ATOM     63  C   UNL A   1      46.061  34.908  30.985  1.00  0.00     0.002 A 
ATOM     64  C   UNL A   1      45.248  35.850  28.899  1.00  0.00     0.091 A 
ATOM     65  F   UNL A   1      43.895  34.508  27.465  1.00  0.00    -0.205 F 
ATOM     66  C   UNL A   1      45.955  35.984  30.106  1.00  0.00     0.022 A 
BRANCH  64  67
ATOM     67  S   UNL A   1      45.252  37.248  27.774  1.00  0.00     0.127 S 
ATOM     68  O   UNL A   1      45.963  38.257  28.556  1.00  0.00    -0.237 OA
ATOM     69  O   UNL A   1      45.998  36.723  26.630  1.00  0.00    -0.237 OA
ATOM     70  O   UNL A   1      43.852  37.539  27.496  1.00  0.00    -0.744 OA
ENDBRANCH  64  67
ENDBRANCH  37  60
ENDBRANCH  11  12
ENDBRANCH   4   6
ENDBRANCH   3   4
ENDBRANCH   2   3
ENDBRANCH   1   2
BRANCH   1  71
ATOM     71  O   UNL A   1      34.989  23.008  24.589  1.00  0.00    -0.374 OA
BRANCH  71  72
ATOM     72  C   UNL A   1      34.475  23.386  23.303  1.00  0.00     0.202 C 
BRANCH  72  73
ATOM     73  C   UNL A   1      33.247  22.574  22.931  1.00  0.00     0.261 C 
BRANCH  73  74
ATOM     74  O   UNL A   1      32.139  23.264  23.531  1.00  0.00    -0.462 OA
BRANCH  74  75
ATOM     75  C   UNL A   1      31.718  22.701  24.688  1.00  0.00     0.331 C 
ATOM     76  O   UNL A   1      31.785  21.500  24.923  1.00  0.00    -0.250 OA
BRANCH  75  77
ATOM     77  C   UNL A   1      31.216  23.734  25.719  1.00  0.00     0.218 C 
BRANCH  77  78
ATOM     78  C   UNL A   1      30.344  23.209  26.873  1.00  0.00     0.193 C 
BRANCH  78  79
ATOM     79  O   UNL A   1      29.251  24.045  27.225  1.00  0.00    -0.394 OA
ATOM     80  H   UNL A   1      28.433  23.524  27.226  1.00  0.00     0.210 HD
ENDBRANCH  78  79
ENDBRANCH  77  78
BRANCH  77  81
ATOM     81  N   UNL A   1      32.433  24.387  26.178  1.00  0.00    -0.340 N 
ATOM     82  C   UNL A   1      32.724  25.713  25.960  1.00  0.00     0.228 C 
ATOM     83  H   UNL A   1      33.089  23.846  26.675  1.00  0.00     0.164 HD
ATOM     84  O   UNL A   1      33.895  25.970  25.670  1.00  0.00    -0.274 OA
BRANCH  82  85
ATOM     85  C   UNL A   1      31.672  26.804  26.268  1.00  0.00     0.109 C 
ATOM     86  C   UNL A   1      32.418  27.780  27.221  1.00  0.00     0.018 C 
ATOM     87  C   UNL A   1      31.011  27.508  25.073  1.00  0.00    -0.032 A 
ATOM     88  C   UNL A   1      31.830  29.178  27.248  1.00  0.00     0.006 C 
ATOM     89  C   UNL A   1      31.119  28.903  24.883  1.00  0.00    -0.044 A 
ATOM     90  C   UNL A   1      30.149  26.823  24.199  1.00  0.00     0.005 A 
ATOM     91  C   UNL A   1      31.885  29.767  25.846  1.00  0.00     0.036 C 
ATOM     92  C   UNL A   1      30.488  29.532  23.790  1.00  0.00     0.004 A 
ATOM     93  C   UNL A   1      29.496  27.457  23.136  1.00  0.00     0.000 A 
ATOM     94  C   UNL A   1      29.681  28.812  22.920  1.00  0.00     0.000 A 
ENDBRANCH  82  85
ENDBRANCH  77  81
ENDBRANCH  75  77
ENDBRANCH  74  75
ENDBRANCH  73  74
ENDBRANCH  72  73
ENDBRANCH  71  72
ENDBRANCH   1  71
TORSDOF 21
ENDMDL
MODEL 3
REMARK VINA RESULT:     -11.1      5.012     10.043
REMARK SMILES O=C(OCCOCCOC(=O)[C@@H](CO)NC(=O)[C@H]1CCCc2ccccc21)c1ccc(-c2c3nc(c(-c4cccc(S(=O)(=O)[O-])c4F)c4ccc([nH]4)c(-c4cccc(S(=O)(=O)[O-])c4F)c4nc(c(-c5cccc(S(=O)(=O)[O-])c5F)c5ccc2[nH]5)C=C4)C=C3)cc1
REMARK SMILES IDX 5 1 4 2 3 3 2 4 1 5 28 6 29 7 90 8 30 9 89 10 31 11 32 12
REMARK SMILES IDX 33 13 83 14 34 15 88 16 82 17 84 18 35 19 87 20 81 21 80 22
REMARK SMILES IDX 36 24 68 25 48 26 67 27 49 28 52 29 66 30 85 31 50 32 51 33
REMARK SMILES IDX 65 35 86 36 53 37 37 38 38 39 46 40 39 41 41 42 47 43 40 44
REMARK SMILES IDX 42 45 43 46 44 47 45 48 69 49 70 50 78 51 71 52 73 53 79 54
REMARK SMILES IDX 72 55 74 56 75 57 76 58 77 59 54 60 55 61 63 62 56 63 58 64
REMARK SMILES IDX 64 65 57 66 59 67 60 68 61 69 62 70 6 71 7 72 8 73 9 74
REMARK SMILES IDX 10 75 11 76 12 77 13 78 14 79 15 81 16 82 17 84 18 85 19 86
REMARK SMILES IDX 27 87 20 88 22 89 26 90 21 91 23 92 25 93 24 94
REMARK H PARENT 84 23 52 34 14 80 15 83
REMARK Flexibility Score: inf
ROOT
ATOM      1  C   UNL A   1      33.158  28.927  26.194  1.00  0.00     0.202 C 
ENDROOT
BRANCH   1   2
ATOM      2  C   UNL A   1      32.603  30.336  25.905  1.00  0.00     0.261 C 
BRANCH   2   3
ATOM      3  O   UNL A   1      32.485  31.135  27.094  1.00  0.00    -0.460 OA
BRANCH   3   4
ATOM      4  C   UNL A   1      33.383  32.016  27.604  1.00  0.00     0.338 C 
ATOM      5  O   UNL A   1      33.089  33.209  27.628  1.00  0.00    -0.246 OA
BRANCH   4   6
ATOM      6  C   UNL A   1      34.719  31.598  28.124  1.00  0.00     0.060 A 
ATOM      7  C   UNL A   1      34.999  30.329  28.624  1.00  0.00     0.016 A 
ATOM      8  C   UNL A   1      35.775  32.519  28.053  1.00  0.00     0.016 A 
ATOM      9  C   UNL A   1      36.228  29.997  29.138  1.00  0.00     0.010 A 
ATOM     10  C   UNL A   1      37.051  32.177  28.518  1.00  0.00     0.010 A 
ATOM     11  C   UNL A   1      37.263  30.915  29.081  1.00  0.00    -0.014 A 
BRANCH  11  12
ATOM     12  C   UNL A   1      38.500  30.495  29.746  1.00  0.00     0.031 A 
ATOM     13  C   UNL A   1      38.707  30.905  31.167  1.00  0.00     0.074 A 
ATOM     14  C   UNL A   1      39.261  29.563  29.141  1.00  0.00     0.049 A 
ATOM     15  N   UNL A   1      39.676  30.589  31.976  1.00  0.00    -0.248 NA
ATOM     16  C   UNL A   1      37.667  31.759  31.771  1.00  0.00     0.031 C 
ATOM     17  C   UNL A   1      39.012  29.010  27.804  1.00  0.00     0.029 A 
ATOM     18  N   UNL A   1      40.358  28.880  29.583  1.00  0.00    -0.354 N 
ATOM     19  C   UNL A   1      39.394  31.243  33.166  1.00  0.00     0.074 A 
ATOM     20  C   UNL A   1      38.150  31.955  32.988  1.00  0.00     0.031 C 
ATOM     21  C   UNL A   1      39.925  28.062  27.543  1.00  0.00     0.029 A 
ATOM     22  C   UNL A   1      40.861  27.998  28.657  1.00  0.00     0.049 A 
ATOM     23  H   UNL A   1      40.750  29.008  30.478  1.00  0.00     0.167 HD
ATOM     24  C   UNL A   1      40.126  31.247  34.301  1.00  0.00     0.034 A 
ATOM     25  C   UNL A   1      41.984  27.259  28.699  1.00  0.00     0.034 A 
ATOM     26  C   UNL A   1      41.355  30.519  34.436  1.00  0.00     0.049 A 
ATOM     27  C   UNL A   1      42.818  27.350  29.947  1.00  0.00     0.074 A 
ATOM     28  C   UNL A   1      42.236  30.502  35.498  1.00  0.00     0.029 A 
ATOM     29  N   UNL A   1      41.874  29.675  33.464  1.00  0.00    -0.354 N 
ATOM     30  N   UNL A   1      42.563  27.995  31.061  1.00  0.00    -0.248 NA
ATOM     31  C   UNL A   1      44.084  26.611  29.951  1.00  0.00     0.031 C 
ATOM     32  C   UNL A   1      43.302  29.662  35.157  1.00  0.00     0.029 A 
ATOM     33  C   UNL A   1      43.067  29.132  33.896  1.00  0.00     0.049 A 
ATOM     34  H   UNL A   1      41.453  29.490  32.594  1.00  0.00     0.167 HD
ATOM     35  C   UNL A   1      43.630  27.731  31.907  1.00  0.00     0.074 A 
ATOM     36  C   UNL A   1      44.513  26.833  31.186  1.00  0.00     0.031 C 
ATOM     37  C   UNL A   1      43.884  28.207  33.152  1.00  0.00     0.034 A 
BRANCH  24  38
ATOM     38  C   UNL A   1      39.631  32.096  35.436  1.00  0.00     0.023 A 
ATOM     39  C   UNL A   1      38.715  31.570  36.368  1.00  0.00     0.012 A 
ATOM     40  C   UNL A   1      40.070  33.427  35.571  1.00  0.00     0.148 A 
ATOM     41  C   UNL A   1      38.224  32.365  37.405  1.00  0.00     0.002 A 
ATOM     42  C   UNL A   1      39.605  34.202  36.626  1.00  0.00     0.091 A 
ATOM     43  F   UNL A   1      40.915  33.915  34.652  1.00  0.00    -0.205 F 
ATOM     44  C   UNL A   1      38.675  33.677  37.537  1.00  0.00     0.022 A 
BRANCH  42  45
ATOM     45  S   UNL A   1      40.159  35.886  36.911  1.00  0.00     0.127 S 
ATOM     46  O   UNL A   1      39.668  36.565  35.711  1.00  0.00    -0.237 OA
ATOM     47  O   UNL A   1      39.450  36.233  38.142  1.00  0.00    -0.237 OA
ATOM     48  O   UNL A   1      41.608  35.821  37.034  1.00  0.00    -0.744 OA
ENDBRANCH  42  45
ENDBRANCH  24  38
BRANCH  25  49
ATOM     49  C   UNL A   1      42.400  26.434  27.528  1.00  0.00     0.023 A 
ATOM     50  C   UNL A   1      43.150  27.010  26.486  1.00  0.00     0.012 A 
ATOM     51  C   UNL A   1      42.046  25.072  27.441  1.00  0.00     0.148 A 
ATOM     52  C   UNL A   1      43.508  26.255  25.365  1.00  0.00     0.002 A 
ATOM     53  C   UNL A   1      42.458  24.311  26.354  1.00  0.00     0.091 A 
ATOM     54  F   UNL A   1      41.306  24.542  28.425  1.00  0.00    -0.205 F 
ATOM     55  C   UNL A   1      43.172  24.904  25.304  1.00  0.00     0.022 A 
BRANCH  53  56
ATOM     56  S   UNL A   1      42.173  22.539  26.276  1.00  0.00     0.127 S 
ATOM     57  O   UNL A   1      42.831  22.075  27.492  1.00  0.00    -0.237 OA
ATOM     58  O   UNL A   1      40.712  22.460  26.294  1.00  0.00    -0.237 OA
ATOM     59  O   UNL A   1      42.775  22.109  25.018  1.00  0.00    -0.744 OA
ENDBRANCH  53  56
ENDBRANCH  25  49
BRANCH  37  60
ATOM     60  C   UNL A   1      45.150  27.736  33.807  1.00  0.00     0.023 A 
ATOM     61  C   UNL A   1      46.328  28.497  33.677  1.00  0.00     0.012 A 
ATOM     62  C   UNL A   1      45.151  26.576  34.604  1.00  0.00     0.148 A 
ATOM     63  C   UNL A   1      47.503  28.088  34.302  1.00  0.00     0.002 A 
ATOM     64  C   UNL A   1      46.311  26.206  35.268  1.00  0.00     0.091 A 
ATOM     65  F   UNL A   1      44.023  25.858  34.692  1.00  0.00    -0.205 F 
ATOM     66  C   UNL A   1      47.490  26.952  35.108  1.00  0.00     0.022 A 
BRANCH  64  67
ATOM     67  S   UNL A   1      46.351  24.821  36.409  1.00  0.00     0.127 S 
ATOM     68  O   UNL A   1      46.056  23.698  35.523  1.00  0.00    -0.237 OA
ATOM     69  O   UNL A   1      47.728  24.865  36.903  1.00  0.00    -0.237 OA
ATOM     70  O   UNL A   1      45.341  25.108  37.418  1.00  0.00    -0.744 OA
ENDBRANCH  64  67
ENDBRANCH  37  60
ENDBRANCH  11  12
ENDBRANCH   4   6
ENDBRANCH   3   4
ENDBRANCH   2   3
ENDBRANCH   1   2
BRANCH   1  71
ATOM     71  O   UNL A   1      32.749  27.838  25.362  1.00  0.00    -0.374 OA
BRANCH  71  72
ATOM     72  C   UNL A   1      31.416  27.337  25.551  1.00  0.00     0.202 C 
BRANCH  72  73
ATOM     73  C   UNL A   1      30.534  27.628  24.351  1.00  0.00     0.261 C 
BRANCH  73  74
ATOM     74  O   UNL A   1      31.230  27.071  23.224  1.00  0.00    -0.462 OA
BRANCH  74  75
ATOM     75  C   UNL A   1      31.278  25.717  23.238  1.00  0.00     0.331 C 
ATOM     76  O   UNL A   1      30.371  25.010  23.660  1.00  0.00    -0.250 OA
BRANCH  75  77
ATOM     77  C   UNL A   1      32.558  25.148  22.590  1.00  0.00     0.218 C 
BRANCH  77  78
ATOM     78  C   UNL A   1      32.829  25.520  21.122  1.00  0.00     0.193 C 
BRANCH  78  79
ATOM     79  O   UNL A   1      33.299  26.844  20.916  1.00  0.00    -0.394 OA
ATOM     80  H   UNL A   1      32.728  27.468  21.391  1.00  0.00     0.210 HD
ENDBRANCH  78  79
ENDBRANCH  77  78
BRANCH  77  81
ATOM     81  N   UNL A   1      33.621  25.573  23.489  1.00  0.00    -0.340 N 
ATOM     82  C   UNL A   1      34.330  24.719  24.300  1.00  0.00     0.228 C 
ATOM     83  H   UNL A   1      33.846  26.532  23.519  1.00  0.00     0.164 HD
ATOM     84  O   UNL A   1      34.578  25.131  25.437  1.00  0.00    -0.274 OA
BRANCH  82  85
ATOM     85  C   UNL A   1      34.936  23.418  23.724  1.00  0.00     0.109 C 
ATOM     86  C   UNL A   1      36.403  23.433  24.237  1.00  0.00     0.018 C 
ATOM     87  C   UNL A   1      34.201  22.101  24.022  1.00  0.00    -0.032 A 
ATOM     88  C   UNL A   1      37.052  22.063  24.279  1.00  0.00     0.006 C 
ATOM     89  C   UNL A   1      34.827  21.046  24.720  1.00  0.00    -0.044 A 
ATOM     90  C   UNL A   1      32.931  21.830  23.488  1.00  0.00     0.005 A 
ATOM     91  C   UNL A   1      36.247  21.160  25.203  1.00  0.00     0.036 C 
ATOM     92  C   UNL A   1      34.142  19.839  24.966  1.00  0.00     0.004 A 
ATOM     93  C   UNL A   1      32.266  20.617  23.704  1.00  0.00     0.000 A 
ATOM     94  C   UNL A   1      32.866  19.625  24.461  1.00  0.00     0.000 A 
ENDBRANCH  82  85
ENDBRANCH  77  81
ENDBRANCH  75  77
ENDBRANCH  74  75
ENDBRANCH  73  74
ENDBRANCH  72  73
ENDBRANCH  71  72
ENDBRANCH   1  71
TORSDOF 21
ENDMDL
