MODEL 1
REMARK VINA RESULT:     -11.1      0.000      0.000
REMARK SMILES CCOc1oc(-c2ccccc2SC)nc1C(=O)OCCOCCOC(=O)c1ccc(-c2c3nc(c(-c4cccc(S(=O)(=O)[O-])c4F)c4ccc([nH]4)c(-c4cccc(S(=O)(=O)[O-])c4F)c4nc(c(-c5cccc(S(=O)(=O)[O-])c5F)c5ccc2[nH]5)C=C4)C=C3)cc1
REMARK SMILES IDX 23 1 22 2 21 3 20 4 19 5 17 6 18 7 16 8 4 9 5 10 6 11 15 12
REMARK SMILES IDX 3 13 2 14 1 15 7 16 8 17 12 18 9 19 11 20 10 21 13 22 14 23
REMARK SMILES IDX 24 24 25 25 26 26 27 27 28 28 29 29 90 30 30 31 89 32 31 33
REMARK SMILES IDX 32 34 33 35 83 36 34 37 88 38 82 39 84 40 35 41 87 42 81 43
REMARK SMILES IDX 80 44 36 46 68 47 48 48 67 49 49 50 52 51 66 52 85 53 50 54
REMARK SMILES IDX 51 55 65 57 86 58 53 59 37 60 38 61 46 62 39 63 41 64 47 65
REMARK SMILES IDX 40 66 42 67 43 68 44 69 45 70 69 71 70 72 78 73 71 74 73 75
REMARK SMILES IDX 79 76 72 77 74 78 75 79 76 80 77 81 54 82 55 83 63 84 56 85
REMARK SMILES IDX 58 86 64 87 57 88 59 89 60 90 61 91 62 92
REMARK H PARENT 84 45 52 56
REMARK Flexibility Score: inf
ROOT
ATOM      1  C   UNL A   1      31.476  28.875  25.424  1.00  0.00     0.202 C 
ENDROOT
BRANCH   1   2
ATOM      2  O   UNL A   1      31.197  28.498  24.078  1.00  0.00    -0.374 OA
BRANCH   2   3
ATOM      3  C   UNL A   1      32.249  28.538  23.113  1.00  0.00     0.202 C 
BRANCH   3   4
ATOM      4  C   UNL A   1      32.384  27.374  22.129  1.00  0.00     0.261 C 
BRANCH   4   5
ATOM      5  O   UNL A   1      31.979  26.143  22.733  1.00  0.00    -0.458 OA
BRANCH   5   6
ATOM      6  C   UNL A   1      32.867  25.122  22.595  1.00  0.00     0.364 C 
ATOM      7  O   UNL A   1      33.995  25.230  22.121  1.00  0.00    -0.244 OA
BRANCH   6   8
ATOM      8  C   UNL A   1      32.359  23.875  23.121  1.00  0.00     0.233 A 
ATOM      9  C   UNL A   1      31.655  23.700  24.292  1.00  0.00     0.321 A 
ATOM     10  O   UNL A   1      31.720  22.370  24.618  1.00  0.00    -0.405 OA
ATOM     11  C   UNL A   1      32.437  21.815  23.584  1.00  0.00     0.232 A 
ATOM     12  N   UNL A   1      32.666  22.640  22.587  1.00  0.00    -0.198 NA
BRANCH   9  13
ATOM     13  O   UNL A   1      31.067  24.473  25.201  1.00  0.00    -0.464 OA
BRANCH  13  14
ATOM     14  C   UNL A   1      31.849  24.749  26.367  1.00  0.00     0.230 C 
ATOM     15  C   UNL A   1      33.344  24.606  26.125  1.00  0.00     0.049 C 
ENDBRANCH  13  14
ENDBRANCH   9  13
BRANCH  11  16
ATOM     16  C   UNL A   1      32.898  20.448  23.766  1.00  0.00     0.051 A 
ATOM     17  C   UNL A   1      32.176  19.431  23.101  1.00  0.00     0.015 A 
ATOM     18  C   UNL A   1      34.008  20.093  24.568  1.00  0.00     0.020 A 
ATOM     19  C   UNL A   1      32.537  18.087  23.209  1.00  0.00     0.001 A 
ATOM     20  C   UNL A   1      34.360  18.725  24.637  1.00  0.00     0.016 A 
ATOM     21  C   UNL A   1      33.638  17.735  23.971  1.00  0.00     0.001 A 
BRANCH  18  22
ATOM     22  S   UNL A   1      35.026  21.053  25.710  1.00  0.00    -0.129 SA
ATOM     23  C   UNL A   1      36.552  21.510  24.865  1.00  0.00     0.091 C 
ENDBRANCH  18  22
ENDBRANCH  11  16
ENDBRANCH   6   8
ENDBRANCH   5   6
ENDBRANCH   4   5
ENDBRANCH   3   4
ENDBRANCH   2   3
ENDBRANCH   1   2
BRANCH   1  24
ATOM     24  C   UNL A   1      31.778  30.334  25.783  1.00  0.00     0.261 C 
BRANCH  24  25
ATOM     25  O   UNL A   1      32.312  30.509  27.095  1.00  0.00    -0.460 OA
BRANCH  25  26
ATOM     26  C   UNL A   1      33.020  31.652  27.251  1.00  0.00     0.338 C 
ATOM     27  O   UNL A   1      32.607  32.798  27.158  1.00  0.00    -0.246 OA
BRANCH  26  28
ATOM     28  C   UNL A   1      34.355  31.314  27.760  1.00  0.00     0.060 A 
ATOM     29  C   UNL A   1      34.633  29.964  28.016  1.00  0.00     0.016 A 
ATOM     30  C   UNL A   1      35.303  32.307  28.009  1.00  0.00     0.016 A 
ATOM     31  C   UNL A   1      35.853  29.605  28.570  1.00  0.00     0.010 A 
ATOM     32  C   UNL A   1      36.521  31.947  28.579  1.00  0.00     0.010 A 
ATOM     33  C   UNL A   1      36.780  30.601  28.896  1.00  0.00    -0.014 A 
BRANCH  33  34
ATOM     34  C   UNL A   1      37.954  30.257  29.721  1.00  0.00     0.031 A 
ATOM     35  C   UNL A   1      38.965  29.299  29.161  1.00  0.00     0.074 A 
ATOM     36  C   UNL A   1      38.100  30.788  30.947  1.00  0.00     0.049 A 
ATOM     37  N   UNL A   1      40.045  28.821  29.714  1.00  0.00    -0.248 NA
ATOM     38  C   UNL A   1      38.719  28.808  27.792  1.00  0.00     0.031 C 
ATOM     39  C   UNL A   1      37.175  31.733  31.572  1.00  0.00     0.029 A 
ATOM     40  N   UNL A   1      39.070  30.585  31.892  1.00  0.00    -0.354 N 
ATOM     41  C   UNL A   1      40.586  27.943  28.783  1.00  0.00     0.074 A 
ATOM     42  C   UNL A   1      39.715  27.950  27.630  1.00  0.00     0.031 C 
ATOM     43  C   UNL A   1      37.612  32.010  32.813  1.00  0.00     0.029 A 
ATOM     44  C   UNL A   1      38.825  31.239  33.074  1.00  0.00     0.049 A 
ATOM     45  H   UNL A   1      39.864  30.024  31.739  1.00  0.00     0.167 HD
ATOM     46  C   UNL A   1      41.715  27.203  28.881  1.00  0.00     0.034 A 
ATOM     47  C   UNL A   1      39.495  31.196  34.241  1.00  0.00     0.034 A 
ATOM     48  C   UNL A   1      42.578  27.221  30.030  1.00  0.00     0.049 A 
ATOM     49  C   UNL A   1      40.736  30.346  34.330  1.00  0.00     0.074 A 
ATOM     50  C   UNL A   1      43.778  26.561  30.216  1.00  0.00     0.029 A 
ATOM     51  N   UNL A   1      42.320  27.924  31.199  1.00  0.00    -0.354 N 
ATOM     52  N   UNL A   1      41.305  29.613  33.402  1.00  0.00    -0.248 NA
ATOM     53  C   UNL A   1      41.445  30.341  35.617  1.00  0.00     0.031 C 
ATOM     54  C   UNL A   1      44.224  26.828  31.513  1.00  0.00     0.029 A 
ATOM     55  C   UNL A   1      43.327  27.694  32.119  1.00  0.00     0.049 A 
ATOM     56  H   UNL A   1      41.537  28.499  31.350  1.00  0.00     0.167 HD
ATOM     57  C   UNL A   1      42.457  29.094  33.979  1.00  0.00     0.074 A 
ATOM     58  C   UNL A   1      42.514  29.610  35.332  1.00  0.00     0.031 C 
ATOM     59  C   UNL A   1      43.383  28.258  33.445  1.00  0.00     0.034 A 
BRANCH  46  60
ATOM     60  C   UNL A   1      42.076  26.314  27.721  1.00  0.00     0.023 A 
ATOM     61  C   UNL A   1      42.881  26.809  26.675  1.00  0.00     0.012 A 
ATOM     62  C   UNL A   1      41.652  24.971  27.691  1.00  0.00     0.148 A 
ATOM     63  C   UNL A   1      43.228  25.991  25.599  1.00  0.00     0.002 A 
ATOM     64  C   UNL A   1      42.043  24.149  26.641  1.00  0.00     0.091 A 
ATOM     65  F   UNL A   1      40.865  24.527  28.682  1.00  0.00    -0.205 F 
ATOM     66  C   UNL A   1      42.819  24.660  25.589  1.00  0.00     0.022 A 
BRANCH  64  67
ATOM     67  S   UNL A   1      41.634  22.401  26.577  1.00  0.00     0.127 S 
ATOM     68  O   UNL A   1      42.309  21.985  25.349  1.00  0.00    -0.237 OA
ATOM     69  O   UNL A   1      42.244  21.899  27.809  1.00  0.00    -0.237 OA
ATOM     70  O   UNL A   1      40.180  22.327  26.544  1.00  0.00    -0.744 OA
ENDBRANCH  64  67
ENDBRANCH  46  60
BRANCH  47  71
ATOM     71  C   UNL A   1      39.031  32.006  35.401  1.00  0.00     0.023 A 
ATOM     72  C   UNL A   1      39.238  33.398  35.401  1.00  0.00     0.012 A 
ATOM     73  C   UNL A   1      38.372  31.409  36.493  1.00  0.00     0.148 A 
ATOM     74  C   UNL A   1      38.824  34.179  36.481  1.00  0.00     0.002 A 
ATOM     75  C   UNL A   1      37.913  32.199  37.540  1.00  0.00     0.091 A 
ATOM     76  F   UNL A   1      38.194  30.080  36.478  1.00  0.00    -0.205 F 
ATOM     77  C   UNL A   1      38.154  33.581  37.546  1.00  0.00     0.022 A 
BRANCH  75  78
ATOM     78  S   UNL A   1      36.934  31.538  38.893  1.00  0.00     0.127 S 
ATOM     79  O   UNL A   1      35.772  32.424  38.882  1.00  0.00    -0.237 OA
ATOM     80  O   UNL A   1      36.674  30.173  38.435  1.00  0.00    -0.237 OA
ATOM     81  O   UNL A   1      37.782  31.626  40.074  1.00  0.00    -0.744 OA
ENDBRANCH  75  78
ENDBRANCH  47  71
BRANCH  59  82
ATOM     82  C   UNL A   1      44.564  27.886  34.303  1.00  0.00     0.023 A 
ATOM     83  C   UNL A   1      45.728  28.678  34.285  1.00  0.00     0.012 A 
ATOM     84  C   UNL A   1      44.484  26.791  35.187  1.00  0.00     0.148 A 
ATOM     85  C   UNL A   1      46.810  28.364  35.108  1.00  0.00     0.002 A 
ATOM     86  C   UNL A   1      45.542  26.519  36.043  1.00  0.00     0.091 A 
ATOM     87  F   UNL A   1      43.372  26.042  35.177  1.00  0.00    -0.205 F 
ATOM     88  C   UNL A   1      46.712  27.294  35.995  1.00  0.00     0.022 A 
BRANCH  86  89
ATOM     89  S   UNL A   1      45.464  25.228  37.290  1.00  0.00     0.127 S 
ATOM     90  O   UNL A   1      46.872  25.082  37.655  1.00  0.00    -0.237 OA
ATOM     91  O   UNL A   1      44.627  25.844  38.320  1.00  0.00    -0.237 OA
ATOM     92  O   UNL A   1      44.867  24.071  36.637  1.00  0.00    -0.744 OA
ENDBRANCH  86  89
ENDBRANCH  59  82
ENDBRANCH  33  34
ENDBRANCH  26  28
ENDBRANCH  25  26
ENDBRANCH  24  25
ENDBRANCH   1  24
TORSDOF 21
ENDMDL
MODEL 2
REMARK VINA RESULT:     -10.8      2.156      7.789
REMARK SMILES CCOc1oc(-c2ccccc2SC)nc1C(=O)OCCOCCOC(=O)c1ccc(-c2c3nc(c(-c4cccc(S(=O)(=O)[O-])c4F)c4ccc([nH]4)c(-c4cccc(S(=O)(=O)[O-])c4F)c4nc(c(-c5cccc(S(=O)(=O)[O-])c5F)c5ccc2[nH]5)C=C4)C=C3)cc1
REMARK SMILES IDX 23 1 22 2 21 3 20 4 19 5 17 6 18 7 16 8 4 9 5 10 6 11 15 12
REMARK SMILES IDX 3 13 2 14 1 15 7 16 8 17 12 18 9 19 11 20 10 21 13 22 14 23
REMARK SMILES IDX 24 24 25 25 26 26 27 27 28 28 29 29 90 30 30 31 89 32 31 33
REMARK SMILES IDX 32 34 33 35 83 36 34 37 88 38 82 39 84 40 35 41 87 42 81 43
REMARK SMILES IDX 80 44 36 46 68 47 48 48 67 49 49 50 52 51 66 52 85 53 50 54
REMARK SMILES IDX 51 55 65 57 86 58 53 59 37 60 38 61 46 62 39 63 41 64 47 65
REMARK SMILES IDX 40 66 42 67 43 68 44 69 45 70 69 71 70 72 78 73 71 74 73 75
REMARK SMILES IDX 79 76 72 77 74 78 75 79 76 80 77 81 54 82 55 83 63 84 56 85
REMARK SMILES IDX 58 86 64 87 57 88 59 89 60 90 61 91 62 92
REMARK H PARENT 84 45 52 56
REMARK Flexibility Score: inf
ROOT
ATOM      1  C   UNL A   1      32.168  28.865  26.563  1.00  0.00     0.202 C 
ENDROOT
BRANCH   1   2
ATOM      2  O   UNL A   1      32.706  28.213  25.416  1.00  0.00    -0.374 OA
BRANCH   2   3
ATOM      3  C   UNL A   1      32.041  27.062  24.895  1.00  0.00     0.202 C 
BRANCH   3   4
ATOM      4  C   UNL A   1      31.794  26.979  23.387  1.00  0.00     0.261 C 
BRANCH   4   5
ATOM      5  O   UNL A   1      31.422  25.653  23.002  1.00  0.00    -0.458 OA
BRANCH   5   6
ATOM      6  C   UNL A   1      32.456  24.775  22.911  1.00  0.00     0.364 C 
ATOM      7  O   UNL A   1      33.575  25.048  22.485  1.00  0.00    -0.244 OA
BRANCH   6   8
ATOM      8  C   UNL A   1      32.117  23.468  23.428  1.00  0.00     0.233 A 
ATOM      9  C   UNL A   1      31.488  23.192  24.621  1.00  0.00     0.321 A 
ATOM     10  O   UNL A   1      31.718  21.872  24.913  1.00  0.00    -0.405 OA
ATOM     11  C   UNL A   1      32.448  21.422  23.839  1.00  0.00     0.232 A 
ATOM     12  N   UNL A   1      32.540  22.287  22.853  1.00  0.00    -0.198 NA
BRANCH   9  13
ATOM     13  O   UNL A   1      30.855  23.874  25.571  1.00  0.00    -0.464 OA
BRANCH  13  14
ATOM     14  C   UNL A   1      30.772  23.222  26.842  1.00  0.00     0.230 C 
ATOM     15  C   UNL A   1      29.359  22.775  27.187  1.00  0.00     0.049 C 
ENDBRANCH  13  14
ENDBRANCH   9  13
BRANCH  11  16
ATOM     16  C   UNL A   1      33.070  20.115  23.970  1.00  0.00     0.051 A 
ATOM     17  C   UNL A   1      32.331  19.001  23.509  1.00  0.00     0.015 A 
ATOM     18  C   UNL A   1      34.351  19.905  24.533  1.00  0.00     0.020 A 
ATOM     19  C   UNL A   1      32.837  17.703  23.588  1.00  0.00     0.001 A 
ATOM     20  C   UNL A   1      34.843  18.580  24.578  1.00  0.00     0.016 A 
ATOM     21  C   UNL A   1      34.101  17.494  24.115  1.00  0.00     0.001 A 
BRANCH  18  22
ATOM     22  S   UNL A   1      35.482  21.015  25.401  1.00  0.00    -0.129 SA
ATOM     23  C   UNL A   1      36.007  22.302  24.252  1.00  0.00     0.091 C 
ENDBRANCH  18  22
ENDBRANCH  11  16
ENDBRANCH   6   8
ENDBRANCH   5   6
ENDBRANCH   4   5
ENDBRANCH   3   4
ENDBRANCH   2   3
ENDBRANCH   1   2
BRANCH   1  24
ATOM     24  C   UNL A   1      32.223  30.391  26.695  1.00  0.00     0.261 C 
BRANCH  24  25
ATOM     25  O   UNL A   1      33.526  30.941  26.510  1.00  0.00    -0.460 OA
BRANCH  25  26
ATOM     26  C   UNL A   1      33.928  31.753  27.517  1.00  0.00     0.338 C 
ATOM     27  O   UNL A   1      33.293  32.661  28.034  1.00  0.00    -0.246 OA
BRANCH  26  28
ATOM     28  C   UNL A   1      35.198  31.249  28.053  1.00  0.00     0.060 A 
ATOM     29  C   UNL A   1      35.235  29.920  28.499  1.00  0.00     0.016 A 
ATOM     30  C   UNL A   1      36.319  32.073  28.143  1.00  0.00     0.016 A 
ATOM     31  C   UNL A   1      36.390  29.423  29.085  1.00  0.00     0.010 A 
ATOM     32  C   UNL A   1      37.473  31.578  28.744  1.00  0.00     0.010 A 
ATOM     33  C   UNL A   1      37.495  30.265  29.251  1.00  0.00    -0.014 A 
BRANCH  33  34
ATOM     34  C   UNL A   1      38.618  29.829  30.102  1.00  0.00     0.031 A 
ATOM     35  C   UNL A   1      38.733  30.406  31.483  1.00  0.00     0.074 A 
ATOM     36  C   UNL A   1      39.515  28.941  29.640  1.00  0.00     0.049 A 
ATOM     37  N   UNL A   1      39.651  30.205  32.389  1.00  0.00    -0.248 NA
ATOM     38  C   UNL A   1      37.672  31.343  31.896  1.00  0.00     0.031 C 
ATOM     39  C   UNL A   1      39.480  28.320  28.316  1.00  0.00     0.029 A 
ATOM     40  N   UNL A   1      40.642  28.431  30.226  1.00  0.00    -0.354 N 
ATOM     41  C   UNL A   1      39.304  31.019  33.460  1.00  0.00     0.074 A 
ATOM     42  C   UNL A   1      38.096  31.720  33.093  1.00  0.00     0.031 C 
ATOM     43  C   UNL A   1      40.557  27.526  28.182  1.00  0.00     0.029 A 
ATOM     44  C   UNL A   1      41.365  27.611  29.395  1.00  0.00     0.049 A 
ATOM     45  H   UNL A   1      40.907  28.632  31.152  1.00  0.00     0.167 HD
ATOM     46  C   UNL A   1      39.938  31.160  34.648  1.00  0.00     0.034 A 
ATOM     47  C   UNL A   1      42.559  27.019  29.590  1.00  0.00     0.034 A 
ATOM     48  C   UNL A   1      41.131  30.442  35.001  1.00  0.00     0.049 A 
ATOM     49  C   UNL A   1      43.254  27.212  30.913  1.00  0.00     0.074 A 
ATOM     50  C   UNL A   1      41.824  30.460  36.197  1.00  0.00     0.029 A 
ATOM     51  N   UNL A   1      41.821  29.591  34.149  1.00  0.00    -0.354 N 
ATOM     52  N   UNL A   1      42.857  27.890  31.964  1.00  0.00    -0.248 NA
ATOM     53  C   UNL A   1      44.545  26.535  31.088  1.00  0.00     0.031 C 
ATOM     54  C   UNL A   1      42.957  29.654  36.054  1.00  0.00     0.029 A 
ATOM     55  C   UNL A   1      42.945  29.095  34.785  1.00  0.00     0.049 A 
ATOM     56  H   UNL A   1      41.550  29.372  33.229  1.00  0.00     0.167 HD
ATOM     57  C   UNL A   1      43.827  27.687  32.938  1.00  0.00     0.074 A 
ATOM     58  C   UNL A   1      44.823  26.811  32.355  1.00  0.00     0.031 C 
ATOM     59  C   UNL A   1      43.897  28.186  34.198  1.00  0.00     0.034 A 
BRANCH  46  60
ATOM     60  C   UNL A   1      39.356  32.127  35.644  1.00  0.00     0.023 A 
ATOM     61  C   UNL A   1      38.338  31.708  36.525  1.00  0.00     0.012 A 
ATOM     62  C   UNL A   1      39.850  33.443  35.736  1.00  0.00     0.148 A 
ATOM     63  C   UNL A   1      37.798  32.593  37.458  1.00  0.00     0.002 A 
ATOM     64  C   UNL A   1      39.340  34.305  36.700  1.00  0.00     0.091 A 
ATOM     65  F   UNL A   1      40.799  33.831  34.871  1.00  0.00    -0.205 F 
ATOM     66  C   UNL A   1      38.306  33.886  37.552  1.00  0.00     0.022 A 
BRANCH  64  67
ATOM     67  S   UNL A   1      39.984  35.962  36.954  1.00  0.00     0.127 S 
ATOM     68  O   UNL A   1      41.396  35.692  37.221  1.00  0.00    -0.237 OA
ATOM     69  O   UNL A   1      39.717  36.595  35.662  1.00  0.00    -0.237 OA
ATOM     70  O   UNL A   1      39.235  36.520  38.071  1.00  0.00    -0.744 OA
ENDBRANCH  64  67
ENDBRANCH  46  60
BRANCH  47  71
ATOM     71  C   UNL A   1      43.152  26.163  28.526  1.00  0.00     0.023 A 
ATOM     72  C   UNL A   1      42.686  24.846  28.357  1.00  0.00     0.012 A 
ATOM     73  C   UNL A   1      44.159  26.651  27.671  1.00  0.00     0.148 A 
ATOM     74  C   UNL A   1      43.233  24.018  27.376  1.00  0.00     0.002 A 
ATOM     75  C   UNL A   1      44.662  25.840  26.661  1.00  0.00     0.091 A 
ATOM     76  F   UNL A   1      44.596  27.905  27.856  1.00  0.00    -0.205 F 
ATOM     77  C   UNL A   1      44.214  24.517  26.523  1.00  0.00     0.022 A 
BRANCH  75  78
ATOM     78  S   UNL A   1      45.836  26.434  25.438  1.00  0.00     0.127 S 
ATOM     79  O   UNL A   1      47.021  26.680  26.257  1.00  0.00    -0.237 OA
ATOM     80  O   UNL A   1      45.935  25.286  24.537  1.00  0.00    -0.237 OA
ATOM     81  O   UNL A   1      45.223  27.616  24.845  1.00  0.00    -0.744 OA
ENDBRANCH  75  78
ENDBRANCH  47  71
BRANCH  59  82
ATOM     82  C   UNL A   1      45.062  27.760  35.052  1.00  0.00     0.023 A 
ATOM     83  C   UNL A   1      46.227  28.548  35.103  1.00  0.00     0.012 A 
ATOM     84  C   UNL A   1      44.965  26.613  35.866  1.00  0.00     0.148 A 
ATOM     85  C   UNL A   1      47.294  28.181  35.924  1.00  0.00     0.002 A 
ATOM     86  C   UNL A   1      46.007  26.285  36.722  1.00  0.00     0.091 A 
ATOM     87  F   UNL A   1      43.852  25.869  35.790  1.00  0.00    -0.205 F 
ATOM     88  C   UNL A   1      47.179  27.059  36.741  1.00  0.00     0.022 A 
BRANCH  86  89
ATOM     89  S   UNL A   1      45.905  24.920  37.885  1.00  0.00     0.127 S 
ATOM     90  O   UNL A   1      44.706  25.266  38.644  1.00  0.00    -0.237 OA
ATOM     91  O   UNL A   1      45.753  23.767  36.996  1.00  0.00    -0.237 OA
ATOM     92  O   UNL A   1      47.149  24.940  38.643  1.00  0.00    -0.744 OA
ENDBRANCH  86  89
ENDBRANCH  59  82
ENDBRANCH  33  34
ENDBRANCH  26  28
ENDBRANCH  25  26
ENDBRANCH  24  25
ENDBRANCH   1  24
TORSDOF 21
ENDMDL
MODEL 3
REMARK VINA RESULT:     -10.5      2.470      8.057
REMARK SMILES CCOc1oc(-c2ccccc2SC)nc1C(=O)OCCOCCOC(=O)c1ccc(-c2c3nc(c(-c4cccc(S(=O)(=O)[O-])c4F)c4ccc([nH]4)c(-c4cccc(S(=O)(=O)[O-])c4F)c4nc(c(-c5cccc(S(=O)(=O)[O-])c5F)c5ccc2[nH]5)C=C4)C=C3)cc1
REMARK SMILES IDX 23 1 22 2 21 3 20 4 19 5 17 6 18 7 16 8 4 9 5 10 6 11 15 12
REMARK SMILES IDX 3 13 2 14 1 15 7 16 8 17 12 18 9 19 11 20 10 21 13 22 14 23
REMARK SMILES IDX 24 24 25 25 26 26 27 27 28 28 29 29 90 30 30 31 89 32 31 33
REMARK SMILES IDX 32 34 33 35 83 36 34 37 88 38 82 39 84 40 35 41 87 42 81 43
REMARK SMILES IDX 80 44 36 46 68 47 48 48 67 49 49 50 52 51 66 52 85 53 50 54
REMARK SMILES IDX 51 55 65 57 86 58 53 59 37 60 38 61 46 62 39 63 41 64 47 65
REMARK SMILES IDX 40 66 42 67 43 68 44 69 45 70 69 71 70 72 78 73 71 74 73 75
REMARK SMILES IDX 79 76 72 77 74 78 75 79 76 80 77 81 54 82 55 83 63 84 56 85
REMARK SMILES IDX 58 86 64 87 57 88 59 89 60 90 61 91 62 92
REMARK H PARENT 84 45 52 56
REMARK Flexibility Score: inf
ROOT
ATOM      1  C   UNL A   1      31.689  29.274  27.414  1.00  0.00     0.202 C 
ENDROOT
BRANCH   1   2
ATOM      2  O   UNL A   1      32.440  28.078  27.225  1.00  0.00    -0.374 OA
BRANCH   2   3
ATOM      3  C   UNL A   1      31.935  27.070  26.349  1.00  0.00     0.202 C 
BRANCH   3   4
ATOM      4  C   UNL A   1      30.883  27.465  25.309  1.00  0.00     0.261 C 
BRANCH   4   5
ATOM      5  O   UNL A   1      31.345  27.187  23.984  1.00  0.00    -0.458 OA
BRANCH   5   6
ATOM      6  C   UNL A   1      32.614  27.600  23.726  1.00  0.00     0.364 C 
ATOM      7  O   UNL A   1      33.008  28.760  23.815  1.00  0.00    -0.244 OA
BRANCH   6   8
ATOM      8  C   UNL A   1      33.491  26.505  23.376  1.00  0.00     0.233 A 
ATOM      9  C   UNL A   1      33.639  25.932  22.132  1.00  0.00     0.321 A 
ATOM     10  O   UNL A   1      34.230  24.708  22.309  1.00  0.00    -0.405 OA
ATOM     11  C   UNL A   1      34.441  24.640  23.666  1.00  0.00     0.232 A 
ATOM     12  N   UNL A   1      34.191  25.762  24.305  1.00  0.00    -0.198 NA
BRANCH   9  13
ATOM     13  O   UNL A   1      33.260  26.197  20.885  1.00  0.00    -0.464 OA
BRANCH  13  14
ATOM     14  C   UNL A   1      32.618  25.119  20.198  1.00  0.00     0.230 C 
ATOM     15  C   UNL A   1      32.214  25.480  18.776  1.00  0.00     0.049 C 
ENDBRANCH  13  14
ENDBRANCH   9  13
BRANCH  11  16
ATOM     16  C   UNL A   1      34.824  23.346  24.206  1.00  0.00     0.051 A 
ATOM     17  C   UNL A   1      36.156  22.925  23.982  1.00  0.00     0.015 A 
ATOM     18  C   UNL A   1      33.947  22.500  24.922  1.00  0.00     0.020 A 
ATOM     19  C   UNL A   1      36.626  21.700  24.459  1.00  0.00     0.001 A 
ATOM     20  C   UNL A   1      34.461  21.276  25.410  1.00  0.00     0.016 A 
ATOM     21  C   UNL A   1      35.778  20.879  25.183  1.00  0.00     0.001 A 
BRANCH  18  22
ATOM     22  S   UNL A   1      32.167  22.586  25.222  1.00  0.00    -0.129 SA
ATOM     23  C   UNL A   1      31.901  22.883  26.980  1.00  0.00     0.091 C 
ENDBRANCH  18  22
ENDBRANCH  11  16
ENDBRANCH   6   8
ENDBRANCH   5   6
ENDBRANCH   4   5
ENDBRANCH   3   4
ENDBRANCH   2   3
ENDBRANCH   1   2
BRANCH   1  24
ATOM     24  C   UNL A   1      32.192  30.611  26.862  1.00  0.00     0.261 C 
BRANCH  24  25
ATOM     25  O   UNL A   1      33.613  30.705  26.778  1.00  0.00    -0.460 OA
BRANCH  25  26
ATOM     26  C   UNL A   1      34.147  31.675  27.556  1.00  0.00     0.338 C 
ATOM     27  O   UNL A   1      33.621  32.725  27.897  1.00  0.00    -0.246 OA
BRANCH  26  28
ATOM     28  C   UNL A   1      35.413  31.188  28.117  1.00  0.00     0.060 A 
ATOM     29  C   UNL A   1      35.460  29.860  28.563  1.00  0.00     0.016 A 
ATOM     30  C   UNL A   1      36.521  32.028  28.231  1.00  0.00     0.016 A 
ATOM     31  C   UNL A   1      36.610  29.378  29.172  1.00  0.00     0.010 A 
ATOM     32  C   UNL A   1      37.669  31.548  28.854  1.00  0.00     0.010 A 
ATOM     33  C   UNL A   1      37.700  30.236  29.360  1.00  0.00    -0.014 A 
BRANCH  33  34
ATOM     34  C   UNL A   1      38.811  29.814  30.234  1.00  0.00     0.031 A 
ATOM     35  C   UNL A   1      38.909  30.416  31.605  1.00  0.00     0.074 A 
ATOM     36  C   UNL A   1      39.713  28.918  29.799  1.00  0.00     0.049 A 
ATOM     37  N   UNL A   1      39.815  30.231  32.527  1.00  0.00    -0.248 NA
ATOM     38  C   UNL A   1      37.844  31.361  31.988  1.00  0.00     0.031 C 
ATOM     39  C   UNL A   1      39.695  28.273  28.486  1.00  0.00     0.029 A 
ATOM     40  N   UNL A   1      40.832  28.418  30.408  1.00  0.00    -0.354 N 
ATOM     41  C   UNL A   1      39.456  31.065  33.578  1.00  0.00     0.074 A 
ATOM     42  C   UNL A   1      38.253  31.760  33.183  1.00  0.00     0.031 C 
ATOM     43  C   UNL A   1      40.772  27.477  28.380  1.00  0.00     0.029 A 
ATOM     44  C   UNL A   1      41.566  27.583  29.602  1.00  0.00     0.049 A 
ATOM     45  H   UNL A   1      41.086  28.636  31.334  1.00  0.00     0.167 HD
ATOM     46  C   UNL A   1      40.075  31.227  34.771  1.00  0.00     0.034 A 
ATOM     47  C   UNL A   1      42.756  26.994  29.823  1.00  0.00     0.034 A 
ATOM     48  C   UNL A   1      41.262  30.515  35.152  1.00  0.00     0.049 A 
ATOM     49  C   UNL A   1      43.434  27.210  31.151  1.00  0.00     0.074 A 
ATOM     50  C   UNL A   1      41.940  30.554  36.357  1.00  0.00     0.029 A 
ATOM     51  N   UNL A   1      41.962  29.648  34.325  1.00  0.00    -0.354 N 
ATOM     52  N   UNL A   1      43.025  27.907  32.185  1.00  0.00    -0.248 NA
ATOM     53  C   UNL A   1      44.723  26.536  31.354  1.00  0.00     0.031 C 
ATOM     54  C   UNL A   1      43.075  29.745  36.242  1.00  0.00     0.029 A 
ATOM     55  C   UNL A   1      43.078  29.164  34.984  1.00  0.00     0.049 A 
ATOM     56  H   UNL A   1      41.703  29.413  33.405  1.00  0.00     0.167 HD
ATOM     57  C   UNL A   1      43.983  27.722  33.174  1.00  0.00     0.074 A 
ATOM     58  C   UNL A   1      44.985  26.834  32.619  1.00  0.00     0.031 C 
ATOM     59  C   UNL A   1      44.036  28.244  34.425  1.00  0.00     0.034 A 
BRANCH  46  60
ATOM     60  C   UNL A   1      39.480  32.212  35.742  1.00  0.00     0.023 A 
ATOM     61  C   UNL A   1      38.462  31.805  36.629  1.00  0.00     0.012 A 
ATOM     62  C   UNL A   1      39.963  33.534  35.805  1.00  0.00     0.148 A 
ATOM     63  C   UNL A   1      37.911  32.707  37.538  1.00  0.00     0.002 A 
ATOM     64  C   UNL A   1      39.443  34.414  36.747  1.00  0.00     0.091 A 
ATOM     65  F   UNL A   1      40.912  33.910  34.936  1.00  0.00    -0.205 F 
ATOM     66  C   UNL A   1      38.409  34.006  37.605  1.00  0.00     0.022 A 
BRANCH  64  67
ATOM     67  S   UNL A   1      40.072  36.081  36.965  1.00  0.00     0.127 S 
ATOM     68  O   UNL A   1      39.318  36.531  38.134  1.00  0.00    -0.237 OA
ATOM     69  O   UNL A   1      41.495  35.842  37.211  1.00  0.00    -0.237 OA
ATOM     70  O   UNL A   1      39.780  36.789  35.726  1.00  0.00    -0.744 OA
ENDBRANCH  64  67
ENDBRANCH  46  60
BRANCH  47  71
ATOM     71  C   UNL A   1      43.363  26.119  28.782  1.00  0.00     0.023 A 
ATOM     72  C   UNL A   1      43.032  24.751  28.749  1.00  0.00     0.012 A 
ATOM     73  C   UNL A   1      44.247  26.635  27.816  1.00  0.00     0.148 A 
ATOM     74  C   UNL A   1      43.595  23.905  27.793  1.00  0.00     0.002 A 
ATOM     75  C   UNL A   1      44.763  25.799  26.833  1.00  0.00     0.091 A 
ATOM     76  F   UNL A   1      44.557  27.938  27.871  1.00  0.00    -0.205 F 
ATOM     77  C   UNL A   1      44.453  24.431  26.830  1.00  0.00     0.022 A 
BRANCH  75  78
ATOM     78  S   UNL A   1      45.775  26.408  25.480  1.00  0.00     0.127 S 
ATOM     79  O   UNL A   1      45.825  25.245  24.597  1.00  0.00    -0.237 OA
ATOM     80  O   UNL A   1      44.972  27.526  24.984  1.00  0.00    -0.237 OA
ATOM     81  O   UNL A   1      47.044  26.797  26.081  1.00  0.00    -0.744 OA
ENDBRANCH  75  78
ENDBRANCH  47  71
BRANCH  59  82
ATOM     82  C   UNL A   1      45.190  27.832  35.302  1.00  0.00     0.023 A 
ATOM     83  C   UNL A   1      46.363  28.609  35.338  1.00  0.00     0.012 A 
ATOM     84  C   UNL A   1      45.075  26.712  36.150  1.00  0.00     0.148 A 
ATOM     85  C   UNL A   1      47.420  28.257  36.178  1.00  0.00     0.002 A 
ATOM     86  C   UNL A   1      46.107  26.401  37.024  1.00  0.00     0.091 A 
ATOM     87  F   UNL A   1      43.954  25.977  36.089  1.00  0.00    -0.205 F 
ATOM     88  C   UNL A   1      47.287  27.162  37.029  1.00  0.00     0.022 A 
BRANCH  86  89
ATOM     89  S   UNL A   1      45.981  25.074  38.229  1.00  0.00     0.127 S 
ATOM     90  O   UNL A   1      45.138  24.112  37.524  1.00  0.00    -0.237 OA
ATOM     91  O   UNL A   1      47.378  24.664  38.383  1.00  0.00    -0.237 OA
ATOM     92  O   UNL A   1      45.389  25.665  39.421  1.00  0.00    -0.744 OA
ENDBRANCH  86  89
ENDBRANCH  59  82
ENDBRANCH  33  34
ENDBRANCH  26  28
ENDBRANCH  25  26
ENDBRANCH  24  25
ENDBRANCH   1  24
TORSDOF 21
ENDMDL
