MODEL 1
REMARK VINA RESULT:     -10.4      0.000      0.000
REMARK SMILES CC(C)C[C@H](NC(=O)CNC(=O)[C@@H]([NH3+])C(C)C)C(=O)OCCOCCOC(=O)c1ccc(-c2c3nc(c(-c4cccc(S(=O)(=O)[O-])c4F)c4ccc([nH]4)c(-c4cccc(S(=O)(=O)[O-])c4F)c4nc(c(-c5cccc(S(=O)(=O)[O-])c5F)c5ccc2[nH]5)C=C4)C=C3)cc1
REMARK SMILES IDX 22 1 21 2 20 3 18 4 19 5 5 6 4 7 2 8 1 9 3 10 6 11 7 12 8 14
REMARK SMILES IDX 9 15 10 16 11 17 12 19 13 20 14 21 15 25 16 26 17 27 23 28
REMARK SMILES IDX 24 29 25 30 26 31 27 32 28 33 29 34 30 35 91 36 31 37 90 38
REMARK SMILES IDX 32 39 33 40 34 41 84 42 35 43 89 44 83 45 85 46 36 47 88 48
REMARK SMILES IDX 82 49 81 50 37 52 69 53 49 54 68 55 50 56 53 57 67 58 86 59
REMARK SMILES IDX 51 60 52 61 66 63 87 64 54 65 38 66 39 67 47 68 40 69 42 70
REMARK SMILES IDX 48 71 41 72 43 73 44 74 45 75 46 76 70 77 71 78 79 79 72 80
REMARK SMILES IDX 74 81 80 82 73 83 75 84 76 85 77 86 78 87 55 88 56 89 64 90
REMARK SMILES IDX 57 91 59 92 65 93 58 94 60 95 61 96 62 97 63 98
REMARK H PARENT 6 13 10 18 14 22 14 23 14 24 85 51 53 62
REMARK Flexibility Score: inf
ROOT
ATOM      1  C   UNL A   1      35.775  23.075  25.069  1.00  0.00     0.202 C 
ENDROOT
BRANCH   1   2
ATOM      2  C   UNL A   1      34.816  23.908  25.931  1.00  0.00     0.261 C 
BRANCH   2   3
ATOM      3  O   UNL A   1      33.726  24.500  25.212  1.00  0.00    -0.462 OA
BRANCH   3   4
ATOM      4  C   UNL A   1      33.288  25.663  25.747  1.00  0.00     0.328 C 
ATOM      5  O   UNL A   1      34.026  26.582  26.101  1.00  0.00    -0.250 OA
BRANCH   4   6
ATOM      6  C   UNL A   1      31.760  25.786  25.794  1.00  0.00     0.192 C 
BRANCH   6   7
ATOM      7  C   UNL A   1      31.385  27.244  26.047  1.00  0.00     0.040 C 
BRANCH   7   8
ATOM      8  C   UNL A   1      31.314  27.988  24.730  1.00  0.00    -0.015 C 
ATOM      9  C   UNL A   1      30.248  27.471  23.765  1.00  0.00     0.007 C 
ATOM     10  C   UNL A   1      31.401  29.485  24.979  1.00  0.00     0.007 C 
ENDBRANCH   7   8
ENDBRANCH   6   7
BRANCH   6  11
ATOM     11  N   UNL A   1      30.917  24.757  26.480  1.00  0.00    -0.341 N 
ATOM     12  C   UNL A   1      30.776  23.429  26.739  1.00  0.00     0.240 C 
ATOM     13  H   UNL A   1      30.170  25.227  26.916  1.00  0.00     0.164 HD
ATOM     14  O   UNL A   1      29.818  23.227  27.510  1.00  0.00    -0.273 OA
BRANCH  12  15
ATOM     15  C   UNL A   1      31.667  22.171  26.342  1.00  0.00     0.216 C 
BRANCH  15  16
ATOM     16  N   UNL A   1      31.813  21.820  24.917  1.00  0.00    -0.342 N 
ATOM     17  C   UNL A   1      32.325  20.836  24.135  1.00  0.00     0.278 C 
ATOM     18  H   UNL A   1      31.412  22.522  24.356  1.00  0.00     0.164 HD
ATOM     19  O   UNL A   1      32.151  21.076  22.921  1.00  0.00    -0.268 OA
BRANCH  17  20
ATOM     20  C   UNL A   1      33.212  19.551  24.456  1.00  0.00     0.273 C 
BRANCH  20  21
ATOM     21  N   UNL A   1      33.944  19.735  25.735  1.00  0.00    -0.347 N 
ATOM     22  H   UNL A   1      34.142  18.823  26.148  1.00  0.00     0.345 HD
ATOM     23  H   UNL A   1      33.374  20.284  26.377  1.00  0.00     0.345 HD
ATOM     24  H   UNL A   1      34.822  20.224  25.556  1.00  0.00     0.345 HD
ENDBRANCH  20  21
BRANCH  20  25
ATOM     25  C   UNL A   1      32.739  18.093  24.216  1.00  0.00     0.051 C 
ATOM     26  C   UNL A   1      33.841  17.366  23.419  1.00  0.00     0.014 C 
ATOM     27  C   UNL A   1      32.522  17.239  25.492  1.00  0.00     0.014 C 
ENDBRANCH  20  25
ENDBRANCH  17  20
ENDBRANCH  15  16
ENDBRANCH  12  15
ENDBRANCH   6  11
ENDBRANCH   4   6
ENDBRANCH   3   4
ENDBRANCH   2   3
ENDBRANCH   1   2
BRANCH   1  28
ATOM     28  O   UNL A   1      36.331  21.869  25.577  1.00  0.00    -0.374 OA
BRANCH  28  29
ATOM     29  C   UNL A   1      36.999  20.956  24.720  1.00  0.00     0.202 C 
BRANCH  29  30
ATOM     30  C   UNL A   1      38.106  20.021  25.234  1.00  0.00     0.261 C 
BRANCH  30  31
ATOM     31  O   UNL A   1      39.428  20.579  25.279  1.00  0.00    -0.460 OA
BRANCH  31  32
ATOM     32  C   UNL A   1      39.999  20.558  26.512  1.00  0.00     0.338 C 
ATOM     33  O   UNL A   1      40.391  19.578  27.119  1.00  0.00    -0.246 OA
BRANCH  32  34
ATOM     34  C   UNL A   1      40.232  21.924  27.013  1.00  0.00     0.060 A 
ATOM     35  C   UNL A   1      39.610  22.989  26.347  1.00  0.00     0.016 A 
ATOM     36  C   UNL A   1      41.193  22.166  27.995  1.00  0.00     0.016 A 
ATOM     37  C   UNL A   1      39.975  24.303  26.636  1.00  0.00     0.010 A 
ATOM     38  C   UNL A   1      41.568  23.486  28.272  1.00  0.00     0.010 A 
ATOM     39  C   UNL A   1      40.986  24.556  27.570  1.00  0.00    -0.014 A 
BRANCH  39  40
ATOM     40  C   UNL A   1      41.502  25.936  27.740  1.00  0.00     0.031 A 
ATOM     41  C   UNL A   1      42.883  26.279  27.249  1.00  0.00     0.074 A 
ATOM     42  C   UNL A   1      40.745  26.871  28.340  1.00  0.00     0.049 A 
ATOM     43  N   UNL A   1      43.535  27.410  27.342  1.00  0.00    -0.248 NA
ATOM     44  C   UNL A   1      43.630  25.212  26.562  1.00  0.00     0.031 C 
ATOM     45  C   UNL A   1      39.392  26.658  28.852  1.00  0.00     0.029 A 
ATOM     46  N   UNL A   1      41.023  28.178  28.651  1.00  0.00    -0.354 N 
ATOM     47  C   UNL A   1      44.775  27.185  26.756  1.00  0.00     0.074 A 
ATOM     48  C   UNL A   1      44.786  25.809  26.307  1.00  0.00     0.031 C 
ATOM     49  C   UNL A   1      38.974  27.783  29.457  1.00  0.00     0.029 A 
ATOM     50  C   UNL A   1      40.036  28.783  29.394  1.00  0.00     0.049 A 
ATOM     51  H   UNL A   1      41.847  28.638  28.370  1.00  0.00     0.167 HD
ATOM     52  C   UNL A   1      45.805  28.049  26.599  1.00  0.00     0.034 A 
ATOM     53  C   UNL A   1      40.009  29.994  29.987  1.00  0.00     0.034 A 
ATOM     54  C   UNL A   1      45.780  29.424  27.021  1.00  0.00     0.049 A 
ATOM     55  C   UNL A   1      41.184  30.924  29.818  1.00  0.00     0.074 A 
ATOM     56  C   UNL A   1      46.746  30.397  26.832  1.00  0.00     0.029 A 
ATOM     57  N   UNL A   1      44.750  30.016  27.731  1.00  0.00    -0.354 N 
ATOM     58  N   UNL A   1      42.285  30.748  29.130  1.00  0.00    -0.248 NA
ATOM     59  C   UNL A   1      41.098  32.232  30.485  1.00  0.00     0.031 C 
ATOM     60  C   UNL A   1      46.311  31.571  27.455  1.00  0.00     0.029 A 
ATOM     61  C   UNL A   1      45.067  31.334  28.015  1.00  0.00     0.049 A 
ATOM     62  H   UNL A   1      43.915  29.566  27.997  1.00  0.00     0.167 HD
ATOM     63  C   UNL A   1      43.013  31.926  29.263  1.00  0.00     0.074 A 
ATOM     64  C   UNL A   1      42.211  32.822  30.072  1.00  0.00     0.031 C 
ATOM     65  C   UNL A   1      44.241  32.232  28.780  1.00  0.00     0.034 A 
BRANCH  52  66
ATOM     66  C   UNL A   1      47.048  27.554  25.910  1.00  0.00     0.023 A 
ATOM     67  C   UNL A   1      47.959  26.746  26.619  1.00  0.00     0.012 A 
ATOM     68  C   UNL A   1      47.261  27.802  24.539  1.00  0.00     0.148 A 
ATOM     69  C   UNL A   1      49.071  26.201  25.977  1.00  0.00     0.002 A 
ATOM     70  C   UNL A   1      48.351  27.226  23.898  1.00  0.00     0.091 A 
ATOM     71  F   UNL A   1      46.390  28.589  23.891  1.00  0.00    -0.205 F 
ATOM     72  C   UNL A   1      49.259  26.431  24.616  1.00  0.00     0.022 A 
BRANCH  70  73
ATOM     73  S   UNL A   1      48.646  27.402  22.134  1.00  0.00     0.127 S 
ATOM     74  O   UNL A   1      49.839  28.247  22.118  1.00  0.00    -0.237 OA
ATOM     75  O   UNL A   1      48.874  26.017  21.722  1.00  0.00    -0.237 OA
ATOM     76  O   UNL A   1      47.444  28.012  21.583  1.00  0.00    -0.744 OA
ENDBRANCH  70  73
ENDBRANCH  52  66
BRANCH  53  77
ATOM     77  C   UNL A   1      38.824  30.402  30.790  1.00  0.00     0.023 A 
ATOM     78  C   UNL A   1      38.783  30.115  32.168  1.00  0.00     0.012 A 
ATOM     79  C   UNL A   1      37.738  31.078  30.198  1.00  0.00     0.148 A 
ATOM     80  C   UNL A   1      37.670  30.464  32.933  1.00  0.00     0.002 A 
ATOM     81  C   UNL A   1      36.655  31.471  30.978  1.00  0.00     0.091 A 
ATOM     82  F   UNL A   1      37.779  31.319  28.879  1.00  0.00    -0.205 F 
ATOM     83  C   UNL A   1      36.612  31.151  32.342  1.00  0.00     0.022 A 
BRANCH  81  84
ATOM     84  S   UNL A   1      35.315  32.461  30.306  1.00  0.00     0.127 S 
ATOM     85  O   UNL A   1      34.829  31.613  29.221  1.00  0.00    -0.237 OA
ATOM     86  O   UNL A   1      34.407  32.578  31.447  1.00  0.00    -0.237 OA
ATOM     87  O   UNL A   1      35.929  33.722  29.907  1.00  0.00    -0.744 OA
ENDBRANCH  81  84
ENDBRANCH  53  77
BRANCH  65  88
ATOM     88  C   UNL A   1      44.803  33.593  29.104  1.00  0.00     0.023 A 
ATOM     89  C   UNL A   1      45.595  33.758  30.257  1.00  0.00     0.012 A 
ATOM     90  C   UNL A   1      44.615  34.684  28.232  1.00  0.00     0.148 A 
ATOM     91  C   UNL A   1      46.166  34.994  30.554  1.00  0.00     0.002 A 
ATOM     92  C   UNL A   1      45.225  35.902  28.511  1.00  0.00     0.091 A 
ATOM     93  F   UNL A   1      43.846  34.511  27.147  1.00  0.00    -0.205 F 
ATOM     94  C   UNL A   1      45.991  36.062  29.677  1.00  0.00     0.022 A 
BRANCH  92  95
ATOM     95  S   UNL A   1      45.132  37.306  27.393  1.00  0.00     0.127 S 
ATOM     96  O   UNL A   1      45.532  38.409  28.266  1.00  0.00    -0.237 OA
ATOM     97  O   UNL A   1      46.113  36.954  26.367  1.00  0.00    -0.237 OA
ATOM     98  O   UNL A   1      43.754  37.351  26.920  1.00  0.00    -0.744 OA
ENDBRANCH  92  95
ENDBRANCH  65  88
ENDBRANCH  39  40
ENDBRANCH  32  34
ENDBRANCH  31  32
ENDBRANCH  30  31
ENDBRANCH  29  30
ENDBRANCH  28  29
ENDBRANCH   1  28
TORSDOF 25
ENDMDL
MODEL 2
REMARK VINA RESULT:     -10.1      5.294      8.519
REMARK SMILES CC(C)C[C@H](NC(=O)CNC(=O)[C@@H]([NH3+])C(C)C)C(=O)OCCOCCOC(=O)c1ccc(-c2c3nc(c(-c4cccc(S(=O)(=O)[O-])c4F)c4ccc([nH]4)c(-c4cccc(S(=O)(=O)[O-])c4F)c4nc(c(-c5cccc(S(=O)(=O)[O-])c5F)c5ccc2[nH]5)C=C4)C=C3)cc1
REMARK SMILES IDX 22 1 21 2 20 3 18 4 19 5 5 6 4 7 2 8 1 9 3 10 6 11 7 12 8 14
REMARK SMILES IDX 9 15 10 16 11 17 12 19 13 20 14 21 15 25 16 26 17 27 23 28
REMARK SMILES IDX 24 29 25 30 26 31 27 32 28 33 29 34 30 35 91 36 31 37 90 38
REMARK SMILES IDX 32 39 33 40 34 41 84 42 35 43 89 44 83 45 85 46 36 47 88 48
REMARK SMILES IDX 82 49 81 50 37 52 69 53 49 54 68 55 50 56 53 57 67 58 86 59
REMARK SMILES IDX 51 60 52 61 66 63 87 64 54 65 38 66 39 67 47 68 40 69 42 70
REMARK SMILES IDX 48 71 41 72 43 73 44 74 45 75 46 76 70 77 71 78 79 79 72 80
REMARK SMILES IDX 74 81 80 82 73 83 75 84 76 85 77 86 78 87 55 88 56 89 64 90
REMARK SMILES IDX 57 91 59 92 65 93 58 94 60 95 61 96 62 97 63 98
REMARK H PARENT 6 13 10 18 14 22 14 23 14 24 85 51 53 62
REMARK Flexibility Score: inf
ROOT
ATOM      1  C   UNL A   1      32.725  29.231  26.740  1.00  0.00     0.202 C 
ENDROOT
BRANCH   1   2
ATOM      2  C   UNL A   1      31.586  28.708  25.853  1.00  0.00     0.261 C 
BRANCH   2   3
ATOM      3  O   UNL A   1      31.377  27.291  25.922  1.00  0.00    -0.462 OA
BRANCH   3   4
ATOM      4  C   UNL A   1      30.585  26.809  24.937  1.00  0.00     0.328 C 
ATOM      5  O   UNL A   1      29.633  26.052  25.123  1.00  0.00    -0.250 OA
BRANCH   4   6
ATOM      6  C   UNL A   1      30.919  27.364  23.546  1.00  0.00     0.192 C 
BRANCH   6   7
ATOM      7  C   UNL A   1      29.623  27.556  22.762  1.00  0.00     0.040 C 
BRANCH   7   8
ATOM      8  C   UNL A   1      29.150  28.988  22.900  1.00  0.00    -0.015 C 
ATOM      9  C   UNL A   1      29.850  29.980  21.972  1.00  0.00     0.007 C 
ATOM     10  C   UNL A   1      27.634  29.023  22.987  1.00  0.00     0.007 C 
ENDBRANCH   7   8
ENDBRANCH   6   7
BRANCH   6  11
ATOM     11  N   UNL A   1      32.095  26.862  22.769  1.00  0.00    -0.341 N 
ATOM     12  C   UNL A   1      33.290  26.220  22.855  1.00  0.00     0.240 C 
ATOM     13  H   UNL A   1      31.943  27.085  21.822  1.00  0.00     0.164 HD
ATOM     14  O   UNL A   1      33.774  26.029  21.722  1.00  0.00    -0.273 OA
BRANCH  12  15
ATOM     15  C   UNL A   1      34.070  25.589  24.092  1.00  0.00     0.216 C 
BRANCH  15  16
ATOM     16  N   UNL A   1      34.645  24.238  23.959  1.00  0.00    -0.342 N 
ATOM     17  C   UNL A   1      34.331  22.943  24.220  1.00  0.00     0.278 C 
ATOM     18  H   UNL A   1      35.541  24.293  23.553  1.00  0.00     0.164 HD
ATOM     19  O   UNL A   1      35.251  22.169  23.876  1.00  0.00    -0.268 OA
BRANCH  17  20
ATOM     20  C   UNL A   1      33.118  22.260  24.995  1.00  0.00     0.273 C 
BRANCH  20  21
ATOM     21  N   UNL A   1      32.976  20.840  24.585  1.00  0.00    -0.347 N 
ATOM     22  H   UNL A   1      33.755  20.581  23.979  1.00  0.00     0.345 HD
ATOM     23  H   UNL A   1      32.098  20.718  24.082  1.00  0.00     0.345 HD
ATOM     24  H   UNL A   1      32.979  20.245  25.414  1.00  0.00     0.345 HD
ENDBRANCH  20  21
BRANCH  20  25
ATOM     25  C   UNL A   1      32.801  22.508  26.493  1.00  0.00     0.051 C 
ATOM     26  C   UNL A   1      34.134  22.785  27.218  1.00  0.00     0.014 C 
ATOM     27  C   UNL A   1      31.906  23.737  26.795  1.00  0.00     0.014 C 
ENDBRANCH  20  25
ENDBRANCH  17  20
ENDBRANCH  15  16
ENDBRANCH  12  15
ENDBRANCH   6  11
ENDBRANCH   4   6
ENDBRANCH   3   4
ENDBRANCH   2   3
ENDBRANCH   1   2
BRANCH   1  28
ATOM     28  O   UNL A   1      32.738  30.587  27.163  1.00  0.00    -0.374 OA
BRANCH  28  29
ATOM     29  C   UNL A   1      31.777  31.513  26.679  1.00  0.00     0.202 C 
BRANCH  29  30
ATOM     30  C   UNL A   1      31.960  33.032  26.835  1.00  0.00     0.261 C 
BRANCH  30  31
ATOM     31  O   UNL A   1      32.219  33.498  28.168  1.00  0.00    -0.460 OA
BRANCH  31  32
ATOM     32  C   UNL A   1      33.341  34.256  28.284  1.00  0.00     0.338 C 
ATOM     33  O   UNL A   1      33.408  35.471  28.250  1.00  0.00    -0.246 OA
BRANCH  32  34
ATOM     34  C   UNL A   1      34.513  33.424  28.609  1.00  0.00     0.060 A 
ATOM     35  C   UNL A   1      34.343  32.361  29.507  1.00  0.00     0.016 A 
ATOM     36  C   UNL A   1      35.789  33.800  28.189  1.00  0.00     0.016 A 
ATOM     37  C   UNL A   1      35.454  31.692  30.017  1.00  0.00     0.010 A 
ATOM     38  C   UNL A   1      36.904  33.137  28.715  1.00  0.00     0.010 A 
ATOM     39  C   UNL A   1      36.742  32.104  29.656  1.00  0.00    -0.014 A 
BRANCH  39  40
ATOM     40  C   UNL A   1      37.921  31.519  30.341  1.00  0.00     0.031 A 
ATOM     41  C   UNL A   1      38.709  30.429  29.665  1.00  0.00     0.074 A 
ATOM     42  C   UNL A   1      38.275  31.953  31.563  1.00  0.00     0.049 A 
ATOM     43  N   UNL A   1      39.740  29.758  30.111  1.00  0.00    -0.248 NA
ATOM     44  C   UNL A   1      38.284  30.044  28.309  1.00  0.00     0.031 C 
ATOM     45  C   UNL A   1      37.592  33.005  32.314  1.00  0.00     0.029 A 
ATOM     46  N   UNL A   1      39.278  31.534  32.401  1.00  0.00    -0.354 N 
ATOM     47  C   UNL A   1      40.068  28.852  29.109  1.00  0.00     0.074 A 
ATOM     48  C   UNL A   1      39.128  29.061  28.027  1.00  0.00     0.031 C 
ATOM     49  C   UNL A   1      38.166  33.118  33.524  1.00  0.00     0.029 A 
ATOM     50  C   UNL A   1      39.239  32.133  33.639  1.00  0.00     0.049 A 
ATOM     51  H   UNL A   1      39.958  30.871  32.142  1.00  0.00     0.167 HD
ATOM     52  C   UNL A   1      41.066  27.940  29.089  1.00  0.00     0.034 A 
ATOM     53  C   UNL A   1      39.964  31.889  34.749  1.00  0.00     0.034 A 
ATOM     54  C   UNL A   1      42.016  27.754  30.153  1.00  0.00     0.049 A 
ATOM     55  C   UNL A   1      41.051  30.845  34.705  1.00  0.00     0.074 A 
ATOM     56  C   UNL A   1      43.111  26.909  30.190  1.00  0.00     0.029 A 
ATOM     57  N   UNL A   1      41.975  28.407  31.374  1.00  0.00    -0.354 N 
ATOM     58  N   UNL A   1      41.446  30.106  33.698  1.00  0.00    -0.248 NA
ATOM     59  C   UNL A   1      41.810  30.623  35.945  1.00  0.00     0.031 C 
ATOM     60  C   UNL A   1      43.715  27.029  31.445  1.00  0.00     0.029 A 
ATOM     61  C   UNL A   1      43.008  27.963  32.184  1.00  0.00     0.049 A 
ATOM     62  H   UNL A   1      41.309  29.085  31.630  1.00  0.00     0.167 HD
ATOM     63  C   UNL A   1      42.510  29.347  34.174  1.00  0.00     0.074 A 
ATOM     64  C   UNL A   1      42.719  29.741  35.553  1.00  0.00     0.031 C 
ATOM     65  C   UNL A   1      43.235  28.395  33.537  1.00  0.00     0.034 A 
BRANCH  52  66
ATOM     66  C   UNL A   1      41.218  27.079  27.863  1.00  0.00     0.023 A 
ATOM     67  C   UNL A   1      41.889  27.591  26.735  1.00  0.00     0.012 A 
ATOM     68  C   UNL A   1      40.792  25.736  27.867  1.00  0.00     0.148 A 
ATOM     69  C   UNL A   1      42.122  26.783  25.623  1.00  0.00     0.002 A 
ATOM     70  C   UNL A   1      41.060  24.926  26.770  1.00  0.00     0.091 A 
ATOM     71  F   UNL A   1      40.140  25.277  28.946  1.00  0.00    -0.205 F 
ATOM     72  C   UNL A   1      41.719  25.450  25.645  1.00  0.00     0.022 A 
BRANCH  70  73
ATOM     73  S   UNL A   1      40.646  23.179  26.727  1.00  0.00     0.127 S 
ATOM     74  O   UNL A   1      41.510  22.699  25.649  1.00  0.00    -0.237 OA
ATOM     75  O   UNL A   1      41.038  22.738  28.065  1.00  0.00    -0.237 OA
ATOM     76  O   UNL A   1      39.217  23.109  26.456  1.00  0.00    -0.744 OA
ENDBRANCH  70  73
ENDBRANCH  52  66
BRANCH  53  77
ATOM     77  C   UNL A   1      39.692  32.653  35.998  1.00  0.00     0.023 A 
ATOM     78  C   UNL A   1      40.376  33.860  36.239  1.00  0.00     0.012 A 
ATOM     79  C   UNL A   1      38.757  32.193  36.947  1.00  0.00     0.148 A 
ATOM     80  C   UNL A   1      40.157  34.577  37.416  1.00  0.00     0.002 A 
ATOM     81  C   UNL A   1      38.505  32.940  38.092  1.00  0.00     0.091 A 
ATOM     82  F   UNL A   1      38.135  31.027  36.716  1.00  0.00    -0.205 F 
ATOM     83  C   UNL A   1      39.215  34.124  38.337  1.00  0.00     0.022 A 
BRANCH  81  84
ATOM     84  S   UNL A   1      37.220  32.476  39.260  1.00  0.00     0.127 S 
ATOM     85  O   UNL A   1      37.429  33.442  40.335  1.00  0.00    -0.237 OA
ATOM     86  O   UNL A   1      35.997  32.681  38.481  1.00  0.00    -0.237 OA
ATOM     87  O   UNL A   1      37.483  31.081  39.591  1.00  0.00    -0.744 OA
ENDBRANCH  81  84
ENDBRANCH  53  77
BRANCH  65  88
ATOM     88  C   UNL A   1      44.329  27.710  34.315  1.00  0.00     0.023 A 
ATOM     89  C   UNL A   1      45.585  28.336  34.441  1.00  0.00     0.012 A 
ATOM     90  C   UNL A   1      44.094  26.491  34.983  1.00  0.00     0.148 A 
ATOM     91  C   UNL A   1      46.599  27.747  35.194  1.00  0.00     0.002 A 
ATOM     92  C   UNL A   1      45.095  25.933  35.769  1.00  0.00     0.091 A 
ATOM     93  F   UNL A   1      42.898  25.903  34.839  1.00  0.00    -0.205 F 
ATOM     94  C   UNL A   1      46.352  26.553  35.867  1.00  0.00     0.022 A 
BRANCH  92  95
ATOM     95  S   UNL A   1      44.839  24.445  36.745  1.00  0.00     0.127 S 
ATOM     96  O   UNL A   1      46.209  24.086  37.107  1.00  0.00    -0.237 OA
ATOM     97  O   UNL A   1      44.024  24.938  37.856  1.00  0.00    -0.237 OA
ATOM     98  O   UNL A   1      44.156  23.504  35.868  1.00  0.00    -0.744 OA
ENDBRANCH  92  95
ENDBRANCH  65  88
ENDBRANCH  39  40
ENDBRANCH  32  34
ENDBRANCH  31  32
ENDBRANCH  30  31
ENDBRANCH  29  30
ENDBRANCH  28  29
ENDBRANCH   1  28
TORSDOF 25
ENDMDL
MODEL 3
REMARK VINA RESULT:      -9.8      2.242      4.179
REMARK SMILES CC(C)C[C@H](NC(=O)CNC(=O)[C@@H]([NH3+])C(C)C)C(=O)OCCOCCOC(=O)c1ccc(-c2c3nc(c(-c4cccc(S(=O)(=O)[O-])c4F)c4ccc([nH]4)c(-c4cccc(S(=O)(=O)[O-])c4F)c4nc(c(-c5cccc(S(=O)(=O)[O-])c5F)c5ccc2[nH]5)C=C4)C=C3)cc1
REMARK SMILES IDX 22 1 21 2 20 3 18 4 19 5 5 6 4 7 2 8 1 9 3 10 6 11 7 12 8 14
REMARK SMILES IDX 9 15 10 16 11 17 12 19 13 20 14 21 15 25 16 26 17 27 23 28
REMARK SMILES IDX 24 29 25 30 26 31 27 32 28 33 29 34 30 35 91 36 31 37 90 38
REMARK SMILES IDX 32 39 33 40 34 41 84 42 35 43 89 44 83 45 85 46 36 47 88 48
REMARK SMILES IDX 82 49 81 50 37 52 69 53 49 54 68 55 50 56 53 57 67 58 86 59
REMARK SMILES IDX 51 60 52 61 66 63 87 64 54 65 38 66 39 67 47 68 40 69 42 70
REMARK SMILES IDX 48 71 41 72 43 73 44 74 45 75 46 76 70 77 71 78 79 79 72 80
REMARK SMILES IDX 74 81 80 82 73 83 75 84 76 85 77 86 78 87 55 88 56 89 64 90
REMARK SMILES IDX 57 91 59 92 65 93 58 94 60 95 61 96 62 97 63 98
REMARK H PARENT 6 13 10 18 14 22 14 23 14 24 85 51 53 62
REMARK Flexibility Score: inf
ROOT
ATOM      1  C   UNL A   1      37.371  22.493  24.887  1.00  0.00     0.202 C 
ENDROOT
BRANCH   1   2
ATOM      2  C   UNL A   1      36.136  22.365  23.984  1.00  0.00     0.261 C 
BRANCH   2   3
ATOM      3  O   UNL A   1      35.709  23.592  23.377  1.00  0.00    -0.462 OA
BRANCH   3   4
ATOM      4  C   UNL A   1      34.743  24.236  24.071  1.00  0.00     0.328 C 
ATOM      5  O   UNL A   1      34.933  24.827  25.134  1.00  0.00    -0.250 OA
BRANCH   4   6
ATOM      6  C   UNL A   1      33.380  24.250  23.368  1.00  0.00     0.192 C 
BRANCH   6   7
ATOM      7  C   UNL A   1      32.614  22.983  23.741  1.00  0.00     0.040 C 
BRANCH   7   8
ATOM      8  C   UNL A   1      31.891  23.193  25.056  1.00  0.00    -0.015 C 
ATOM      9  C   UNL A   1      30.926  24.377  25.069  1.00  0.00     0.007 C 
ATOM     10  C   UNL A   1      31.406  21.858  25.595  1.00  0.00     0.007 C 
ENDBRANCH   7   8
ENDBRANCH   6   7
BRANCH   6  11
ATOM     11  N   UNL A   1      33.238  24.717  21.954  1.00  0.00    -0.341 N 
ATOM     12  C   UNL A   1      32.544  25.535  21.118  1.00  0.00     0.240 C 
ATOM     13  H   UNL A   1      33.915  24.246  21.416  1.00  0.00     0.164 HD
ATOM     14  O   UNL A   1      33.028  25.510  19.970  1.00  0.00    -0.273 OA
BRANCH  12  15
ATOM     15  C   UNL A   1      31.358  26.564  21.384  1.00  0.00     0.216 C 
BRANCH  15  16
ATOM     16  N   UNL A   1      31.208  27.148  22.729  1.00  0.00    -0.342 N 
ATOM     17  C   UNL A   1      30.689  28.247  23.335  1.00  0.00     0.278 C 
ATOM     18  H   UNL A   1      31.612  26.552  23.401  1.00  0.00     0.164 HD
ATOM     19  O   UNL A   1      30.856  28.212  24.573  1.00  0.00    -0.268 OA
BRANCH  17  20
ATOM     20  C   UNL A   1      30.065  29.600  22.768  1.00  0.00     0.273 C 
BRANCH  20  21
ATOM     21  N   UNL A   1      30.862  30.094  21.616  1.00  0.00    -0.347 N 
ATOM     22  H   UNL A   1      31.161  31.053  21.797  1.00  0.00     0.345 HD
ATOM     23  H   UNL A   1      30.291  30.068  20.772  1.00  0.00     0.345 HD
ATOM     24  H   UNL A   1      31.682  29.500  21.492  1.00  0.00     0.345 HD
ENDBRANCH  20  21
BRANCH  20  25
ATOM     25  C   UNL A   1      28.541  29.854  22.623  1.00  0.00     0.051 C 
ATOM     26  C   UNL A   1      28.158  30.986  23.598  1.00  0.00     0.014 C 
ATOM     27  C   UNL A   1      28.071  30.336  21.227  1.00  0.00     0.014 C 
ENDBRANCH  20  25
ENDBRANCH  17  20
ENDBRANCH  15  16
ENDBRANCH  12  15
ENDBRANCH   6  11
ENDBRANCH   4   6
ENDBRANCH   3   4
ENDBRANCH   2   3
ENDBRANCH   1   2
BRANCH   1  28
ATOM     28  O   UNL A   1      37.792  21.395  25.685  1.00  0.00    -0.374 OA
BRANCH  28  29
ATOM     29  C   UNL A   1      38.104  20.142  25.096  1.00  0.00     0.202 C 
BRANCH  29  30
ATOM     30  C   UNL A   1      39.196  19.223  25.670  1.00  0.00     0.261 C 
BRANCH  30  31
ATOM     31  O   UNL A   1      40.545  19.694  25.537  1.00  0.00    -0.460 OA
BRANCH  31  32
ATOM     32  C   UNL A   1      41.178  19.908  26.720  1.00  0.00     0.338 C 
ATOM     33  O   UNL A   1      41.769  19.082  27.393  1.00  0.00    -0.246 OA
BRANCH  32  34
ATOM     34  C   UNL A   1      41.197  21.342  27.062  1.00  0.00     0.060 A 
ATOM     35  C   UNL A   1      40.965  22.269  26.037  1.00  0.00     0.016 A 
ATOM     36  C   UNL A   1      41.624  21.766  28.320  1.00  0.00     0.016 A 
ATOM     37  C   UNL A   1      41.195  23.626  26.257  1.00  0.00     0.010 A 
ATOM     38  C   UNL A   1      41.868  23.128  28.534  1.00  0.00     0.010 A 
ATOM     39  C   UNL A   1      41.688  24.058  27.494  1.00  0.00    -0.014 A 
BRANCH  39  40
ATOM     40  C   UNL A   1      42.109  25.470  27.667  1.00  0.00     0.031 A 
ATOM     41  C   UNL A   1      43.474  25.901  27.205  1.00  0.00     0.074 A 
ATOM     42  C   UNL A   1      41.278  26.355  28.245  1.00  0.00     0.049 A 
ATOM     43  N   UNL A   1      44.048  27.073  27.305  1.00  0.00    -0.248 NA
ATOM     44  C   UNL A   1      44.305  24.882  26.540  1.00  0.00     0.031 C 
ATOM     45  C   UNL A   1      39.932  26.055  28.729  1.00  0.00     0.029 A 
ATOM     46  N   UNL A   1      41.463  27.679  28.555  1.00  0.00    -0.354 N 
ATOM     47  C   UNL A   1      45.313  26.927  26.748  1.00  0.00     0.074 A 
ATOM     48  C   UNL A   1      45.424  25.553  26.306  1.00  0.00     0.031 C 
ATOM     49  C   UNL A   1      39.427  27.153  29.318  1.00  0.00     0.029 A 
ATOM     50  C   UNL A   1      40.422  28.221  29.273  1.00  0.00     0.049 A 
ATOM     51  H   UNL A   1      42.261  28.191  28.289  1.00  0.00     0.167 HD
ATOM     52  C   UNL A   1      46.286  27.857  26.608  1.00  0.00     0.034 A 
ATOM     53  C   UNL A   1      40.302  29.429  29.858  1.00  0.00     0.034 A 
ATOM     54  C   UNL A   1      46.162  29.229  27.021  1.00  0.00     0.049 A 
ATOM     55  C   UNL A   1      41.416  30.435  29.709  1.00  0.00     0.074 A 
ATOM     56  C   UNL A   1      47.066  30.263  26.848  1.00  0.00     0.029 A 
ATOM     57  N   UNL A   1      45.079  29.755  27.706  1.00  0.00    -0.354 N 
ATOM     58  N   UNL A   1      42.541  30.329  29.046  1.00  0.00    -0.248 NA
ATOM     59  C   UNL A   1      41.230  31.737  30.367  1.00  0.00     0.031 C 
ATOM     60  C   UNL A   1      46.541  31.409  27.455  1.00  0.00     0.029 A 
ATOM     61  C   UNL A   1      45.303  31.092  27.989  1.00  0.00     0.049 A 
ATOM     62  H   UNL A   1      44.271  29.252  27.955  1.00  0.00     0.167 HD
ATOM     63  C   UNL A   1      43.187  31.552  29.189  1.00  0.00     0.074 A 
ATOM     64  C   UNL A   1      42.310  32.397  29.975  1.00  0.00     0.031 C 
ATOM     65  C   UNL A   1      44.403  31.936  28.731  1.00  0.00     0.034 A 
BRANCH  52  66
ATOM     66  C   UNL A   1      47.575  27.443  25.949  1.00  0.00     0.023 A 
ATOM     67  C   UNL A   1      47.722  27.593  24.557  1.00  0.00     0.012 A 
ATOM     68  C   UNL A   1      48.671  27.005  26.720  1.00  0.00     0.148 A 
ATOM     69  C   UNL A   1      48.938  27.302  23.937  1.00  0.00     0.002 A 
ATOM     70  C   UNL A   1      49.889  26.752  26.101  1.00  0.00     0.091 A 
ATOM     71  F   UNL A   1      48.501  26.853  28.041  1.00  0.00    -0.205 F 
ATOM     72  C   UNL A   1      50.022  26.894  24.710  1.00  0.00     0.022 A 
BRANCH  70  73
ATOM     73  S   UNL A   1      51.366  26.291  27.014  1.00  0.00     0.127 S 
ATOM     74  O   UNL A   1      51.288  24.831  26.982  1.00  0.00    -0.237 OA
ATOM     75  O   UNL A   1      52.429  26.863  26.187  1.00  0.00    -0.237 OA
ATOM     76  O   UNL A   1      51.230  26.892  28.333  1.00  0.00    -0.744 OA
ENDBRANCH  70  73
ENDBRANCH  52  66
BRANCH  53  77
ATOM     77  C   UNL A   1      39.075  29.762  30.633  1.00  0.00     0.023 A 
ATOM     78  C   UNL A   1      38.908  29.241  31.930  1.00  0.00     0.012 A 
ATOM     79  C   UNL A   1      38.074  30.596  30.094  1.00  0.00     0.148 A 
ATOM     80  C   UNL A   1      37.753  29.518  32.663  1.00  0.00     0.002 A 
ATOM     81  C   UNL A   1      36.951  30.911  30.850  1.00  0.00     0.091 A 
ATOM     82  F   UNL A   1      38.235  31.060  28.846  1.00  0.00    -0.205 F 
ATOM     83  C   UNL A   1      36.780  30.360  32.129  1.00  0.00     0.022 A 
BRANCH  81  84
ATOM     84  S   UNL A   1      35.718  32.083  30.271  1.00  0.00     0.127 S 
ATOM     85  O   UNL A   1      34.804  32.143  31.407  1.00  0.00    -0.237 OA
ATOM     86  O   UNL A   1      36.512  33.294  30.057  1.00  0.00    -0.237 OA
ATOM     87  O   UNL A   1      35.181  31.505  29.046  1.00  0.00    -0.744 OA
ENDBRANCH  81  84
ENDBRANCH  53  77
BRANCH  65  88
ATOM     88  C   UNL A   1      44.867  33.333  29.058  1.00  0.00     0.023 A 
ATOM     89  C   UNL A   1      45.676  33.545  30.191  1.00  0.00     0.012 A 
ATOM     90  C   UNL A   1      44.569  34.417  28.208  1.00  0.00     0.148 A 
ATOM     91  C   UNL A   1      46.158  34.818  30.491  1.00  0.00     0.002 A 
ATOM     92  C   UNL A   1      45.091  35.675  28.488  1.00  0.00     0.091 A 
ATOM     93  F   UNL A   1      43.785  34.198  27.143  1.00  0.00    -0.205 F 
ATOM     94  C   UNL A   1      45.876  35.880  29.635  1.00  0.00     0.022 A 
BRANCH  92  95
ATOM     95  S   UNL A   1      44.856  37.082  27.395  1.00  0.00     0.127 S 
ATOM     96  O   UNL A   1      45.255  38.196  28.253  1.00  0.00    -0.237 OA
ATOM     97  O   UNL A   1      45.787  36.788  26.305  1.00  0.00    -0.237 OA
ATOM     98  O   UNL A   1      43.451  37.060  27.010  1.00  0.00    -0.744 OA
ENDBRANCH  92  95
ENDBRANCH  65  88
ENDBRANCH  39  40
ENDBRANCH  32  34
ENDBRANCH  31  32
ENDBRANCH  30  31
ENDBRANCH  29  30
ENDBRANCH  28  29
ENDBRANCH   1  28
TORSDOF 25
ENDMDL
