MODEL 1
REMARK VINA RESULT:     -10.9      0.000      0.000
REMARK SMILES C[C@@H](C(=O)OCCOCCOC(=O)c1ccc(-c2c3nc(c(-c4cccc(S(=O)(=O)[O-])c4F)c4ccc([nH]4)c(-c4cccc(S(=O)(=O)[O-])c4F)c4nc(c(-c5cccc(S(=O)(=O)[O-])c5F)c5ccc2[nH]5)C=C4)C=C3)cc1)[C@@H](C)C(=O)c1cccc(Cl)c1
REMARK SMILES IDX 8 1 7 2 6 3 5 4 3 5 4 6 2 7 1 8 77 9 78 10 79 11 80 12 81 13
REMARK SMILES IDX 82 14 87 15 83 16 85 17 84 18 86 19 9 20 10 21 11 22 12 23
REMARK SMILES IDX 13 24 14 25 15 26 76 27 16 28 75 29 17 30 18 31 19 32 69 33
REMARK SMILES IDX 20 34 74 35 68 36 70 37 21 38 73 39 67 40 66 41 22 43 54 44
REMARK SMILES IDX 34 45 53 46 35 47 38 48 52 49 71 50 36 51 37 52 51 54 72 55
REMARK SMILES IDX 39 56 23 57 24 58 32 59 25 60 27 61 33 62 26 63 28 64 29 65
REMARK SMILES IDX 30 66 31 67 55 68 56 69 64 70 57 71 59 72 65 73 58 74 60 75
REMARK SMILES IDX 61 76 62 77 63 78 40 79 41 80 49 81 42 82 44 83 50 84 43 85
REMARK SMILES IDX 45 86 46 87 47 88 48 89
REMARK H PARENT 70 42 38 53
REMARK Flexibility Score: inf
ROOT
ATOM      1  O   UNL A   1      35.256  18.793  24.554  1.00  0.00    -0.374 OA
ENDROOT
BRANCH   1   2
ATOM      2  C   UNL A   1      33.883  18.637  24.898  1.00  0.00     0.202 C 
BRANCH   2   3
ATOM      3  C   UNL A   1      32.816  19.146  23.921  1.00  0.00     0.261 C 
BRANCH   3   4
ATOM      4  O   UNL A   1      32.905  20.553  23.654  1.00  0.00    -0.463 OA
BRANCH   4   5
ATOM      5  C   UNL A   1      32.218  21.335  24.525  1.00  0.00     0.309 C 
ATOM      6  O   UNL A   1      31.502  20.893  25.415  1.00  0.00    -0.252 OA
BRANCH   5   7
ATOM      7  C   UNL A   1      32.394  22.837  24.274  1.00  0.00     0.106 C 
ATOM      8  C   UNL A   1      33.413  23.162  23.168  1.00  0.00     0.021 C 
BRANCH   7   9
ATOM      9  C   UNL A   1      32.755  23.551  25.601  1.00  0.00     0.072 C 
ATOM     10  C   UNL A   1      34.127  24.231  25.585  1.00  0.00     0.017 C 
BRANCH   9  11
ATOM     11  C   UNL A   1      31.760  24.543  26.238  1.00  0.00     0.166 C 
ATOM     12  O   UNL A   1      31.193  24.217  27.288  1.00  0.00    -0.294 OA
BRANCH  11  13
ATOM     13  C   UNL A   1      31.577  25.958  25.767  1.00  0.00     0.019 A 
ATOM     14  C   UNL A   1      32.012  26.978  26.631  1.00  0.00     0.012 A 
ATOM     15  C   UNL A   1      30.958  26.327  24.570  1.00  0.00     0.032 A 
ATOM     16  C   UNL A   1      31.847  28.326  26.298  1.00  0.00     0.002 A 
ATOM     17  C   UNL A   1      30.788  27.674  24.245  1.00  0.00     0.041 A 
ATOM     18  C   UNL A   1      31.235  28.675  25.099  1.00  0.00     0.020 A 
ATOM     19  Cl  UNL A   1      29.997  28.097  22.775  1.00  0.00    -0.084 Cl
ENDBRANCH  11  13
ENDBRANCH   9  11
ENDBRANCH   7   9
ENDBRANCH   5   7
ENDBRANCH   4   5
ENDBRANCH   3   4
ENDBRANCH   2   3
ENDBRANCH   1   2
BRANCH   1  20
ATOM     20  C   UNL A   1      35.934  19.977  24.967  1.00  0.00     0.202 C 
BRANCH  20  21
ATOM     21  C   UNL A   1      37.450  20.071  24.751  1.00  0.00     0.261 C 
BRANCH  21  22
ATOM     22  O   UNL A   1      38.018  21.282  25.284  1.00  0.00    -0.460 OA
BRANCH  22  23
ATOM     23  C   UNL A   1      39.169  21.106  25.977  1.00  0.00     0.338 C 
ATOM     24  O   UNL A   1      39.904  20.123  25.948  1.00  0.00    -0.246 OA
BRANCH  23  25
ATOM     25  C   UNL A   1      39.564  22.351  26.653  1.00  0.00     0.060 A 
ATOM     26  C   UNL A   1      38.900  23.528  26.280  1.00  0.00     0.016 A 
ATOM     27  C   UNL A   1      40.636  22.390  27.543  1.00  0.00     0.016 A 
ATOM     28  C   UNL A   1      39.342  24.758  26.758  1.00  0.00     0.010 A 
ATOM     29  C   UNL A   1      41.086  23.630  28.013  1.00  0.00     0.010 A 
ATOM     30  C   UNL A   1      40.466  24.819  27.589  1.00  0.00    -0.014 A 
BRANCH  30  31
ATOM     31  C   UNL A   1      41.080  26.137  27.880  1.00  0.00     0.031 A 
ATOM     32  C   UNL A   1      42.488  26.405  27.420  1.00  0.00     0.074 A 
ATOM     33  C   UNL A   1      40.386  27.091  28.526  1.00  0.00     0.049 A 
ATOM     34  N   UNL A   1      43.216  27.480  27.568  1.00  0.00    -0.248 NA
ATOM     35  C   UNL A   1      43.163  25.314  26.698  1.00  0.00     0.031 C 
ATOM     36  C   UNL A   1      39.015  26.951  29.014  1.00  0.00     0.029 A 
ATOM     37  N   UNL A   1      40.752  28.360  28.900  1.00  0.00    -0.354 N 
ATOM     38  C   UNL A   1      44.442  27.191  26.979  1.00  0.00     0.074 A 
ATOM     39  C   UNL A   1      44.364  25.834  26.484  1.00  0.00     0.031 C 
ATOM     40  C   UNL A   1      38.665  28.081  29.653  1.00  0.00     0.029 A 
ATOM     41  C   UNL A   1      39.791  29.012  29.633  1.00  0.00     0.049 A 
ATOM     42  H   UNL A   1      41.619  28.762  28.666  1.00  0.00     0.167 HD
ATOM     43  C   UNL A   1      45.527  27.988  26.846  1.00  0.00     0.034 A 
ATOM     44  C   UNL A   1      39.825  30.218  30.237  1.00  0.00     0.034 A 
ATOM     45  C   UNL A   1      45.596  29.344  27.321  1.00  0.00     0.049 A 
ATOM     46  C   UNL A   1      41.053  31.079  30.093  1.00  0.00     0.074 A 
ATOM     47  C   UNL A   1      46.636  30.247  27.196  1.00  0.00     0.029 A 
ATOM     48  N   UNL A   1      44.588  29.988  28.020  1.00  0.00    -0.354 N 
ATOM     49  N   UNL A   1      42.158  30.837  29.429  1.00  0.00    -0.248 NA
ATOM     50  C   UNL A   1      41.024  32.396  30.748  1.00  0.00     0.031 C 
ATOM     51  C   UNL A   1      46.264  31.433  27.841  1.00  0.00     0.029 A 
ATOM     52  C   UNL A   1      44.984  31.274  28.345  1.00  0.00     0.049 A 
ATOM     53  H   UNL A   1      43.718  29.589  28.252  1.00  0.00     0.167 HD
ATOM     54  C   UNL A   1      42.941  31.979  29.560  1.00  0.00     0.074 A 
ATOM     55  C   UNL A   1      42.175  32.922  30.348  1.00  0.00     0.031 C 
ATOM     56  C   UNL A   1      44.188  32.221  29.085  1.00  0.00     0.034 A 
BRANCH  43  57
ATOM     57  C   UNL A   1      46.722  27.423  26.124  1.00  0.00     0.023 A 
ATOM     58  C   UNL A   1      46.829  27.580  24.728  1.00  0.00     0.012 A 
ATOM     59  C   UNL A   1      47.758  26.780  26.829  1.00  0.00     0.148 A 
ATOM     60  C   UNL A   1      47.935  27.083  24.039  1.00  0.00     0.002 A 
ATOM     61  C   UNL A   1      48.876  26.321  26.142  1.00  0.00     0.091 A 
ATOM     62  F   UNL A   1      47.626  26.617  28.153  1.00  0.00    -0.205 F 
ATOM     63  C   UNL A   1      48.961  26.463  24.747  1.00  0.00     0.022 A 
BRANCH  61  64
ATOM     64  S   UNL A   1      50.282  25.575  26.973  1.00  0.00     0.127 S 
ATOM     65  O   UNL A   1      51.204  25.363  25.860  1.00  0.00    -0.237 OA
ATOM     66  O   UNL A   1      50.684  26.627  27.907  1.00  0.00    -0.237 OA
ATOM     67  O   UNL A   1      49.775  24.365  27.606  1.00  0.00    -0.744 OA
ENDBRANCH  61  64
ENDBRANCH  43  57
BRANCH  44  68
ATOM     68  C   UNL A   1      38.643  30.693  31.009  1.00  0.00     0.023 A 
ATOM     69  C   UNL A   1      38.601  30.509  32.403  1.00  0.00     0.012 A 
ATOM     70  C   UNL A   1      37.574  31.350  30.368  1.00  0.00     0.148 A 
ATOM     71  C   UNL A   1      37.502  30.949  33.145  1.00  0.00     0.002 A 
ATOM     72  C   UNL A   1      36.509  31.834  31.119  1.00  0.00     0.091 A 
ATOM     73  F   UNL A   1      37.624  31.496  29.037  1.00  0.00    -0.205 F 
ATOM     74  C   UNL A   1      36.464  31.621  32.505  1.00  0.00     0.022 A 
BRANCH  72  75
ATOM     75  S   UNL A   1      35.196  32.823  30.395  1.00  0.00     0.127 S 
ATOM     76  O   UNL A   1      34.667  31.919  29.378  1.00  0.00    -0.237 OA
ATOM     77  O   UNL A   1      34.316  33.044  31.543  1.00  0.00    -0.237 OA
ATOM     78  O   UNL A   1      35.844  34.030  29.898  1.00  0.00    -0.744 OA
ENDBRANCH  72  75
ENDBRANCH  44  68
BRANCH  56  79
ATOM     79  C   UNL A   1      44.800  33.567  29.374  1.00  0.00     0.023 A 
ATOM     80  C   UNL A   1      45.490  33.775  30.584  1.00  0.00     0.012 A 
ATOM     81  C   UNL A   1      44.763  34.597  28.413  1.00  0.00     0.148 A 
ATOM     82  C   UNL A   1      46.106  34.998  30.848  1.00  0.00     0.002 A 
ATOM     83  C   UNL A   1      45.420  35.797  28.662  1.00  0.00     0.091 A 
ATOM     84  F   UNL A   1      44.087  34.386  27.274  1.00  0.00    -0.205 F 
ATOM     85  C   UNL A   1      46.082  36.003  29.883  1.00  0.00     0.022 A 
BRANCH  83  86
ATOM     86  S   UNL A   1      45.520  37.110  27.440  1.00  0.00     0.127 S 
ATOM     87  O   UNL A   1      46.329  36.484  26.395  1.00  0.00    -0.237 OA
ATOM     88  O   UNL A   1      44.116  37.313  27.084  1.00  0.00    -0.237 OA
ATOM     89  O   UNL A   1      46.139  38.240  28.118  1.00  0.00    -0.744 OA
ENDBRANCH  83  86
ENDBRANCH  56  79
ENDBRANCH  30  31
ENDBRANCH  23  25
ENDBRANCH  22  23
ENDBRANCH  21  22
ENDBRANCH  20  21
ENDBRANCH   1  20
TORSDOF 20
ENDMDL
MODEL 2
REMARK VINA RESULT:     -10.7      5.234     10.705
REMARK SMILES C[C@@H](C(=O)OCCOCCOC(=O)c1ccc(-c2c3nc(c(-c4cccc(S(=O)(=O)[O-])c4F)c4ccc([nH]4)c(-c4cccc(S(=O)(=O)[O-])c4F)c4nc(c(-c5cccc(S(=O)(=O)[O-])c5F)c5ccc2[nH]5)C=C4)C=C3)cc1)[C@@H](C)C(=O)c1cccc(Cl)c1
REMARK SMILES IDX 8 1 7 2 6 3 5 4 3 5 4 6 2 7 1 8 77 9 78 10 79 11 80 12 81 13
REMARK SMILES IDX 82 14 87 15 83 16 85 17 84 18 86 19 9 20 10 21 11 22 12 23
REMARK SMILES IDX 13 24 14 25 15 26 76 27 16 28 75 29 17 30 18 31 19 32 69 33
REMARK SMILES IDX 20 34 74 35 68 36 70 37 21 38 73 39 67 40 66 41 22 43 54 44
REMARK SMILES IDX 34 45 53 46 35 47 38 48 52 49 71 50 36 51 37 52 51 54 72 55
REMARK SMILES IDX 39 56 23 57 24 58 32 59 25 60 27 61 33 62 26 63 28 64 29 65
REMARK SMILES IDX 30 66 31 67 55 68 56 69 64 70 57 71 59 72 65 73 58 74 60 75
REMARK SMILES IDX 61 76 62 77 63 78 40 79 41 80 49 81 42 82 44 83 50 84 43 85
REMARK SMILES IDX 45 86 46 87 47 88 48 89
REMARK H PARENT 70 42 38 53
REMARK Flexibility Score: inf
ROOT
ATOM      1  O   UNL A   1      32.463  30.654  26.916  1.00  0.00    -0.374 OA
ENDROOT
BRANCH   1   2
ATOM      2  C   UNL A   1      32.403  29.433  26.185  1.00  0.00     0.202 C 
BRANCH   2   3
ATOM      3  C   UNL A   1      31.412  29.320  25.020  1.00  0.00     0.261 C 
BRANCH   3   4
ATOM      4  O   UNL A   1      31.686  28.225  24.135  1.00  0.00    -0.463 OA
BRANCH   4   5
ATOM      5  C   UNL A   1      31.192  27.031  24.550  1.00  0.00     0.309 C 
ATOM      6  O   UNL A   1      30.549  26.883  25.582  1.00  0.00    -0.252 OA
BRANCH   5   7
ATOM      7  C   UNL A   1      31.538  25.864  23.618  1.00  0.00     0.106 C 
ATOM      8  C   UNL A   1      30.615  24.645  23.787  1.00  0.00     0.021 C 
BRANCH   7   9
ATOM      9  C   UNL A   1      33.027  25.473  23.799  1.00  0.00     0.072 C 
ATOM     10  C   UNL A   1      33.438  25.261  25.258  1.00  0.00     0.017 C 
BRANCH   9  11
ATOM     11  C   UNL A   1      33.621  24.308  22.982  1.00  0.00     0.166 C 
ATOM     12  O   UNL A   1      33.759  24.454  21.761  1.00  0.00    -0.294 OA
BRANCH  11  13
ATOM     13  C   UNL A   1      34.223  23.077  23.600  1.00  0.00     0.019 A 
ATOM     14  C   UNL A   1      33.333  22.064  23.998  1.00  0.00     0.012 A 
ATOM     15  C   UNL A   1      35.584  22.897  23.856  1.00  0.00     0.032 A 
ATOM     16  C   UNL A   1      33.795  20.900  24.619  1.00  0.00     0.002 A 
ATOM     17  C   UNL A   1      36.041  21.737  24.483  1.00  0.00     0.041 A 
ATOM     18  C   UNL A   1      35.155  20.734  24.860  1.00  0.00     0.020 A 
ATOM     19  Cl  UNL A   1      37.722  21.556  24.809  1.00  0.00    -0.084 Cl
ENDBRANCH  11  13
ENDBRANCH   9  11
ENDBRANCH   7   9
ENDBRANCH   5   7
ENDBRANCH   4   5
ENDBRANCH   3   4
ENDBRANCH   2   3
ENDBRANCH   1   2
BRANCH   1  20
ATOM     20  C   UNL A   1      31.539  31.690  26.593  1.00  0.00     0.202 C 
BRANCH  20  21
ATOM     21  C   UNL A   1      31.951  33.148  26.836  1.00  0.00     0.261 C 
BRANCH  21  22
ATOM     22  O   UNL A   1      32.388  33.389  28.187  1.00  0.00    -0.460 OA
BRANCH  22  23
ATOM     23  C   UNL A   1      33.495  34.162  28.290  1.00  0.00     0.338 C 
ATOM     24  O   UNL A   1      33.537  35.388  28.341  1.00  0.00    -0.246 OA
BRANCH  23  25
ATOM     25  C   UNL A   1      34.685  33.334  28.538  1.00  0.00     0.060 A 
ATOM     26  C   UNL A   1      34.490  32.085  29.146  1.00  0.00     0.016 A 
ATOM     27  C   UNL A   1      35.972  33.813  28.294  1.00  0.00     0.016 A 
ATOM     28  C   UNL A   1      35.585  31.333  29.558  1.00  0.00     0.010 A 
ATOM     29  C   UNL A   1      37.072  33.058  28.721  1.00  0.00     0.010 A 
ATOM     30  C   UNL A   1      36.880  31.837  29.392  1.00  0.00    -0.014 A 
BRANCH  30  31
ATOM     31  C   UNL A   1      38.014  31.155  30.060  1.00  0.00     0.031 A 
ATOM     32  C   UNL A   1      38.358  31.530  31.476  1.00  0.00     0.074 A 
ATOM     33  C   UNL A   1      38.714  30.200  29.423  1.00  0.00     0.049 A 
ATOM     34  N   UNL A   1      39.306  31.065  32.247  1.00  0.00    -0.248 NA
ATOM     35  C   UNL A   1      37.524  32.566  32.106  1.00  0.00     0.031 C 
ATOM     36  C   UNL A   1      38.469  29.747  28.054  1.00  0.00     0.029 A 
ATOM     37  N   UNL A   1      39.787  29.454  29.841  1.00  0.00    -0.354 N 
ATOM     38  C   UNL A   1      39.198  31.765  33.444  1.00  0.00     0.074 A 
ATOM     39  C   UNL A   1      38.102  32.697  33.291  1.00  0.00     0.031 C 
ATOM     40  C   UNL A   1      39.390  28.822  27.733  1.00  0.00     0.029 A 
ATOM     41  C   UNL A   1      40.295  28.632  28.865  1.00  0.00     0.049 A 
ATOM     42  H   UNL A   1      40.157  29.504  30.751  1.00  0.00     0.167 HD
ATOM     43  C   UNL A   1      39.932  31.632  34.573  1.00  0.00     0.034 A 
ATOM     44  C   UNL A   1      41.381  27.831  28.878  1.00  0.00     0.034 A 
ATOM     45  C   UNL A   1      41.008  30.691  34.730  1.00  0.00     0.049 A 
ATOM     46  C   UNL A   1      42.195  27.715  30.140  1.00  0.00     0.074 A 
ATOM     47  C   UNL A   1      41.785  30.451  35.850  1.00  0.00     0.029 A 
ATOM     48  N   UNL A   1      41.468  29.843  33.735  1.00  0.00    -0.354 N 
ATOM     49  N   UNL A   1      42.005  28.295  31.301  1.00  0.00    -0.248 NA
ATOM     50  C   UNL A   1      43.350  26.806  30.106  1.00  0.00     0.031 C 
ATOM     51  C   UNL A   1      42.729  29.471  35.524  1.00  0.00     0.029 A 
ATOM     52  C   UNL A   1      42.524  29.085  34.209  1.00  0.00     0.049 A 
ATOM     53  H   UNL A   1      41.096  29.788  32.825  1.00  0.00     0.167 HD
ATOM     54  C   UNL A   1      42.995  27.800  32.142  1.00  0.00     0.074 A 
ATOM     55  C   UNL A   1      43.770  26.855  31.364  1.00  0.00     0.031 C 
ATOM     56  C   UNL A   1      43.251  28.108  33.438  1.00  0.00     0.034 A 
BRANCH  43  57
ATOM     57  C   UNL A   1      39.570  32.505  35.745  1.00  0.00     0.023 A 
ATOM     58  C   UNL A   1      40.089  33.814  35.823  1.00  0.00     0.012 A 
ATOM     59  C   UNL A   1      38.684  32.053  36.741  1.00  0.00     0.148 A 
ATOM     60  C   UNL A   1      39.754  34.648  36.889  1.00  0.00     0.002 A 
ATOM     61  C   UNL A   1      38.323  32.903  37.780  1.00  0.00     0.091 A 
ATOM     62  F   UNL A   1      38.222  30.797  36.664  1.00  0.00    -0.205 F 
ATOM     63  C   UNL A   1      38.865  34.197  37.861  1.00  0.00     0.022 A 
BRANCH  61  64
ATOM     64  S   UNL A   1      37.130  32.439  39.039  1.00  0.00     0.127 S 
ATOM     65  O   UNL A   1      35.865  32.745  38.373  1.00  0.00    -0.237 OA
ATOM     66  O   UNL A   1      37.399  31.011  39.209  1.00  0.00    -0.237 OA
ATOM     67  O   UNL A   1      37.439  33.256  40.204  1.00  0.00    -0.744 OA
ENDBRANCH  61  64
ENDBRANCH  43  57
BRANCH  44  68
ATOM     68  C   UNL A   1      41.739  27.051  27.660  1.00  0.00     0.023 A 
ATOM     69  C   UNL A   1      42.305  27.709  26.552  1.00  0.00     0.012 A 
ATOM     70  C   UNL A   1      41.547  25.657  27.608  1.00  0.00     0.148 A 
ATOM     71  C   UNL A   1      42.650  26.996  25.402  1.00  0.00     0.002 A 
ATOM     72  C   UNL A   1      41.943  24.945  26.482  1.00  0.00     0.091 A 
ATOM     73  F   UNL A   1      40.988  25.052  28.665  1.00  0.00    -0.205 F 
ATOM     74  C   UNL A   1      42.481  25.614  25.372  1.00  0.00     0.022 A 
BRANCH  72  75
ATOM     75  S   UNL A   1      41.881  23.151  26.410  1.00  0.00     0.127 S 
ATOM     76  O   UNL A   1      42.658  22.778  27.589  1.00  0.00    -0.237 OA
ATOM     77  O   UNL A   1      40.444  22.894  26.512  1.00  0.00    -0.237 OA
ATOM     78  O   UNL A   1      42.463  22.790  25.124  1.00  0.00    -0.744 OA
ENDBRANCH  72  75
ENDBRANCH  44  68
BRANCH  56  79
ATOM     79  C   UNL A   1      44.398  27.402  34.114  1.00  0.00     0.023 A 
ATOM     80  C   UNL A   1      45.698  27.934  34.022  1.00  0.00     0.012 A 
ATOM     81  C   UNL A   1      44.172  26.259  34.908  1.00  0.00     0.148 A 
ATOM     82  C   UNL A   1      46.764  27.323  34.683  1.00  0.00     0.002 A 
ATOM     83  C   UNL A   1      45.230  25.683  35.602  1.00  0.00     0.091 A 
ATOM     84  F   UNL A   1      42.930  25.758  34.969  1.00  0.00    -0.205 F 
ATOM     85  C   UNL A   1      46.528  26.206  35.482  1.00  0.00     0.022 A 
BRANCH  83  86
ATOM     86  S   UNL A   1      45.001  24.301  36.728  1.00  0.00     0.127 S 
ATOM     87  O   UNL A   1      44.067  24.861  37.702  1.00  0.00    -0.237 OA
ATOM     88  O   UNL A   1      44.428  23.277  35.852  1.00  0.00    -0.237 OA
ATOM     89  O   UNL A   1      46.325  23.981  37.241  1.00  0.00    -0.744 OA
ENDBRANCH  83  86
ENDBRANCH  56  79
ENDBRANCH  30  31
ENDBRANCH  23  25
ENDBRANCH  22  23
ENDBRANCH  21  22
ENDBRANCH  20  21
ENDBRANCH   1  20
TORSDOF 20
ENDMDL
MODEL 3
REMARK VINA RESULT:     -10.6      5.204      7.622
REMARK SMILES C[C@@H](C(=O)OCCOCCOC(=O)c1ccc(-c2c3nc(c(-c4cccc(S(=O)(=O)[O-])c4F)c4ccc([nH]4)c(-c4cccc(S(=O)(=O)[O-])c4F)c4nc(c(-c5cccc(S(=O)(=O)[O-])c5F)c5ccc2[nH]5)C=C4)C=C3)cc1)[C@@H](C)C(=O)c1cccc(Cl)c1
REMARK SMILES IDX 8 1 7 2 6 3 5 4 3 5 4 6 2 7 1 8 77 9 78 10 79 11 80 12 81 13
REMARK SMILES IDX 82 14 87 15 83 16 85 17 84 18 86 19 9 20 10 21 11 22 12 23
REMARK SMILES IDX 13 24 14 25 15 26 76 27 16 28 75 29 17 30 18 31 19 32 69 33
REMARK SMILES IDX 20 34 74 35 68 36 70 37 21 38 73 39 67 40 66 41 22 43 54 44
REMARK SMILES IDX 34 45 53 46 35 47 38 48 52 49 71 50 36 51 37 52 51 54 72 55
REMARK SMILES IDX 39 56 23 57 24 58 32 59 25 60 27 61 33 62 26 63 28 64 29 65
REMARK SMILES IDX 30 66 31 67 55 68 56 69 64 70 57 71 59 72 65 73 58 74 60 75
REMARK SMILES IDX 61 76 62 77 63 78 40 79 41 80 49 81 42 82 44 83 50 84 43 85
REMARK SMILES IDX 45 86 46 87 47 88 48 89
REMARK H PARENT 70 42 38 53
REMARK Flexibility Score: inf
ROOT
ATOM      1  O   UNL A   1      32.363  28.090  25.707  1.00  0.00    -0.374 OA
ENDROOT
BRANCH   1   2
ATOM      2  C   UNL A   1      31.994  27.102  26.664  1.00  0.00     0.202 C 
BRANCH   2   3
ATOM      3  C   UNL A   1      31.426  25.768  26.164  1.00  0.00     0.261 C 
BRANCH   3   4
ATOM      4  O   UNL A   1      31.735  24.655  27.014  1.00  0.00    -0.463 OA
BRANCH   4   5
ATOM      5  C   UNL A   1      31.535  23.439  26.444  1.00  0.00     0.309 C 
ATOM      6  O   UNL A   1      30.498  23.117  25.879  1.00  0.00    -0.252 OA
BRANCH   5   7
ATOM      7  C   UNL A   1      32.725  22.485  26.597  1.00  0.00     0.106 C 
ATOM      8  C   UNL A   1      33.267  22.401  28.034  1.00  0.00     0.021 C 
BRANCH   7   9
ATOM      9  C   UNL A   1      33.841  22.874  25.596  1.00  0.00     0.072 C 
ATOM     10  C   UNL A   1      35.150  22.106  25.799  1.00  0.00     0.017 C 
BRANCH   9  11
ATOM     11  C   UNL A   1      33.548  22.886  24.082  1.00  0.00     0.166 C 
ATOM     12  O   UNL A   1      33.198  21.830  23.540  1.00  0.00    -0.294 OA
BRANCH  11  13
ATOM     13  C   UNL A   1      33.473  24.140  23.257  1.00  0.00     0.019 A 
ATOM     14  C   UNL A   1      33.816  25.344  23.895  1.00  0.00     0.012 A 
ATOM     15  C   UNL A   1      33.035  24.197  21.931  1.00  0.00     0.032 A 
ATOM     16  C   UNL A   1      33.738  26.566  23.221  1.00  0.00     0.002 A 
ATOM     17  C   UNL A   1      32.952  25.420  21.264  1.00  0.00     0.041 A 
ATOM     18  C   UNL A   1      33.307  26.605  21.900  1.00  0.00     0.020 A 
ATOM     19  Cl  UNL A   1      32.383  25.462  19.639  1.00  0.00    -0.084 Cl
ENDBRANCH  11  13
ENDBRANCH   9  11
ENDBRANCH   7   9
ENDBRANCH   5   7
ENDBRANCH   4   5
ENDBRANCH   3   4
ENDBRANCH   2   3
ENDBRANCH   1   2
BRANCH   1  20
ATOM     20  C   UNL A   1      31.408  29.088  25.353  1.00  0.00     0.202 C 
BRANCH  20  21
ATOM     21  C   UNL A   1      31.676  30.542  25.763  1.00  0.00     0.261 C 
BRANCH  21  22
ATOM     22  O   UNL A   1      32.264  30.656  27.073  1.00  0.00    -0.460 OA
BRANCH  22  23
ATOM     23  C   UNL A   1      33.009  31.772  27.259  1.00  0.00     0.338 C 
ATOM     24  O   UNL A   1      32.612  32.934  27.249  1.00  0.00    -0.246 OA
BRANCH  23  25
ATOM     25  C   UNL A   1      34.373  31.421  27.682  1.00  0.00     0.060 A 
ATOM     26  C   UNL A   1      34.639  30.071  27.953  1.00  0.00     0.016 A 
ATOM     27  C   UNL A   1      35.337  32.400  27.924  1.00  0.00     0.016 A 
ATOM     28  C   UNL A   1      35.856  29.701  28.517  1.00  0.00     0.010 A 
ATOM     29  C   UNL A   1      36.556  32.025  28.503  1.00  0.00     0.010 A 
ATOM     30  C   UNL A   1      36.801  30.682  28.839  1.00  0.00    -0.014 A 
BRANCH  30  31
ATOM     31  C   UNL A   1      37.974  30.312  29.668  1.00  0.00     0.031 A 
ATOM     32  C   UNL A   1      38.982  29.341  29.116  1.00  0.00     0.074 A 
ATOM     33  C   UNL A   1      38.152  30.853  30.887  1.00  0.00     0.049 A 
ATOM     34  N   UNL A   1      40.073  28.880  29.666  1.00  0.00    -0.248 NA
ATOM     35  C   UNL A   1      38.722  28.820  27.764  1.00  0.00     0.031 C 
ATOM     36  C   UNL A   1      37.248  31.809  31.525  1.00  0.00     0.029 A 
ATOM     37  N   UNL A   1      39.144  30.654  31.813  1.00  0.00    -0.354 N 
ATOM     38  C   UNL A   1      40.621  27.999  28.741  1.00  0.00     0.074 A 
ATOM     39  C   UNL A   1      39.733  27.978  27.599  1.00  0.00     0.031 C 
ATOM     40  C   UNL A   1      37.712  32.090  32.754  1.00  0.00     0.029 A 
ATOM     41  C   UNL A   1      38.932  31.322  32.994  1.00  0.00     0.049 A 
ATOM     42  H   UNL A   1      39.931  30.087  31.647  1.00  0.00     0.167 HD
ATOM     43  C   UNL A   1      41.768  27.286  28.824  1.00  0.00     0.034 A 
ATOM     44  C   UNL A   1      39.634  31.299  34.146  1.00  0.00     0.034 A 
ATOM     45  C   UNL A   1      42.661  27.322  29.952  1.00  0.00     0.049 A 
ATOM     46  C   UNL A   1      40.897  30.481  34.223  1.00  0.00     0.074 A 
ATOM     47  C   UNL A   1      43.869  26.668  30.114  1.00  0.00     0.029 A 
ATOM     48  N   UNL A   1      42.437  28.044  31.114  1.00  0.00    -0.354 N 
ATOM     49  N   UNL A   1      41.464  29.748  33.295  1.00  0.00    -0.248 NA
ATOM     50  C   UNL A   1      41.637  30.517  35.494  1.00  0.00     0.031 C 
ATOM     51  C   UNL A   1      44.366  26.978  31.386  1.00  0.00     0.029 A 
ATOM     52  C   UNL A   1      43.478  27.844  32.004  1.00  0.00     0.049 A 
ATOM     53  H   UNL A   1      41.653  28.615  31.281  1.00  0.00     0.167 HD
ATOM     54  C   UNL A   1      42.639  29.262  33.856  1.00  0.00     0.074 A 
ATOM     55  C   UNL A   1      42.714  29.801  35.199  1.00  0.00     0.031 C 
ATOM     56  C   UNL A   1      43.566  28.431  33.317  1.00  0.00     0.034 A 
BRANCH  43  57
ATOM     57  C   UNL A   1      42.143  26.427  27.645  1.00  0.00     0.023 A 
ATOM     58  C   UNL A   1      42.897  26.984  26.593  1.00  0.00     0.012 A 
ATOM     59  C   UNL A   1      41.792  25.064  27.599  1.00  0.00     0.148 A 
ATOM     60  C   UNL A   1      43.272  26.204  25.498  1.00  0.00     0.002 A 
ATOM     61  C   UNL A   1      42.202  24.284  26.525  1.00  0.00     0.091 A 
ATOM     62  F   UNL A   1      41.052  24.560  28.597  1.00  0.00    -0.205 F 
ATOM     63  C   UNL A   1      42.934  24.854  25.470  1.00  0.00     0.022 A 
BRANCH  61  64
ATOM     64  S   UNL A   1      41.877  22.520  26.432  1.00  0.00     0.127 S 
ATOM     65  O   UNL A   1      40.419  22.494  26.331  1.00  0.00    -0.237 OA
ATOM     66  O   UNL A   1      42.580  22.139  25.207  1.00  0.00    -0.237 OA
ATOM     67  O   UNL A   1      42.431  21.947  27.650  1.00  0.00    -0.744 OA
ENDBRANCH  61  64
ENDBRANCH  43  57
BRANCH  44  68
ATOM     68  C   UNL A   1      39.171  32.106  35.310  1.00  0.00     0.023 A 
ATOM     69  C   UNL A   1      39.355  33.501  35.309  1.00  0.00     0.012 A 
ATOM     70  C   UNL A   1      38.523  31.498  36.404  1.00  0.00     0.148 A 
ATOM     71  C   UNL A   1      38.926  34.275  36.389  1.00  0.00     0.002 A 
ATOM     72  C   UNL A   1      38.049  32.280  37.450  1.00  0.00     0.091 A 
ATOM     73  F   UNL A   1      38.376  30.166  36.394  1.00  0.00    -0.205 F 
ATOM     74  C   UNL A   1      38.263  33.666  37.452  1.00  0.00     0.022 A 
BRANCH  72  75
ATOM     75  S   UNL A   1      37.072  31.596  38.792  1.00  0.00     0.127 S 
ATOM     76  O   UNL A   1      36.937  30.200  38.384  1.00  0.00    -0.237 OA
ATOM     77  O   UNL A   1      37.945  31.819  39.946  1.00  0.00    -0.237 OA
ATOM     78  O   UNL A   1      35.840  32.373  38.816  1.00  0.00    -0.744 OA
ENDBRANCH  72  75
ENDBRANCH  44  68
BRANCH  56  79
ATOM     79  C   UNL A   1      44.761  28.070  34.161  1.00  0.00     0.023 A 
ATOM     80  C   UNL A   1      45.895  28.906  34.160  1.00  0.00     0.012 A 
ATOM     81  C   UNL A   1      44.728  26.950  35.015  1.00  0.00     0.148 A 
ATOM     82  C   UNL A   1      46.990  28.616  34.973  1.00  0.00     0.002 A 
ATOM     83  C   UNL A   1      45.804  26.693  35.857  1.00  0.00     0.091 A 
ATOM     84  F   UNL A   1      43.647  26.156  34.989  1.00  0.00    -0.205 F 
ATOM     85  C   UNL A   1      46.940  27.518  35.829  1.00  0.00     0.022 A 
BRANCH  83  86
ATOM     86  S   UNL A   1      45.787  25.357  37.059  1.00  0.00     0.127 S 
ATOM     87  O   UNL A   1      45.686  24.182  36.196  1.00  0.00    -0.237 OA
ATOM     88  O   UNL A   1      47.081  25.518  37.722  1.00  0.00    -0.237 OA
ATOM     89  O   UNL A   1      44.637  25.606  37.916  1.00  0.00    -0.744 OA
ENDBRANCH  83  86
ENDBRANCH  56  79
ENDBRANCH  30  31
ENDBRANCH  23  25
ENDBRANCH  22  23
ENDBRANCH  21  22
ENDBRANCH  20  21
ENDBRANCH   1  20
TORSDOF 20
ENDMDL
