MODEL 1
REMARK VINA RESULT:     -11.2      0.000      0.000
REMARK SMILES C=CCc1cccc(-c2ccc([C@@H](C)C(=O)OCCOCCOC(=O)c3ccc(-c4c5nc(c(-c6cccc(S(=O)(=O)[O-])c6F)c6ccc([nH]6)c(-c6cccc(S(=O)(=O)[O-])c6F)c6nc(c(-c7cccc(S(=O)(=O)[O-])c7F)c7ccc4[nH]7)C=C6)C=C5)cc3)cc2)c1
REMARK SMILES IDX 19 1 18 2 17 3 15 4 16 5 13 6 14 7 12 8 9 9 10 10 90 11
REMARK SMILES IDX 11 12 89 13 8 14 4 15 5 16 91 17 6 18 7 19 3 20 2 21 1 22
REMARK SMILES IDX 20 23 21 24 22 25 23 26 24 27 25 28 26 29 27 30 88 31 28 32
REMARK SMILES IDX 87 33 29 34 30 35 31 36 81 37 32 38 86 39 80 40 82 41 33 42
REMARK SMILES IDX 85 43 79 44 78 45 34 47 66 48 46 49 65 50 47 51 50 52 64 53
REMARK SMILES IDX 83 54 48 55 49 56 63 58 84 59 51 60 35 61 36 62 44 63 37 64
REMARK SMILES IDX 39 65 45 66 38 67 40 68 41 69 42 70 43 71 67 72 68 73 76 74
REMARK SMILES IDX 69 75 71 76 77 77 70 78 72 79 73 80 74 81 75 82 52 83 53 84
REMARK SMILES IDX 61 85 54 86 56 87 62 88 55 89 57 90 58 91 59 92 60 93
REMARK H PARENT 82 46 50 57
REMARK Flexibility Score: inf
ROOT
ATOM      1  C   UNL A   1      32.813  29.727  26.454  1.00  0.00     0.202 C 
ENDROOT
BRANCH   1   2
ATOM      2  C   UNL A   1      32.232  28.415  25.920  1.00  0.00     0.261 C 
BRANCH   2   3
ATOM      3  O   UNL A   1      31.230  28.664  24.919  1.00  0.00    -0.463 OA
BRANCH   3   4
ATOM      4  C   UNL A   1      31.531  28.275  23.654  1.00  0.00     0.313 C 
ATOM      5  O   UNL A   1      32.267  28.896  22.891  1.00  0.00    -0.252 OA
BRANCH   4   6
ATOM      6  C   UNL A   1      30.848  26.984  23.230  1.00  0.00     0.126 C 
ATOM      7  C   UNL A   1      29.369  27.049  23.599  1.00  0.00     0.025 C 
BRANCH   6   8
ATOM      8  C   UNL A   1      31.488  25.668  23.658  1.00  0.00    -0.034 A 
ATOM      9  C   UNL A   1      32.738  23.162  24.207  1.00  0.00    -0.018 A 
ATOM     10  C   UNL A   1      31.350  23.328  24.332  1.00  0.00     0.009 A 
ATOM     11  C   UNL A   1      33.495  24.287  23.849  1.00  0.00     0.009 A 
ATOM     12  C   UNL A   1      30.734  24.558  24.061  1.00  0.00     0.005 A 
ATOM     13  C   UNL A   1      32.883  25.518  23.579  1.00  0.00     0.005 A 
BRANCH   9  14
ATOM     14  C   UNL A   1      33.375  21.842  24.376  1.00  0.00    -0.018 A 
ATOM     15  C   UNL A   1      33.228  19.398  24.581  1.00  0.00    -0.044 A 
ATOM     16  C   UNL A   1      34.607  19.337  24.812  1.00  0.00     0.004 A 
ATOM     17  C   UNL A   1      32.626  20.652  24.363  1.00  0.00     0.012 A 
ATOM     18  C   UNL A   1      35.370  20.502  24.819  1.00  0.00     0.001 A 
ATOM     19  C   UNL A   1      34.759  21.740  24.605  1.00  0.00     0.009 A 
BRANCH  15  20
ATOM     20  C   UNL A   1      32.392  18.141  24.598  1.00  0.00     0.062 C 
BRANCH  20  21
ATOM     21  C   UNL A   1      33.047  17.040  25.388  1.00  0.00    -0.030 C 
ATOM     22  C   UNL A   1      32.600  15.778  25.440  1.00  0.00     0.004 C 
ENDBRANCH  20  21
ENDBRANCH  15  20
ENDBRANCH   9  14
ENDBRANCH   6   8
ENDBRANCH   4   6
ENDBRANCH   3   4
ENDBRANCH   2   3
ENDBRANCH   1   2
BRANCH   1  23
ATOM     23  O   UNL A   1      31.895  30.590  27.129  1.00  0.00    -0.374 OA
BRANCH  23  24
ATOM     24  C   UNL A   1      31.426  31.729  26.406  1.00  0.00     0.202 C 
BRANCH  24  25
ATOM     25  C   UNL A   1      31.796  33.103  26.978  1.00  0.00     0.261 C 
BRANCH  25  26
ATOM     26  O   UNL A   1      33.214  33.334  26.974  1.00  0.00    -0.460 OA
BRANCH  26  27
ATOM     27  C   UNL A   1      33.734  33.705  28.166  1.00  0.00     0.338 C 
ATOM     28  O   UNL A   1      33.224  34.453  28.992  1.00  0.00    -0.246 OA
BRANCH  27  29
ATOM     29  C   UNL A   1      34.960  32.938  28.450  1.00  0.00     0.060 A 
ATOM     30  C   UNL A   1      34.802  31.642  28.961  1.00  0.00     0.016 A 
ATOM     31  C   UNL A   1      36.235  33.489  28.300  1.00  0.00     0.016 A 
ATOM     32  C   UNL A   1      35.914  30.916  29.380  1.00  0.00     0.010 A 
ATOM     33  C   UNL A   1      37.351  32.760  28.729  1.00  0.00     0.010 A 
ATOM     34  C   UNL A   1      37.191  31.487  29.308  1.00  0.00    -0.014 A 
BRANCH  34  35
ATOM     35  C   UNL A   1      38.329  30.805  29.973  1.00  0.00     0.031 A 
ATOM     36  C   UNL A   1      38.684  31.182  31.387  1.00  0.00     0.074 A 
ATOM     37  C   UNL A   1      39.022  29.843  29.336  1.00  0.00     0.049 A 
ATOM     38  N   UNL A   1      39.639  30.720  32.151  1.00  0.00    -0.248 NA
ATOM     39  C   UNL A   1      37.849  32.214  32.025  1.00  0.00     0.031 C 
ATOM     40  C   UNL A   1      38.775  29.388  27.970  1.00  0.00     0.029 A 
ATOM     41  N   UNL A   1      40.093  29.093  29.754  1.00  0.00    -0.354 N 
ATOM     42  C   UNL A   1      39.531  31.411  33.353  1.00  0.00     0.074 A 
ATOM     43  C   UNL A   1      38.432  32.341  33.209  1.00  0.00     0.031 C 
ATOM     44  C   UNL A   1      39.693  28.459  27.648  1.00  0.00     0.029 A 
ATOM     45  C   UNL A   1      40.601  28.268  28.778  1.00  0.00     0.049 A 
ATOM     46  H   UNL A   1      40.463  29.140  30.666  1.00  0.00     0.167 HD
ATOM     47  C   UNL A   1      40.263  31.269  34.483  1.00  0.00     0.034 A 
ATOM     48  C   UNL A   1      41.685  27.468  28.788  1.00  0.00     0.034 A 
ATOM     49  C   UNL A   1      41.347  30.336  34.632  1.00  0.00     0.049 A 
ATOM     50  C   UNL A   1      42.500  27.346  30.050  1.00  0.00     0.074 A 
ATOM     51  C   UNL A   1      42.138  30.107  35.746  1.00  0.00     0.029 A 
ATOM     52  N   UNL A   1      41.796  29.480  33.641  1.00  0.00    -0.354 N 
ATOM     53  N   UNL A   1      42.316  27.927  31.212  1.00  0.00    -0.248 NA
ATOM     54  C   UNL A   1      43.649  26.429  30.016  1.00  0.00     0.031 C 
ATOM     55  C   UNL A   1      43.075  29.121  35.420  1.00  0.00     0.029 A 
ATOM     56  C   UNL A   1      42.853  28.720  34.113  1.00  0.00     0.049 A 
ATOM     57  H   UNL A   1      41.419  29.419  32.733  1.00  0.00     0.167 HD
ATOM     58  C   UNL A   1      43.303  27.421  32.053  1.00  0.00     0.074 A 
ATOM     59  C   UNL A   1      44.066  26.469  31.274  1.00  0.00     0.031 C 
ATOM     60  C   UNL A   1      43.565  27.731  33.347  1.00  0.00     0.034 A 
BRANCH  47  61
ATOM     61  C   UNL A   1      39.884  32.115  35.670  1.00  0.00     0.023 A 
ATOM     62  C   UNL A   1      40.493  33.374  35.841  1.00  0.00     0.012 A 
ATOM     63  C   UNL A   1      38.887  31.699  36.573  1.00  0.00     0.148 A 
ATOM     64  C   UNL A   1      40.134  34.198  36.906  1.00  0.00     0.002 A 
ATOM     65  C   UNL A   1      38.506  32.543  37.611  1.00  0.00     0.091 A 
ATOM     66  F   UNL A   1      38.335  30.490  36.405  1.00  0.00    -0.205 F 
ATOM     67  C   UNL A   1      39.134  33.787  37.784  1.00  0.00     0.022 A 
BRANCH  65  68
ATOM     68  S   UNL A   1      37.180  32.139  38.754  1.00  0.00     0.127 S 
ATOM     69  O   UNL A   1      37.694  32.689  40.008  1.00  0.00    -0.237 OA
ATOM     70  O   UNL A   1      36.049  32.872  38.185  1.00  0.00    -0.237 OA
ATOM     71  O   UNL A   1      37.045  30.689  38.717  1.00  0.00    -0.744 OA
ENDBRANCH  65  68
ENDBRANCH  47  61
BRANCH  48  72
ATOM     72  C   UNL A   1      42.055  26.698  27.567  1.00  0.00     0.023 A 
ATOM     73  C   UNL A   1      42.682  27.351  26.489  1.00  0.00     0.012 A 
ATOM     74  C   UNL A   1      41.791  25.317  27.472  1.00  0.00     0.148 A 
ATOM     75  C   UNL A   1      43.009  26.650  25.326  1.00  0.00     0.002 A 
ATOM     76  C   UNL A   1      42.170  24.614  26.335  1.00  0.00     0.091 A 
ATOM     77  F   UNL A   1      41.172  24.716  28.498  1.00  0.00    -0.205 F 
ATOM     78  C   UNL A   1      42.762  25.282  25.253  1.00  0.00     0.022 A 
BRANCH  76  79
ATOM     79  S   UNL A   1      42.010  22.829  26.222  1.00  0.00     0.127 S 
ATOM     80  O   UNL A   1      42.671  22.548  24.950  1.00  0.00    -0.237 OA
ATOM     81  O   UNL A   1      42.740  22.380  27.408  1.00  0.00    -0.237 OA
ATOM     82  O   UNL A   1      40.578  22.565  26.270  1.00  0.00    -0.744 OA
ENDBRANCH  76  79
ENDBRANCH  48  72
BRANCH  60  83
ATOM     83  C   UNL A   1      44.703  27.012  34.024  1.00  0.00     0.023 A 
ATOM     84  C   UNL A   1      46.012  27.527  33.929  1.00  0.00     0.012 A 
ATOM     85  C   UNL A   1      44.466  25.871  34.816  1.00  0.00     0.148 A 
ATOM     86  C   UNL A   1      47.069  26.901  34.585  1.00  0.00     0.002 A 
ATOM     87  C   UNL A   1      45.518  25.279  35.505  1.00  0.00     0.091 A 
ATOM     88  F   UNL A   1      43.218  25.384  34.880  1.00  0.00    -0.205 F 
ATOM     89  C   UNL A   1      46.821  25.785  35.381  1.00  0.00     0.022 A 
BRANCH  87  90
ATOM     90  S   UNL A   1      45.276  23.895  36.625  1.00  0.00     0.127 S 
ATOM     91  O   UNL A   1      44.394  24.479  37.635  1.00  0.00    -0.237 OA
ATOM     92  O   UNL A   1      44.638  22.901  35.761  1.00  0.00    -0.237 OA
ATOM     93  O   UNL A   1      46.604  23.523  37.093  1.00  0.00    -0.744 OA
ENDBRANCH  87  90
ENDBRANCH  60  83
ENDBRANCH  34  35
ENDBRANCH  27  29
ENDBRANCH  26  27
ENDBRANCH  25  26
ENDBRANCH  24  25
ENDBRANCH  23  24
ENDBRANCH   1  23
TORSDOF 21
ENDMDL
MODEL 2
REMARK VINA RESULT:     -10.5      1.054      7.517
REMARK SMILES C=CCc1cccc(-c2ccc([C@@H](C)C(=O)OCCOCCOC(=O)c3ccc(-c4c5nc(c(-c6cccc(S(=O)(=O)[O-])c6F)c6ccc([nH]6)c(-c6cccc(S(=O)(=O)[O-])c6F)c6nc(c(-c7cccc(S(=O)(=O)[O-])c7F)c7ccc4[nH]7)C=C6)C=C5)cc3)cc2)c1
REMARK SMILES IDX 19 1 18 2 17 3 15 4 16 5 13 6 14 7 12 8 9 9 10 10 90 11
REMARK SMILES IDX 11 12 89 13 8 14 4 15 5 16 91 17 6 18 7 19 3 20 2 21 1 22
REMARK SMILES IDX 20 23 21 24 22 25 23 26 24 27 25 28 26 29 27 30 88 31 28 32
REMARK SMILES IDX 87 33 29 34 30 35 31 36 81 37 32 38 86 39 80 40 82 41 33 42
REMARK SMILES IDX 85 43 79 44 78 45 34 47 66 48 46 49 65 50 47 51 50 52 64 53
REMARK SMILES IDX 83 54 48 55 49 56 63 58 84 59 51 60 35 61 36 62 44 63 37 64
REMARK SMILES IDX 39 65 45 66 38 67 40 68 41 69 42 70 43 71 67 72 68 73 76 74
REMARK SMILES IDX 69 75 71 76 77 77 70 78 72 79 73 80 74 81 75 82 52 83 53 84
REMARK SMILES IDX 61 85 54 86 56 87 62 88 55 89 57 90 58 91 59 92 60 93
REMARK H PARENT 82 46 50 57
REMARK Flexibility Score: inf
ROOT
ATOM      1  C   UNL A   1      32.978  29.666  25.682  1.00  0.00     0.202 C 
ENDROOT
BRANCH   1   2
ATOM      2  C   UNL A   1      31.706  28.829  25.519  1.00  0.00     0.261 C 
BRANCH   2   3
ATOM      3  O   UNL A   1      31.007  29.182  24.312  1.00  0.00    -0.463 OA
BRANCH   3   4
ATOM      4  C   UNL A   1      31.436  28.588  23.170  1.00  0.00     0.313 C 
ATOM      5  O   UNL A   1      32.360  29.003  22.475  1.00  0.00    -0.252 OA
BRANCH   4   6
ATOM      6  C   UNL A   1      30.646  27.346  22.791  1.00  0.00     0.126 C 
ATOM      7  C   UNL A   1      29.260  27.412  23.426  1.00  0.00     0.025 C 
BRANCH   6   8
ATOM      8  C   UNL A   1      31.310  25.989  23.004  1.00  0.00    -0.034 A 
ATOM      9  C   UNL A   1      32.597  23.525  23.650  1.00  0.00    -0.018 A 
ATOM     10  C   UNL A   1      33.204  24.466  22.804  1.00  0.00     0.009 A 
ATOM     11  C   UNL A   1      31.311  23.819  24.127  1.00  0.00     0.009 A 
ATOM     12  C   UNL A   1      32.574  25.678  22.487  1.00  0.00     0.005 A 
ATOM     13  C   UNL A   1      30.678  25.028  23.812  1.00  0.00     0.005 A 
BRANCH   9  14
ATOM     14  C   UNL A   1      33.305  22.304  24.080  1.00  0.00    -0.018 A 
ATOM     15  C   UNL A   1      33.296  19.936  24.734  1.00  0.00    -0.044 A 
ATOM     16  C   UNL A   1      34.665  20.010  25.010  1.00  0.00     0.004 A 
ATOM     17  C   UNL A   1      32.629  21.086  24.270  1.00  0.00     0.012 A 
ATOM     18  C   UNL A   1      35.356  21.203  24.819  1.00  0.00     0.001 A 
ATOM     19  C   UNL A   1      34.682  22.337  24.360  1.00  0.00     0.009 A 
BRANCH  15  20
ATOM     20  C   UNL A   1      32.536  18.652  24.964  1.00  0.00     0.062 C 
BRANCH  20  21
ATOM     21  C   UNL A   1      32.940  17.576  23.992  1.00  0.00    -0.030 C 
ATOM     22  C   UNL A   1      32.884  17.702  22.660  1.00  0.00     0.004 C 
ENDBRANCH  20  21
ENDBRANCH  15  20
ENDBRANCH   9  14
ENDBRANCH   6   8
ENDBRANCH   4   6
ENDBRANCH   3   4
ENDBRANCH   2   3
ENDBRANCH   1   2
BRANCH   1  23
ATOM     23  O   UNL A   1      32.953  30.647  26.722  1.00  0.00    -0.374 OA
BRANCH  23  24
ATOM     24  C   UNL A   1      31.787  31.466  26.812  1.00  0.00     0.202 C 
BRANCH  24  25
ATOM     25  C   UNL A   1      32.016  32.981  26.873  1.00  0.00     0.261 C 
BRANCH  25  26
ATOM     26  O   UNL A   1      32.341  33.432  28.198  1.00  0.00    -0.460 OA
BRANCH  26  27
ATOM     27  C   UNL A   1      33.413  34.255  28.274  1.00  0.00     0.338 C 
ATOM     28  O   UNL A   1      33.415  35.474  28.153  1.00  0.00    -0.246 OA
BRANCH  27  29
ATOM     29  C   UNL A   1      34.604  33.505  28.710  1.00  0.00     0.060 A 
ATOM     30  C   UNL A   1      34.393  32.369  29.502  1.00  0.00     0.016 A 
ATOM     31  C   UNL A   1      35.901  33.938  28.423  1.00  0.00     0.016 A 
ATOM     32  C   UNL A   1      35.476  31.696  30.062  1.00  0.00     0.010 A 
ATOM     33  C   UNL A   1      36.989  33.264  28.993  1.00  0.00     0.010 A 
ATOM     34  C   UNL A   1      36.779  32.165  29.847  1.00  0.00    -0.014 A 
BRANCH  34  35
ATOM     35  C   UNL A   1      37.896  31.589  30.635  1.00  0.00     0.031 A 
ATOM     36  C   UNL A   1      38.795  30.565  29.992  1.00  0.00     0.074 A 
ATOM     37  C   UNL A   1      38.128  31.992  31.898  1.00  0.00     0.049 A 
ATOM     38  N   UNL A   1      39.821  29.932  30.497  1.00  0.00    -0.248 NA
ATOM     39  C   UNL A   1      38.497  30.210  28.594  1.00  0.00     0.031 C 
ATOM     40  C   UNL A   1      37.333  32.977  32.628  1.00  0.00     0.029 A 
ATOM     41  N   UNL A   1      39.091  31.601  32.795  1.00  0.00    -0.354 N 
ATOM     42  C   UNL A   1      40.285  29.095  29.488  1.00  0.00     0.074 A 
ATOM     43  C   UNL A   1      39.414  29.284  28.349  1.00  0.00     0.031 C 
ATOM     44  C   UNL A   1      37.820  33.088  33.877  1.00  0.00     0.029 A 
ATOM     45  C   UNL A   1      38.947  32.171  34.038  1.00  0.00     0.049 A 
ATOM     46  H   UNL A   1      39.815  30.973  32.570  1.00  0.00     0.167 HD
ATOM     47  C   UNL A   1      41.353  28.263  29.499  1.00  0.00     0.034 A 
ATOM     48  C   UNL A   1      39.632  31.961  35.179  1.00  0.00     0.034 A 
ATOM     49  C   UNL A   1      42.228  28.084  30.626  1.00  0.00     0.049 A 
ATOM     50  C   UNL A   1      40.802  31.009  35.173  1.00  0.00     0.074 A 
ATOM     51  C   UNL A   1      43.347  27.275  30.726  1.00  0.00     0.029 A 
ATOM     52  N   UNL A   1      42.083  28.720  31.848  1.00  0.00    -0.354 N 
ATOM     53  N   UNL A   1      41.292  30.310  34.178  1.00  0.00    -0.248 NA
ATOM     54  C   UNL A   1      41.537  30.849  36.436  1.00  0.00     0.031 C 
ATOM     55  C   UNL A   1      43.870  27.412  32.017  1.00  0.00     0.029 A 
ATOM     56  C   UNL A   1      43.089  28.322  32.711  1.00  0.00     0.049 A 
ATOM     57  H   UNL A   1      41.368  29.360  32.071  1.00  0.00     0.167 HD
ATOM     58  C   UNL A   1      42.409  29.654  34.685  1.00  0.00     0.074 A 
ATOM     59  C   UNL A   1      42.538  30.059  36.069  1.00  0.00     0.031 C 
ATOM     60  C   UNL A   1      43.243  28.780  34.067  1.00  0.00     0.034 A 
BRANCH  47  61
ATOM     61  C   UNL A   1      41.665  27.513  28.231  1.00  0.00     0.023 A 
ATOM     62  C   UNL A   1      42.300  28.188  27.169  1.00  0.00     0.012 A 
ATOM     63  C   UNL A   1      41.395  26.136  28.112  1.00  0.00     0.148 A 
ATOM     64  C   UNL A   1      42.639  27.512  25.999  1.00  0.00     0.002 A 
ATOM     65  C   UNL A   1      41.771  25.459  26.957  1.00  0.00     0.091 A 
ATOM     66  F   UNL A   1      40.772  25.517  29.125  1.00  0.00    -0.205 F 
ATOM     67  C   UNL A   1      42.384  26.147  25.897  1.00  0.00     0.022 A 
BRANCH  65  68
ATOM     68  S   UNL A   1      41.553  23.688  26.755  1.00  0.00     0.127 S 
ATOM     69  O   UNL A   1      40.128  23.532  27.042  1.00  0.00    -0.237 OA
ATOM     70  O   UNL A   1      41.917  23.491  25.352  1.00  0.00    -0.237 OA
ATOM     71  O   UNL A   1      42.455  23.060  27.711  1.00  0.00    -0.744 OA
ENDBRANCH  65  68
ENDBRANCH  47  61
BRANCH  48  72
ATOM     72  C   UNL A   1      39.246  32.682  36.425  1.00  0.00     0.023 A 
ATOM     73  C   UNL A   1      39.780  33.957  36.692  1.00  0.00     0.012 A 
ATOM     74  C   UNL A   1      38.346  32.109  37.345  1.00  0.00     0.148 A 
ATOM     75  C   UNL A   1      39.452  34.633  37.869  1.00  0.00     0.002 A 
ATOM     76  C   UNL A   1      37.978  32.812  38.487  1.00  0.00     0.091 A 
ATOM     77  F   UNL A   1      37.865  30.884  37.087  1.00  0.00    -0.205 F 
ATOM     78  C   UNL A   1      38.544  34.066  38.760  1.00  0.00     0.022 A 
BRANCH  76  79
ATOM     79  S   UNL A   1      36.714  32.208  39.611  1.00  0.00     0.127 S 
ATOM     80  O   UNL A   1      35.494  32.448  38.847  1.00  0.00    -0.237 OA
ATOM     81  O   UNL A   1      37.084  30.799  39.758  1.00  0.00    -0.237 OA
ATOM     82  O   UNL A   1      36.872  32.993  40.828  1.00  0.00    -0.744 OA
ENDBRANCH  76  79
ENDBRANCH  48  72
BRANCH  60  83
ATOM     83  C   UNL A   1      44.393  28.224  34.865  1.00  0.00     0.023 A 
ATOM     84  C   UNL A   1      45.646  28.869  34.829  1.00  0.00     0.012 A 
ATOM     85  C   UNL A   1      44.213  27.111  35.710  1.00  0.00     0.148 A 
ATOM     86  C   UNL A   1      46.710  28.395  35.596  1.00  0.00     0.002 A 
ATOM     87  C   UNL A   1      45.265  26.672  36.506  1.00  0.00     0.091 A 
ATOM     88  F   UNL A   1      43.020  26.499  35.718  1.00  0.00    -0.205 F 
ATOM     89  C   UNL A   1      46.516  27.305  36.441  1.00  0.00     0.022 A 
BRANCH  87  90
ATOM     90  S   UNL A   1      45.081  25.335  37.693  1.00  0.00     0.127 S 
ATOM     91  O   UNL A   1      44.162  25.925  38.666  1.00  0.00    -0.237 OA
ATOM     92  O   UNL A   1      44.500  24.270  36.875  1.00  0.00    -0.237 OA
ATOM     93  O   UNL A   1      46.421  25.052  38.187  1.00  0.00    -0.744 OA
ENDBRANCH  87  90
ENDBRANCH  60  83
ENDBRANCH  34  35
ENDBRANCH  27  29
ENDBRANCH  26  27
ENDBRANCH  25  26
ENDBRANCH  24  25
ENDBRANCH  23  24
ENDBRANCH   1  23
TORSDOF 21
ENDMDL
MODEL 3
REMARK VINA RESULT:     -10.2      2.635      3.796
REMARK SMILES C=CCc1cccc(-c2ccc([C@@H](C)C(=O)OCCOCCOC(=O)c3ccc(-c4c5nc(c(-c6cccc(S(=O)(=O)[O-])c6F)c6ccc([nH]6)c(-c6cccc(S(=O)(=O)[O-])c6F)c6nc(c(-c7cccc(S(=O)(=O)[O-])c7F)c7ccc4[nH]7)C=C6)C=C5)cc3)cc2)c1
REMARK SMILES IDX 19 1 18 2 17 3 15 4 16 5 13 6 14 7 12 8 9 9 10 10 90 11
REMARK SMILES IDX 11 12 89 13 8 14 4 15 5 16 91 17 6 18 7 19 3 20 2 21 1 22
REMARK SMILES IDX 20 23 21 24 22 25 23 26 24 27 25 28 26 29 27 30 88 31 28 32
REMARK SMILES IDX 87 33 29 34 30 35 31 36 81 37 32 38 86 39 80 40 82 41 33 42
REMARK SMILES IDX 85 43 79 44 78 45 34 47 66 48 46 49 65 50 47 51 50 52 64 53
REMARK SMILES IDX 83 54 48 55 49 56 63 58 84 59 51 60 35 61 36 62 44 63 37 64
REMARK SMILES IDX 39 65 45 66 38 67 40 68 41 69 42 70 43 71 67 72 68 73 76 74
REMARK SMILES IDX 69 75 71 76 77 77 70 78 72 79 73 80 74 81 75 82 52 83 53 84
REMARK SMILES IDX 61 85 54 86 56 87 62 88 55 89 57 90 58 91 59 92 60 93
REMARK H PARENT 82 46 50 57
REMARK Flexibility Score: inf
ROOT
ATOM      1  C   UNL A   1      34.047  31.814  27.890  1.00  0.00     0.202 C 
ENDROOT
BRANCH   1   2
ATOM      2  C   UNL A   1      33.142  30.629  27.543  1.00  0.00     0.261 C 
BRANCH   2   3
ATOM      3  O   UNL A   1      33.202  30.327  26.138  1.00  0.00    -0.463 OA
BRANCH   3   4
ATOM      4  C   UNL A   1      32.014  30.208  25.495  1.00  0.00     0.313 C 
ATOM      5  O   UNL A   1      31.013  30.873  25.753  1.00  0.00    -0.252 OA
BRANCH   4   6
ATOM      6  C   UNL A   1      32.005  29.139  24.413  1.00  0.00     0.126 C 
ATOM      7  C   UNL A   1      30.578  28.937  23.912  1.00  0.00     0.025 C 
BRANCH   6   8
ATOM      8  C   UNL A   1      32.698  27.815  24.718  1.00  0.00    -0.034 A 
ATOM      9  C   UNL A   1      33.863  25.236  25.088  1.00  0.00    -0.018 A 
ATOM     10  C   UNL A   1      32.923  25.750  25.995  1.00  0.00     0.009 A 
ATOM     11  C   UNL A   1      34.246  26.059  24.019  1.00  0.00     0.009 A 
ATOM     12  C   UNL A   1      32.348  27.015  25.814  1.00  0.00     0.005 A 
ATOM     13  C   UNL A   1      33.675  27.325  23.836  1.00  0.00     0.005 A 
BRANCH   9  14
ATOM     14  C   UNL A   1      34.381  23.860  25.209  1.00  0.00    -0.018 A 
ATOM     15  C   UNL A   1      34.018  21.450  25.521  1.00  0.00    -0.044 A 
ATOM     16  C   UNL A   1      35.402  21.249  25.551  1.00  0.00     0.004 A 
ATOM     17  C   UNL A   1      33.521  22.757  25.349  1.00  0.00     0.012 A 
ATOM     18  C   UNL A   1      36.272  22.326  25.405  1.00  0.00     0.001 A 
ATOM     19  C   UNL A   1      35.765  23.617  25.237  1.00  0.00     0.009 A 
BRANCH  15  20
ATOM     20  C   UNL A   1      33.071  20.290  25.705  1.00  0.00     0.062 C 
BRANCH  20  21
ATOM     21  C   UNL A   1      32.347  19.945  24.431  1.00  0.00    -0.030 C 
ATOM     22  C   UNL A   1      32.594  18.855  23.693  1.00  0.00     0.004 C 
ENDBRANCH  20  21
ENDBRANCH  15  20
ENDBRANCH   9  14
ENDBRANCH   6   8
ENDBRANCH   4   6
ENDBRANCH   3   4
ENDBRANCH   2   3
ENDBRANCH   1   2
BRANCH   1  23
ATOM     23  O   UNL A   1      33.402  33.085  27.998  1.00  0.00    -0.374 OA
BRANCH  23  24
ATOM     24  C   UNL A   1      34.103  34.111  28.702  1.00  0.00     0.202 C 
BRANCH  24  25
ATOM     25  C   UNL A   1      33.260  35.271  29.242  1.00  0.00     0.261 C 
BRANCH  25  26
ATOM     26  O   UNL A   1      32.515  34.906  30.416  1.00  0.00    -0.460 OA
BRANCH  26  27
ATOM     27  C   UNL A   1      32.831  35.604  31.531  1.00  0.00     0.338 C 
ATOM     28  O   UNL A   1      32.231  36.568  31.991  1.00  0.00    -0.246 OA
BRANCH  27  29
ATOM     29  C   UNL A   1      33.925  34.937  32.259  1.00  0.00     0.060 A 
ATOM     30  C   UNL A   1      35.182  35.556  32.237  1.00  0.00     0.016 A 
ATOM     31  C   UNL A   1      33.755  33.698  32.884  1.00  0.00     0.016 A 
ATOM     32  C   UNL A   1      36.287  34.912  32.786  1.00  0.00     0.010 A 
ATOM     33  C   UNL A   1      34.871  33.049  33.428  1.00  0.00     0.010 A 
ATOM     34  C   UNL A   1      36.148  33.635  33.346  1.00  0.00    -0.014 A 
BRANCH  34  35
ATOM     35  C   UNL A   1      37.363  32.865  33.708  1.00  0.00     0.031 A 
ATOM     36  C   UNL A   1      38.157  33.275  34.920  1.00  0.00     0.074 A 
ATOM     37  C   UNL A   1      37.741  31.795  32.984  1.00  0.00     0.049 A 
ATOM     38  N   UNL A   1      39.249  32.749  35.411  1.00  0.00    -0.248 NA
ATOM     39  C   UNL A   1      37.652  34.431  35.680  1.00  0.00     0.031 C 
ATOM     40  C   UNL A   1      37.056  31.296  31.794  1.00  0.00     0.029 A 
ATOM     41  N   UNL A   1      38.812  30.950  33.137  1.00  0.00    -0.354 N 
ATOM     42  C   UNL A   1      39.570  33.513  36.527  1.00  0.00     0.074 A 
ATOM     43  C   UNL A   1      38.570  34.555  36.628  1.00  0.00     0.031 C 
ATOM     44  C   UNL A   1      37.744  30.251  31.302  1.00  0.00     0.029 A 
ATOM     45  C   UNL A   1      38.926  30.019  32.131  1.00  0.00     0.049 A 
ATOM     46  H   UNL A   1      39.439  31.005  33.894  1.00  0.00     0.167 HD
ATOM     47  C   UNL A   1      40.589  33.350  37.404  1.00  0.00     0.034 A 
ATOM     48  C   UNL A   1      39.883  29.100  31.896  1.00  0.00     0.034 A 
ATOM     49  C   UNL A   1      41.575  32.308  37.313  1.00  0.00     0.049 A 
ATOM     50  C   UNL A   1      41.022  28.955  32.872  1.00  0.00     0.074 A 
ATOM     51  C   UNL A   1      42.636  32.052  38.164  1.00  0.00     0.029 A 
ATOM     52  N   UNL A   1      41.625  31.352  36.312  1.00  0.00    -0.354 N 
ATOM     53  N   UNL A   1      41.249  29.617  33.982  1.00  0.00    -0.248 NA
ATOM     54  C   UNL A   1      42.017  27.911  32.586  1.00  0.00     0.031 C 
ATOM     55  C   UNL A   1      43.336  30.947  37.667  1.00  0.00     0.029 A 
ATOM     56  C   UNL A   1      42.698  30.503  36.521  1.00  0.00     0.049 A 
ATOM     57  H   UNL A   1      40.990  31.285  35.562  1.00  0.00     0.167 HD
ATOM     58  C   UNL A   1      42.389  29.048  34.541  1.00  0.00     0.074 A 
ATOM     59  C   UNL A   1      42.792  27.972  33.660  1.00  0.00     0.031 C 
ATOM     60  C   UNL A   1      43.053  29.397  35.671  1.00  0.00     0.034 A 
BRANCH  47  61
ATOM     61  C   UNL A   1      40.663  34.299  38.572  1.00  0.00     0.023 A 
ATOM     62  C   UNL A   1      41.523  35.413  38.501  1.00  0.00     0.012 A 
ATOM     63  C   UNL A   1      39.840  34.130  39.702  1.00  0.00     0.148 A 
ATOM     64  C   UNL A   1      41.583  36.331  39.547  1.00  0.00     0.002 A 
ATOM     65  C   UNL A   1      39.877  35.071  40.725  1.00  0.00     0.091 A 
ATOM     66  F   UNL A   1      39.044  33.054  39.758  1.00  0.00    -0.205 F 
ATOM     67  C   UNL A   1      40.754  36.166  40.653  1.00  0.00     0.022 A 
BRANCH  65  68
ATOM     68  S   UNL A   1      38.799  34.989  42.159  1.00  0.00     0.127 S 
ATOM     69  O   UNL A   1      39.188  36.194  42.890  1.00  0.00    -0.237 OA
ATOM     70  O   UNL A   1      37.470  35.048  41.550  1.00  0.00    -0.237 OA
ATOM     71  O   UNL A   1      39.108  33.730  42.823  1.00  0.00    -0.744 OA
ENDBRANCH  65  68
ENDBRANCH  47  61
BRANCH  48  72
ATOM     72  C   UNL A   1      39.798  28.226  30.692  1.00  0.00     0.023 A 
ATOM     73  C   UNL A   1      38.968  27.088  30.708  1.00  0.00     0.012 A 
ATOM     74  C   UNL A   1      40.534  28.522  29.527  1.00  0.00     0.148 A 
ATOM     75  C   UNL A   1      38.900  26.242  29.599  1.00  0.00     0.002 A 
ATOM     76  C   UNL A   1      40.417  27.707  28.407  1.00  0.00     0.091 A 
ATOM     77  F   UNL A   1      41.337  29.595  29.537  1.00  0.00    -0.205 F 
ATOM     78  C   UNL A   1      39.615  26.556  28.447  1.00  0.00     0.022 A 
BRANCH  76  79
ATOM     79  S   UNL A   1      41.200  28.120  26.844  1.00  0.00     0.127 S 
ATOM     80  O   UNL A   1      40.996  26.896  26.074  1.00  0.00    -0.237 OA
ATOM     81  O   UNL A   1      40.408  29.268  26.399  1.00  0.00    -0.237 OA
ATOM     82  O   UNL A   1      42.580  28.444  27.177  1.00  0.00    -0.744 OA
ENDBRANCH  76  79
ENDBRANCH  48  72
BRANCH  60  83
ATOM     83  C   UNL A   1      44.268  28.589  36.048  1.00  0.00     0.023 A 
ATOM     84  C   UNL A   1      45.543  28.998  35.608  1.00  0.00     0.012 A 
ATOM     85  C   UNL A   1      44.156  27.472  36.900  1.00  0.00     0.148 A 
ATOM     86  C   UNL A   1      46.683  28.289  35.984  1.00  0.00     0.002 A 
ATOM     87  C   UNL A   1      45.301  26.798  37.308  1.00  0.00     0.091 A 
ATOM     88  F   UNL A   1      42.933  27.088  37.293  1.00  0.00    -0.205 F 
ATOM     89  C   UNL A   1      46.563  27.198  36.842  1.00  0.00     0.022 A 
BRANCH  87  90
ATOM     90  S   UNL A   1      45.251  25.440  38.483  1.00  0.00     0.127 S 
ATOM     91  O   UNL A   1      44.550  26.049  39.612  1.00  0.00    -0.237 OA
ATOM     92  O   UNL A   1      44.477  24.430  37.760  1.00  0.00    -0.237 OA
ATOM     93  O   UNL A   1      46.638  25.073  38.730  1.00  0.00    -0.744 OA
ENDBRANCH  87  90
ENDBRANCH  60  83
ENDBRANCH  34  35
ENDBRANCH  27  29
ENDBRANCH  26  27
ENDBRANCH  25  26
ENDBRANCH  24  25
ENDBRANCH  23  24
ENDBRANCH   1  23
TORSDOF 21
ENDMDL
