MODEL 1
REMARK VINA RESULT:     -12.2      0.000      0.000
REMARK SMILES CC1=Nc2c(c(C)nn2-c2ccc(F)cc2)[C@H](c2ccc(C(=O)OCCOCCOC(=O)c3ccc(-c4c5nc(c(-c6cccc(S(=O)(=O)[O-])c6F)c6ccc([nH]6)c(-c6cccc(S(=O)(=O)[O-])c6F)c6nc(c(-c7cccc(S(=O)(=O)[O-])c7F)c7ccc4[nH]7)C=C6)C=C5)cc3)cc2)S1
REMARK SMILES IDX 28 1 27 2 26 3 25 4 24 5 22 6 23 7 21 8 18 9 19 10 97 11
REMARK SMILES IDX 20 12 96 13 17 14 1 15 2 16 3 17 98 18 4 19 5 20 9 21 6 22
REMARK SMILES IDX 8 23 7 24 10 25 11 26 16 27 12 28 15 29 13 30 14 31 29 32
REMARK SMILES IDX 30 33 31 34 32 35 33 36 34 37 95 38 35 39 94 40 36 41 37 42
REMARK SMILES IDX 38 43 88 44 39 45 93 46 87 47 89 48 40 49 92 50 86 51 85 52
REMARK SMILES IDX 41 54 73 55 53 56 72 57 54 58 57 59 71 60 90 61 55 62 56 63
REMARK SMILES IDX 70 65 91 66 58 67 42 68 43 69 51 70 44 71 46 72 52 73 45 74
REMARK SMILES IDX 47 75 48 76 49 77 50 78 74 79 75 80 83 81 76 82 78 83 84 84
REMARK SMILES IDX 77 85 79 86 80 87 81 88 82 89 59 90 60 91 68 92 61 93 63 94
REMARK SMILES IDX 69 95 62 96 64 97 65 98 66 99 67 100
REMARK H PARENT 89 53 57 64
REMARK Flexibility Score: inf
ROOT
ATOM      1  C   UNL A   1      42.486  18.854  26.713  1.00  0.00     0.202 C 
ENDROOT
BRANCH   1   2
ATOM      2  O   UNL A   1      41.878  20.108  27.004  1.00  0.00    -0.374 OA
BRANCH   2   3
ATOM      3  C   UNL A   1      40.540  20.366  26.577  1.00  0.00     0.202 C 
BRANCH   3   4
ATOM      4  C   UNL A   1      40.152  21.801  26.222  1.00  0.00     0.261 C 
BRANCH   4   5
ATOM      5  O   UNL A   1      38.786  21.921  25.797  1.00  0.00    -0.460 OA
BRANCH   5   6
ATOM      6  C   UNL A   1      38.255  23.151  26.000  1.00  0.00     0.338 C 
ATOM      7  O   UNL A   1      38.763  24.067  26.630  1.00  0.00    -0.246 OA
BRANCH   6   8
ATOM      8  C   UNL A   1      37.009  23.343  25.224  1.00  0.00     0.060 A 
ATOM      9  C   UNL A   1      34.437  23.537  24.075  1.00  0.00    -0.030 A 
ATOM     10  C   UNL A   1      34.759  24.224  25.258  1.00  0.00     0.006 A 
ATOM     11  C   UNL A   1      35.477  22.845  23.419  1.00  0.00     0.006 A 
ATOM     12  C   UNL A   1      36.028  24.138  25.820  1.00  0.00     0.016 A 
ATOM     13  C   UNL A   1      36.755  22.735  23.996  1.00  0.00     0.016 A 
BRANCH   9  14
ATOM     14  C   UNL A   1      32.972  23.491  23.652  1.00  0.00     0.119 C 
ATOM     15  C   UNL A   1      32.935  25.334  19.990  1.00  0.00     0.075 C 
ATOM     16  C   UNL A   1      32.511  25.013  21.397  1.00  0.00     0.074 C 
ATOM     17  N   UNL A   1      32.060  25.970  22.143  1.00  0.00    -0.227 NA
ATOM     18  S   UNL A   1      32.704  23.324  21.857  1.00  0.00    -0.098 SA
ATOM     19  C   UNL A   1      31.820  25.710  23.451  1.00  0.00     0.161 A 
ATOM     20  C   UNL A   1      32.259  24.656  24.221  1.00  0.00     0.038 A 
ATOM     21  N   UNL A   1      31.140  26.567  24.301  1.00  0.00    -0.215 N 
ATOM     22  C   UNL A   1      31.795  24.950  25.531  1.00  0.00     0.067 A 
ATOM     23  N   UNL A   1      31.205  26.149  25.593  1.00  0.00    -0.171 NA
ATOM     24  C   UNL A   1      31.888  24.134  26.768  1.00  0.00     0.069 C 
BRANCH  21  25
ATOM     25  C   UNL A   1      30.376  27.705  23.952  1.00  0.00     0.067 A 
ATOM     26  C   UNL A   1      30.880  28.991  24.195  1.00  0.00     0.031 A 
ATOM     27  C   UNL A   1      29.114  27.533  23.370  1.00  0.00     0.031 A 
ATOM     28  C   UNL A   1      30.116  30.105  23.853  1.00  0.00     0.041 A 
ATOM     29  C   UNL A   1      28.333  28.654  23.086  1.00  0.00     0.041 A 
ATOM     30  C   UNL A   1      28.845  29.928  23.317  1.00  0.00     0.123 A 
ATOM     31  F   UNL A   1      28.110  31.003  23.006  1.00  0.00    -0.207 F 
ENDBRANCH  21  25
ENDBRANCH   9  14
ENDBRANCH   6   8
ENDBRANCH   5   6
ENDBRANCH   4   5
ENDBRANCH   3   4
ENDBRANCH   2   3
ENDBRANCH   1   2
BRANCH   1  32
ATOM     32  C   UNL A   1      43.455  18.755  25.546  1.00  0.00     0.261 C 
BRANCH  32  33
ATOM     33  O   UNL A   1      43.372  19.865  24.670  1.00  0.00    -0.460 OA
BRANCH  33  34
ATOM     34  C   UNL A   1      44.570  20.215  24.146  1.00  0.00     0.338 C 
ATOM     35  O   UNL A   1      45.347  19.500  23.540  1.00  0.00    -0.246 OA
BRANCH  34  36
ATOM     36  C   UNL A   1      44.890  21.572  24.588  1.00  0.00     0.060 A 
ATOM     37  C   UNL A   1      45.883  21.683  25.562  1.00  0.00     0.016 A 
ATOM     38  C   UNL A   1      43.999  22.614  24.293  1.00  0.00     0.016 A 
ATOM     39  C   UNL A   1      45.842  22.771  26.400  1.00  0.00     0.010 A 
ATOM     40  C   UNL A   1      43.939  23.682  25.151  1.00  0.00     0.010 A 
ATOM     41  C   UNL A   1      44.812  23.706  26.233  1.00  0.00    -0.014 A 
BRANCH  41  42
ATOM     42  C   UNL A   1      44.786  24.845  27.120  1.00  0.00     0.031 A 
ATOM     43  C   UNL A   1      45.999  25.672  26.935  1.00  0.00     0.074 A 
ATOM     44  C   UNL A   1      43.730  25.121  27.908  1.00  0.00     0.049 A 
ATOM     45  N   UNL A   1      47.001  25.780  27.742  1.00  0.00    -0.248 NA
ATOM     46  C   UNL A   1      46.249  26.232  25.593  1.00  0.00     0.031 C 
ATOM     47  C   UNL A   1      42.409  24.481  27.897  1.00  0.00     0.029 A 
ATOM     48  N   UNL A   1      43.568  26.132  28.801  1.00  0.00    -0.354 N 
ATOM     49  C   UNL A   1      47.872  26.660  27.106  1.00  0.00     0.074 A 
ATOM     50  C   UNL A   1      47.502  26.667  25.721  1.00  0.00     0.031 C 
ATOM     51  C   UNL A   1      41.526  25.274  28.547  1.00  0.00     0.029 A 
ATOM     52  C   UNL A   1      42.238  26.399  29.126  1.00  0.00     0.049 A 
ATOM     53  H   UNL A   1      44.323  26.632  29.186  1.00  0.00     0.167 HD
ATOM     54  C   UNL A   1      48.577  27.568  27.830  1.00  0.00     0.034 A 
ATOM     55  C   UNL A   1      41.779  27.514  29.752  1.00  0.00     0.034 A 
ATOM     56  C   UNL A   1      48.606  27.192  29.221  1.00  0.00     0.049 A 
ATOM     57  C   UNL A   1      42.945  28.136  30.415  1.00  0.00     0.074 A 
ATOM     58  C   UNL A   1      49.107  26.133  29.947  1.00  0.00     0.029 A 
ATOM     59  N   UNL A   1      47.656  27.802  30.000  1.00  0.00    -0.354 N 
ATOM     60  N   UNL A   1      43.574  27.604  31.422  1.00  0.00    -0.248 NA
ATOM     61  C   UNL A   1      43.661  29.185  29.706  1.00  0.00     0.031 C 
ATOM     62  C   UNL A   1      48.182  25.937  31.013  1.00  0.00     0.029 A 
ATOM     63  C   UNL A   1      47.195  26.924  30.939  1.00  0.00     0.049 A 
ATOM     64  H   UNL A   1      47.352  28.733  29.898  1.00  0.00     0.167 HD
ATOM     65  C   UNL A   1      44.906  27.902  31.181  1.00  0.00     0.074 A 
ATOM     66  C   UNL A   1      44.882  28.997  30.214  1.00  0.00     0.031 C 
ATOM     67  C   UNL A   1      45.884  27.026  31.548  1.00  0.00     0.034 A 
BRANCH  54  68
ATOM     68  C   UNL A   1      48.827  29.001  27.396  1.00  0.00     0.023 A 
ATOM     69  C   UNL A   1      50.172  29.432  27.376  1.00  0.00     0.012 A 
ATOM     70  C   UNL A   1      47.840  30.009  27.272  1.00  0.00     0.148 A 
ATOM     71  C   UNL A   1      50.512  30.786  27.286  1.00  0.00     0.002 A 
ATOM     72  C   UNL A   1      48.183  31.345  27.096  1.00  0.00     0.091 A 
ATOM     73  F   UNL A   1      46.550  29.725  27.458  1.00  0.00    -0.205 F 
ATOM     74  C   UNL A   1      49.517  31.744  27.135  1.00  0.00     0.022 A 
BRANCH  72  75
ATOM     75  S   UNL A   1      46.933  32.615  26.841  1.00  0.00     0.127 S 
ATOM     76  O   UNL A   1      46.110  32.013  25.797  1.00  0.00    -0.237 OA
ATOM     77  O   UNL A   1      46.310  32.683  28.164  1.00  0.00    -0.237 OA
ATOM     78  O   UNL A   1      47.660  33.821  26.462  1.00  0.00    -0.744 OA
ENDBRANCH  72  75
ENDBRANCH  54  68
BRANCH  55  79
ATOM     79  C   UNL A   1      40.514  28.280  29.606  1.00  0.00     0.023 A 
ATOM     80  C   UNL A   1      39.852  28.267  28.356  1.00  0.00     0.012 A 
ATOM     81  C   UNL A   1      39.784  28.702  30.736  1.00  0.00     0.148 A 
ATOM     82  C   UNL A   1      38.492  28.586  28.249  1.00  0.00     0.002 A 
ATOM     83  C   UNL A   1      38.430  29.011  30.626  1.00  0.00     0.091 A 
ATOM     84  F   UNL A   1      40.387  28.698  31.931  1.00  0.00    -0.205 F 
ATOM     85  C   UNL A   1      37.777  28.939  29.388  1.00  0.00     0.022 A 
BRANCH  83  86
ATOM     86  S   UNL A   1      37.420  29.410  32.060  1.00  0.00     0.127 S 
ATOM     87  O   UNL A   1      38.095  30.598  32.582  1.00  0.00    -0.237 OA
ATOM     88  O   UNL A   1      36.120  29.661  31.446  1.00  0.00    -0.237 OA
ATOM     89  O   UNL A   1      37.495  28.244  32.930  1.00  0.00    -0.744 OA
ENDBRANCH  83  86
ENDBRANCH  55  79
BRANCH  67  90
ATOM     90  C   UNL A   1      45.526  25.943  32.532  1.00  0.00     0.023 A 
ATOM     91  C   UNL A   1      44.999  24.691  32.152  1.00  0.00     0.012 A 
ATOM     92  C   UNL A   1      45.915  26.144  33.866  1.00  0.00     0.148 A 
ATOM     93  C   UNL A   1      44.867  23.662  33.092  1.00  0.00     0.002 A 
ATOM     94  C   UNL A   1      45.842  25.102  34.778  1.00  0.00     0.091 A 
ATOM     95  F   UNL A   1      46.395  27.349  34.207  1.00  0.00    -0.205 F 
ATOM     96  C   UNL A   1      45.309  23.861  34.399  1.00  0.00     0.022 A 
BRANCH  94  97
ATOM     97  S   UNL A   1      46.545  25.257  36.420  1.00  0.00     0.127 S 
ATOM     98  O   UNL A   1      45.413  25.768  37.190  1.00  0.00    -0.237 OA
ATOM     99  O   UNL A   1      46.927  23.879  36.728  1.00  0.00    -0.237 OA
ATOM    100  O   UNL A   1      47.675  26.170  36.289  1.00  0.00    -0.744 OA
ENDBRANCH  94  97
ENDBRANCH  67  90
ENDBRANCH  41  42
ENDBRANCH  34  36
ENDBRANCH  33  34
ENDBRANCH  32  33
ENDBRANCH   1  32
TORSDOF 19
ENDMDL
MODEL 2
REMARK VINA RESULT:     -11.7      3.301      9.276
REMARK SMILES CC1=Nc2c(c(C)nn2-c2ccc(F)cc2)[C@H](c2ccc(C(=O)OCCOCCOC(=O)c3ccc(-c4c5nc(c(-c6cccc(S(=O)(=O)[O-])c6F)c6ccc([nH]6)c(-c6cccc(S(=O)(=O)[O-])c6F)c6nc(c(-c7cccc(S(=O)(=O)[O-])c7F)c7ccc4[nH]7)C=C6)C=C5)cc3)cc2)S1
REMARK SMILES IDX 28 1 27 2 26 3 25 4 24 5 22 6 23 7 21 8 18 9 19 10 97 11
REMARK SMILES IDX 20 12 96 13 17 14 1 15 2 16 3 17 98 18 4 19 5 20 9 21 6 22
REMARK SMILES IDX 8 23 7 24 10 25 11 26 16 27 12 28 15 29 13 30 14 31 29 32
REMARK SMILES IDX 30 33 31 34 32 35 33 36 34 37 95 38 35 39 94 40 36 41 37 42
REMARK SMILES IDX 38 43 88 44 39 45 93 46 87 47 89 48 40 49 92 50 86 51 85 52
REMARK SMILES IDX 41 54 73 55 53 56 72 57 54 58 57 59 71 60 90 61 55 62 56 63
REMARK SMILES IDX 70 65 91 66 58 67 42 68 43 69 51 70 44 71 46 72 52 73 45 74
REMARK SMILES IDX 47 75 48 76 49 77 50 78 74 79 75 80 83 81 76 82 78 83 84 84
REMARK SMILES IDX 77 85 79 86 80 87 81 88 82 89 59 90 60 91 68 92 61 93 63 94
REMARK SMILES IDX 69 95 62 96 64 97 65 98 66 99 67 100
REMARK H PARENT 89 53 57 64
REMARK Flexibility Score: inf
ROOT
ATOM      1  C   UNL A   1      34.323  34.569  30.535  1.00  0.00     0.202 C 
ENDROOT
BRANCH   1   2
ATOM      2  O   UNL A   1      34.799  34.716  29.202  1.00  0.00    -0.374 OA
BRANCH   2   3
ATOM      3  C   UNL A   1      34.377  33.800  28.191  1.00  0.00     0.202 C 
BRANCH   3   4
ATOM      4  C   UNL A   1      34.269  32.318  28.550  1.00  0.00     0.261 C 
BRANCH   4   5
ATOM      5  O   UNL A   1      33.584  31.550  27.548  1.00  0.00    -0.460 OA
BRANCH   5   6
ATOM      6  C   UNL A   1      34.075  30.297  27.389  1.00  0.00     0.338 C 
ATOM      7  O   UNL A   1      35.112  29.856  27.863  1.00  0.00    -0.246 OA
BRANCH   6   8
ATOM      8  C   UNL A   1      33.116  29.422  26.676  1.00  0.00     0.060 A 
ATOM      9  C   UNL A   1      31.619  27.501  25.248  1.00  0.00    -0.030 A 
ATOM     10  C   UNL A   1      32.257  27.174  26.456  1.00  0.00     0.006 A 
ATOM     11  C   UNL A   1      31.653  28.851  24.836  1.00  0.00     0.006 A 
ATOM     12  C   UNL A   1      32.987  28.121  27.166  1.00  0.00     0.016 A 
ATOM     13  C   UNL A   1      32.409  29.806  25.538  1.00  0.00     0.016 A 
BRANCH   9  14
ATOM     14  C   UNL A   1      31.040  26.362  24.414  1.00  0.00     0.119 C 
ATOM     15  C   UNL A   1      29.518  23.765  27.197  1.00  0.00     0.075 C 
ATOM     16  C   UNL A   1      30.284  24.225  25.987  1.00  0.00     0.074 C 
ATOM     17  N   UNL A   1      31.388  23.620  25.685  1.00  0.00    -0.227 NA
ATOM     18  S   UNL A   1      29.557  25.578  25.125  1.00  0.00    -0.098 SA
ATOM     19  C   UNL A   1      32.150  24.130  24.688  1.00  0.00     0.161 A 
ATOM     20  C   UNL A   1      32.106  25.381  24.113  1.00  0.00     0.038 A 
ATOM     21  N   UNL A   1      33.229  23.471  24.121  1.00  0.00    -0.215 N 
ATOM     22  C   UNL A   1      33.195  25.398  23.201  1.00  0.00     0.067 A 
ATOM     23  N   UNL A   1      33.926  24.281  23.279  1.00  0.00    -0.171 NA
ATOM     24  C   UNL A   1      33.596  26.449  22.233  1.00  0.00     0.069 C 
BRANCH  21  25
ATOM     25  C   UNL A   1      33.589  22.111  24.272  1.00  0.00     0.067 A 
ATOM     26  C   UNL A   1      32.664  21.102  23.967  1.00  0.00     0.031 A 
ATOM     27  C   UNL A   1      34.871  21.788  24.734  1.00  0.00     0.031 A 
ATOM     28  C   UNL A   1      33.028  19.766  24.126  1.00  0.00     0.041 A 
ATOM     29  C   UNL A   1      35.204  20.450  24.945  1.00  0.00     0.041 A 
ATOM     30  C   UNL A   1      34.286  19.452  24.628  1.00  0.00     0.123 A 
ATOM     31  F   UNL A   1      34.622  18.167  24.793  1.00  0.00    -0.207 F 
ENDBRANCH  21  25
ENDBRANCH   9  14
ENDBRANCH   6   8
ENDBRANCH   5   6
ENDBRANCH   4   5
ENDBRANCH   3   4
ENDBRANCH   2   3
ENDBRANCH   1   2
BRANCH   1  32
ATOM     32  C   UNL A   1      35.252  33.998  31.595  1.00  0.00     0.261 C 
BRANCH  32  33
ATOM     33  O   UNL A   1      36.054  32.938  31.104  1.00  0.00    -0.460 OA
BRANCH  33  34
ATOM     34  C   UNL A   1      37.153  32.715  31.862  1.00  0.00     0.338 C 
ATOM     35  O   UNL A   1      37.429  33.228  32.930  1.00  0.00    -0.246 OA
BRANCH  34  36
ATOM     36  C   UNL A   1      38.080  31.878  31.099  1.00  0.00     0.060 A 
ATOM     37  C   UNL A   1      37.832  30.506  31.126  1.00  0.00     0.016 A 
ATOM     38  C   UNL A   1      39.307  32.418  30.689  1.00  0.00     0.016 A 
ATOM     39  C   UNL A   1      38.897  29.657  30.947  1.00  0.00     0.010 A 
ATOM     40  C   UNL A   1      40.375  31.571  30.543  1.00  0.00     0.010 A 
ATOM     41  C   UNL A   1      40.168  30.211  30.748  1.00  0.00    -0.014 A 
BRANCH  41  42
ATOM     42  C   UNL A   1      41.276  29.305  30.558  1.00  0.00     0.031 A 
ATOM     43  C   UNL A   1      41.864  28.925  31.861  1.00  0.00     0.074 A 
ATOM     44  C   UNL A   1      41.615  28.825  29.347  1.00  0.00     0.049 A 
ATOM     45  N   UNL A   1      42.996  29.310  32.350  1.00  0.00    -0.248 NA
ATOM     46  C   UNL A   1      40.985  28.260  32.842  1.00  0.00     0.031 C 
ATOM     47  C   UNL A   1      40.874  28.961  28.087  1.00  0.00     0.029 A 
ATOM     48  N   UNL A   1      42.635  27.992  29.009  1.00  0.00    -0.354 N 
ATOM     49  C   UNL A   1      43.074  28.686  33.591  1.00  0.00     0.074 A 
ATOM     50  C   UNL A   1      41.735  28.311  33.942  1.00  0.00     0.031 C 
ATOM     51  C   UNL A   1      41.325  28.039  27.205  1.00  0.00     0.029 A 
ATOM     52  C   UNL A   1      42.462  27.347  27.785  1.00  0.00     0.049 A 
ATOM     53  H   UNL A   1      43.426  27.857  29.578  1.00  0.00     0.167 HD
ATOM     54  C   UNL A   1      44.264  28.216  34.048  1.00  0.00     0.034 A 
ATOM     55  C   UNL A   1      43.164  26.269  27.347  1.00  0.00     0.034 A 
ATOM     56  C   UNL A   1      45.355  28.816  33.322  1.00  0.00     0.049 A 
ATOM     57  C   UNL A   1      44.398  26.211  28.158  1.00  0.00     0.074 A 
ATOM     58  C   UNL A   1      45.850  30.092  33.161  1.00  0.00     0.029 A 
ATOM     59  N   UNL A   1      45.834  28.063  32.279  1.00  0.00    -0.354 N 
ATOM     60  N   UNL A   1      45.352  27.094  28.090  1.00  0.00    -0.248 NA
ATOM     61  C   UNL A   1      44.404  25.365  29.341  1.00  0.00     0.031 C 
ATOM     62  C   UNL A   1      46.335  30.141  31.822  1.00  0.00     0.029 A 
ATOM     63  C   UNL A   1      46.182  28.879  31.241  1.00  0.00     0.049 A 
ATOM     64  H   UNL A   1      45.914  27.082  32.280  1.00  0.00     0.167 HD
ATOM     65  C   UNL A   1      45.774  27.233  29.403  1.00  0.00     0.074 A 
ATOM     66  C   UNL A   1      45.274  26.045  30.092  1.00  0.00     0.031 C 
ATOM     67  C   UNL A   1      46.209  28.442  29.860  1.00  0.00     0.034 A 
BRANCH  54  68
ATOM     68  C   UNL A   1      44.439  26.904  34.790  1.00  0.00     0.023 A 
ATOM     69  C   UNL A   1      45.110  26.962  36.032  1.00  0.00     0.012 A 
ATOM     70  C   UNL A   1      44.239  25.613  34.241  1.00  0.00     0.148 A 
ATOM     71  C   UNL A   1      45.592  25.812  36.665  1.00  0.00     0.002 A 
ATOM     72  C   UNL A   1      44.643  24.466  34.915  1.00  0.00     0.091 A 
ATOM     73  F   UNL A   1      43.779  25.467  32.999  1.00  0.00    -0.205 F 
ATOM     74  C   UNL A   1      45.350  24.560  36.112  1.00  0.00     0.022 A 
BRANCH  72  75
ATOM     75  S   UNL A   1      44.303  22.821  34.267  1.00  0.00     0.127 S 
ATOM     76  O   UNL A   1      44.967  22.873  32.969  1.00  0.00    -0.237 OA
ATOM     77  O   UNL A   1      44.955  21.973  35.266  1.00  0.00    -0.237 OA
ATOM     78  O   UNL A   1      42.851  22.696  34.236  1.00  0.00    -0.744 OA
ENDBRANCH  72  75
ENDBRANCH  54  68
BRANCH  55  79
ATOM     79  C   UNL A   1      42.768  25.103  26.515  1.00  0.00     0.023 A 
ATOM     80  C   UNL A   1      43.573  24.755  25.405  1.00  0.00     0.012 A 
ATOM     81  C   UNL A   1      41.853  24.143  26.995  1.00  0.00     0.148 A 
ATOM     82  C   UNL A   1      43.525  23.472  24.845  1.00  0.00     0.002 A 
ATOM     83  C   UNL A   1      41.815  22.866  26.440  1.00  0.00     0.091 A 
ATOM     84  F   UNL A   1      41.100  24.446  28.059  1.00  0.00    -0.205 F 
ATOM     85  C   UNL A   1      42.661  22.521  25.376  1.00  0.00     0.022 A 
BRANCH  83  86
ATOM     86  S   UNL A   1      40.775  21.561  27.111  1.00  0.00     0.127 S 
ATOM     87  O   UNL A   1      40.990  21.716  28.550  1.00  0.00    -0.237 OA
ATOM     88  O   UNL A   1      39.453  21.963  26.641  1.00  0.00    -0.237 OA
ATOM     89  O   UNL A   1      41.295  20.319  26.555  1.00  0.00    -0.744 OA
ENDBRANCH  83  86
ENDBRANCH  55  79
BRANCH  67  90
ATOM     90  C   UNL A   1      46.574  29.489  28.842  1.00  0.00     0.023 A 
ATOM     91  C   UNL A   1      47.831  29.549  28.205  1.00  0.00     0.012 A 
ATOM     92  C   UNL A   1      45.538  30.321  28.386  1.00  0.00     0.148 A 
ATOM     93  C   UNL A   1      48.042  30.425  27.133  1.00  0.00     0.002 A 
ATOM     94  C   UNL A   1      45.733  31.139  27.285  1.00  0.00     0.091 A 
ATOM     95  F   UNL A   1      44.357  30.259  29.021  1.00  0.00    -0.205 F 
ATOM     96  C   UNL A   1      46.987  31.203  26.660  1.00  0.00     0.022 A 
BRANCH  94  97
ATOM     97  S   UNL A   1      44.368  32.032  26.541  1.00  0.00     0.127 S 
ATOM     98  O   UNL A   1      44.991  32.608  25.351  1.00  0.00    -0.237 OA
ATOM     99  O   UNL A   1      43.404  30.964  26.274  1.00  0.00    -0.237 OA
ATOM    100  O   UNL A   1      43.923  32.994  27.543  1.00  0.00    -0.744 OA
ENDBRANCH  94  97
ENDBRANCH  67  90
ENDBRANCH  41  42
ENDBRANCH  34  36
ENDBRANCH  33  34
ENDBRANCH  32  33
ENDBRANCH   1  32
TORSDOF 19
ENDMDL
MODEL 3
REMARK VINA RESULT:     -11.4      3.809      5.251
REMARK SMILES CC1=Nc2c(c(C)nn2-c2ccc(F)cc2)[C@H](c2ccc(C(=O)OCCOCCOC(=O)c3ccc(-c4c5nc(c(-c6cccc(S(=O)(=O)[O-])c6F)c6ccc([nH]6)c(-c6cccc(S(=O)(=O)[O-])c6F)c6nc(c(-c7cccc(S(=O)(=O)[O-])c7F)c7ccc4[nH]7)C=C6)C=C5)cc3)cc2)S1
REMARK SMILES IDX 28 1 27 2 26 3 25 4 24 5 22 6 23 7 21 8 18 9 19 10 97 11
REMARK SMILES IDX 20 12 96 13 17 14 1 15 2 16 3 17 98 18 4 19 5 20 9 21 6 22
REMARK SMILES IDX 8 23 7 24 10 25 11 26 16 27 12 28 15 29 13 30 14 31 29 32
REMARK SMILES IDX 30 33 31 34 32 35 33 36 34 37 95 38 35 39 94 40 36 41 37 42
REMARK SMILES IDX 38 43 88 44 39 45 93 46 87 47 89 48 40 49 92 50 86 51 85 52
REMARK SMILES IDX 41 54 73 55 53 56 72 57 54 58 57 59 71 60 90 61 55 62 56 63
REMARK SMILES IDX 70 65 91 66 58 67 42 68 43 69 51 70 44 71 46 72 52 73 45 74
REMARK SMILES IDX 47 75 48 76 49 77 50 78 74 79 75 80 83 81 76 82 78 83 84 84
REMARK SMILES IDX 77 85 79 86 80 87 81 88 82 89 59 90 60 91 68 92 61 93 63 94
REMARK SMILES IDX 69 95 62 96 64 97 65 98 66 99 67 100
REMARK H PARENT 89 53 57 64
REMARK Flexibility Score: inf
ROOT
ATOM      1  C   UNL A   1      41.795  20.397  27.345  1.00  0.00     0.202 C 
ENDROOT
BRANCH   1   2
ATOM      2  O   UNL A   1      40.579  19.761  26.968  1.00  0.00    -0.374 OA
BRANCH   2   3
ATOM      3  C   UNL A   1      39.965  20.082  25.719  1.00  0.00     0.202 C 
BRANCH   3   4
ATOM      4  C   UNL A   1      38.694  19.334  25.318  1.00  0.00     0.261 C 
BRANCH   4   5
ATOM      5  O   UNL A   1      37.626  20.215  24.936  1.00  0.00    -0.460 OA
BRANCH   5   6
ATOM      6  C   UNL A   1      36.423  19.601  24.825  1.00  0.00     0.338 C 
ATOM      7  O   UNL A   1      36.220  18.396  24.815  1.00  0.00    -0.246 OA
BRANCH   6   8
ATOM      8  C   UNL A   1      35.308  20.574  24.870  1.00  0.00     0.060 A 
ATOM      9  C   UNL A   1      33.115  22.325  24.553  1.00  0.00    -0.030 A 
ATOM     10  C   UNL A   1      32.962  20.935  24.414  1.00  0.00     0.006 A 
ATOM     11  C   UNL A   1      34.375  22.803  24.973  1.00  0.00     0.006 A 
ATOM     12  C   UNL A   1      34.039  20.070  24.579  1.00  0.00     0.016 A 
ATOM     13  C   UNL A   1      35.471  21.936  25.119  1.00  0.00     0.016 A 
BRANCH   9  14
ATOM     14  C   UNL A   1      31.953  23.218  24.129  1.00  0.00     0.119 C 
ATOM     15  C   UNL A   1      33.646  25.885  21.517  1.00  0.00     0.075 C 
ATOM     16  C   UNL A   1      32.814  25.395  22.670  1.00  0.00     0.074 C 
ATOM     17  N   UNL A   1      32.733  26.131  23.733  1.00  0.00    -0.227 NA
ATOM     18  S   UNL A   1      32.050  23.829  22.415  1.00  0.00    -0.098 SA
ATOM     19  C   UNL A   1      32.109  25.623  24.823  1.00  0.00     0.161 A 
ATOM     20  C   UNL A   1      31.791  24.314  25.110  1.00  0.00     0.038 A 
ATOM     21  N   UNL A   1      31.761  26.369  25.937  1.00  0.00    -0.215 N 
ATOM     22  C   UNL A   1      31.249  24.354  26.422  1.00  0.00     0.067 A 
ATOM     23  N   UNL A   1      31.322  25.579  26.953  1.00  0.00    -0.171 NA
ATOM     24  C   UNL A   1      30.650  23.260  27.227  1.00  0.00     0.069 C 
BRANCH  21  25
ATOM     25  C   UNL A   1      31.751  27.778  26.066  1.00  0.00     0.067 A 
ATOM     26  C   UNL A   1      32.231  28.379  27.238  1.00  0.00     0.031 A 
ATOM     27  C   UNL A   1      31.252  28.559  25.016  1.00  0.00     0.031 A 
ATOM     28  C   UNL A   1      32.210  29.768  27.356  1.00  0.00     0.041 A 
ATOM     29  C   UNL A   1      31.182  29.944  25.169  1.00  0.00     0.041 A 
ATOM     30  C   UNL A   1      31.672  30.536  26.330  1.00  0.00     0.123 A 
ATOM     31  F   UNL A   1      31.640  31.868  26.457  1.00  0.00    -0.207 F 
ENDBRANCH  21  25
ENDBRANCH   9  14
ENDBRANCH   6   8
ENDBRANCH   5   6
ENDBRANCH   4   5
ENDBRANCH   3   4
ENDBRANCH   2   3
ENDBRANCH   1   2
BRANCH   1  32
ATOM     32  C   UNL A   1      41.998  21.866  27.007  1.00  0.00     0.261 C 
BRANCH  32  33
ATOM     33  O   UNL A   1      41.429  22.732  27.974  1.00  0.00    -0.460 OA
BRANCH  33  34
ATOM     34  C   UNL A   1      40.444  23.511  27.468  1.00  0.00     0.338 C 
ATOM     35  O   UNL A   1      39.409  23.143  26.944  1.00  0.00    -0.246 OA
BRANCH  34  36
ATOM     36  C   UNL A   1      40.902  24.900  27.477  1.00  0.00     0.060 A 
ATOM     37  C   UNL A   1      41.840  25.232  28.455  1.00  0.00     0.016 A 
ATOM     38  C   UNL A   1      40.165  25.866  26.776  1.00  0.00     0.016 A 
ATOM     39  C   UNL A   1      41.882  26.535  28.889  1.00  0.00     0.010 A 
ATOM     40  C   UNL A   1      40.185  27.159  27.233  1.00  0.00     0.010 A 
ATOM     41  C   UNL A   1      40.988  27.456  28.330  1.00  0.00    -0.014 A 
BRANCH  41  42
ATOM     42  C   UNL A   1      41.048  28.821  28.794  1.00  0.00     0.031 A 
ATOM     43  C   UNL A   1      42.315  29.457  28.369  1.00  0.00     0.074 A 
ATOM     44  C   UNL A   1      40.021  29.413  29.431  1.00  0.00     0.049 A 
ATOM     45  N   UNL A   1      43.328  29.753  29.113  1.00  0.00    -0.248 NA
ATOM     46  C   UNL A   1      42.595  29.527  26.922  1.00  0.00     0.031 C 
ATOM     47  C   UNL A   1      38.658  28.897  29.610  1.00  0.00     0.029 A 
ATOM     48  N   UNL A   1      39.937  30.669  29.943  1.00  0.00    -0.354 N 
ATOM     49  C   UNL A   1      44.254  30.314  28.237  1.00  0.00     0.074 A 
ATOM     50  C   UNL A   1      43.876  29.892  26.921  1.00  0.00     0.031 C 
ATOM     51  C   UNL A   1      37.838  29.918  29.950  1.00  0.00     0.029 A 
ATOM     52  C   UNL A   1      38.632  31.119  30.141  1.00  0.00     0.049 A 
ATOM     53  H   UNL A   1      40.728  31.214  30.155  1.00  0.00     0.167 HD
ATOM     54  C   UNL A   1      45.028  31.358  28.636  1.00  0.00     0.034 A 
ATOM     55  C   UNL A   1      38.257  32.406  30.359  1.00  0.00     0.034 A 
ATOM     56  C   UNL A   1      45.041  31.457  30.074  1.00  0.00     0.049 A 
ATOM     57  C   UNL A   1      39.469  33.129  30.802  1.00  0.00     0.074 A 
ATOM     58  C   UNL A   1      45.470  30.662  31.114  1.00  0.00     0.029 A 
ATOM     59  N   UNL A   1      44.141  32.353  30.595  1.00  0.00    -0.354 N 
ATOM     60  N   UNL A   1      40.066  32.914  31.937  1.00  0.00    -0.248 NA
ATOM     61  C   UNL A   1      40.252  33.836  29.800  1.00  0.00     0.031 C 
ATOM     62  C   UNL A   1      44.542  30.891  32.171  1.00  0.00     0.029 A 
ATOM     63  C   UNL A   1      43.626  31.865  31.762  1.00  0.00     0.049 A 
ATOM     64  H   UNL A   1      43.903  33.217  30.189  1.00  0.00     0.167 HD
ATOM     65  C   UNL A   1      41.414  33.024  31.633  1.00  0.00     0.074 A 
ATOM     66  C   UNL A   1      41.460  33.741  30.361  1.00  0.00     0.031 C 
ATOM     67  C   UNL A   1      42.331  32.251  32.282  1.00  0.00     0.034 A 
BRANCH  54  68
ATOM     68  C   UNL A   1      45.375  32.549  27.761  1.00  0.00     0.023 A 
ATOM     69  C   UNL A   1      44.317  33.125  27.024  1.00  0.00     0.012 A 
ATOM     70  C   UNL A   1      46.685  32.960  27.410  1.00  0.00     0.148 A 
ATOM     71  C   UNL A   1      44.550  34.018  25.972  1.00  0.00     0.002 A 
ATOM     72  C   UNL A   1      46.908  33.912  26.422  1.00  0.00     0.091 A 
ATOM     73  F   UNL A   1      47.751  32.344  27.923  1.00  0.00    -0.205 F 
ATOM     74  C   UNL A   1      45.847  34.421  25.677  1.00  0.00     0.022 A 
BRANCH  72  75
ATOM     75  S   UNL A   1      48.563  34.508  26.042  1.00  0.00     0.127 S 
ATOM     76  O   UNL A   1      48.284  35.540  25.048  1.00  0.00    -0.237 OA
ATOM     77  O   UNL A   1      49.003  35.004  27.347  1.00  0.00    -0.237 OA
ATOM     78  O   UNL A   1      49.306  33.348  25.564  1.00  0.00    -0.744 OA
ENDBRANCH  72  75
ENDBRANCH  54  68
BRANCH  55  79
ATOM     79  C   UNL A   1      37.048  33.167  29.951  1.00  0.00     0.023 A 
ATOM     80  C   UNL A   1      36.502  32.938  28.666  1.00  0.00     0.012 A 
ATOM     81  C   UNL A   1      36.240  33.817  30.906  1.00  0.00     0.148 A 
ATOM     82  C   UNL A   1      35.175  33.271  28.369  1.00  0.00     0.002 A 
ATOM     83  C   UNL A   1      34.917  34.140  30.608  1.00  0.00     0.091 A 
ATOM     84  F   UNL A   1      36.731  34.022  32.134  1.00  0.00    -0.205 F 
ATOM     85  C   UNL A   1      34.377  33.854  29.347  1.00  0.00     0.022 A 
BRANCH  83  86
ATOM     86  S   UNL A   1      33.802  34.832  31.837  1.00  0.00     0.127 S 
ATOM     87  O   UNL A   1      32.685  35.286  31.007  1.00  0.00    -0.237 OA
ATOM     88  O   UNL A   1      33.515  33.667  32.668  1.00  0.00    -0.237 OA
ATOM     89  O   UNL A   1      34.545  35.905  32.484  1.00  0.00    -0.744 OA
ENDBRANCH  83  86
ENDBRANCH  55  79
BRANCH  67  90
ATOM     90  C   UNL A   1      41.904  31.578  33.561  1.00  0.00     0.023 A 
ATOM     91  C   UNL A   1      41.337  30.288  33.607  1.00  0.00     0.012 A 
ATOM     92  C   UNL A   1      42.268  32.207  34.762  1.00  0.00     0.148 A 
ATOM     93  C   UNL A   1      41.139  29.643  34.834  1.00  0.00     0.002 A 
ATOM     94  C   UNL A   1      42.130  31.540  35.969  1.00  0.00     0.091 A 
ATOM     95  F   UNL A   1      42.788  33.442  34.693  1.00  0.00    -0.205 F 
ATOM     96  C   UNL A   1      41.556  30.260  36.013  1.00  0.00     0.022 A 
BRANCH  94  97
ATOM     97  S   UNL A   1      42.798  32.222  37.486  1.00  0.00     0.127 S 
ATOM     98  O   UNL A   1      42.585  33.655  37.297  1.00  0.00    -0.237 OA
ATOM     99  O   UNL A   1      41.949  31.604  38.507  1.00  0.00    -0.237 OA
ATOM    100  O   UNL A   1      44.192  31.797  37.539  1.00  0.00    -0.744 OA
ENDBRANCH  94  97
ENDBRANCH  67  90
ENDBRANCH  41  42
ENDBRANCH  34  36
ENDBRANCH  33  34
ENDBRANCH  32  33
ENDBRANCH   1  32
TORSDOF 19
ENDMDL
