MODEL 1
REMARK VINA RESULT:     -11.9      0.000      0.000
REMARK SMILES Cc1ccc(Nc2c(F)cccc2Cl)c(CC(=O)OCCOCCOC(=O)c2ccc(-c3c4nc(c(-c5cccc(S(=O)(=O)[O-])c5F)c5ccc([nH]5)c(-c5cccc(S(=O)(=O)[O-])c5F)c5nc(c(-c6cccc(S(=O)(=O)[O-])c6F)c6ccc3[nH]6)C=C5)C=C4)cc2)c1
REMARK SMILES IDX 22 1 21 2 20 3 19 4 17 5 18 6 16 7 15 8 1 9 2 10 3 11 91 12
REMARK SMILES IDX 4 13 5 14 6 15 7 17 8 18 13 19 9 20 10 21 12 22 14 23 11 24
REMARK SMILES IDX 23 25 24 26 25 27 26 28 27 29 28 30 29 31 90 32 30 33 89 34
REMARK SMILES IDX 31 35 32 36 33 37 83 38 34 39 88 40 82 41 84 42 35 43 87 44
REMARK SMILES IDX 81 45 80 46 36 48 68 49 48 50 67 51 49 52 52 53 66 54 85 55
REMARK SMILES IDX 50 56 51 57 65 59 86 60 53 61 37 62 38 63 46 64 39 65 41 66
REMARK SMILES IDX 47 67 40 68 42 69 43 70 44 71 45 72 69 73 70 74 78 75 71 76
REMARK SMILES IDX 73 77 79 78 72 79 74 80 75 81 76 82 77 83 54 84 55 85 63 86
REMARK SMILES IDX 56 87 58 88 64 89 57 90 59 91 60 92 61 93 62 94
REMARK H PARENT 6 16 84 47 52 58
REMARK Flexibility Score: inf
ROOT
ATOM      1  O   UNL A   1      33.849  28.649  25.613  1.00  0.00    -0.374 OA
ENDROOT
BRANCH   1   2
ATOM      2  C   UNL A   1      33.731  27.366  26.187  1.00  0.00     0.202 C 
BRANCH   2   3
ATOM      3  C   UNL A   1      32.276  26.937  26.167  1.00  0.00     0.261 C 
BRANCH   3   4
ATOM      4  O   UNL A   1      32.039  25.752  25.415  1.00  0.00    -0.463 OA
BRANCH   4   5
ATOM      5  C   UNL A   1      31.809  24.591  26.107  1.00  0.00     0.310 C 
ATOM      6  O   UNL A   1      31.440  24.487  27.266  1.00  0.00    -0.252 OA
BRANCH   5   7
ATOM      7  C   UNL A   1      32.112  23.380  25.246  1.00  0.00     0.160 C 
BRANCH   7   8
ATOM      8  C   UNL A   1      33.383  22.701  25.719  1.00  0.00    -0.013 A 
ATOM      9  C   UNL A   1      36.951  24.065  25.895  1.00  0.00     0.044 C 
ATOM     10  C   UNL A   1      35.795  23.112  25.905  1.00  0.00    -0.051 A 
ATOM     11  C   UNL A   1      36.002  21.742  25.813  1.00  0.00     0.005 A 
ATOM     12  C   UNL A   1      34.484  23.577  25.925  1.00  0.00     0.009 A 
ATOM     13  C   UNL A   1      34.916  20.866  25.688  1.00  0.00     0.026 A 
ATOM     14  C   UNL A   1      33.582  21.310  25.611  1.00  0.00     0.042 A 
BRANCH  14  15
ATOM     15  N   UNL A   1      32.510  20.404  25.381  1.00  0.00    -0.352 N 
ATOM     16  H   UNL A   1      31.645  20.660  25.775  1.00  0.00     0.167 HD
BRANCH  15  17
ATOM     17  C   UNL A   1      32.518  19.176  24.660  1.00  0.00     0.094 A 
ATOM     18  C   UNL A   1      32.705  17.944  25.301  1.00  0.00     0.148 A 
ATOM     19  C   UNL A   1      32.531  19.152  23.253  1.00  0.00     0.067 A 
ATOM     20  F   UNL A   1      32.538  17.842  26.628  1.00  0.00    -0.205 F 
ATOM     21  C   UNL A   1      33.091  16.797  24.608  1.00  0.00     0.041 A 
ATOM     22  C   UNL A   1      32.981  18.024  22.550  1.00  0.00     0.023 A 
ATOM     23  Cl  UNL A   1      31.938  20.483  22.331  1.00  0.00    -0.082 Cl
ATOM     24  C   UNL A   1      33.296  16.854  23.236  1.00  0.00     0.005 A 
ENDBRANCH  15  17
ENDBRANCH  14  15
ENDBRANCH   7   8
ENDBRANCH   5   7
ENDBRANCH   4   5
ENDBRANCH   3   4
ENDBRANCH   2   3
ENDBRANCH   1   2
BRANCH   1  25
ATOM     25  C   UNL A   1      32.737  29.501  25.782  1.00  0.00     0.202 C 
BRANCH  25  26
ATOM     26  C   UNL A   1      32.944  30.284  27.075  1.00  0.00     0.261 C 
BRANCH  26  27
ATOM     27  O   UNL A   1      34.012  31.246  26.930  1.00  0.00    -0.460 OA
BRANCH  27  28
ATOM     28  C   UNL A   1      34.736  31.440  28.071  1.00  0.00     0.338 C 
ATOM     29  O   UNL A   1      34.658  32.457  28.751  1.00  0.00    -0.246 OA
BRANCH  28  30
ATOM     30  C   UNL A   1      35.720  30.337  28.266  1.00  0.00     0.060 A 
ATOM     31  C   UNL A   1      35.854  29.766  29.540  1.00  0.00     0.016 A 
ATOM     32  C   UNL A   1      36.710  30.139  27.303  1.00  0.00     0.016 A 
ATOM     33  C   UNL A   1      37.069  29.186  29.919  1.00  0.00     0.010 A 
ATOM     34  C   UNL A   1      37.942  29.672  27.716  1.00  0.00     0.010 A 
ATOM     35  C   UNL A   1      38.138  29.235  29.038  1.00  0.00    -0.014 A 
BRANCH  35  36
ATOM     36  C   UNL A   1      39.509  28.850  29.358  1.00  0.00     0.031 A 
ATOM     37  C   UNL A   1      39.906  27.455  29.115  1.00  0.00     0.074 A 
ATOM     38  C   UNL A   1      40.473  29.792  29.467  1.00  0.00     0.049 A 
ATOM     39  N   UNL A   1      41.109  27.031  29.268  1.00  0.00    -0.248 NA
ATOM     40  C   UNL A   1      38.972  26.404  28.723  1.00  0.00     0.031 C 
ATOM     41  C   UNL A   1      41.847  29.715  28.971  1.00  0.00     0.029 A 
ATOM     42  N   UNL A   1      40.420  31.030  30.089  1.00  0.00    -0.354 N 
ATOM     43  C   UNL A   1      41.182  25.823  28.631  1.00  0.00     0.074 A 
ATOM     44  C   UNL A   1      39.816  25.399  28.467  1.00  0.00     0.031 C 
ATOM     45  C   UNL A   1      42.549  30.759  29.429  1.00  0.00     0.029 A 
ATOM     46  C   UNL A   1      41.718  31.448  30.394  1.00  0.00     0.049 A 
ATOM     47  H   UNL A   1      39.597  31.535  30.286  1.00  0.00     0.167 HD
ATOM     48  C   UNL A   1      42.401  25.416  28.190  1.00  0.00     0.034 A 
ATOM     49  C   UNL A   1      42.105  31.879  31.626  1.00  0.00     0.034 A 
ATOM     50  C   UNL A   1      43.482  26.272  28.738  1.00  0.00     0.049 A 
ATOM     51  C   UNL A   1      43.038  30.845  32.237  1.00  0.00     0.074 A 
ATOM     52  C   UNL A   1      44.395  27.176  28.224  1.00  0.00     0.029 A 
ATOM     53  N   UNL A   1      43.537  26.448  30.117  1.00  0.00    -0.354 N 
ATOM     54  N   UNL A   1      43.661  29.922  31.549  1.00  0.00    -0.248 NA
ATOM     55  C   UNL A   1      43.276  30.705  33.668  1.00  0.00     0.031 C 
ATOM     56  C   UNL A   1      44.955  27.919  29.322  1.00  0.00     0.029 A 
ATOM     57  C   UNL A   1      44.430  27.432  30.509  1.00  0.00     0.049 A 
ATOM     58  H   UNL A   1      42.993  25.927  30.751  1.00  0.00     0.167 HD
ATOM     59  C   UNL A   1      44.127  28.947  32.389  1.00  0.00     0.074 A 
ATOM     60  C   UNL A   1      43.922  29.526  33.715  1.00  0.00     0.031 C 
ATOM     61  C   UNL A   1      44.570  27.724  31.943  1.00  0.00     0.034 A 
BRANCH  48  62
ATOM     62  C   UNL A   1      42.621  24.306  27.182  1.00  0.00     0.023 A 
ATOM     63  C   UNL A   1      41.565  23.387  27.011  1.00  0.00     0.012 A 
ATOM     64  C   UNL A   1      43.807  24.042  26.441  1.00  0.00     0.148 A 
ATOM     65  C   UNL A   1      41.666  22.282  26.158  1.00  0.00     0.002 A 
ATOM     66  C   UNL A   1      43.882  22.978  25.535  1.00  0.00     0.091 A 
ATOM     67  F   UNL A   1      44.914  24.757  26.665  1.00  0.00    -0.205 F 
ATOM     68  C   UNL A   1      42.816  22.087  25.405  1.00  0.00     0.022 A 
BRANCH  66  69
ATOM     69  S   UNL A   1      45.317  22.684  24.480  1.00  0.00     0.127 S 
ATOM     70  O   UNL A   1      44.723  21.991  23.337  1.00  0.00    -0.237 OA
ATOM     71  O   UNL A   1      45.778  24.043  24.191  1.00  0.00    -0.237 OA
ATOM     72  O   UNL A   1      46.251  21.889  25.269  1.00  0.00    -0.744 OA
ENDBRANCH  66  69
ENDBRANCH  48  62
BRANCH  49  73
ATOM     73  C   UNL A   1      41.020  32.693  32.264  1.00  0.00     0.023 A 
ATOM     74  C   UNL A   1      40.717  33.903  31.580  1.00  0.00     0.012 A 
ATOM     75  C   UNL A   1      40.010  32.084  33.027  1.00  0.00     0.148 A 
ATOM     76  C   UNL A   1      39.403  34.364  31.481  1.00  0.00     0.002 A 
ATOM     77  C   UNL A   1      38.694  32.544  32.911  1.00  0.00     0.091 A 
ATOM     78  F   UNL A   1      40.310  30.969  33.705  1.00  0.00    -0.205 F 
ATOM     79  C   UNL A   1      38.385  33.651  32.103  1.00  0.00     0.022 A 
BRANCH  77  80
ATOM     80  S   UNL A   1      37.314  31.614  33.596  1.00  0.00     0.127 S 
ATOM     81  O   UNL A   1      36.173  32.370  33.092  1.00  0.00    -0.237 OA
ATOM     82  O   UNL A   1      37.493  30.294  32.993  1.00  0.00    -0.237 OA
ATOM     83  O   UNL A   1      37.527  31.645  35.035  1.00  0.00    -0.744 OA
ENDBRANCH  77  80
ENDBRANCH  49  73
BRANCH  61  84
ATOM     84  C   UNL A   1      45.139  26.662  32.880  1.00  0.00     0.023 A 
ATOM     85  C   UNL A   1      46.505  26.320  32.824  1.00  0.00     0.012 A 
ATOM     86  C   UNL A   1      44.340  25.892  33.765  1.00  0.00     0.148 A 
ATOM     87  C   UNL A   1      47.076  25.389  33.697  1.00  0.00     0.002 A 
ATOM     88  C   UNL A   1      44.893  24.904  34.573  1.00  0.00     0.091 A 
ATOM     89  F   UNL A   1      43.025  26.102  33.846  1.00  0.00    -0.205 F 
ATOM     90  C   UNL A   1      46.270  24.683  34.578  1.00  0.00     0.022 A 
BRANCH  88  91
ATOM     91  S   UNL A   1      43.886  23.805  35.583  1.00  0.00     0.127 S 
ATOM     92  O   UNL A   1      43.515  24.688  36.690  1.00  0.00    -0.237 OA
ATOM     93  O   UNL A   1      42.792  23.478  34.670  1.00  0.00    -0.237 OA
ATOM     94  O   UNL A   1      44.739  22.686  35.957  1.00  0.00    -0.744 OA
ENDBRANCH  88  91
ENDBRANCH  61  84
ENDBRANCH  35  36
ENDBRANCH  28  30
ENDBRANCH  27  28
ENDBRANCH  26  27
ENDBRANCH  25  26
ENDBRANCH   1  25
TORSDOF 20
ENDMDL
MODEL 2
REMARK VINA RESULT:     -11.8      2.008      2.951
REMARK SMILES Cc1ccc(Nc2c(F)cccc2Cl)c(CC(=O)OCCOCCOC(=O)c2ccc(-c3c4nc(c(-c5cccc(S(=O)(=O)[O-])c5F)c5ccc([nH]5)c(-c5cccc(S(=O)(=O)[O-])c5F)c5nc(c(-c6cccc(S(=O)(=O)[O-])c6F)c6ccc3[nH]6)C=C5)C=C4)cc2)c1
REMARK SMILES IDX 22 1 21 2 20 3 19 4 17 5 18 6 16 7 15 8 1 9 2 10 3 11 91 12
REMARK SMILES IDX 4 13 5 14 6 15 7 17 8 18 13 19 9 20 10 21 12 22 14 23 11 24
REMARK SMILES IDX 23 25 24 26 25 27 26 28 27 29 28 30 29 31 90 32 30 33 89 34
REMARK SMILES IDX 31 35 32 36 33 37 83 38 34 39 88 40 82 41 84 42 35 43 87 44
REMARK SMILES IDX 81 45 80 46 36 48 68 49 48 50 67 51 49 52 52 53 66 54 85 55
REMARK SMILES IDX 50 56 51 57 65 59 86 60 53 61 37 62 38 63 46 64 39 65 41 66
REMARK SMILES IDX 47 67 40 68 42 69 43 70 44 71 45 72 69 73 70 74 78 75 71 76
REMARK SMILES IDX 73 77 79 78 72 79 74 80 75 81 76 82 77 83 54 84 55 85 63 86
REMARK SMILES IDX 56 87 58 88 64 89 57 90 59 91 60 92 61 93 62 94
REMARK H PARENT 6 16 84 47 52 58
REMARK Flexibility Score: inf
ROOT
ATOM      1  O   UNL A   1      33.288  29.742  24.906  1.00  0.00    -0.374 OA
ENDROOT
BRANCH   1   2
ATOM      2  C   UNL A   1      32.721  28.833  23.988  1.00  0.00     0.202 C 
BRANCH   2   3
ATOM      3  C   UNL A   1      33.721  28.539  22.887  1.00  0.00     0.261 C 
BRANCH   3   4
ATOM      4  O   UNL A   1      34.250  27.219  22.931  1.00  0.00    -0.463 OA
BRANCH   4   5
ATOM      5  C   UNL A   1      33.601  26.247  22.214  1.00  0.00     0.310 C 
ATOM      6  O   UNL A   1      33.126  26.351  21.094  1.00  0.00    -0.252 OA
BRANCH   5   7
ATOM      7  C   UNL A   1      33.497  24.963  23.016  1.00  0.00     0.160 C 
BRANCH   7   8
ATOM      8  C   UNL A   1      32.409  25.084  24.066  1.00  0.00    -0.013 A 
ATOM      9  C   UNL A   1      28.980  26.760  23.836  1.00  0.00     0.044 C 
ATOM     10  C   UNL A   1      30.205  26.108  24.401  1.00  0.00    -0.051 A 
ATOM     11  C   UNL A   1      30.468  26.148  25.764  1.00  0.00     0.005 A 
ATOM     12  C   UNL A   1      31.149  25.515  23.569  1.00  0.00     0.009 A 
ATOM     13  C   UNL A   1      31.677  25.655  26.269  1.00  0.00     0.026 A 
ATOM     14  C   UNL A   1      32.693  25.133  25.446  1.00  0.00     0.042 A 
BRANCH  14  15
ATOM     15  N   UNL A   1      33.949  24.734  25.978  1.00  0.00    -0.352 N 
ATOM     16  H   UNL A   1      34.471  25.445  26.417  1.00  0.00     0.167 HD
BRANCH  15  17
ATOM     17  C   UNL A   1      34.557  23.447  25.964  1.00  0.00     0.094 A 
ATOM     18  C   UNL A   1      35.945  23.286  25.847  1.00  0.00     0.148 A 
ATOM     19  C   UNL A   1      33.787  22.273  25.871  1.00  0.00     0.067 A 
ATOM     20  F   UNL A   1      36.766  24.318  26.093  1.00  0.00    -0.205 F 
ATOM     21  C   UNL A   1      36.523  22.081  25.454  1.00  0.00     0.041 A 
ATOM     22  C   UNL A   1      34.347  21.071  25.414  1.00  0.00     0.023 A 
ATOM     23  Cl  UNL A   1      32.138  22.244  26.374  1.00  0.00    -0.082 Cl
ATOM     24  C   UNL A   1      35.716  20.986  25.170  1.00  0.00     0.005 A 
ENDBRANCH  15  17
ENDBRANCH  14  15
ENDBRANCH   7   8
ENDBRANCH   5   7
ENDBRANCH   4   5
ENDBRANCH   3   4
ENDBRANCH   2   3
ENDBRANCH   1   2
BRANCH   1  25
ATOM     25  C   UNL A   1      32.929  29.552  26.258  1.00  0.00     0.202 C 
BRANCH  25  26
ATOM     26  C   UNL A   1      32.948  30.917  26.939  1.00  0.00     0.261 C 
BRANCH  26  27
ATOM     27  O   UNL A   1      33.760  30.886  28.133  1.00  0.00    -0.460 OA
BRANCH  27  28
ATOM     28  C   UNL A   1      35.046  31.301  27.933  1.00  0.00     0.338 C 
ATOM     29  O   UNL A   1      35.335  32.407  27.490  1.00  0.00    -0.246 OA
BRANCH  28  30
ATOM     30  C   UNL A   1      36.004  30.183  28.173  1.00  0.00     0.060 A 
ATOM     31  C   UNL A   1      36.143  29.676  29.473  1.00  0.00     0.016 A 
ATOM     32  C   UNL A   1      36.974  29.908  27.208  1.00  0.00     0.016 A 
ATOM     33  C   UNL A   1      37.348  29.085  29.866  1.00  0.00     0.010 A 
ATOM     34  C   UNL A   1      38.199  29.430  27.628  1.00  0.00     0.010 A 
ATOM     35  C   UNL A   1      38.404  29.058  28.969  1.00  0.00    -0.014 A 
BRANCH  35  36
ATOM     36  C   UNL A   1      39.769  28.654  29.288  1.00  0.00     0.031 A 
ATOM     37  C   UNL A   1      40.157  27.263  29.011  1.00  0.00     0.074 A 
ATOM     38  C   UNL A   1      40.740  29.584  29.431  1.00  0.00     0.049 A 
ATOM     39  N   UNL A   1      41.355  26.825  29.163  1.00  0.00    -0.248 NA
ATOM     40  C   UNL A   1      39.218  26.230  28.583  1.00  0.00     0.031 C 
ATOM     41  C   UNL A   1      42.117  29.510  28.944  1.00  0.00     0.029 A 
ATOM     42  N   UNL A   1      40.691  30.806  30.086  1.00  0.00    -0.354 N 
ATOM     43  C   UNL A   1      41.424  25.634  28.493  1.00  0.00     0.074 A 
ATOM     44  C   UNL A   1      40.056  25.225  28.307  1.00  0.00     0.031 C 
ATOM     45  C   UNL A   1      42.824  30.535  29.435  1.00  0.00     0.029 A 
ATOM     46  C   UNL A   1      41.990  31.205  30.413  1.00  0.00     0.049 A 
ATOM     47  H   UNL A   1      39.871  31.311  30.289  1.00  0.00     0.167 HD
ATOM     48  C   UNL A   1      42.643  25.229  28.052  1.00  0.00     0.034 A 
ATOM     49  C   UNL A   1      42.370  31.599  31.659  1.00  0.00     0.034 A 
ATOM     50  C   UNL A   1      43.727  26.061  28.631  1.00  0.00     0.049 A 
ATOM     51  C   UNL A   1      43.290  30.541  32.248  1.00  0.00     0.074 A 
ATOM     52  C   UNL A   1      44.651  26.971  28.149  1.00  0.00     0.029 A 
ATOM     53  N   UNL A   1      43.771  26.200  30.015  1.00  0.00    -0.354 N 
ATOM     54  N   UNL A   1      43.911  29.632  31.541  1.00  0.00    -0.248 NA
ATOM     55  C   UNL A   1      43.515  30.361  33.677  1.00  0.00     0.031 C 
ATOM     56  C   UNL A   1      45.207  27.680  29.271  1.00  0.00     0.029 A 
ATOM     57  C   UNL A   1      44.669  27.165  30.440  1.00  0.00     0.049 A 
ATOM     58  H   UNL A   1      43.218  25.666  30.630  1.00  0.00     0.167 HD
ATOM     59  C   UNL A   1      44.363  28.631  32.358  1.00  0.00     0.074 A 
ATOM     60  C   UNL A   1      44.152  29.176  33.697  1.00  0.00     0.031 C 
ATOM     61  C   UNL A   1      44.799  27.417  31.883  1.00  0.00     0.034 A 
BRANCH  48  62
ATOM     62  C   UNL A   1      42.863  24.144  27.016  1.00  0.00     0.023 A 
ATOM     63  C   UNL A   1      43.389  24.552  25.773  1.00  0.00     0.012 A 
ATOM     64  C   UNL A   1      42.527  22.766  27.132  1.00  0.00     0.148 A 
ATOM     65  C   UNL A   1      43.580  23.659  24.713  1.00  0.00     0.002 A 
ATOM     66  C   UNL A   1      42.784  21.861  26.096  1.00  0.00     0.091 A 
ATOM     67  F   UNL A   1      41.869  22.322  28.207  1.00  0.00    -0.205 F 
ATOM     68  C   UNL A   1      43.296  22.310  24.879  1.00  0.00     0.022 A 
BRANCH  66  69
ATOM     69  S   UNL A   1      42.494  20.086  26.247  1.00  0.00     0.127 S 
ATOM     70  O   UNL A   1      41.308  19.895  25.412  1.00  0.00    -0.237 OA
ATOM     71  O   UNL A   1      43.723  19.518  25.691  1.00  0.00    -0.237 OA
ATOM     72  O   UNL A   1      42.300  19.820  27.667  1.00  0.00    -0.744 OA
ENDBRANCH  66  69
ENDBRANCH  48  62
BRANCH  49  73
ATOM     73  C   UNL A   1      41.286  32.405  32.309  1.00  0.00     0.023 A 
ATOM     74  C   UNL A   1      41.094  33.694  31.741  1.00  0.00     0.012 A 
ATOM     75  C   UNL A   1      40.196  31.779  32.937  1.00  0.00     0.148 A 
ATOM     76  C   UNL A   1      39.815  34.238  31.608  1.00  0.00     0.002 A 
ATOM     77  C   UNL A   1      38.917  32.324  32.788  1.00  0.00     0.091 A 
ATOM     78  F   UNL A   1      40.392  30.585  33.510  1.00  0.00    -0.205 F 
ATOM     79  C   UNL A   1      38.721  33.525  32.084  1.00  0.00     0.022 A 
BRANCH  77  80
ATOM     80  S   UNL A   1      37.447  31.410  33.280  1.00  0.00     0.127 S 
ATOM     81  O   UNL A   1      37.924  30.033  33.217  1.00  0.00    -0.237 OA
ATOM     82  O   UNL A   1      37.197  31.917  34.628  1.00  0.00    -0.237 OA
ATOM     83  O   UNL A   1      36.435  31.789  32.305  1.00  0.00    -0.744 OA
ENDBRANCH  77  80
ENDBRANCH  49  73
BRANCH  61  84
ATOM     84  C   UNL A   1      45.353  26.326  32.795  1.00  0.00     0.023 A 
ATOM     85  C   UNL A   1      46.702  25.931  32.698  1.00  0.00     0.012 A 
ATOM     86  C   UNL A   1      44.549  25.580  33.697  1.00  0.00     0.148 A 
ATOM     87  C   UNL A   1      47.259  24.970  33.547  1.00  0.00     0.002 A 
ATOM     88  C   UNL A   1      45.085  24.564  34.482  1.00  0.00     0.091 A 
ATOM     89  F   UNL A   1      43.246  25.841  33.817  1.00  0.00    -0.205 F 
ATOM     90  C   UNL A   1      46.452  24.290  34.445  1.00  0.00     0.022 A 
BRANCH  88  91
ATOM     91  S   UNL A   1      44.064  23.497  35.512  1.00  0.00     0.127 S 
ATOM     92  O   UNL A   1      43.737  24.394  36.622  1.00  0.00    -0.237 OA
ATOM     93  O   UNL A   1      42.947  23.200  34.618  1.00  0.00    -0.237 OA
ATOM     94  O   UNL A   1      44.891  22.356  35.875  1.00  0.00    -0.744 OA
ENDBRANCH  88  91
ENDBRANCH  61  84
ENDBRANCH  35  36
ENDBRANCH  28  30
ENDBRANCH  27  28
ENDBRANCH  26  27
ENDBRANCH  25  26
ENDBRANCH   1  25
TORSDOF 20
ENDMDL
MODEL 3
REMARK VINA RESULT:     -11.6      3.918      9.408
REMARK SMILES Cc1ccc(Nc2c(F)cccc2Cl)c(CC(=O)OCCOCCOC(=O)c2ccc(-c3c4nc(c(-c5cccc(S(=O)(=O)[O-])c5F)c5ccc([nH]5)c(-c5cccc(S(=O)(=O)[O-])c5F)c5nc(c(-c6cccc(S(=O)(=O)[O-])c6F)c6ccc3[nH]6)C=C5)C=C4)cc2)c1
REMARK SMILES IDX 22 1 21 2 20 3 19 4 17 5 18 6 16 7 15 8 1 9 2 10 3 11 91 12
REMARK SMILES IDX 4 13 5 14 6 15 7 17 8 18 13 19 9 20 10 21 12 22 14 23 11 24
REMARK SMILES IDX 23 25 24 26 25 27 26 28 27 29 28 30 29 31 90 32 30 33 89 34
REMARK SMILES IDX 31 35 32 36 33 37 83 38 34 39 88 40 82 41 84 42 35 43 87 44
REMARK SMILES IDX 81 45 80 46 36 48 68 49 48 50 67 51 49 52 52 53 66 54 85 55
REMARK SMILES IDX 50 56 51 57 65 59 86 60 53 61 37 62 38 63 46 64 39 65 41 66
REMARK SMILES IDX 47 67 40 68 42 69 43 70 44 71 45 72 69 73 70 74 78 75 71 76
REMARK SMILES IDX 73 77 79 78 72 79 74 80 75 81 76 82 77 83 54 84 55 85 63 86
REMARK SMILES IDX 56 87 58 88 64 89 57 90 59 91 60 92 61 93 62 94
REMARK H PARENT 6 16 84 47 52 58
REMARK Flexibility Score: inf
ROOT
ATOM      1  O   UNL A   1      34.717  23.044  26.572  1.00  0.00    -0.374 OA
ENDROOT
BRANCH   1   2
ATOM      2  C   UNL A   1      33.952  22.051  27.218  1.00  0.00     0.202 C 
BRANCH   2   3
ATOM      3  C   UNL A   1      32.649  22.655  27.705  1.00  0.00     0.261 C 
BRANCH   3   4
ATOM      4  O   UNL A   1      32.224  23.784  26.951  1.00  0.00    -0.463 OA
BRANCH   4   5
ATOM      5  C   UNL A   1      30.880  23.930  26.721  1.00  0.00     0.310 C 
ATOM      6  O   UNL A   1      29.968  23.363  27.303  1.00  0.00    -0.252 OA
BRANCH   5   7
ATOM      7  C   UNL A   1      30.629  24.897  25.580  1.00  0.00     0.160 C 
BRANCH   7   8
ATOM      8  C   UNL A   1      31.227  24.362  24.293  1.00  0.00    -0.013 A 
ATOM      9  C   UNL A   1      32.490  20.847  23.475  1.00  0.00     0.044 C 
ATOM     10  C   UNL A   1      32.230  22.319  23.376  1.00  0.00    -0.051 A 
ATOM     11  C   UNL A   1      32.945  23.109  22.486  1.00  0.00     0.005 A 
ATOM     12  C   UNL A   1      31.326  22.945  24.229  1.00  0.00     0.009 A 
ATOM     13  C   UNL A   1      32.794  24.502  22.493  1.00  0.00     0.026 A 
ATOM     14  C   UNL A   1      31.958  25.175  23.404  1.00  0.00     0.042 A 
BRANCH  14  15
ATOM     15  N   UNL A   1      31.904  26.595  23.452  1.00  0.00    -0.352 N 
ATOM     16  H   UNL A   1      31.501  27.032  22.668  1.00  0.00     0.167 HD
BRANCH  15  17
ATOM     17  C   UNL A   1      32.354  27.471  24.480  1.00  0.00     0.094 A 
ATOM     18  C   UNL A   1      33.478  27.175  25.263  1.00  0.00     0.148 A 
ATOM     19  C   UNL A   1      31.586  28.576  24.891  1.00  0.00     0.067 A 
ATOM     20  F   UNL A   1      34.361  26.252  24.854  1.00  0.00    -0.205 F 
ATOM     21  C   UNL A   1      33.714  27.795  26.489  1.00  0.00     0.041 A 
ATOM     22  C   UNL A   1      31.773  29.163  26.151  1.00  0.00     0.023 A 
ATOM     23  Cl  UNL A   1      30.423  29.296  23.840  1.00  0.00    -0.082 Cl
ATOM     24  C   UNL A   1      32.821  28.745  26.967  1.00  0.00     0.005 A 
ENDBRANCH  15  17
ENDBRANCH  14  15
ENDBRANCH   7   8
ENDBRANCH   5   7
ENDBRANCH   4   5
ENDBRANCH   3   4
ENDBRANCH   2   3
ENDBRANCH   1   2
BRANCH   1  25
ATOM     25  C   UNL A   1      35.397  22.633  25.406  1.00  0.00     0.202 C 
BRANCH  25  26
ATOM     26  C   UNL A   1      36.348  23.756  25.002  1.00  0.00     0.261 C 
BRANCH  26  27
ATOM     27  O   UNL A   1      37.143  24.187  26.128  1.00  0.00    -0.460 OA
BRANCH  27  28
ATOM     28  C   UNL A   1      38.388  23.627  26.168  1.00  0.00     0.338 C 
ATOM     29  O   UNL A   1      38.641  22.518  25.711  1.00  0.00    -0.246 OA
BRANCH  28  30
ATOM     30  C   UNL A   1      39.320  24.469  26.971  1.00  0.00     0.060 A 
ATOM     31  C   UNL A   1      39.048  24.673  28.332  1.00  0.00     0.016 A 
ATOM     32  C   UNL A   1      40.217  25.305  26.305  1.00  0.00     0.016 A 
ATOM     33  C   UNL A   1      39.499  25.834  28.967  1.00  0.00     0.010 A 
ATOM     34  C   UNL A   1      40.562  26.502  26.899  1.00  0.00     0.010 A 
ATOM     35  C   UNL A   1      40.167  26.790  28.218  1.00  0.00    -0.014 A 
BRANCH  35  36
ATOM     36  C   UNL A   1      40.527  28.125  28.686  1.00  0.00     0.031 A 
ATOM     37  C   UNL A   1      39.525  29.193  28.558  1.00  0.00     0.074 A 
ATOM     38  C   UNL A   1      41.543  28.288  29.563  1.00  0.00     0.049 A 
ATOM     39  N   UNL A   1      39.697  30.378  29.022  1.00  0.00    -0.248 NA
ATOM     40  C   UNL A   1      38.257  29.032  27.853  1.00  0.00     0.031 C 
ATOM     41  C   UNL A   1      41.583  29.189  30.716  1.00  0.00     0.029 A 
ATOM     42  N   UNL A   1      42.791  27.683  29.579  1.00  0.00    -0.354 N 
ATOM     43  C   UNL A   1      38.467  30.974  29.041  1.00  0.00     0.074 A 
ATOM     44  C   UNL A   1      37.651  30.184  28.156  1.00  0.00     0.031 C 
ATOM     45  C   UNL A   1      42.819  29.204  31.232  1.00  0.00     0.029 A 
ATOM     46  C   UNL A   1      43.675  28.470  30.323  1.00  0.00     0.049 A 
ATOM     47  H   UNL A   1      43.019  26.833  29.136  1.00  0.00     0.167 HD
ATOM     48  C   UNL A   1      38.268  31.979  29.933  1.00  0.00     0.034 A 
ATOM     49  C   UNL A   1      44.898  28.865  29.873  1.00  0.00     0.034 A 
ATOM     50  C   UNL A   1      39.547  32.414  30.545  1.00  0.00     0.049 A 
ATOM     51  C   UNL A   1      44.866  30.365  29.622  1.00  0.00     0.074 A 
ATOM     52  C   UNL A   1      40.114  32.373  31.807  1.00  0.00     0.029 A 
ATOM     53  N   UNL A   1      40.589  32.767  29.693  1.00  0.00    -0.354 N 
ATOM     54  N   UNL A   1      43.967  31.174  30.121  1.00  0.00    -0.248 NA
ATOM     55  C   UNL A   1      45.780  31.060  28.724  1.00  0.00     0.031 C 
ATOM     56  C   UNL A   1      41.516  32.664  31.677  1.00  0.00     0.029 A 
ATOM     57  C   UNL A   1      41.798  32.939  30.348  1.00  0.00     0.049 A 
ATOM     58  H   UNL A   1      40.479  32.881  28.721  1.00  0.00     0.167 HD
ATOM     59  C   UNL A   1      43.985  32.366  29.448  1.00  0.00     0.074 A 
ATOM     60  C   UNL A   1      45.192  32.267  28.630  1.00  0.00     0.031 C 
ATOM     61  C   UNL A   1      42.982  33.300  29.554  1.00  0.00     0.034 A 
BRANCH  48  62
ATOM     62  C   UNL A   1      36.906  32.511  30.335  1.00  0.00     0.023 A 
ATOM     63  C   UNL A   1      36.482  32.237  31.651  1.00  0.00     0.012 A 
ATOM     64  C   UNL A   1      35.973  33.195  29.506  1.00  0.00     0.148 A 
ATOM     65  C   UNL A   1      35.222  32.617  32.125  1.00  0.00     0.002 A 
ATOM     66  C   UNL A   1      34.742  33.638  30.002  1.00  0.00     0.091 A 
ATOM     67  F   UNL A   1      36.218  33.348  28.201  1.00  0.00    -0.205 F 
ATOM     68  C   UNL A   1      34.358  33.335  31.309  1.00  0.00     0.022 A 
BRANCH  66  69
ATOM     69  S   UNL A   1      33.584  34.620  29.025  1.00  0.00     0.127 S 
ATOM     70  O   UNL A   1      34.452  35.656  28.467  1.00  0.00    -0.237 OA
ATOM     71  O   UNL A   1      33.096  33.648  28.045  1.00  0.00    -0.237 OA
ATOM     72  O   UNL A   1      32.566  35.098  29.952  1.00  0.00    -0.744 OA
ENDBRANCH  66  69
ENDBRANCH  48  62
BRANCH  49  73
ATOM     73  C   UNL A   1      45.549  27.769  29.085  1.00  0.00     0.023 A 
ATOM     74  C   UNL A   1      45.899  26.625  29.852  1.00  0.00     0.012 A 
ATOM     75  C   UNL A   1      45.277  27.602  27.717  1.00  0.00     0.148 A 
ATOM     76  C   UNL A   1      45.766  25.338  29.327  1.00  0.00     0.002 A 
ATOM     77  C   UNL A   1      45.133  26.310  27.202  1.00  0.00     0.091 A 
ATOM     78  F   UNL A   1      44.991  28.688  26.987  1.00  0.00    -0.205 F 
ATOM     79  C   UNL A   1      45.329  25.182  28.017  1.00  0.00     0.022 A 
BRANCH  77  80
ATOM     80  S   UNL A   1      44.468  26.027  25.553  1.00  0.00     0.127 S 
ATOM     81  O   UNL A   1      43.727  27.262  25.321  1.00  0.00    -0.237 OA
ATOM     82  O   UNL A   1      45.678  25.873  24.748  1.00  0.00    -0.237 OA
ATOM     83  O   UNL A   1      43.678  24.812  25.679  1.00  0.00    -0.744 OA
ENDBRANCH  77  80
ENDBRANCH  49  73
BRANCH  61  84
ATOM     84  C   UNL A   1      43.035  34.650  28.844  1.00  0.00     0.023 A 
ATOM     85  C   UNL A   1      42.642  34.763  27.496  1.00  0.00     0.012 A 
ATOM     86  C   UNL A   1      43.570  35.824  29.438  1.00  0.00     0.148 A 
ATOM     87  C   UNL A   1      42.630  35.990  26.824  1.00  0.00     0.002 A 
ATOM     88  C   UNL A   1      43.638  37.026  28.742  1.00  0.00     0.091 A 
ATOM     89  F   UNL A   1      44.022  35.802  30.693  1.00  0.00    -0.205 F 
ATOM     90  C   UNL A   1      43.123  37.125  27.450  1.00  0.00     0.022 A 
BRANCH  88  91
ATOM     91  S   UNL A   1      44.456  38.485  29.409  1.00  0.00     0.127 S 
ATOM     92  O   UNL A   1      44.610  39.306  28.207  1.00  0.00    -0.237 OA
ATOM     93  O   UNL A   1      43.462  38.976  30.361  1.00  0.00    -0.237 OA
ATOM     94  O   UNL A   1      45.707  38.027  29.996  1.00  0.00    -0.744 OA
ENDBRANCH  88  91
ENDBRANCH  61  84
ENDBRANCH  35  36
ENDBRANCH  28  30
ENDBRANCH  27  28
ENDBRANCH  26  27
ENDBRANCH  25  26
ENDBRANCH   1  25
TORSDOF 20
ENDMDL
