MODEL 1
REMARK VINA RESULT:     -10.9      0.000      0.000
REMARK SMILES O=C(/C=C/c1ccc(O)c(O)c1)OCCOCCOC(=O)c1ccc(-c2c3nc(c(-c4cccc(S(=O)(=O)[O-])c4F)c4ccc([nH]4)c(-c4cccc(S(=O)(=O)[O-])c4F)c4nc(c(-c5cccc(S(=O)(=O)[O-])c5F)c5ccc2[nH]5)C=C4)C=C3)cc1
REMARK SMILES IDX 17 1 16 2 15 3 14 4 13 5 2 6 1 7 3 8 4 9 5 10 6 11 12 12
REMARK SMILES IDX 7 13 10 14 8 15 11 16 9 18 18 20 19 21 20 22 21 23 22 24
REMARK SMILES IDX 23 25 84 26 24 27 83 28 25 29 26 30 27 31 77 32 28 33 82 34
REMARK SMILES IDX 76 35 78 36 29 37 81 38 75 39 74 40 30 42 62 43 42 44 61 45
REMARK SMILES IDX 43 46 46 47 60 48 79 49 44 50 45 51 59 53 80 54 47 55 31 56
REMARK SMILES IDX 32 57 40 58 33 59 35 60 41 61 34 62 36 63 37 64 38 65 39 66
REMARK SMILES IDX 63 67 64 68 72 69 65 70 67 71 73 72 66 73 68 74 69 75 70 76
REMARK SMILES IDX 71 77 48 78 49 79 57 80 50 81 52 82 58 83 51 84 53 85 54 86
REMARK SMILES IDX 55 87 56 88
REMARK H PARENT 11 17 9 19 78 41 46 52
REMARK Flexibility Score: inf
ROOT
ATOM      1  C   UNL A   1      31.404  31.417  26.459  1.00  0.00     0.202 C 
ENDROOT
BRANCH   1   2
ATOM      2  O   UNL A   1      32.498  30.522  26.221  1.00  0.00    -0.374 OA
BRANCH   2   3
ATOM      3  C   UNL A   1      32.439  29.324  26.994  1.00  0.00     0.202 C 
BRANCH   3   4
ATOM      4  C   UNL A   1      32.870  28.061  26.253  1.00  0.00     0.261 C 
BRANCH   4   5
ATOM      5  O   UNL A   1      32.423  27.983  24.886  1.00  0.00    -0.460 OA
BRANCH   5   6
ATOM      6  C   UNL A   1      31.151  27.890  24.443  1.00  0.00     0.330 C 
ATOM      7  O   UNL A   1      30.497  26.865  24.622  1.00  0.00    -0.247 OA
BRANCH   6   8
ATOM      8  C   UNL A   1      30.555  28.947  23.612  1.00  0.00     0.094 C 
ATOM      9  C   UNL A   1      29.268  29.307  23.551  1.00  0.00     0.016 C 
BRANCH   9  10
ATOM     10  C   UNL A   1      28.839  30.438  22.733  1.00  0.00    -0.021 A 
ATOM     11  C   UNL A   1      28.380  30.229  21.425  1.00  0.00     0.012 A 
ATOM     12  C   UNL A   1      28.870  31.734  23.263  1.00  0.00     0.058 A 
ATOM     13  C   UNL A   1      27.921  31.302  20.656  1.00  0.00     0.051 A 
ATOM     14  C   UNL A   1      28.410  32.792  22.493  1.00  0.00     0.157 A 
ATOM     15  C   UNL A   1      27.929  32.579  21.204  1.00  0.00     0.157 A 
BRANCH  14  16
ATOM     16  O   UNL A   1      28.418  34.054  23.016  1.00  0.00    -0.504 OA
ATOM     17  H   UNL A   1      29.104  34.315  23.599  1.00  0.00     0.293 HD
ENDBRANCH  14  16
BRANCH  15  18
ATOM     18  O   UNL A   1      27.462  33.662  20.510  1.00  0.00    -0.504 OA
ATOM     19  H   UNL A   1      27.373  34.490  20.940  1.00  0.00     0.293 HD
ENDBRANCH  15  18
ENDBRANCH   9  10
ENDBRANCH   6   8
ENDBRANCH   5   6
ENDBRANCH   4   5
ENDBRANCH   3   4
ENDBRANCH   2   3
ENDBRANCH   1   2
BRANCH   1  20
ATOM     20  C   UNL A   1      31.845  32.784  26.996  1.00  0.00     0.261 C 
BRANCH  20  21
ATOM     21  O   UNL A   1      33.270  32.937  26.893  1.00  0.00    -0.460 OA
BRANCH  21  22
ATOM     22  C   UNL A   1      33.843  33.710  27.850  1.00  0.00     0.338 C 
ATOM     23  O   UNL A   1      33.415  34.756  28.309  1.00  0.00    -0.246 OA
BRANCH  22  24
ATOM     24  C   UNL A   1      34.984  32.969  28.430  1.00  0.00     0.060 A 
ATOM     25  C   UNL A   1      34.752  31.663  28.886  1.00  0.00     0.016 A 
ATOM     26  C   UNL A   1      36.270  33.514  28.479  1.00  0.00     0.016 A 
ATOM     27  C   UNL A   1      35.803  30.898  29.389  1.00  0.00     0.010 A 
ATOM     28  C   UNL A   1      37.319  32.753  28.999  1.00  0.00     0.010 A 
ATOM     29  C   UNL A   1      37.088  31.448  29.468  1.00  0.00    -0.014 A 
BRANCH  29  30
ATOM     30  C   UNL A   1      38.177  30.709  30.146  1.00  0.00     0.031 A 
ATOM     31  C   UNL A   1      38.517  31.068  31.564  1.00  0.00     0.074 A 
ATOM     32  C   UNL A   1      38.878  29.766  29.491  1.00  0.00     0.049 A 
ATOM     33  N   UNL A   1      39.477  30.612  32.323  1.00  0.00    -0.248 NA
ATOM     34  C   UNL A   1      37.665  32.081  32.210  1.00  0.00     0.031 C 
ATOM     35  C   UNL A   1      38.644  29.340  28.112  1.00  0.00     0.029 A 
ATOM     36  N   UNL A   1      39.962  29.024  29.892  1.00  0.00    -0.354 N 
ATOM     37  C   UNL A   1      39.368  31.303  33.524  1.00  0.00     0.074 A 
ATOM     38  C   UNL A   1      38.249  32.210  33.394  1.00  0.00     0.031 C 
ATOM     39  C   UNL A   1      39.583  28.442  27.767  1.00  0.00     0.029 A 
ATOM     40  C   UNL A   1      40.500  28.252  28.889  1.00  0.00     0.049 A 
ATOM     41  H   UNL A   1      40.320  29.042  30.810  1.00  0.00     0.167 HD
ATOM     42  C   UNL A   1      40.129  31.186  34.637  1.00  0.00     0.034 A 
ATOM     43  C   UNL A   1      41.623  27.505  28.870  1.00  0.00     0.034 A 
ATOM     44  C   UNL A   1      41.228  30.270  34.768  1.00  0.00     0.049 A 
ATOM     45  C   UNL A   1      42.464  27.415  30.119  1.00  0.00     0.074 A 
ATOM     46  C   UNL A   1      42.014  30.027  35.881  1.00  0.00     0.029 A 
ATOM     47  N   UNL A   1      41.712  29.464  33.751  1.00  0.00    -0.354 N 
ATOM     48  N   UNL A   1      42.261  27.959  31.295  1.00  0.00    -0.248 NA
ATOM     49  C   UNL A   1      43.677  26.585  30.046  1.00  0.00     0.031 C 
ATOM     50  C   UNL A   1      42.996  29.097  35.525  1.00  0.00     0.029 A 
ATOM     51  C   UNL A   1      42.802  28.740  34.201  1.00  0.00     0.049 A 
ATOM     52  H   UNL A   1      41.336  29.414  32.842  1.00  0.00     0.167 HD
ATOM     53  C   UNL A   1      43.301  27.516  32.105  1.00  0.00     0.074 A 
ATOM     54  C   UNL A   1      44.116  26.634  31.296  1.00  0.00     0.031 C 
ATOM     55  C   UNL A   1      43.572  27.826  33.398  1.00  0.00     0.034 A 
BRANCH  42  56
ATOM     56  C   UNL A   1      39.789  32.053  35.817  1.00  0.00     0.023 A 
ATOM     57  C   UNL A   1      40.436  33.294  35.980  1.00  0.00     0.012 A 
ATOM     58  C   UNL A   1      38.770  31.677  36.714  1.00  0.00     0.148 A 
ATOM     59  C   UNL A   1      40.083  34.143  37.028  1.00  0.00     0.002 A 
ATOM     60  C   UNL A   1      38.396  32.546  37.731  1.00  0.00     0.091 A 
ATOM     61  F   UNL A   1      38.187  30.482  36.552  1.00  0.00    -0.205 F 
ATOM     62  C   UNL A   1      39.057  33.775  37.894  1.00  0.00     0.022 A 
BRANCH  60  63
ATOM     63  S   UNL A   1      37.037  32.200  38.853  1.00  0.00     0.127 S 
ATOM     64  O   UNL A   1      35.927  32.887  38.193  1.00  0.00    -0.237 OA
ATOM     65  O   UNL A   1      36.966  30.740  38.803  1.00  0.00    -0.237 OA
ATOM     66  O   UNL A   1      37.428  32.751  40.142  1.00  0.00    -0.744 OA
ENDBRANCH  60  63
ENDBRANCH  42  56
BRANCH  43  67
ATOM     67  C   UNL A   1      42.025  26.776  27.633  1.00  0.00     0.023 A 
ATOM     68  C   UNL A   1      42.581  27.490  26.553  1.00  0.00     0.012 A 
ATOM     69  C   UNL A   1      41.843  25.386  27.514  1.00  0.00     0.148 A 
ATOM     70  C   UNL A   1      42.913  26.838  25.364  1.00  0.00     0.002 A 
ATOM     71  C   UNL A   1      42.229  24.732  26.348  1.00  0.00     0.091 A 
ATOM     72  F   UNL A   1      41.290  24.725  28.541  1.00  0.00    -0.205 F 
ATOM     73  C   UNL A   1      42.746  25.459  25.265  1.00  0.00     0.022 A 
BRANCH  71  74
ATOM     74  S   UNL A   1      42.167  22.945  26.186  1.00  0.00     0.127 S 
ATOM     75  O   UNL A   1      42.962  22.512  27.332  1.00  0.00    -0.237 OA
ATOM     76  O   UNL A   1      40.731  22.681  26.297  1.00  0.00    -0.237 OA
ATOM     77  O   UNL A   1      42.727  22.654  24.874  1.00  0.00    -0.744 OA
ENDBRANCH  71  74
ENDBRANCH  43  67
BRANCH  55  78
ATOM     78  C   UNL A   1      44.784  27.193  34.032  1.00  0.00     0.023 A 
ATOM     79  C   UNL A   1      46.017  27.873  34.012  1.00  0.00     0.012 A 
ATOM     80  C   UNL A   1      44.681  25.965  34.716  1.00  0.00     0.148 A 
ATOM     81  C   UNL A   1      47.138  27.325  34.634  1.00  0.00     0.002 A 
ATOM     82  C   UNL A   1      45.790  25.450  35.376  1.00  0.00     0.091 A 
ATOM     83  F   UNL A   1      43.502  25.327  34.710  1.00  0.00    -0.205 F 
ATOM     84  C   UNL A   1      47.022  26.122  35.325  1.00  0.00     0.022 A 
BRANCH  82  85
ATOM     85  S   UNL A   1      45.712  23.955  36.371  1.00  0.00     0.127 S 
ATOM     86  O   UNL A   1      45.145  24.458  37.620  1.00  0.00    -0.237 OA
ATOM     87  O   UNL A   1      44.810  23.110  35.589  1.00  0.00    -0.237 OA
ATOM     88  O   UNL A   1      47.079  23.460  36.460  1.00  0.00    -0.744 OA
ENDBRANCH  82  85
ENDBRANCH  55  78
ENDBRANCH  29  30
ENDBRANCH  22  24
ENDBRANCH  21  22
ENDBRANCH  20  21
ENDBRANCH   1  20
TORSDOF 20
ENDMDL
MODEL 2
REMARK VINA RESULT:     -10.8      0.870      7.746
REMARK SMILES O=C(/C=C/c1ccc(O)c(O)c1)OCCOCCOC(=O)c1ccc(-c2c3nc(c(-c4cccc(S(=O)(=O)[O-])c4F)c4ccc([nH]4)c(-c4cccc(S(=O)(=O)[O-])c4F)c4nc(c(-c5cccc(S(=O)(=O)[O-])c5F)c5ccc2[nH]5)C=C4)C=C3)cc1
REMARK SMILES IDX 17 1 16 2 15 3 14 4 13 5 2 6 1 7 3 8 4 9 5 10 6 11 12 12
REMARK SMILES IDX 7 13 10 14 8 15 11 16 9 18 18 20 19 21 20 22 21 23 22 24
REMARK SMILES IDX 23 25 84 26 24 27 83 28 25 29 26 30 27 31 77 32 28 33 82 34
REMARK SMILES IDX 76 35 78 36 29 37 81 38 75 39 74 40 30 42 62 43 42 44 61 45
REMARK SMILES IDX 43 46 46 47 60 48 79 49 44 50 45 51 59 53 80 54 47 55 31 56
REMARK SMILES IDX 32 57 40 58 33 59 35 60 41 61 34 62 36 63 37 64 38 65 39 66
REMARK SMILES IDX 63 67 64 68 72 69 65 70 67 71 73 72 66 73 68 74 69 75 70 76
REMARK SMILES IDX 71 77 48 78 49 79 57 80 50 81 52 82 58 83 51 84 53 85 54 86
REMARK SMILES IDX 55 87 56 88
REMARK H PARENT 11 17 9 19 78 41 46 52
REMARK Flexibility Score: inf
ROOT
ATOM      1  C   UNL A   1      31.323  31.558  26.400  1.00  0.00     0.202 C 
ENDROOT
BRANCH   1   2
ATOM      2  O   UNL A   1      32.366  30.653  26.786  1.00  0.00    -0.374 OA
BRANCH   2   3
ATOM      3  C   UNL A   1      32.852  29.846  25.714  1.00  0.00     0.202 C 
BRANCH   3   4
ATOM      4  C   UNL A   1      32.510  28.362  25.821  1.00  0.00     0.261 C 
BRANCH   4   5
ATOM      5  O   UNL A   1      32.279  27.706  24.560  1.00  0.00    -0.460 OA
BRANCH   5   6
ATOM      6  C   UNL A   1      31.105  27.573  23.907  1.00  0.00     0.330 C 
ATOM      7  O   UNL A   1      30.565  26.474  23.803  1.00  0.00    -0.247 OA
BRANCH   6   8
ATOM      8  C   UNL A   1      30.505  28.703  23.180  1.00  0.00     0.094 C 
ATOM      9  C   UNL A   1      29.242  29.139  23.252  1.00  0.00     0.016 C 
BRANCH   9  10
ATOM     10  C   UNL A   1      28.815  30.332  22.525  1.00  0.00    -0.021 A 
ATOM     11  C   UNL A   1      28.263  30.216  21.242  1.00  0.00     0.012 A 
ATOM     12  C   UNL A   1      28.941  31.593  23.120  1.00  0.00     0.058 A 
ATOM     13  C   UNL A   1      27.805  31.349  20.564  1.00  0.00     0.051 A 
ATOM     14  C   UNL A   1      28.483  32.712  22.440  1.00  0.00     0.157 A 
ATOM     15  C   UNL A   1      27.908  32.593  21.176  1.00  0.00     0.157 A 
BRANCH  14  16
ATOM     16  O   UNL A   1      28.584  33.941  23.027  1.00  0.00    -0.504 OA
ATOM     17  H   UNL A   1      28.074  34.141  23.787  1.00  0.00     0.293 HD
ENDBRANCH  14  16
BRANCH  15  18
ATOM     18  O   UNL A   1      27.449  33.732  20.574  1.00  0.00    -0.504 OA
ATOM     19  H   UNL A   1      27.116  34.435  21.096  1.00  0.00     0.293 HD
ENDBRANCH  15  18
ENDBRANCH   9  10
ENDBRANCH   6   8
ENDBRANCH   5   6
ENDBRANCH   4   5
ENDBRANCH   3   4
ENDBRANCH   2   3
ENDBRANCH   1   2
BRANCH   1  20
ATOM     20  C   UNL A   1      31.570  32.999  26.862  1.00  0.00     0.261 C 
BRANCH  20  21
ATOM     21  O   UNL A   1      32.977  33.257  27.001  1.00  0.00    -0.460 OA
BRANCH  21  22
ATOM     22  C   UNL A   1      33.330  33.992  28.085  1.00  0.00     0.338 C 
ATOM     23  O   UNL A   1      32.679  34.872  28.623  1.00  0.00    -0.246 OA
BRANCH  22  24
ATOM     24  C   UNL A   1      34.556  33.409  28.670  1.00  0.00     0.060 A 
ATOM     25  C   UNL A   1      34.415  32.284  29.496  1.00  0.00     0.016 A 
ATOM     26  C   UNL A   1      35.826  33.912  28.375  1.00  0.00     0.016 A 
ATOM     27  C   UNL A   1      35.542  31.659  30.028  1.00  0.00     0.010 A 
ATOM     28  C   UNL A   1      36.953  33.295  28.922  1.00  0.00     0.010 A 
ATOM     29  C   UNL A   1      36.816  32.175  29.760  1.00  0.00    -0.014 A 
BRANCH  29  30
ATOM     30  C   UNL A   1      38.006  31.621  30.446  1.00  0.00     0.031 A 
ATOM     31  C   UNL A   1      38.793  30.540  29.763  1.00  0.00     0.074 A 
ATOM     32  C   UNL A   1      38.349  32.046  31.676  1.00  0.00     0.049 A 
ATOM     33  N   UNL A   1      39.815  29.858  30.205  1.00  0.00    -0.248 NA
ATOM     34  C   UNL A   1      38.366  30.174  28.401  1.00  0.00     0.031 C 
ATOM     35  C   UNL A   1      37.655  33.083  32.439  1.00  0.00     0.029 A 
ATOM     36  N   UNL A   1      39.349  31.622  32.517  1.00  0.00    -0.354 N 
ATOM     37  C   UNL A   1      40.135  28.960  29.195  1.00  0.00     0.074 A 
ATOM     38  C   UNL A   1      39.199  29.183  28.114  1.00  0.00     0.031 C 
ATOM     39  C   UNL A   1      38.224  33.185  33.653  1.00  0.00     0.029 A 
ATOM     40  C   UNL A   1      39.302  32.204  33.762  1.00  0.00     0.049 A 
ATOM     41  H   UNL A   1      40.034  30.965  32.253  1.00  0.00     0.167 HD
ATOM     42  C   UNL A   1      41.125  28.038  29.168  1.00  0.00     0.034 A 
ATOM     43  C   UNL A   1      40.023  31.947  34.872  1.00  0.00     0.034 A 
ATOM     44  C   UNL A   1      42.064  27.834  30.236  1.00  0.00     0.049 A 
ATOM     45  C   UNL A   1      41.103  30.895  34.818  1.00  0.00     0.074 A 
ATOM     46  C   UNL A   1      43.147  26.973  30.272  1.00  0.00     0.029 A 
ATOM     47  N   UNL A   1      42.021  28.477  31.461  1.00  0.00    -0.354 N 
ATOM     48  N   UNL A   1      41.491  30.160  33.804  1.00  0.00    -0.248 NA
ATOM     49  C   UNL A   1      41.863  30.657  36.054  1.00  0.00     0.031 C 
ATOM     50  C   UNL A   1      43.740  27.072  31.535  1.00  0.00     0.029 A 
ATOM     51  C   UNL A   1      43.043  28.017  32.272  1.00  0.00     0.049 A 
ATOM     52  H   UNL A   1      41.361  29.161  31.718  1.00  0.00     0.167 HD
ATOM     53  C   UNL A   1      42.555  29.395  34.272  1.00  0.00     0.074 A 
ATOM     54  C   UNL A   1      42.770  29.777  35.652  1.00  0.00     0.031 C 
ATOM     55  C   UNL A   1      43.277  28.445  33.626  1.00  0.00     0.034 A 
BRANCH  42  56
ATOM     56  C   UNL A   1      41.264  27.190  27.934  1.00  0.00     0.023 A 
ATOM     57  C   UNL A   1      41.907  27.715  26.796  1.00  0.00     0.012 A 
ATOM     58  C   UNL A   1      40.836  25.848  27.935  1.00  0.00     0.148 A 
ATOM     59  C   UNL A   1      42.109  26.920  25.668  1.00  0.00     0.002 A 
ATOM     60  C   UNL A   1      41.078  25.051  26.823  1.00  0.00     0.091 A 
ATOM     61  F   UNL A   1      40.207  25.379  29.020  1.00  0.00    -0.205 F 
ATOM     62  C   UNL A   1      41.706  25.587  25.686  1.00  0.00     0.022 A 
BRANCH  60  63
ATOM     63  S   UNL A   1      40.667  23.303  26.774  1.00  0.00     0.127 S 
ATOM     64  O   UNL A   1      39.231  23.346  26.496  1.00  0.00    -0.237 OA
ATOM     65  O   UNL A   1      41.489  22.829  25.660  1.00  0.00    -0.237 OA
ATOM     66  O   UNL A   1      41.031  22.765  28.076  1.00  0.00    -0.744 OA
ENDBRANCH  60  63
ENDBRANCH  42  56
BRANCH  43  67
ATOM     67  C   UNL A   1      39.759  32.696  36.134  1.00  0.00     0.023 A 
ATOM     68  C   UNL A   1      40.481  33.874  36.410  1.00  0.00     0.012 A 
ATOM     69  C   UNL A   1      38.812  32.239  37.069  1.00  0.00     0.148 A 
ATOM     70  C   UNL A   1      40.292  34.561  37.611  1.00  0.00     0.002 A 
ATOM     71  C   UNL A   1      38.585  32.959  38.238  1.00  0.00     0.091 A 
ATOM     72  F   UNL A   1      38.151  31.104  36.803  1.00  0.00    -0.205 F 
ATOM     73  C   UNL A   1      39.339  34.109  38.519  1.00  0.00     0.022 A 
BRANCH  71  74
ATOM     74  S   UNL A   1      37.289  32.518  39.399  1.00  0.00     0.127 S 
ATOM     75  O   UNL A   1      37.731  31.205  39.858  1.00  0.00    -0.237 OA
ATOM     76  O   UNL A   1      37.395  33.588  40.393  1.00  0.00    -0.237 OA
ATOM     77  O   UNL A   1      36.053  32.541  38.627  1.00  0.00    -0.744 OA
ENDBRANCH  71  74
ENDBRANCH  43  67
BRANCH  55  78
ATOM     78  C   UNL A   1      44.385  27.766  34.390  1.00  0.00     0.023 A 
ATOM     79  C   UNL A   1      45.680  28.320  34.381  1.00  0.00     0.012 A 
ATOM     80  C   UNL A   1      44.125  26.628  35.179  1.00  0.00     0.148 A 
ATOM     81  C   UNL A   1      46.706  27.734  35.120  1.00  0.00     0.002 A 
ATOM     82  C   UNL A   1      45.141  26.078  35.951  1.00  0.00     0.091 A 
ATOM     83  F   UNL A   1      42.889  26.107  35.162  1.00  0.00    -0.205 F 
ATOM     84  C   UNL A   1      46.435  26.622  35.913  1.00  0.00     0.022 A 
BRANCH  82  85
ATOM     85  S   UNL A   1      44.862  24.705  37.076  1.00  0.00     0.127 S 
ATOM     86  O   UNL A   1      43.630  25.114  37.746  1.00  0.00    -0.237 OA
ATOM     87  O   UNL A   1      44.711  23.577  36.156  1.00  0.00    -0.237 OA
ATOM     88  O   UNL A   1      46.043  24.637  37.928  1.00  0.00    -0.744 OA
ENDBRANCH  82  85
ENDBRANCH  55  78
ENDBRANCH  29  30
ENDBRANCH  22  24
ENDBRANCH  21  22
ENDBRANCH  20  21
ENDBRANCH   1  20
TORSDOF 20
ENDMDL
MODEL 3
REMARK VINA RESULT:     -10.7      5.447      8.307
REMARK SMILES O=C(/C=C/c1ccc(O)c(O)c1)OCCOCCOC(=O)c1ccc(-c2c3nc(c(-c4cccc(S(=O)(=O)[O-])c4F)c4ccc([nH]4)c(-c4cccc(S(=O)(=O)[O-])c4F)c4nc(c(-c5cccc(S(=O)(=O)[O-])c5F)c5ccc2[nH]5)C=C4)C=C3)cc1
REMARK SMILES IDX 17 1 16 2 15 3 14 4 13 5 2 6 1 7 3 8 4 9 5 10 6 11 12 12
REMARK SMILES IDX 7 13 10 14 8 15 11 16 9 18 18 20 19 21 20 22 21 23 22 24
REMARK SMILES IDX 23 25 84 26 24 27 83 28 25 29 26 30 27 31 77 32 28 33 82 34
REMARK SMILES IDX 76 35 78 36 29 37 81 38 75 39 74 40 30 42 62 43 42 44 61 45
REMARK SMILES IDX 43 46 46 47 60 48 79 49 44 50 45 51 59 53 80 54 47 55 31 56
REMARK SMILES IDX 32 57 40 58 33 59 35 60 41 61 34 62 36 63 37 64 38 65 39 66
REMARK SMILES IDX 63 67 64 68 72 69 65 70 67 71 73 72 66 73 68 74 69 75 70 76
REMARK SMILES IDX 71 77 48 78 49 79 57 80 50 81 52 82 58 83 51 84 53 85 54 86
REMARK SMILES IDX 55 87 56 88
REMARK H PARENT 11 17 9 19 78 41 46 52
REMARK Flexibility Score: inf
ROOT
ATOM      1  C   UNL A   1      35.636  20.365  24.972  1.00  0.00     0.202 C 
ENDROOT
BRANCH   1   2
ATOM      2  O   UNL A   1      35.207  21.264  26.003  1.00  0.00    -0.374 OA
BRANCH   2   3
ATOM      3  C   UNL A   1      34.534  22.422  25.511  1.00  0.00     0.202 C 
BRANCH   3   4
ATOM      4  C   UNL A   1      33.145  22.160  24.935  1.00  0.00     0.261 C 
BRANCH   4   5
ATOM      5  O   UNL A   1      32.055  22.521  25.805  1.00  0.00    -0.460 OA
BRANCH   5   6
ATOM      6  C   UNL A   1      31.710  23.760  26.217  1.00  0.00     0.330 C 
ATOM      7  O   UNL A   1      31.380  23.964  27.383  1.00  0.00    -0.247 OA
BRANCH   6   8
ATOM      8  C   UNL A   1      31.577  24.871  25.262  1.00  0.00     0.094 C 
ATOM      9  C   UNL A   1      30.609  25.793  25.215  1.00  0.00     0.016 C 
BRANCH   9  10
ATOM     10  C   UNL A   1      30.659  26.891  24.252  1.00  0.00    -0.021 A 
ATOM     11  C   UNL A   1      29.508  27.260  23.542  1.00  0.00     0.012 A 
ATOM     12  C   UNL A   1      31.858  27.586  24.050  1.00  0.00     0.058 A 
ATOM     13  C   UNL A   1      29.539  28.342  22.659  1.00  0.00     0.051 A 
ATOM     14  C   UNL A   1      31.878  28.660  23.171  1.00  0.00     0.157 A 
ATOM     15  C   UNL A   1      30.726  29.044  22.488  1.00  0.00     0.157 A 
BRANCH  14  16
ATOM     16  O   UNL A   1      33.040  29.354  22.990  1.00  0.00    -0.504 OA
ATOM     17  H   UNL A   1      33.030  30.291  22.983  1.00  0.00     0.293 HD
ENDBRANCH  14  16
BRANCH  15  18
ATOM     18  O   UNL A   1      30.807  30.130  21.661  1.00  0.00    -0.504 OA
ATOM     19  H   UNL A   1      30.025  30.526  21.331  1.00  0.00     0.293 HD
ENDBRANCH  15  18
ENDBRANCH   9  10
ENDBRANCH   6   8
ENDBRANCH   5   6
ENDBRANCH   4   5
ENDBRANCH   3   4
ENDBRANCH   2   3
ENDBRANCH   1   2
BRANCH   1  20
ATOM     20  C   UNL A   1      37.162  20.254  24.861  1.00  0.00     0.261 C 
BRANCH  20  21
ATOM     21  O   UNL A   1      37.807  21.222  25.705  1.00  0.00    -0.460 OA
BRANCH  21  22
ATOM     22  C   UNL A   1      39.071  20.911  26.087  1.00  0.00     0.338 C 
ATOM     23  O   UNL A   1      39.660  19.859  25.904  1.00  0.00    -0.246 OA
BRANCH  22  24
ATOM     24  C   UNL A   1      39.729  22.141  26.578  1.00  0.00     0.060 A 
ATOM     25  C   UNL A   1      39.241  23.372  26.117  1.00  0.00     0.016 A 
ATOM     26  C   UNL A   1      40.765  22.100  27.515  1.00  0.00     0.016 A 
ATOM     27  C   UNL A   1      39.785  24.565  26.591  1.00  0.00     0.010 A 
ATOM     28  C   UNL A   1      41.321  23.296  27.976  1.00  0.00     0.010 A 
ATOM     29  C   UNL A   1      40.844  24.531  27.507  1.00  0.00    -0.014 A 
BRANCH  29  30
ATOM     30  C   UNL A   1      41.537  25.781  27.894  1.00  0.00     0.031 A 
ATOM     31  C   UNL A   1      40.760  26.839  28.625  1.00  0.00     0.074 A 
ATOM     32  C   UNL A   1      42.823  25.985  27.558  1.00  0.00     0.049 A 
ATOM     33  N   UNL A   1      41.136  28.035  28.990  1.00  0.00    -0.248 NA
ATOM     34  C   UNL A   1      39.372  26.505  28.987  1.00  0.00     0.031 C 
ATOM     35  C   UNL A   1      43.673  25.034  26.842  1.00  0.00     0.029 A 
ATOM     36  N   UNL A   1      43.627  27.083  27.741  1.00  0.00    -0.354 N 
ATOM     37  C   UNL A   1      40.026  28.611  29.594  1.00  0.00     0.074 A 
ATOM     38  C   UNL A   1      38.960  27.634  29.548  1.00  0.00     0.031 C 
ATOM     39  C   UNL A   1      44.868  25.607  26.609  1.00  0.00     0.029 A 
ATOM     40  C   UNL A   1      44.856  26.971  27.134  1.00  0.00     0.049 A 
ATOM     41  H   UNL A   1      43.351  27.875  28.258  1.00  0.00     0.167 HD
ATOM     42  C   UNL A   1      39.909  29.842  30.145  1.00  0.00     0.034 A 
ATOM     43  C   UNL A   1      45.843  27.879  26.988  1.00  0.00     0.034 A 
ATOM     44  C   UNL A   1      40.976  30.802  30.206  1.00  0.00     0.049 A 
ATOM     45  C   UNL A   1      45.672  29.251  27.591  1.00  0.00     0.074 A 
ATOM     46  C   UNL A   1      40.975  32.047  30.807  1.00  0.00     0.029 A 
ATOM     47  N   UNL A   1      42.224  30.635  29.628  1.00  0.00    -0.354 N 
ATOM     48  N   UNL A   1      44.671  29.728  28.291  1.00  0.00    -0.248 NA
ATOM     49  C   UNL A   1      46.779  30.202  27.407  1.00  0.00     0.031 C 
ATOM     50  C   UNL A   1      42.214  32.650  30.563  1.00  0.00     0.029 A 
ATOM     51  C   UNL A   1      42.995  31.765  29.837  1.00  0.00     0.049 A 
ATOM     52  H   UNL A   1      42.519  29.832  29.141  1.00  0.00     0.167 HD
ATOM     53  C   UNL A   1      45.040  31.020  28.653  1.00  0.00     0.074 A 
ATOM     54  C   UNL A   1      46.368  31.241  28.120  1.00  0.00     0.031 C 
ATOM     55  C   UNL A   1      44.335  31.950  29.345  1.00  0.00     0.034 A 
BRANCH  42  56
ATOM     56  C   UNL A   1      38.586  30.220  30.750  1.00  0.00     0.023 A 
ATOM     57  C   UNL A   1      38.302  29.867  32.084  1.00  0.00     0.012 A 
ATOM     58  C   UNL A   1      37.661  30.998  30.025  1.00  0.00     0.148 A 
ATOM     59  C   UNL A   1      37.110  30.270  32.685  1.00  0.00     0.002 A 
ATOM     60  C   UNL A   1      36.496  31.430  30.644  1.00  0.00     0.091 A 
ATOM     61  F   UNL A   1      37.943  31.300  28.751  1.00  0.00    -0.205 F 
ATOM     62  C   UNL A   1      36.214  31.061  31.970  1.00  0.00     0.022 A 
BRANCH  60  63
ATOM     63  S   UNL A   1      35.312  32.514  29.836  1.00  0.00     0.127 S 
ATOM     64  O   UNL A   1      34.848  31.673  28.732  1.00  0.00    -0.237 OA
ATOM     65  O   UNL A   1      34.325  32.730  30.894  1.00  0.00    -0.237 OA
ATOM     66  O   UNL A   1      36.056  33.701  29.440  1.00  0.00    -0.744 OA
ENDBRANCH  60  63
ENDBRANCH  42  56
BRANCH  43  67
ATOM     67  C   UNL A   1      47.088  27.529  26.245  1.00  0.00     0.023 A 
ATOM     68  C   UNL A   1      48.176  26.960  26.935  1.00  0.00     0.012 A 
ATOM     69  C   UNL A   1      47.205  27.772  24.863  1.00  0.00     0.148 A 
ATOM     70  C   UNL A   1      49.371  26.677  26.271  1.00  0.00     0.002 A 
ATOM     71  C   UNL A   1      48.377  27.433  24.196  1.00  0.00     0.091 A 
ATOM     72  F   UNL A   1      46.169  28.336  24.226  1.00  0.00    -0.205 F 
ATOM     73  C   UNL A   1      49.468  26.905  24.902  1.00  0.00     0.022 A 
BRANCH  71  74
ATOM     74  S   UNL A   1      48.539  27.575  22.413  1.00  0.00     0.127 S 
ATOM     75  O   UNL A   1      49.821  28.262  22.282  1.00  0.00    -0.237 OA
ATOM     76  O   UNL A   1      48.545  26.171  21.996  1.00  0.00    -0.237 OA
ATOM     77  O   UNL A   1      47.368  28.322  21.975  1.00  0.00    -0.744 OA
ENDBRANCH  71  74
ENDBRANCH  43  67
BRANCH  55  78
ATOM     78  C   UNL A   1      44.989  33.285  29.592  1.00  0.00     0.023 A 
ATOM     79  C   UNL A   1      45.762  33.479  30.754  1.00  0.00     0.012 A 
ATOM     80  C   UNL A   1      44.905  34.317  28.637  1.00  0.00     0.148 A 
ATOM     81  C   UNL A   1      46.414  34.691  30.977  1.00  0.00     0.002 A 
ATOM     82  C   UNL A   1      45.598  35.504  28.842  1.00  0.00     0.091 A 
ATOM     83  F   UNL A   1      44.153  34.117  27.545  1.00  0.00    -0.205 F 
ATOM     84  C   UNL A   1      46.342  35.697  30.017  1.00  0.00     0.022 A 
BRANCH  82  85
ATOM     85  S   UNL A   1      45.643  36.819  27.618  1.00  0.00     0.127 S 
ATOM     86  O   UNL A   1      46.098  36.104  26.428  1.00  0.00    -0.237 OA
ATOM     87  O   UNL A   1      44.245  37.248  27.574  1.00  0.00    -0.237 OA
ATOM     88  O   UNL A   1      46.566  37.820  28.137  1.00  0.00    -0.744 OA
ENDBRANCH  82  85
ENDBRANCH  55  78
ENDBRANCH  29  30
ENDBRANCH  22  24
ENDBRANCH  21  22
ENDBRANCH  20  21
ENDBRANCH   1  20
TORSDOF 20
ENDMDL
