MODEL 1
REMARK VINA RESULT:     -11.9      0.000      0.000
REMARK SMILES C[C@@H](C(=O)OCCOCCOC(=O)c1ccc(-c2c3nc(c(-c4cccc(S(=O)(=O)[O-])c4F)c4ccc([nH]4)c(-c4cccc(S(=O)(=O)[O-])c4F)c4nc(c(-c5cccc(S(=O)(=O)[O-])c5F)c5ccc2[nH]5)C=C4)C=C3)cc1)c1ccc(-c2ccccc2)c(F)c1
REMARK SMILES IDX 9 1 8 2 7 3 6 4 5 5 3 6 4 7 2 8 1 9 77 10 78 11 89 12 79 13
REMARK SMILES IDX 87 14 80 15 88 16 81 17 82 18 86 19 83 20 85 21 84 22 10 23
REMARK SMILES IDX 11 24 12 25 13 26 14 27 15 28 76 29 16 30 75 31 17 32 18 33
REMARK SMILES IDX 19 34 69 35 20 36 74 37 68 38 70 39 21 40 73 41 67 42 66 43
REMARK SMILES IDX 22 45 54 46 34 47 53 48 35 49 38 50 52 51 71 52 36 53 37 54
REMARK SMILES IDX 51 56 72 57 39 58 23 59 24 60 32 61 25 62 27 63 33 64 26 65
REMARK SMILES IDX 28 66 29 67 30 68 31 69 55 70 56 71 64 72 57 73 59 74 65 75
REMARK SMILES IDX 58 76 60 77 61 78 62 79 63 80 40 81 41 82 49 83 42 84 44 85
REMARK SMILES IDX 50 86 43 87 45 88 46 89 47 90 48 91
REMARK H PARENT 70 44 38 55
REMARK Flexibility Score: inf
ROOT
ATOM      1  C   UNL A   1      35.115  21.502  25.080  1.00  0.00     0.202 C 
ENDROOT
BRANCH   1   2
ATOM      2  O   UNL A   1      34.754  22.254  26.235  1.00  0.00    -0.374 OA
BRANCH   2   3
ATOM      3  C   UNL A   1      33.506  21.923  26.855  1.00  0.00     0.202 C 
BRANCH   3   4
ATOM      4  C   UNL A   1      32.544  23.088  27.110  1.00  0.00     0.261 C 
BRANCH   4   5
ATOM      5  O   UNL A   1      32.429  23.913  25.934  1.00  0.00    -0.463 OA
BRANCH   5   6
ATOM      6  C   UNL A   1      31.338  24.720  25.868  1.00  0.00     0.313 C 
ATOM      7  O   UNL A   1      31.009  25.505  26.752  1.00  0.00    -0.252 OA
BRANCH   6   8
ATOM      8  C   UNL A   1      30.568  24.573  24.545  1.00  0.00     0.126 C 
ATOM      9  C   UNL A   1      31.262  23.743  23.459  1.00  0.00     0.025 C 
BRANCH   8  10
ATOM     10  C   UNL A   1      30.179  25.941  23.990  1.00  0.00    -0.031 A 
ATOM     11  C   UNL A   1      31.153  26.859  23.571  1.00  0.00     0.005 A 
ATOM     12  C   UNL A   1      28.838  26.333  23.927  1.00  0.00     0.044 A 
ATOM     13  C   UNL A   1      30.809  28.143  23.145  1.00  0.00     0.012 A 
ATOM     14  C   UNL A   1      28.500  27.625  23.508  1.00  0.00     0.131 A 
ATOM     15  C   UNL A   1      29.473  28.561  23.124  1.00  0.00     0.017 A 
ATOM     16  F   UNL A   1      27.201  27.963  23.500  1.00  0.00    -0.206 F 
BRANCH  15  17
ATOM     17  C   UNL A   1      29.152  29.953  22.776  1.00  0.00    -0.015 A 
ATOM     18  C   UNL A   1      29.168  30.968  23.748  1.00  0.00     0.009 A 
ATOM     19  C   UNL A   1      28.738  30.291  21.478  1.00  0.00     0.009 A 
ATOM     20  C   UNL A   1      28.775  32.272  23.436  1.00  0.00     0.001 A 
ATOM     21  C   UNL A   1      28.345  31.593  21.163  1.00  0.00     0.001 A 
ATOM     22  C   UNL A   1      28.360  32.582  22.143  1.00  0.00     0.000 A 
ENDBRANCH  15  17
ENDBRANCH   8  10
ENDBRANCH   6   8
ENDBRANCH   5   6
ENDBRANCH   4   5
ENDBRANCH   3   4
ENDBRANCH   2   3
ENDBRANCH   1   2
BRANCH   1  23
ATOM     23  C   UNL A   1      36.433  20.725  25.121  1.00  0.00     0.261 C 
BRANCH  23  24
ATOM     24  O   UNL A   1      37.569  21.589  24.995  1.00  0.00    -0.460 OA
BRANCH  24  25
ATOM     25  C   UNL A   1      38.623  21.221  25.758  1.00  0.00     0.338 C 
ATOM     26  O   UNL A   1      39.149  20.115  25.808  1.00  0.00    -0.246 OA
BRANCH  25  27
ATOM     27  C   UNL A   1      39.205  22.405  26.406  1.00  0.00     0.060 A 
ATOM     28  C   UNL A   1      38.624  23.643  26.105  1.00  0.00     0.016 A 
ATOM     29  C   UNL A   1      40.315  22.321  27.250  1.00  0.00     0.016 A 
ATOM     30  C   UNL A   1      39.189  24.813  26.594  1.00  0.00     0.010 A 
ATOM     31  C   UNL A   1      40.888  23.500  27.735  1.00  0.00     0.010 A 
ATOM     32  C   UNL A   1      40.353  24.749  27.371  1.00  0.00    -0.014 A 
BRANCH  32  33
ATOM     33  C   UNL A   1      41.096  25.997  27.655  1.00  0.00     0.031 A 
ATOM     34  C   UNL A   1      40.403  27.090  28.421  1.00  0.00     0.074 A 
ATOM     35  C   UNL A   1      42.373  26.139  27.263  1.00  0.00     0.049 A 
ATOM     36  N   UNL A   1      40.857  28.260  28.786  1.00  0.00    -0.248 NA
ATOM     37  C   UNL A   1      39.011  26.831  28.830  1.00  0.00     0.031 C 
ATOM     38  C   UNL A   1      43.147  25.139  26.529  1.00  0.00     0.029 A 
ATOM     39  N   UNL A   1      43.240  27.191  27.417  1.00  0.00    -0.354 N 
ATOM     40  C   UNL A   1      39.801  28.889  29.436  1.00  0.00     0.074 A 
ATOM     41  C   UNL A   1      38.681  27.976  29.409  1.00  0.00     0.031 C 
ATOM     42  C   UNL A   1      44.369  25.636  26.274  1.00  0.00     0.029 A 
ATOM     43  C   UNL A   1      44.455  26.995  26.806  1.00  0.00     0.049 A 
ATOM     44  H   UNL A   1      43.012  28.009  27.916  1.00  0.00     0.167 HD
ATOM     45  C   UNL A   1      39.774  30.111  30.015  1.00  0.00     0.034 A 
ATOM     46  C   UNL A   1      45.505  27.828  26.676  1.00  0.00     0.034 A 
ATOM     47  C   UNL A   1      40.900  31.003  30.058  1.00  0.00     0.049 A 
ATOM     48  C   UNL A   1      45.438  29.193  27.309  1.00  0.00     0.074 A 
ATOM     49  C   UNL A   1      40.993  32.241  30.668  1.00  0.00     0.029 A 
ATOM     50  N   UNL A   1      42.124  30.760  29.456  1.00  0.00    -0.354 N 
ATOM     51  N   UNL A   1      44.477  29.726  28.025  1.00  0.00    -0.248 NA
ATOM     52  C   UNL A   1      46.615  30.058  27.147  1.00  0.00     0.031 C 
ATOM     53  C   UNL A   1      42.264  32.761  30.404  1.00  0.00     0.029 A 
ATOM     54  C   UNL A   1      42.974  31.831  29.662  1.00  0.00     0.049 A 
ATOM     55  H   UNL A   1      42.356  29.944  28.955  1.00  0.00     0.167 HD
ATOM     56  C   UNL A   1      44.947  30.972  28.430  1.00  0.00     0.074 A 
ATOM     57  C   UNL A   1      46.287  31.104  27.894  1.00  0.00     0.031 C 
ATOM     58  C   UNL A   1      44.324  31.925  29.167  1.00  0.00     0.034 A 
BRANCH  45  59
ATOM     59  C   UNL A   1      38.488  30.552  30.662  1.00  0.00     0.023 A 
ATOM     60  C   UNL A   1      38.272  30.311  32.034  1.00  0.00     0.012 A 
ATOM     61  C   UNL A   1      37.517  31.256  29.923  1.00  0.00     0.148 A 
ATOM     62  C   UNL A   1      37.097  30.737  32.653  1.00  0.00     0.002 A 
ATOM     63  C   UNL A   1      36.370  31.717  30.556  1.00  0.00     0.091 A 
ATOM     64  F   UNL A   1      37.730  31.453  28.614  1.00  0.00    -0.205 F 
ATOM     65  C   UNL A   1      36.153  31.449  31.918  1.00  0.00     0.022 A 
BRANCH  63  66
ATOM     66  S   UNL A   1      35.133  32.709  29.715  1.00  0.00     0.127 S 
ATOM     67  O   UNL A   1      34.189  32.985  30.797  1.00  0.00    -0.237 OA
ATOM     68  O   UNL A   1      35.912  33.866  29.276  1.00  0.00    -0.237 OA
ATOM     69  O   UNL A   1      34.616  31.880  28.635  1.00  0.00    -0.744 OA
ENDBRANCH  63  66
ENDBRANCH  45  59
BRANCH  46  70
ATOM     70  C   UNL A   1      46.723  27.384  25.941  1.00  0.00     0.023 A 
ATOM     71  C   UNL A   1      46.821  27.611  24.554  1.00  0.00     0.012 A 
ATOM     72  C   UNL A   1      47.788  26.751  26.610  1.00  0.00     0.148 A 
ATOM     73  C   UNL A   1      47.943  27.186  23.842  1.00  0.00     0.002 A 
ATOM     74  C   UNL A   1      48.927  26.381  25.905  1.00  0.00     0.091 A 
ATOM     75  F   UNL A   1      47.668  26.529  27.927  1.00  0.00    -0.205 F 
ATOM     76  C   UNL A   1      48.999  26.580  24.519  1.00  0.00     0.022 A 
BRANCH  74  77
ATOM     77  S   UNL A   1      50.384  25.713  26.715  1.00  0.00     0.127 S 
ATOM     78  O   UNL A   1      49.878  24.454  27.252  1.00  0.00    -0.237 OA
ATOM     79  O   UNL A   1      51.315  25.577  25.594  1.00  0.00    -0.237 OA
ATOM     80  O   UNL A   1      50.778  26.711  27.702  1.00  0.00    -0.744 OA
ENDBRANCH  74  77
ENDBRANCH  46  70
BRANCH  58  81
ATOM     81  C   UNL A   1      45.093  33.181  29.480  1.00  0.00     0.023 A 
ATOM     82  C   UNL A   1      45.909  33.240  30.627  1.00  0.00     0.012 A 
ATOM     83  C   UNL A   1      45.067  34.276  28.592  1.00  0.00     0.148 A 
ATOM     84  C   UNL A   1      46.660  34.383  30.904  1.00  0.00     0.002 A 
ATOM     85  C   UNL A   1      45.858  35.389  28.847  1.00  0.00     0.091 A 
ATOM     86  F   UNL A   1      44.272  34.206  27.514  1.00  0.00    -0.205 F 
ATOM     87  C   UNL A   1      46.644  35.450  30.009  1.00  0.00     0.022 A 
BRANCH  85  88
ATOM     88  S   UNL A   1      45.979  36.767  27.701  1.00  0.00     0.127 S 
ATOM     89  O   UNL A   1      44.774  37.529  28.022  1.00  0.00    -0.237 OA
ATOM     90  O   UNL A   1      47.231  37.403  28.110  1.00  0.00    -0.237 OA
ATOM     91  O   UNL A   1      46.008  36.180  26.368  1.00  0.00    -0.744 OA
ENDBRANCH  85  88
ENDBRANCH  58  81
ENDBRANCH  32  33
ENDBRANCH  25  27
ENDBRANCH  24  25
ENDBRANCH  23  24
ENDBRANCH   1  23
TORSDOF 19
ENDMDL
MODEL 2
REMARK VINA RESULT:     -11.6      4.635      9.485
REMARK SMILES C[C@@H](C(=O)OCCOCCOC(=O)c1ccc(-c2c3nc(c(-c4cccc(S(=O)(=O)[O-])c4F)c4ccc([nH]4)c(-c4cccc(S(=O)(=O)[O-])c4F)c4nc(c(-c5cccc(S(=O)(=O)[O-])c5F)c5ccc2[nH]5)C=C4)C=C3)cc1)c1ccc(-c2ccccc2)c(F)c1
REMARK SMILES IDX 9 1 8 2 7 3 6 4 5 5 3 6 4 7 2 8 1 9 77 10 78 11 89 12 79 13
REMARK SMILES IDX 87 14 80 15 88 16 81 17 82 18 86 19 83 20 85 21 84 22 10 23
REMARK SMILES IDX 11 24 12 25 13 26 14 27 15 28 76 29 16 30 75 31 17 32 18 33
REMARK SMILES IDX 19 34 69 35 20 36 74 37 68 38 70 39 21 40 73 41 67 42 66 43
REMARK SMILES IDX 22 45 54 46 34 47 53 48 35 49 38 50 52 51 71 52 36 53 37 54
REMARK SMILES IDX 51 56 72 57 39 58 23 59 24 60 32 61 25 62 27 63 33 64 26 65
REMARK SMILES IDX 28 66 29 67 30 68 31 69 55 70 56 71 64 72 57 73 59 74 65 75
REMARK SMILES IDX 58 76 60 77 61 78 62 79 63 80 40 81 41 82 49 83 42 84 44 85
REMARK SMILES IDX 50 86 43 87 45 88 46 89 47 90 48 91
REMARK H PARENT 70 44 38 55
REMARK Flexibility Score: inf
ROOT
ATOM      1  C   UNL A   1      32.025  29.450  25.509  1.00  0.00     0.202 C 
ENDROOT
BRANCH   1   2
ATOM      2  O   UNL A   1      31.141  28.417  25.935  1.00  0.00    -0.374 OA
BRANCH   2   3
ATOM      3  C   UNL A   1      31.686  27.421  26.807  1.00  0.00     0.202 C 
BRANCH   3   4
ATOM      4  C   UNL A   1      32.836  26.580  26.243  1.00  0.00     0.261 C 
BRANCH   4   5
ATOM      5  O   UNL A   1      32.393  25.826  25.097  1.00  0.00    -0.463 OA
BRANCH   5   6
ATOM      6  C   UNL A   1      31.518  24.816  25.343  1.00  0.00     0.313 C 
ATOM      7  O   UNL A   1      31.515  24.141  26.367  1.00  0.00    -0.252 OA
BRANCH   6   8
ATOM      8  C   UNL A   1      30.496  24.626  24.209  1.00  0.00     0.126 C 
ATOM      9  C   UNL A   1      30.943  23.721  23.055  1.00  0.00     0.025 C 
BRANCH   8  10
ATOM     10  C   UNL A   1      30.031  25.976  23.667  1.00  0.00    -0.031 A 
ATOM     11  C   UNL A   1      30.892  26.795  22.923  1.00  0.00     0.005 A 
ATOM     12  C   UNL A   1      28.744  26.451  23.936  1.00  0.00     0.044 A 
ATOM     13  C   UNL A   1      30.504  28.067  22.499  1.00  0.00     0.012 A 
ATOM     14  C   UNL A   1      28.363  27.731  23.517  1.00  0.00     0.131 A 
ATOM     15  C   UNL A   1      29.234  28.571  22.806  1.00  0.00     0.017 A 
ATOM     16  F   UNL A   1      27.128  28.153  23.832  1.00  0.00    -0.206 F 
BRANCH  15  17
ATOM     17  C   UNL A   1      28.892  29.954  22.442  1.00  0.00    -0.015 A 
ATOM     18  C   UNL A   1      28.929  30.987  23.394  1.00  0.00     0.009 A 
ATOM     19  C   UNL A   1      28.440  30.264  21.149  1.00  0.00     0.009 A 
ATOM     20  C   UNL A   1      28.517  32.282  23.068  1.00  0.00     0.001 A 
ATOM     21  C   UNL A   1      28.027  31.558  20.822  1.00  0.00     0.001 A 
ATOM     22  C   UNL A   1      28.063  32.565  21.783  1.00  0.00     0.000 A 
ENDBRANCH  15  17
ENDBRANCH   8  10
ENDBRANCH   6   8
ENDBRANCH   5   6
ENDBRANCH   4   5
ENDBRANCH   3   4
ENDBRANCH   2   3
ENDBRANCH   1   2
BRANCH   1  23
ATOM     23  C   UNL A   1      31.789  30.859  26.058  1.00  0.00     0.261 C 
BRANCH  23  24
ATOM     24  O   UNL A   1      32.380  31.036  27.351  1.00  0.00    -0.460 OA
BRANCH  24  25
ATOM     25  C   UNL A   1      33.168  32.132  27.446  1.00  0.00     0.338 C 
ATOM     26  O   UNL A   1      32.820  33.303  27.353  1.00  0.00    -0.246 OA
BRANCH  25  27
ATOM     27  C   UNL A   1      34.516  31.738  27.882  1.00  0.00     0.060 A 
ATOM     28  C   UNL A   1      34.705  30.393  28.224  1.00  0.00     0.016 A 
ATOM     29  C   UNL A   1      35.559  32.659  27.997  1.00  0.00     0.016 A 
ATOM     30  C   UNL A   1      35.921  29.974  28.747  1.00  0.00     0.010 A 
ATOM     31  C   UNL A   1      36.780  32.238  28.530  1.00  0.00     0.010 A 
ATOM     32  C   UNL A   1      36.947  30.905  28.948  1.00  0.00    -0.014 A 
BRANCH  32  33
ATOM     33  C   UNL A   1      38.127  30.510  29.750  1.00  0.00     0.031 A 
ATOM     34  C   UNL A   1      39.124  29.561  29.146  1.00  0.00     0.074 A 
ATOM     35  C   UNL A   1      38.318  31.013  30.981  1.00  0.00     0.049 A 
ATOM     36  N   UNL A   1      40.227  29.084  29.658  1.00  0.00    -0.248 NA
ATOM     37  C   UNL A   1      38.841  29.084  27.780  1.00  0.00     0.031 C 
ATOM     38  C   UNL A   1      37.425  31.951  31.658  1.00  0.00     0.029 A 
ATOM     39  N   UNL A   1      39.324  30.790  31.887  1.00  0.00    -0.354 N 
ATOM     40  C   UNL A   1      40.752  28.228  28.696  1.00  0.00     0.074 A 
ATOM     41  C   UNL A   1      39.843  28.244  27.572  1.00  0.00     0.031 C 
ATOM     42  C   UNL A   1      37.910  32.206  32.885  1.00  0.00     0.029 A 
ATOM     43  C   UNL A   1      39.134  31.432  33.086  1.00  0.00     0.049 A 
ATOM     44  H   UNL A   1      40.107  30.224  31.695  1.00  0.00     0.167 HD
ATOM     45  C   UNL A   1      41.895  27.506  28.741  1.00  0.00     0.034 A 
ATOM     46  C   UNL A   1      39.857  31.381  34.222  1.00  0.00     0.034 A 
ATOM     47  C   UNL A   1      42.806  27.515  29.854  1.00  0.00     0.049 A 
ATOM     48  C   UNL A   1      41.112  30.550  34.253  1.00  0.00     0.074 A 
ATOM     49  C   UNL A   1      44.019  26.861  29.977  1.00  0.00     0.029 A 
ATOM     50  N   UNL A   1      42.597  28.200  31.040  1.00  0.00    -0.354 N 
ATOM     51  N   UNL A   1      41.658  29.842  33.293  1.00  0.00    -0.248 NA
ATOM     52  C   UNL A   1      41.870  30.538  35.512  1.00  0.00     0.031 C 
ATOM     53  C   UNL A   1      44.526  27.124  31.252  1.00  0.00     0.029 A 
ATOM     54  C   UNL A   1      43.648  27.971  31.910  1.00  0.00     0.049 A 
ATOM     55  H   UNL A   1      41.816  28.766  31.236  1.00  0.00     0.167 HD
ATOM     56  C   UNL A   1      42.841  29.331  33.820  1.00  0.00     0.074 A 
ATOM     57  C   UNL A   1      42.939  29.828  35.177  1.00  0.00     0.031 C 
ATOM     58  C   UNL A   1      43.757  28.517  33.238  1.00  0.00     0.034 A 
BRANCH  45  59
ATOM     59  C   UNL A   1      42.234  26.654  27.547  1.00  0.00     0.023 A 
ATOM     60  C   UNL A   1      42.922  27.218  26.454  1.00  0.00     0.012 A 
ATOM     61  C   UNL A   1      41.920  25.281  27.533  1.00  0.00     0.148 A 
ATOM     62  C   UNL A   1      43.266  26.435  25.352  1.00  0.00     0.002 A 
ATOM     63  C   UNL A   1      42.306  24.497  26.453  1.00  0.00     0.091 A 
ATOM     64  F   UNL A   1      41.244  24.769  28.571  1.00  0.00    -0.205 F 
ATOM     65  C   UNL A   1      42.969  25.075  25.357  1.00  0.00     0.022 A 
BRANCH  63  66
ATOM     66  S   UNL A   1      42.039  22.723  26.399  1.00  0.00     0.127 S 
ATOM     67  O   UNL A   1      42.741  22.282  27.604  1.00  0.00    -0.237 OA
ATOM     68  O   UNL A   1      40.581  22.629  26.474  1.00  0.00    -0.237 OA
ATOM     69  O   UNL A   1      42.613  22.266  25.141  1.00  0.00    -0.744 OA
ENDBRANCH  63  66
ENDBRANCH  45  59
BRANCH  46  70
ATOM     70  C   UNL A   1      39.429  32.166  35.414  1.00  0.00     0.023 A 
ATOM     71  C   UNL A   1      38.625  31.557  36.397  1.00  0.00     0.012 A 
ATOM     72  C   UNL A   1      39.826  33.506  35.586  1.00  0.00     0.148 A 
ATOM     73  C   UNL A   1      38.196  32.278  37.512  1.00  0.00     0.002 A 
ATOM     74  C   UNL A   1      39.442  34.202  36.726  1.00  0.00     0.091 A 
ATOM     75  F   UNL A   1      40.577  34.073  34.631  1.00  0.00    -0.205 F 
ATOM     76  C   UNL A   1      38.612  33.596  37.681  1.00  0.00     0.022 A 
BRANCH  74  77
ATOM     77  S   UNL A   1      40.036  35.858  37.088  1.00  0.00     0.127 S 
ATOM     78  O   UNL A   1      39.342  36.159  38.337  1.00  0.00    -0.237 OA
ATOM     79  O   UNL A   1      41.477  35.638  37.219  1.00  0.00    -0.237 OA
ATOM     80  O   UNL A   1      39.657  36.672  35.940  1.00  0.00    -0.744 OA
ENDBRANCH  74  77
ENDBRANCH  46  70
BRANCH  58  81
ATOM     81  C   UNL A   1      44.971  28.141  34.046  1.00  0.00     0.023 A 
ATOM     82  C   UNL A   1      46.117  28.961  34.019  1.00  0.00     0.012 A 
ATOM     83  C   UNL A   1      44.947  27.014  34.893  1.00  0.00     0.148 A 
ATOM     84  C   UNL A   1      47.231  28.647  34.797  1.00  0.00     0.002 A 
ATOM     85  C   UNL A   1      46.040  26.737  35.704  1.00  0.00     0.091 A 
ATOM     86  F   UNL A   1      43.854  26.237  34.892  1.00  0.00    -0.205 F 
ATOM     87  C   UNL A   1      47.188  27.544  35.647  1.00  0.00     0.022 A 
BRANCH  85  88
ATOM     88  S   UNL A   1      46.036  25.399  36.902  1.00  0.00     0.127 S 
ATOM     89  O   UNL A   1      47.421  25.414  37.371  1.00  0.00    -0.237 OA
ATOM     90  O   UNL A   1      45.054  25.862  37.882  1.00  0.00    -0.237 OA
ATOM     91  O   UNL A   1      45.640  24.204  36.168  1.00  0.00    -0.744 OA
ENDBRANCH  85  88
ENDBRANCH  58  81
ENDBRANCH  32  33
ENDBRANCH  25  27
ENDBRANCH  24  25
ENDBRANCH  23  24
ENDBRANCH   1  23
TORSDOF 19
ENDMDL
MODEL 3
REMARK VINA RESULT:     -11.4      4.930     10.470
REMARK SMILES C[C@@H](C(=O)OCCOCCOC(=O)c1ccc(-c2c3nc(c(-c4cccc(S(=O)(=O)[O-])c4F)c4ccc([nH]4)c(-c4cccc(S(=O)(=O)[O-])c4F)c4nc(c(-c5cccc(S(=O)(=O)[O-])c5F)c5ccc2[nH]5)C=C4)C=C3)cc1)c1ccc(-c2ccccc2)c(F)c1
REMARK SMILES IDX 9 1 8 2 7 3 6 4 5 5 3 6 4 7 2 8 1 9 77 10 78 11 89 12 79 13
REMARK SMILES IDX 87 14 80 15 88 16 81 17 82 18 86 19 83 20 85 21 84 22 10 23
REMARK SMILES IDX 11 24 12 25 13 26 14 27 15 28 76 29 16 30 75 31 17 32 18 33
REMARK SMILES IDX 19 34 69 35 20 36 74 37 68 38 70 39 21 40 73 41 67 42 66 43
REMARK SMILES IDX 22 45 54 46 34 47 53 48 35 49 38 50 52 51 71 52 36 53 37 54
REMARK SMILES IDX 51 56 72 57 39 58 23 59 24 60 32 61 25 62 27 63 33 64 26 65
REMARK SMILES IDX 28 66 29 67 30 68 31 69 55 70 56 71 64 72 57 73 59 74 65 75
REMARK SMILES IDX 58 76 60 77 61 78 62 79 63 80 40 81 41 82 49 83 42 84 44 85
REMARK SMILES IDX 50 86 43 87 45 88 46 89 47 90 48 91
REMARK H PARENT 70 44 38 55
REMARK Flexibility Score: inf
ROOT
ATOM      1  C   UNL A   1      30.821  30.731  25.171  1.00  0.00     0.202 C 
ENDROOT
BRANCH   1   2
ATOM      2  O   UNL A   1      30.243  29.985  24.104  1.00  0.00    -0.374 OA
BRANCH   2   3
ATOM      3  C   UNL A   1      30.965  28.830  23.660  1.00  0.00     0.202 C 
BRANCH   3   4
ATOM      4  C   UNL A   1      30.174  27.520  23.589  1.00  0.00     0.261 C 
BRANCH   4   5
ATOM      5  O   UNL A   1      30.943  26.505  22.913  1.00  0.00    -0.463 OA
BRANCH   5   6
ATOM      6  C   UNL A   1      32.016  26.015  23.587  1.00  0.00     0.313 C 
ATOM      7  O   UNL A   1      33.182  26.230  23.274  1.00  0.00    -0.252 OA
BRANCH   6   8
ATOM      8  C   UNL A   1      31.616  25.181  24.816  1.00  0.00     0.126 C 
ATOM      9  C   UNL A   1      32.205  25.642  26.154  1.00  0.00     0.025 C 
BRANCH   8  10
ATOM     10  C   UNL A   1      31.923  23.702  24.590  1.00  0.00    -0.031 A 
ATOM     11  C   UNL A   1      32.337  22.877  25.646  1.00  0.00     0.005 A 
ATOM     12  C   UNL A   1      31.841  23.141  23.312  1.00  0.00     0.044 A 
ATOM     13  C   UNL A   1      32.704  21.548  25.431  1.00  0.00     0.012 A 
ATOM     14  C   UNL A   1      32.219  21.809  23.102  1.00  0.00     0.131 A 
ATOM     15  C   UNL A   1      32.671  20.990  24.148  1.00  0.00     0.017 A 
ATOM     16  F   UNL A   1      32.156  21.329  21.849  1.00  0.00    -0.206 F 
BRANCH  15  17
ATOM     17  C   UNL A   1      33.167  19.622  23.936  1.00  0.00    -0.015 A 
ATOM     18  C   UNL A   1      32.482  18.720  23.103  1.00  0.00     0.009 A 
ATOM     19  C   UNL A   1      34.296  19.153  24.626  1.00  0.00     0.009 A 
ATOM     20  C   UNL A   1      32.904  17.395  22.974  1.00  0.00     0.001 A 
ATOM     21  C   UNL A   1      34.719  17.829  24.500  1.00  0.00     0.001 A 
ATOM     22  C   UNL A   1      34.021  16.949  23.676  1.00  0.00     0.000 A 
ENDBRANCH  15  17
ENDBRANCH   8  10
ENDBRANCH   6   8
ENDBRANCH   5   6
ENDBRANCH   4   5
ENDBRANCH   3   4
ENDBRANCH   2   3
ENDBRANCH   1   2
BRANCH   1  23
ATOM     23  C   UNL A   1      32.148  30.234  25.749  1.00  0.00     0.261 C 
BRANCH  23  24
ATOM     24  O   UNL A   1      32.320  30.631  27.115  1.00  0.00    -0.460 OA
BRANCH  24  25
ATOM     25  C   UNL A   1      33.071  31.745  27.269  1.00  0.00     0.338 C 
ATOM     26  O   UNL A   1      32.692  32.908  27.194  1.00  0.00    -0.246 OA
BRANCH  25  27
ATOM     27  C   UNL A   1      34.413  31.378  27.746  1.00  0.00     0.060 A 
ATOM     28  C   UNL A   1      34.649  30.021  27.993  1.00  0.00     0.016 A 
ATOM     29  C   UNL A   1      35.403  32.333  27.988  1.00  0.00     0.016 A 
ATOM     30  C   UNL A   1      35.856  29.615  28.548  1.00  0.00     0.010 A 
ATOM     31  C   UNL A   1      36.614  31.925  28.553  1.00  0.00     0.010 A 
ATOM     32  C   UNL A   1      36.824  30.573  28.876  1.00  0.00    -0.014 A 
BRANCH  32  33
ATOM     33  C   UNL A   1      37.980  30.168  29.708  1.00  0.00     0.031 A 
ATOM     34  C   UNL A   1      38.983  29.209  29.131  1.00  0.00     0.074 A 
ATOM     35  C   UNL A   1      38.145  30.672  30.943  1.00  0.00     0.049 A 
ATOM     36  N   UNL A   1      40.069  28.723  29.672  1.00  0.00    -0.248 NA
ATOM     37  C   UNL A   1      38.730  28.732  27.759  1.00  0.00     0.031 C 
ATOM     38  C   UNL A   1      37.243  31.619  31.596  1.00  0.00     0.029 A 
ATOM     39  N   UNL A   1      39.125  30.441  31.874  1.00  0.00    -0.354 N 
ATOM     40  C   UNL A   1      40.610  27.860  28.725  1.00  0.00     0.074 A 
ATOM     41  C   UNL A   1      39.730  27.882  27.578  1.00  0.00     0.031 C 
ATOM     42  C   UNL A   1      37.699  31.872  32.834  1.00  0.00     0.029 A 
ATOM     43  C   UNL A   1      38.911  31.087  33.068  1.00  0.00     0.049 A 
ATOM     44  H   UNL A   1      39.907  29.867  31.703  1.00  0.00     0.167 HD
ATOM     45  C   UNL A   1      41.744  27.128  28.800  1.00  0.00     0.034 A 
ATOM     46  C   UNL A   1      39.604  31.031  34.221  1.00  0.00     0.034 A 
ATOM     47  C   UNL A   1      42.627  27.130  29.935  1.00  0.00     0.049 A 
ATOM     48  C   UNL A   1      40.850  30.188  34.285  1.00  0.00     0.074 A 
ATOM     49  C   UNL A   1      43.830  26.466  30.090  1.00  0.00     0.029 A 
ATOM     50  N   UNL A   1      42.394  27.819  31.114  1.00  0.00    -0.354 N 
ATOM     51  N   UNL A   1      41.414  29.474  33.341  1.00  0.00    -0.248 NA
ATOM     52  C   UNL A   1      41.576  30.171  35.563  1.00  0.00     0.031 C 
ATOM     53  C   UNL A   1      44.308  26.726  31.377  1.00  0.00     0.029 A 
ATOM     54  C   UNL A   1      43.421  27.582  32.011  1.00  0.00     0.049 A 
ATOM     55  H   UNL A   1      41.613  28.393  31.290  1.00  0.00     0.167 HD
ATOM     56  C   UNL A   1      42.578  28.953  33.898  1.00  0.00     0.074 A 
ATOM     57  C   UNL A   1      42.647  29.452  35.256  1.00  0.00     0.031 C 
ATOM     58  C   UNL A   1      43.501  28.129  33.341  1.00  0.00     0.034 A 
BRANCH  45  59
ATOM     59  C   UNL A   1      42.106  26.271  27.616  1.00  0.00     0.023 A 
ATOM     60  C   UNL A   1      42.833  26.825  26.543  1.00  0.00     0.012 A 
ATOM     61  C   UNL A   1      41.773  24.902  27.593  1.00  0.00     0.148 A 
ATOM     62  C   UNL A   1      43.198  26.036  25.452  1.00  0.00     0.002 A 
ATOM     63  C   UNL A   1      42.179  24.113  26.524  1.00  0.00     0.091 A 
ATOM     64  F   UNL A   1      41.060  24.401  28.611  1.00  0.00    -0.205 F 
ATOM     65  C   UNL A   1      42.881  24.681  25.448  1.00  0.00     0.022 A 
BRANCH  63  66
ATOM     66  S   UNL A   1      41.888  22.343  26.462  1.00  0.00     0.127 S 
ATOM     67  O   UNL A   1      42.453  21.995  25.160  1.00  0.00    -0.237 OA
ATOM     68  O   UNL A   1      42.660  21.864  27.609  1.00  0.00    -0.237 OA
ATOM     69  O   UNL A   1      40.448  22.166  26.584  1.00  0.00    -0.744 OA
ENDBRANCH  63  66
ENDBRANCH  45  59
BRANCH  46  70
ATOM     70  C   UNL A   1      39.153  31.822  35.401  1.00  0.00     0.023 A 
ATOM     71  C   UNL A   1      38.229  31.261  36.304  1.00  0.00     0.012 A 
ATOM     72  C   UNL A   1      39.645  33.120  35.640  1.00  0.00     0.148 A 
ATOM     73  C   UNL A   1      37.778  31.990  37.405  1.00  0.00     0.002 A 
ATOM     74  C   UNL A   1      39.234  33.819  36.769  1.00  0.00     0.091 A 
ATOM     75  F   UNL A   1      40.511  33.643  34.760  1.00  0.00    -0.205 F 
ATOM     76  C   UNL A   1      38.288  33.264  37.642  1.00  0.00     0.022 A 
BRANCH  74  77
ATOM     77  S   UNL A   1      39.935  35.410  37.221  1.00  0.00     0.127 S 
ATOM     78  O   UNL A   1      39.341  35.635  38.536  1.00  0.00    -0.237 OA
ATOM     79  O   UNL A   1      41.368  35.115  37.234  1.00  0.00    -0.237 OA
ATOM     80  O   UNL A   1      39.522  36.334  36.173  1.00  0.00    -0.744 OA
ENDBRANCH  74  77
ENDBRANCH  46  70
BRANCH  58  81
ATOM     81  C   UNL A   1      44.691  27.743  34.180  1.00  0.00     0.023 A 
ATOM     82  C   UNL A   1      45.830  28.573  34.210  1.00  0.00     0.012 A 
ATOM     83  C   UNL A   1      44.648  26.597  34.999  1.00  0.00     0.148 A 
ATOM     84  C   UNL A   1      46.920  28.248  35.018  1.00  0.00     0.002 A 
ATOM     85  C   UNL A   1      45.716  26.309  35.840  1.00  0.00     0.091 A 
ATOM     86  F   UNL A   1      43.562  25.812  34.943  1.00  0.00    -0.205 F 
ATOM     87  C   UNL A   1      46.858  27.126  35.839  1.00  0.00     0.022 A 
BRANCH  85  88
ATOM     88  S   UNL A   1      45.683  24.943  37.005  1.00  0.00     0.127 S 
ATOM     89  O   UNL A   1      45.671  23.788  36.110  1.00  0.00    -0.237 OA
ATOM     90  O   UNL A   1      46.933  25.132  37.741  1.00  0.00    -0.237 OA
ATOM     91  O   UNL A   1      44.479  25.125  37.804  1.00  0.00    -0.744 OA
ENDBRANCH  85  88
ENDBRANCH  58  81
ENDBRANCH  32  33
ENDBRANCH  25  27
ENDBRANCH  24  25
ENDBRANCH  23  24
ENDBRANCH   1  23
TORSDOF 19
ENDMDL
