MODEL 1
REMARK VINA RESULT:     -10.8      0.000      0.000
REMARK SMILES CCC[C@H](c1ccccc1)[C@@](C)(O)C(=O)OCCOCCOC(=O)c1ccc(-c2c3nc(c(-c4cccc(S(=O)(=O)[O-])c4F)c4ccc([nH]4)c(-c4cccc(S(=O)(=O)[O-])c4F)c4nc(c(-c5cccc(S(=O)(=O)[O-])c5F)c5ccc2[nH]5)C=C4)C=C3)cc1
REMARK SMILES IDX 19 1 18 2 17 3 16 4 14 5 15 6 11 7 12 8 4 9 3 10 2 11 1 12
REMARK SMILES IDX 5 13 6 14 10 15 7 16 9 17 8 18 13 19 20 21 21 22 22 23 23 24
REMARK SMILES IDX 24 25 25 26 26 27 87 28 27 29 86 30 28 31 29 32 30 33 80 34
REMARK SMILES IDX 31 35 85 36 79 37 81 38 32 39 84 40 78 41 77 42 33 44 65 45
REMARK SMILES IDX 45 46 64 47 46 48 49 49 63 50 82 51 47 52 48 53 62 55 83 56
REMARK SMILES IDX 50 57 34 58 35 59 43 60 36 61 38 62 44 63 37 64 39 65 40 66
REMARK SMILES IDX 41 67 42 68 66 69 67 70 75 71 68 72 70 73 76 74 69 75 71 76
REMARK SMILES IDX 72 77 73 78 74 79 51 80 52 81 60 82 53 83 55 84 61 85 54 86
REMARK SMILES IDX 56 87 57 88 58 89 59 90
REMARK H PARENT 13 20 81 43 49 54
REMARK Flexibility Score: inf
ROOT
ATOM      1  O   UNL A   1      30.799  29.615  24.411  1.00  0.00    -0.374 OA
ENDROOT
BRANCH   1   2
ATOM      2  C   UNL A   1      30.584  28.276  23.960  1.00  0.00     0.202 C 
BRANCH   2   3
ATOM      3  C   UNL A   1      31.822  27.415  23.700  1.00  0.00     0.261 C 
BRANCH   3   4
ATOM      4  O   UNL A   1      31.738  26.165  24.406  1.00  0.00    -0.461 OA
BRANCH   4   5
ATOM      5  C   UNL A   1      32.432  25.139  23.839  1.00  0.00     0.338 C 
ATOM      6  O   UNL A   1      32.927  25.199  22.719  1.00  0.00    -0.249 OA
BRANCH   5   7
ATOM      7  C   UNL A   1      32.477  23.875  24.758  1.00  0.00     0.165 C 
ATOM      8  C   UNL A   1      31.013  23.685  25.207  1.00  0.00     0.055 C 
BRANCH   7   9
ATOM      9  C   UNL A   1      33.024  22.569  24.035  1.00  0.00     0.062 C 
BRANCH   9  10
ATOM     10  C   UNL A   1      32.152  21.285  24.244  1.00  0.00     0.012 C 
BRANCH  10  11
ATOM     11  C   UNL A   1      32.162  20.292  23.069  1.00  0.00    -0.003 C 
ATOM     12  C   UNL A   1      32.532  18.867  23.437  1.00  0.00     0.004 C 
ENDBRANCH  10  11
ENDBRANCH   9  10
BRANCH   9  13
ATOM     13  C   UNL A   1      34.516  22.329  24.263  1.00  0.00    -0.041 A 
ATOM     14  C   UNL A   1      35.510  22.987  23.518  1.00  0.00     0.004 A 
ATOM     15  C   UNL A   1      34.921  21.338  25.171  1.00  0.00     0.004 A 
ATOM     16  C   UNL A   1      36.858  22.651  23.663  1.00  0.00     0.000 A 
ATOM     17  C   UNL A   1      36.266  20.989  25.300  1.00  0.00     0.000 A 
ATOM     18  C   UNL A   1      37.234  21.643  24.543  1.00  0.00     0.000 A 
ENDBRANCH   9  13
ENDBRANCH   7   9
BRANCH   7  19
ATOM     19  O   UNL A   1      33.241  24.032  25.966  1.00  0.00    -0.378 OA
ATOM     20  H   UNL A   1      33.418  23.160  26.353  1.00  0.00     0.212 HD
ENDBRANCH   7  19
ENDBRANCH   5   7
ENDBRANCH   4   5
ENDBRANCH   3   4
ENDBRANCH   2   3
ENDBRANCH   1   2
BRANCH   1  21
ATOM     21  C   UNL A   1      31.854  29.838  25.343  1.00  0.00     0.202 C 
BRANCH  21  22
ATOM     22  C   UNL A   1      31.729  31.000  26.338  1.00  0.00     0.261 C 
BRANCH  22  23
ATOM     23  O   UNL A   1      32.631  30.913  27.450  1.00  0.00    -0.460 OA
BRANCH  23  24
ATOM     24  C   UNL A   1      33.453  31.979  27.583  1.00  0.00     0.338 C 
ATOM     25  O   UNL A   1      33.129  33.163  27.625  1.00  0.00    -0.246 OA
BRANCH  24  26
ATOM     26  C   UNL A   1      34.826  31.534  27.867  1.00  0.00     0.060 A 
ATOM     27  C   UNL A   1      35.020  30.164  28.085  1.00  0.00     0.016 A 
ATOM     28  C   UNL A   1      35.883  32.437  28.004  1.00  0.00     0.016 A 
ATOM     29  C   UNL A   1      36.259  29.698  28.508  1.00  0.00     0.010 A 
ATOM     30  C   UNL A   1      37.126  31.967  28.440  1.00  0.00     0.010 A 
ATOM     31  C   UNL A   1      37.301  30.605  28.741  1.00  0.00    -0.014 A 
BRANCH  31  32
ATOM     32  C   UNL A   1      38.493  30.130  29.480  1.00  0.00     0.031 A 
ATOM     33  C   UNL A   1      38.722  30.633  30.880  1.00  0.00     0.074 A 
ATOM     34  C   UNL A   1      39.321  29.221  28.937  1.00  0.00     0.049 A 
ATOM     35  N   UNL A   1      39.645  30.295  31.740  1.00  0.00    -0.248 NA
ATOM     36  C   UNL A   1      37.781  31.651  31.379  1.00  0.00     0.031 C 
ATOM     37  C   UNL A   1      39.197  28.664  27.591  1.00  0.00     0.029 A 
ATOM     38  N   UNL A   1      40.434  28.611  29.454  1.00  0.00    -0.354 N 
ATOM     39  C   UNL A   1      39.410  31.068  32.870  1.00  0.00     0.074 A 
ATOM     40  C   UNL A   1      38.270  31.909  32.581  1.00  0.00     0.031 C 
ATOM     41  C   UNL A   1      40.209  27.804  27.381  1.00  0.00     0.029 A 
ATOM     42  C   UNL A   1      41.054  27.757  28.573  1.00  0.00     0.049 A 
ATOM     43  H   UNL A   1      40.760  28.770  30.370  1.00  0.00     0.167 HD
ATOM     44  C   UNL A   1      40.070  31.063  34.053  1.00  0.00     0.034 A 
ATOM     45  C   UNL A   1      42.175  27.024  28.716  1.00  0.00     0.034 A 
ATOM     46  C   UNL A   1      41.189  30.210  34.343  1.00  0.00     0.049 A 
ATOM     47  C   UNL A   1      42.891  27.036  30.043  1.00  0.00     0.074 A 
ATOM     48  C   UNL A   1      41.904  30.096  35.522  1.00  0.00     0.029 A 
ATOM     49  N   UNL A   1      41.764  29.327  33.440  1.00  0.00    -0.354 N 
ATOM     50  N   UNL A   1      42.581  27.678  31.144  1.00  0.00    -0.248 NA
ATOM     51  C   UNL A   1      44.087  26.190  30.159  1.00  0.00     0.031 C 
ATOM     52  C   UNL A   1      42.924  29.159  35.324  1.00  0.00     0.029 A 
ATOM     53  C   UNL A   1      42.829  28.670  34.031  1.00  0.00     0.049 A 
ATOM     54  H   UNL A   1      41.458  29.188  32.514  1.00  0.00     0.167 HD
ATOM     55  C   UNL A   1      43.519  27.285  32.093  1.00  0.00     0.074 A 
ATOM     56  C   UNL A   1      44.395  26.333  31.441  1.00  0.00     0.031 C 
ATOM     57  C   UNL A   1      43.656  27.686  33.382  1.00  0.00     0.034 A 
BRANCH  44  58
ATOM     58  C   UNL A   1      39.575  31.991  35.130  1.00  0.00     0.023 A 
ATOM     59  C   UNL A   1      39.796  33.379  35.010  1.00  0.00     0.012 A 
ATOM     60  C   UNL A   1      38.856  31.499  36.236  1.00  0.00     0.148 A 
ATOM     61  C   UNL A   1      39.338  34.258  35.990  1.00  0.00     0.002 A 
ATOM     62  C   UNL A   1      38.366  32.387  37.188  1.00  0.00     0.091 A 
ATOM     63  F   UNL A   1      38.680  30.175  36.347  1.00  0.00    -0.205 F 
ATOM     64  C   UNL A   1      38.615  33.764  37.072  1.00  0.00     0.022 A 
BRANCH  62  65
ATOM     65  S   UNL A   1      37.362  31.855  38.579  1.00  0.00     0.127 S 
ATOM     66  O   UNL A   1      37.017  30.488  38.188  1.00  0.00    -0.237 OA
ATOM     67  O   UNL A   1      38.305  31.950  39.694  1.00  0.00    -0.237 OA
ATOM     68  O   UNL A   1      36.245  32.787  38.647  1.00  0.00    -0.744 OA
ENDBRANCH  62  65
ENDBRANCH  44  58
BRANCH  45  69
ATOM     69  C   UNL A   1      42.657  26.176  27.591  1.00  0.00     0.023 A 
ATOM     70  C   UNL A   1      43.631  26.677  26.706  1.00  0.00     0.012 A 
ATOM     71  C   UNL A   1      42.171  24.867  27.406  1.00  0.00     0.148 A 
ATOM     72  C   UNL A   1      44.088  25.902  25.640  1.00  0.00     0.002 A 
ATOM     73  C   UNL A   1      42.671  24.080  26.376  1.00  0.00     0.091 A 
ATOM     74  F   UNL A   1      41.231  24.414  28.248  1.00  0.00    -0.205 F 
ATOM     75  C   UNL A   1      43.618  24.601  25.481  1.00  0.00     0.022 A 
BRANCH  73  76
ATOM     76  S   UNL A   1      42.215  22.354  26.177  1.00  0.00     0.127 S 
ATOM     77  O   UNL A   1      42.968  21.981  24.983  1.00  0.00    -0.237 OA
ATOM     78  O   UNL A   1      42.704  21.766  27.425  1.00  0.00    -0.237 OA
ATOM     79  O   UNL A   1      40.765  22.346  26.042  1.00  0.00    -0.744 OA
ENDBRANCH  73  76
ENDBRANCH  45  69
BRANCH  57  80
ATOM     80  C   UNL A   1      44.773  27.074  34.187  1.00  0.00     0.023 A 
ATOM     81  C   UNL A   1      46.030  27.707  34.234  1.00  0.00     0.012 A 
ATOM     82  C   UNL A   1      44.555  25.910  34.950  1.00  0.00     0.148 A 
ATOM     83  C   UNL A   1      47.066  27.169  34.997  1.00  0.00     0.002 A 
ATOM     84  C   UNL A   1      45.577  25.406  35.746  1.00  0.00     0.091 A 
ATOM     85  F   UNL A   1      43.358  25.310  34.878  1.00  0.00    -0.205 F 
ATOM     86  C   UNL A   1      46.837  26.027  35.761  1.00  0.00     0.022 A 
BRANCH  84  87
ATOM     87  S   UNL A   1      45.334  23.998  36.835  1.00  0.00     0.127 S 
ATOM     88  O   UNL A   1      46.661  23.850  37.431  1.00  0.00    -0.237 OA
ATOM     89  O   UNL A   1      44.306  24.487  37.755  1.00  0.00    -0.237 OA
ATOM     90  O   UNL A   1      44.901  22.904  35.978  1.00  0.00    -0.744 OA
ENDBRANCH  84  87
ENDBRANCH  57  80
ENDBRANCH  31  32
ENDBRANCH  24  26
ENDBRANCH  23  24
ENDBRANCH  22  23
ENDBRANCH  21  22
ENDBRANCH   1  21
TORSDOF 22
ENDMDL
MODEL 2
REMARK VINA RESULT:     -10.3      5.226      7.941
REMARK SMILES CCC[C@H](c1ccccc1)[C@@](C)(O)C(=O)OCCOCCOC(=O)c1ccc(-c2c3nc(c(-c4cccc(S(=O)(=O)[O-])c4F)c4ccc([nH]4)c(-c4cccc(S(=O)(=O)[O-])c4F)c4nc(c(-c5cccc(S(=O)(=O)[O-])c5F)c5ccc2[nH]5)C=C4)C=C3)cc1
REMARK SMILES IDX 19 1 18 2 17 3 16 4 14 5 15 6 11 7 12 8 4 9 3 10 2 11 1 12
REMARK SMILES IDX 5 13 6 14 10 15 7 16 9 17 8 18 13 19 20 21 21 22 22 23 23 24
REMARK SMILES IDX 24 25 25 26 26 27 87 28 27 29 86 30 28 31 29 32 30 33 80 34
REMARK SMILES IDX 31 35 85 36 79 37 81 38 32 39 84 40 78 41 77 42 33 44 65 45
REMARK SMILES IDX 45 46 64 47 46 48 49 49 63 50 82 51 47 52 48 53 62 55 83 56
REMARK SMILES IDX 50 57 34 58 35 59 43 60 36 61 38 62 44 63 37 64 39 65 40 66
REMARK SMILES IDX 41 67 42 68 66 69 67 70 75 71 68 72 70 73 76 74 69 75 71 76
REMARK SMILES IDX 72 77 73 78 74 79 51 80 52 81 60 82 53 83 55 84 61 85 54 86
REMARK SMILES IDX 56 87 57 88 58 89 59 90
REMARK H PARENT 13 20 81 43 49 54
REMARK Flexibility Score: inf
ROOT
ATOM      1  O   UNL A   1      35.306  22.170  26.502  1.00  0.00    -0.374 OA
ENDROOT
BRANCH   1   2
ATOM      2  C   UNL A   1      34.090  22.872  26.768  1.00  0.00     0.202 C 
BRANCH   2   3
ATOM      3  C   UNL A   1      33.270  23.342  25.563  1.00  0.00     0.261 C 
BRANCH   3   4
ATOM      4  O   UNL A   1      32.166  24.163  25.980  1.00  0.00    -0.461 OA
BRANCH   4   5
ATOM      5  C   UNL A   1      32.434  25.498  26.037  1.00  0.00     0.338 C 
ATOM      6  O   UNL A   1      33.571  25.955  26.072  1.00  0.00    -0.249 OA
BRANCH   5   7
ATOM      7  C   UNL A   1      31.132  26.362  26.103  1.00  0.00     0.165 C 
ATOM      8  C   UNL A   1      31.438  27.419  27.184  1.00  0.00     0.055 C 
BRANCH   7   9
ATOM      9  C   UNL A   1      30.747  27.054  24.725  1.00  0.00     0.062 C 
BRANCH   9  10
ATOM     10  C   UNL A   1      29.636  26.314  23.903  1.00  0.00     0.012 C 
BRANCH  10  11
ATOM     11  C   UNL A   1      28.375  27.147  23.618  1.00  0.00    -0.003 C 
ATOM     12  C   UNL A   1      28.636  28.551  23.107  1.00  0.00     0.004 C 
ENDBRANCH  10  11
ENDBRANCH   9  10
BRANCH   9  13
ATOM     13  C   UNL A   1      31.960  27.445  23.882  1.00  0.00    -0.041 A 
ATOM     14  C   UNL A   1      32.676  28.637  24.094  1.00  0.00     0.004 A 
ATOM     15  C   UNL A   1      32.320  26.648  22.783  1.00  0.00     0.004 A 
ATOM     16  C   UNL A   1      33.698  29.025  23.226  1.00  0.00     0.000 A 
ATOM     17  C   UNL A   1      33.328  27.048  21.905  1.00  0.00     0.000 A 
ATOM     18  C   UNL A   1      34.015  28.238  22.125  1.00  0.00     0.000 A 
ENDBRANCH   9  13
ENDBRANCH   7   9
BRANCH   7  19
ATOM     19  O   UNL A   1      29.963  25.660  26.558  1.00  0.00    -0.378 OA
ATOM     20  H   UNL A   1      29.192  26.247  26.505  1.00  0.00     0.212 HD
ENDBRANCH   7  19
ENDBRANCH   5   7
ENDBRANCH   4   5
ENDBRANCH   3   4
ENDBRANCH   2   3
ENDBRANCH   1   2
BRANCH   1  21
ATOM     21  C   UNL A   1      35.320  21.268  25.399  1.00  0.00     0.202 C 
BRANCH  21  22
ATOM     22  C   UNL A   1      36.633  20.556  25.044  1.00  0.00     0.261 C 
BRANCH  22  23
ATOM     23  O   UNL A   1      37.760  21.435  24.932  1.00  0.00    -0.460 OA
BRANCH  23  24
ATOM     24  C   UNL A   1      38.815  21.088  25.704  1.00  0.00     0.338 C 
ATOM     25  O   UNL A   1      39.360  19.989  25.761  1.00  0.00    -0.246 OA
BRANCH  24  26
ATOM     26  C   UNL A   1      39.379  22.276  26.364  1.00  0.00     0.060 A 
ATOM     27  C   UNL A   1      38.743  23.500  26.126  1.00  0.00     0.016 A 
ATOM     28  C   UNL A   1      40.549  22.212  27.126  1.00  0.00     0.016 A 
ATOM     29  C   UNL A   1      39.312  24.680  26.593  1.00  0.00     0.010 A 
ATOM     30  C   UNL A   1      41.125  23.401  27.584  1.00  0.00     0.010 A 
ATOM     31  C   UNL A   1      40.534  24.639  27.275  1.00  0.00    -0.014 A 
BRANCH  31  32
ATOM     32  C   UNL A   1      41.265  25.911  27.482  1.00  0.00     0.031 A 
ATOM     33  C   UNL A   1      40.591  27.011  28.258  1.00  0.00     0.074 A 
ATOM     34  C   UNL A   1      42.526  26.058  27.043  1.00  0.00     0.049 A 
ATOM     35  N   UNL A   1      41.065  28.170  28.631  1.00  0.00    -0.248 NA
ATOM     36  C   UNL A   1      39.198  26.771  28.671  1.00  0.00     0.031 C 
ATOM     37  C   UNL A   1      43.277  25.061  26.283  1.00  0.00     0.029 A 
ATOM     38  N   UNL A   1      43.395  27.110  27.171  1.00  0.00    -0.354 N 
ATOM     39  C   UNL A   1      40.028  28.804  29.304  1.00  0.00     0.074 A 
ATOM     40  C   UNL A   1      38.891  27.911  29.270  1.00  0.00     0.031 C 
ATOM     41  C   UNL A   1      44.493  25.558  25.995  1.00  0.00     0.029 A 
ATOM     42  C   UNL A   1      44.602  26.908  26.545  1.00  0.00     0.049 A 
ATOM     43  H   UNL A   1      43.176  27.934  27.665  1.00  0.00     0.167 HD
ATOM     44  C   UNL A   1      40.027  30.012  29.915  1.00  0.00     0.034 A 
ATOM     45  C   UNL A   1      45.668  27.722  26.428  1.00  0.00     0.034 A 
ATOM     46  C   UNL A   1      41.166  30.886  29.964  1.00  0.00     0.049 A 
ATOM     47  C   UNL A   1      45.643  29.062  27.119  1.00  0.00     0.074 A 
ATOM     48  C   UNL A   1      41.285  32.114  30.592  1.00  0.00     0.029 A 
ATOM     49  N   UNL A   1      42.385  30.630  29.353  1.00  0.00    -0.354 N 
ATOM     50  N   UNL A   1      44.698  29.594  27.858  1.00  0.00    -0.248 NA
ATOM     51  C   UNL A   1      46.846  29.897  26.992  1.00  0.00     0.031 C 
ATOM     52  C   UNL A   1      42.570  32.608  30.342  1.00  0.00     0.029 A 
ATOM     53  C   UNL A   1      43.260  31.678  29.581  1.00  0.00     0.049 A 
ATOM     54  H   UNL A   1      42.597  29.820  28.834  1.00  0.00     0.167 HD
ATOM     55  C   UNL A   1      45.206  30.804  28.316  1.00  0.00     0.074 A 
ATOM     56  C   UNL A   1      46.550  30.917  27.786  1.00  0.00     0.031 C 
ATOM     57  C   UNL A   1      44.612  31.747  29.090  1.00  0.00     0.034 A 
BRANCH  44  58
ATOM     58  C   UNL A   1      38.760  30.442  30.606  1.00  0.00     0.023 A 
ATOM     59  C   UNL A   1      38.600  30.194  31.985  1.00  0.00     0.012 A 
ATOM     60  C   UNL A   1      37.750  31.127  29.905  1.00  0.00     0.148 A 
ATOM     61  C   UNL A   1      37.440  30.593  32.647  1.00  0.00     0.002 A 
ATOM     62  C   UNL A   1      36.614  31.559  30.582  1.00  0.00     0.091 A 
ATOM     63  F   UNL A   1      37.909  31.330  28.589  1.00  0.00    -0.205 F 
ATOM     64  C   UNL A   1      36.454  31.283  31.949  1.00  0.00     0.022 A 
BRANCH  62  65
ATOM     65  S   UNL A   1      35.321  32.518  29.786  1.00  0.00     0.127 S 
ATOM     66  O   UNL A   1      36.034  33.749  29.446  1.00  0.00    -0.237 OA
ATOM     67  O   UNL A   1      34.974  31.678  28.640  1.00  0.00    -0.237 OA
ATOM     68  O   UNL A   1      34.262  32.662  30.776  1.00  0.00    -0.744 OA
ENDBRANCH  62  65
ENDBRANCH  44  58
BRANCH  45  69
ATOM     69  C   UNL A   1      46.870  27.270  25.674  1.00  0.00     0.023 A 
ATOM     70  C   UNL A   1      47.762  26.354  26.265  1.00  0.00     0.012 A 
ATOM     71  C   UNL A   1      47.123  27.727  24.366  1.00  0.00     0.148 A 
ATOM     72  C   UNL A   1      48.899  25.926  25.579  1.00  0.00     0.002 A 
ATOM     73  C   UNL A   1      48.227  27.254  23.667  1.00  0.00     0.091 A 
ATOM     74  F   UNL A   1      46.272  28.613  23.828  1.00  0.00    -0.205 F 
ATOM     75  C   UNL A   1      49.126  26.367  24.277  1.00  0.00     0.022 A 
BRANCH  73  76
ATOM     76  S   UNL A   1      48.524  27.670  21.944  1.00  0.00     0.127 S 
ATOM     77  O   UNL A   1      48.810  26.360  21.366  1.00  0.00    -0.237 OA
ATOM     78  O   UNL A   1      47.241  28.253  21.549  1.00  0.00    -0.237 OA
ATOM     79  O   UNL A   1      49.632  28.615  21.956  1.00  0.00    -0.744 OA
ENDBRANCH  73  76
ENDBRANCH  45  69
BRANCH  57  80
ATOM     80  C   UNL A   1      45.419  32.970  29.442  1.00  0.00     0.023 A 
ATOM     81  C   UNL A   1      46.231  32.966  30.592  1.00  0.00     0.012 A 
ATOM     82  C   UNL A   1      45.422  34.097  28.597  1.00  0.00     0.148 A 
ATOM     83  C   UNL A   1      47.006  34.079  30.916  1.00  0.00     0.002 A 
ATOM     84  C   UNL A   1      46.234  35.184  28.900  1.00  0.00     0.091 A 
ATOM     85  F   UNL A   1      44.627  34.091  27.516  1.00  0.00    -0.205 F 
ATOM     86  C   UNL A   1      47.016  35.182  30.066  1.00  0.00     0.022 A 
BRANCH  84  87
ATOM     87  S   UNL A   1      46.380  36.602  27.806  1.00  0.00     0.127 S 
ATOM     88  O   UNL A   1      45.066  37.225  27.949  1.00  0.00    -0.237 OA
ATOM     89  O   UNL A   1      47.480  37.354  28.412  1.00  0.00    -0.237 OA
ATOM     90  O   UNL A   1      46.680  36.057  26.489  1.00  0.00    -0.744 OA
ENDBRANCH  84  87
ENDBRANCH  57  80
ENDBRANCH  31  32
ENDBRANCH  24  26
ENDBRANCH  23  24
ENDBRANCH  22  23
ENDBRANCH  21  22
ENDBRANCH   1  21
TORSDOF 22
ENDMDL
MODEL 3
REMARK VINA RESULT:     -10.3      4.741      7.370
REMARK SMILES CCC[C@H](c1ccccc1)[C@@](C)(O)C(=O)OCCOCCOC(=O)c1ccc(-c2c3nc(c(-c4cccc(S(=O)(=O)[O-])c4F)c4ccc([nH]4)c(-c4cccc(S(=O)(=O)[O-])c4F)c4nc(c(-c5cccc(S(=O)(=O)[O-])c5F)c5ccc2[nH]5)C=C4)C=C3)cc1
REMARK SMILES IDX 19 1 18 2 17 3 16 4 14 5 15 6 11 7 12 8 4 9 3 10 2 11 1 12
REMARK SMILES IDX 5 13 6 14 10 15 7 16 9 17 8 18 13 19 20 21 21 22 22 23 23 24
REMARK SMILES IDX 24 25 25 26 26 27 87 28 27 29 86 30 28 31 29 32 30 33 80 34
REMARK SMILES IDX 31 35 85 36 79 37 81 38 32 39 84 40 78 41 77 42 33 44 65 45
REMARK SMILES IDX 45 46 64 47 46 48 49 49 63 50 82 51 47 52 48 53 62 55 83 56
REMARK SMILES IDX 50 57 34 58 35 59 43 60 36 61 38 62 44 63 37 64 39 65 40 66
REMARK SMILES IDX 41 67 42 68 66 69 67 70 75 71 68 72 70 73 76 74 69 75 71 76
REMARK SMILES IDX 72 77 73 78 74 79 51 80 52 81 60 82 53 83 55 84 61 85 54 86
REMARK SMILES IDX 56 87 57 88 58 89 59 90
REMARK H PARENT 13 20 81 43 49 54
REMARK Flexibility Score: inf
ROOT
ATOM      1  O   UNL A   1      35.160  21.887  26.394  1.00  0.00    -0.374 OA
ENDROOT
BRANCH   1   2
ATOM      2  C   UNL A   1      34.050  21.717  27.278  1.00  0.00     0.202 C 
BRANCH   2   3
ATOM      3  C   UNL A   1      32.681  22.199  26.789  1.00  0.00     0.261 C 
BRANCH   3   4
ATOM      4  O   UNL A   1      32.710  23.603  26.479  1.00  0.00    -0.461 OA
BRANCH   4   5
ATOM      5  C   UNL A   1      32.492  23.904  25.169  1.00  0.00     0.338 C 
ATOM      6  O   UNL A   1      33.326  23.722  24.288  1.00  0.00    -0.249 OA
BRANCH   5   7
ATOM      7  C   UNL A   1      31.086  24.549  24.935  1.00  0.00     0.165 C 
ATOM      8  C   UNL A   1      30.331  24.291  26.255  1.00  0.00     0.055 C 
BRANCH   7   9
ATOM      9  C   UNL A   1      31.136  26.103  24.602  1.00  0.00     0.062 C 
BRANCH   9  10
ATOM     10  C   UNL A   1      31.487  26.448  23.115  1.00  0.00     0.012 C 
BRANCH  10  11
ATOM     11  C   UNL A   1      30.656  27.586  22.497  1.00  0.00    -0.003 C 
ATOM     12  C   UNL A   1      29.336  27.864  23.190  1.00  0.00     0.004 C 
ENDBRANCH  10  11
ENDBRANCH   9  10
BRANCH   9  13
ATOM     13  C   UNL A   1      31.941  26.914  25.616  1.00  0.00    -0.041 A 
ATOM     14  C   UNL A   1      31.365  27.462  26.776  1.00  0.00     0.004 A 
ATOM     15  C   UNL A   1      33.283  27.225  25.338  1.00  0.00     0.004 A 
ATOM     16  C   UNL A   1      32.098  28.304  27.614  1.00  0.00     0.000 A 
ATOM     17  C   UNL A   1      34.007  28.083  26.165  1.00  0.00     0.000 A 
ATOM     18  C   UNL A   1      33.414  28.627  27.301  1.00  0.00     0.000 A 
ENDBRANCH   9  13
ENDBRANCH   7   9
BRANCH   7  19
ATOM     19  O   UNL A   1      30.300  23.927  23.904  1.00  0.00    -0.378 OA
ATOM     20  H   UNL A   1      30.114  24.574  23.205  1.00  0.00     0.212 HD
ENDBRANCH   7  19
ENDBRANCH   5   7
ENDBRANCH   4   5
ENDBRANCH   3   4
ENDBRANCH   2   3
ENDBRANCH   1   2
BRANCH   1  21
ATOM     21  C   UNL A   1      35.326  20.931  25.350  1.00  0.00     0.202 C 
BRANCH  21  22
ATOM     22  C   UNL A   1      36.744  20.467  24.990  1.00  0.00     0.261 C 
BRANCH  22  23
ATOM     23  O   UNL A   1      37.732  21.503  25.072  1.00  0.00    -0.460 OA
BRANCH  23  24
ATOM     24  C   UNL A   1      38.816  21.179  25.814  1.00  0.00     0.338 C 
ATOM     25  O   UNL A   1      39.406  20.102  25.831  1.00  0.00    -0.246 OA
BRANCH  24  26
ATOM     26  C   UNL A   1      39.347  22.371  26.493  1.00  0.00     0.060 A 
ATOM     27  C   UNL A   1      38.781  23.605  26.149  1.00  0.00     0.016 A 
ATOM     28  C   UNL A   1      40.426  22.299  27.377  1.00  0.00     0.016 A 
ATOM     29  C   UNL A   1      39.336  24.783  26.637  1.00  0.00     0.010 A 
ATOM     30  C   UNL A   1      40.990  23.486  27.858  1.00  0.00     0.010 A 
ATOM     31  C   UNL A   1      40.477  24.730  27.448  1.00  0.00    -0.014 A 
BRANCH  31  32
ATOM     32  C   UNL A   1      41.223  25.985  27.693  1.00  0.00     0.031 A 
ATOM     33  C   UNL A   1      40.554  27.080  28.479  1.00  0.00     0.074 A 
ATOM     34  C   UNL A   1      42.494  26.121  27.278  1.00  0.00     0.049 A 
ATOM     35  N   UNL A   1      41.039  28.224  28.882  1.00  0.00    -0.248 NA
ATOM     36  C   UNL A   1      39.150  26.854  28.864  1.00  0.00     0.031 C 
ATOM     37  C   UNL A   1      43.242  25.127  26.510  1.00  0.00     0.029 A 
ATOM     38  N   UNL A   1      43.377  27.157  27.441  1.00  0.00    -0.354 N 
ATOM     39  C   UNL A   1      40.001  28.861  29.551  1.00  0.00     0.074 A 
ATOM     40  C   UNL A   1      38.851  27.987  29.480  1.00  0.00     0.031 C 
ATOM     41  C   UNL A   1      44.470  25.610  26.253  1.00  0.00     0.029 A 
ATOM     42  C   UNL A   1      44.591  26.948  26.830  1.00  0.00     0.049 A 
ATOM     43  H   UNL A   1      43.162  27.974  27.947  1.00  0.00     0.167 HD
ATOM     44  C   UNL A   1      40.009  30.056  30.186  1.00  0.00     0.034 A 
ATOM     45  C   UNL A   1      45.671  27.748  26.748  1.00  0.00     0.034 A 
ATOM     46  C   UNL A   1      41.160  30.912  30.271  1.00  0.00     0.049 A 
ATOM     47  C   UNL A   1      45.655  29.074  27.464  1.00  0.00     0.074 A 
ATOM     48  C   UNL A   1      41.287  32.124  30.925  1.00  0.00     0.029 A 
ATOM     49  N   UNL A   1      42.385  30.648  29.676  1.00  0.00    -0.354 N 
ATOM     50  N   UNL A   1      44.707  29.605  28.198  1.00  0.00    -0.248 NA
ATOM     51  C   UNL A   1      46.873  29.892  27.375  1.00  0.00     0.031 C 
ATOM     52  C   UNL A   1      42.583  32.603  30.706  1.00  0.00     0.029 A 
ATOM     53  C   UNL A   1      43.271  31.678  29.939  1.00  0.00     0.049 A 
ATOM     54  H   UNL A   1      42.593  29.845  29.144  1.00  0.00     0.167 HD
ATOM     55  C   UNL A   1      45.225  30.799  28.688  1.00  0.00     0.074 A 
ATOM     56  C   UNL A   1      46.579  30.901  28.184  1.00  0.00     0.031 C 
ATOM     57  C   UNL A   1      44.632  31.735  29.472  1.00  0.00     0.034 A 
BRANCH  44  58
ATOM     58  C   UNL A   1      38.737  30.493  30.864  1.00  0.00     0.023 A 
ATOM     59  C   UNL A   1      38.558  30.238  32.240  1.00  0.00     0.012 A 
ATOM     60  C   UNL A   1      37.741  31.191  30.155  1.00  0.00     0.148 A 
ATOM     61  C   UNL A   1      37.393  30.642  32.891  1.00  0.00     0.002 A 
ATOM     62  C   UNL A   1      36.600  31.627  30.821  1.00  0.00     0.091 A 
ATOM     63  F   UNL A   1      37.917  31.399  28.843  1.00  0.00    -0.205 F 
ATOM     64  C   UNL A   1      36.421  31.345  32.185  1.00  0.00     0.022 A 
BRANCH  62  65
ATOM     65  S   UNL A   1      35.324  32.602  30.016  1.00  0.00     0.127 S 
ATOM     66  O   UNL A   1      34.905  31.706  28.938  1.00  0.00    -0.237 OA
ATOM     67  O   UNL A   1      34.342  32.769  31.087  1.00  0.00    -0.237 OA
ATOM     68  O   UNL A   1      35.972  33.835  29.589  1.00  0.00    -0.744 OA
ENDBRANCH  62  65
ENDBRANCH  44  58
BRANCH  45  69
ATOM     69  C   UNL A   1      46.878  27.292  26.005  1.00  0.00     0.023 A 
ATOM     70  C   UNL A   1      47.804  26.436  26.634  1.00  0.00     0.012 A 
ATOM     71  C   UNL A   1      47.104  27.684  24.671  1.00  0.00     0.148 A 
ATOM     72  C   UNL A   1      48.947  26.006  25.957  1.00  0.00     0.002 A 
ATOM     73  C   UNL A   1      48.215  27.208  23.986  1.00  0.00     0.091 A 
ATOM     74  F   UNL A   1      46.221  28.514  24.096  1.00  0.00    -0.205 F 
ATOM     75  C   UNL A   1      49.146  26.382  24.632  1.00  0.00     0.022 A 
BRANCH  73  76
ATOM     76  S   UNL A   1      48.481  27.538  22.240  1.00  0.00     0.127 S 
ATOM     77  O   UNL A   1      48.773  26.204  21.724  1.00  0.00    -0.237 OA
ATOM     78  O   UNL A   1      47.186  28.088  21.835  1.00  0.00    -0.237 OA
ATOM     79  O   UNL A   1      49.578  28.494  22.186  1.00  0.00    -0.744 OA
ENDBRANCH  73  76
ENDBRANCH  45  69
BRANCH  57  80
ATOM     80  C   UNL A   1      45.452  32.938  29.861  1.00  0.00     0.023 A 
ATOM     81  C   UNL A   1      45.417  34.097  29.062  1.00  0.00     0.012 A 
ATOM     82  C   UNL A   1      46.203  32.942  31.053  1.00  0.00     0.148 A 
ATOM     83  C   UNL A   1      46.147  35.229  29.424  1.00  0.00     0.002 A 
ATOM     84  C   UNL A   1      46.890  34.089  31.432  1.00  0.00     0.091 A 
ATOM     85  F   UNL A   1      46.240  31.823  31.791  1.00  0.00    -0.205 F 
ATOM     86  C   UNL A   1      46.873  35.229  30.612  1.00  0.00     0.022 A 
BRANCH  84  87
ATOM     87  S   UNL A   1      47.767  34.205  32.995  1.00  0.00     0.127 S 
ATOM     88  O   UNL A   1      48.493  35.464  32.837  1.00  0.00    -0.237 OA
ATOM     89  O   UNL A   1      46.673  34.252  33.967  1.00  0.00    -0.237 OA
ATOM     90  O   UNL A   1      48.591  33.007  33.078  1.00  0.00    -0.744 OA
ENDBRANCH  84  87
ENDBRANCH  57  80
ENDBRANCH  31  32
ENDBRANCH  24  26
ENDBRANCH  23  24
ENDBRANCH  22  23
ENDBRANCH  21  22
ENDBRANCH   1  21
TORSDOF 22
ENDMDL
