MODEL 1
REMARK VINA RESULT:      -9.5      0.000      0.000
REMARK SMILES CCOc1ccc2c(c1)=N[C@H](SCC(=O)OCCOCCOC(=O)c1ccc(-c3c4nc(c(-c5cccc(S(=O)(=O)[O-])c5F)c5ccc([nH]5)c(-c5cccc(S(=O)(=O)[O-])c5F)c5nc(c(-c6cccc(S(=O)(=O)[O-])c6F)c6ccc3[nH]6)C=C5)C=C4)cc1)N=2
REMARK SMILES IDX 18 1 17 2 16 3 14 4 15 5 13 6 12 7 11 8 4 9 5 10 9 11 6 12
REMARK SMILES IDX 8 13 7 14 10 15 88 16 3 17 2 18 1 19 19 20 20 21 21 22 22 23
REMARK SMILES IDX 23 24 24 25 25 26 26 27 87 28 27 29 86 30 28 31 29 32 30 33
REMARK SMILES IDX 80 34 31 35 85 36 79 37 81 38 32 39 84 40 78 41 77 42 33 44
REMARK SMILES IDX 65 45 45 46 64 47 46 48 49 49 63 50 82 51 47 52 48 53 62 55
REMARK SMILES IDX 83 56 50 57 34 58 35 59 43 60 36 61 38 62 44 63 37 64 39 65
REMARK SMILES IDX 40 66 41 67 42 68 66 69 67 70 75 71 68 72 70 73 76 74 69 75
REMARK SMILES IDX 71 76 72 77 73 78 74 79 51 80 52 81 60 82 53 83 55 84 61 85
REMARK SMILES IDX 54 86 56 87 57 88 58 89 59 90
REMARK H PARENT 81 43 49 54
REMARK Flexibility Score: inf
ROOT
ATOM      1  C   UNL A   1      37.737  23.211  25.457  1.00  0.00     0.202 C 
ENDROOT
BRANCH   1   2
ATOM      2  C   UNL A   1      36.355  23.653  24.950  1.00  0.00     0.261 C 
BRANCH   2   3
ATOM      3  O   UNL A   1      35.526  22.581  24.453  1.00  0.00    -0.463 OA
BRANCH   3   4
ATOM      4  C   UNL A   1      34.489  22.957  23.656  1.00  0.00     0.316 C 
ATOM      5  O   UNL A   1      34.575  23.820  22.782  1.00  0.00    -0.251 OA
BRANCH   4   6
ATOM      6  C   UNL A   1      33.187  22.203  23.848  1.00  0.00     0.196 C 
BRANCH   6   7
ATOM      7  S   UNL A   1      32.596  21.950  25.543  1.00  0.00    -0.100 SA
BRANCH   7   8
ATOM      8  C   UNL A   1      31.498  23.402  25.712  1.00  0.00     0.282 C 
ATOM      9  C   UNL A   1      32.136  27.878  25.653  1.00  0.00     0.121 A 
ATOM     10  C   UNL A   1      31.470  27.710  24.372  1.00  0.00     0.049 A 
ATOM     11  C   UNL A   1      32.364  26.851  26.486  1.00  0.00     0.076 A 
ATOM     12  C   UNL A   1      31.087  26.519  23.888  1.00  0.00     0.034 A 
ATOM     13  C   UNL A   1      31.931  25.516  26.055  1.00  0.00     0.090 A 
ATOM     14  C   UNL A   1      31.346  25.334  24.713  1.00  0.00     0.087 A 
ATOM     15  N   UNL A   1      32.014  24.402  26.689  1.00  0.00    -0.246 NA
ATOM     16  N   UNL A   1      31.118  24.094  24.443  1.00  0.00    -0.246 NA
BRANCH   9  17
ATOM     17  O   UNL A   1      32.738  29.099  25.860  1.00  0.00    -0.494 OA
BRANCH  17  18
ATOM     18  C   UNL A   1      32.224  29.882  26.943  1.00  0.00     0.226 C 
ATOM     19  C   UNL A   1      31.517  31.126  26.430  1.00  0.00     0.049 C 
ENDBRANCH  17  18
ENDBRANCH   9  17
ENDBRANCH   7   8
ENDBRANCH   6   7
ENDBRANCH   4   6
ENDBRANCH   3   4
ENDBRANCH   2   3
ENDBRANCH   1   2
BRANCH   1  20
ATOM     20  O   UNL A   1      38.021  21.816  25.532  1.00  0.00    -0.374 OA
BRANCH  20  21
ATOM     21  C   UNL A   1      39.276  21.415  26.069  1.00  0.00     0.202 C 
BRANCH  21  22
ATOM     22  C   UNL A   1      39.652  19.927  26.031  1.00  0.00     0.261 C 
BRANCH  22  23
ATOM     23  O   UNL A   1      40.849  19.641  25.303  1.00  0.00    -0.460 OA
BRANCH  23  24
ATOM     24  C   UNL A   1      41.956  19.483  26.072  1.00  0.00     0.338 C 
ATOM     25  O   UNL A   1      42.476  18.435  26.419  1.00  0.00    -0.246 OA
BRANCH  24  26
ATOM     26  C   UNL A   1      42.558  20.802  26.317  1.00  0.00     0.060 A 
ATOM     27  C   UNL A   1      42.957  21.609  25.249  1.00  0.00     0.016 A 
ATOM     28  C   UNL A   1      42.689  21.242  27.639  1.00  0.00     0.016 A 
ATOM     29  C   UNL A   1      43.491  22.871  25.513  1.00  0.00     0.010 A 
ATOM     30  C   UNL A   1      43.225  22.501  27.899  1.00  0.00     0.010 A 
ATOM     31  C   UNL A   1      43.621  23.328  26.838  1.00  0.00    -0.014 A 
BRANCH  31  32
ATOM     32  C   UNL A   1      44.077  24.711  27.114  1.00  0.00     0.031 A 
ATOM     33  C   UNL A   1      43.118  25.762  27.586  1.00  0.00     0.074 A 
ATOM     34  C   UNL A   1      45.367  25.019  26.880  1.00  0.00     0.049 A 
ATOM     35  N   UNL A   1      43.353  27.019  27.857  1.00  0.00    -0.248 NA
ATOM     36  C   UNL A   1      41.716  25.357  27.778  1.00  0.00     0.031 C 
ATOM     37  C   UNL A   1      46.374  24.084  26.373  1.00  0.00     0.029 A 
ATOM     38  N   UNL A   1      46.046  26.200  27.019  1.00  0.00    -0.354 N 
ATOM     39  C   UNL A   1      42.132  27.563  28.234  1.00  0.00     0.074 A 
ATOM     40  C   UNL A   1      41.152  26.502  28.147  1.00  0.00     0.031 C 
ATOM     41  C   UNL A   1      47.546  24.727  26.251  1.00  0.00     0.029 A 
ATOM     42  C   UNL A   1      47.365  26.122  26.641  1.00  0.00     0.049 A 
ATOM     43  H   UNL A   1      45.630  27.026  27.358  1.00  0.00     0.167 HD
ATOM     44  C   UNL A   1      41.863  28.827  28.634  1.00  0.00     0.034 A 
ATOM     45  C   UNL A   1      48.324  27.069  26.605  1.00  0.00     0.034 A 
ATOM     46  C   UNL A   1      42.848  29.870  28.741  1.00  0.00     0.049 A 
ATOM     47  C   UNL A   1      47.995  28.462  27.053  1.00  0.00     0.074 A 
ATOM     48  C   UNL A   1      42.676  31.166  29.195  1.00  0.00     0.029 A 
ATOM     49  N   UNL A   1      44.180  29.743  28.381  1.00  0.00    -0.354 N 
ATOM     50  N   UNL A   1      46.861  28.929  27.514  1.00  0.00    -0.248 NA
ATOM     51  C   UNL A   1      49.079  29.455  27.001  1.00  0.00     0.031 C 
ATOM     52  C   UNL A   1      43.901  31.830  29.091  1.00  0.00     0.029 A 
ATOM     53  C   UNL A   1      44.840  30.941  28.593  1.00  0.00     0.049 A 
ATOM     54  H   UNL A   1      44.595  28.924  28.026  1.00  0.00     0.167 HD
ATOM     55  C   UNL A   1      47.096  30.261  27.827  1.00  0.00     0.074 A 
ATOM     56  C   UNL A   1      48.486  30.525  27.516  1.00  0.00     0.031 C 
ATOM     57  C   UNL A   1      46.232  31.181  28.319  1.00  0.00     0.034 A 
BRANCH  44  58
ATOM     58  C   UNL A   1      40.456  29.162  29.050  1.00  0.00     0.023 A 
ATOM     59  C   UNL A   1      39.497  29.442  28.057  1.00  0.00     0.012 A 
ATOM     60  C   UNL A   1      40.057  29.067  30.397  1.00  0.00     0.148 A 
ATOM     61  C   UNL A   1      38.158  29.626  28.399  1.00  0.00     0.002 A 
ATOM     62  C   UNL A   1      38.716  29.225  30.727  1.00  0.00     0.091 A 
ATOM     63  F   UNL A   1      40.991  28.804  31.322  1.00  0.00    -0.205 F 
ATOM     64  C   UNL A   1      37.767  29.507  29.729  1.00  0.00     0.022 A 
BRANCH  62  65
ATOM     65  S   UNL A   1      38.096  29.043  32.403  1.00  0.00     0.127 S 
ATOM     66  O   UNL A   1      38.756  30.156  33.083  1.00  0.00    -0.237 OA
ATOM     67  O   UNL A   1      36.655  29.210  32.215  1.00  0.00    -0.237 OA
ATOM     68  O   UNL A   1      38.508  27.719  32.847  1.00  0.00    -0.744 OA
ENDBRANCH  62  65
ENDBRANCH  44  58
BRANCH  45  69
ATOM     69  C   UNL A   1      49.698  26.694  26.178  1.00  0.00     0.023 A 
ATOM     70  C   UNL A   1      50.479  25.880  27.019  1.00  0.00     0.012 A 
ATOM     71  C   UNL A   1      50.199  27.072  24.917  1.00  0.00     0.148 A 
ATOM     72  C   UNL A   1      51.745  25.454  26.614  1.00  0.00     0.002 A 
ATOM     73  C   UNL A   1      51.444  26.614  24.505  1.00  0.00     0.091 A 
ATOM     74  F   UNL A   1      49.431  27.844  24.137  1.00  0.00    -0.205 F 
ATOM     75  C   UNL A   1      52.222  25.812  25.356  1.00  0.00     0.022 A 
BRANCH  73  76
ATOM     76  S   UNL A   1      52.109  26.945  22.870  1.00  0.00     0.127 S 
ATOM     77  O   UNL A   1      50.933  26.751  22.026  1.00  0.00    -0.237 OA
ATOM     78  O   UNL A   1      52.551  28.332  23.004  1.00  0.00    -0.237 OA
ATOM     79  O   UNL A   1      53.183  25.980  22.674  1.00  0.00    -0.744 OA
ENDBRANCH  73  76
ENDBRANCH  45  69
BRANCH  57  80
ATOM     80  C   UNL A   1      46.747  32.570  28.575  1.00  0.00     0.023 A 
ATOM     81  C   UNL A   1      47.263  32.894  29.844  1.00  0.00     0.012 A 
ATOM     82  C   UNL A   1      46.847  33.501  27.523  1.00  0.00     0.148 A 
ATOM     83  C   UNL A   1      47.868  34.130  30.064  1.00  0.00     0.002 A 
ATOM     84  C   UNL A   1      47.482  34.717  27.741  1.00  0.00     0.091 A 
ATOM     85  F   UNL A   1      46.343  33.166  26.326  1.00  0.00    -0.205 F 
ATOM     86  C   UNL A   1      47.990  35.034  29.011  1.00  0.00     0.022 A 
BRANCH  84  87
ATOM     87  S   UNL A   1      47.751  35.919  26.432  1.00  0.00     0.127 S 
ATOM     88  O   UNL A   1      46.380  36.298  26.091  1.00  0.00    -0.237 OA
ATOM     89  O   UNL A   1      48.518  36.957  27.120  1.00  0.00    -0.237 OA
ATOM     90  O   UNL A   1      48.476  35.219  25.380  1.00  0.00    -0.744 OA
ENDBRANCH  84  87
ENDBRANCH  57  80
ENDBRANCH  31  32
ENDBRANCH  24  26
ENDBRANCH  23  24
ENDBRANCH  22  23
ENDBRANCH  21  22
ENDBRANCH  20  21
ENDBRANCH   1  20
TORSDOF 21
ENDMDL
MODEL 2
REMARK VINA RESULT:      -9.3      1.876      2.818
REMARK SMILES CCOc1ccc2c(c1)=N[C@H](SCC(=O)OCCOCCOC(=O)c1ccc(-c3c4nc(c(-c5cccc(S(=O)(=O)[O-])c5F)c5ccc([nH]5)c(-c5cccc(S(=O)(=O)[O-])c5F)c5nc(c(-c6cccc(S(=O)(=O)[O-])c6F)c6ccc3[nH]6)C=C5)C=C4)cc1)N=2
REMARK SMILES IDX 18 1 17 2 16 3 14 4 15 5 13 6 12 7 11 8 4 9 5 10 9 11 6 12
REMARK SMILES IDX 8 13 7 14 10 15 88 16 3 17 2 18 1 19 19 20 20 21 21 22 22 23
REMARK SMILES IDX 23 24 24 25 25 26 26 27 87 28 27 29 86 30 28 31 29 32 30 33
REMARK SMILES IDX 80 34 31 35 85 36 79 37 81 38 32 39 84 40 78 41 77 42 33 44
REMARK SMILES IDX 65 45 45 46 64 47 46 48 49 49 63 50 82 51 47 52 48 53 62 55
REMARK SMILES IDX 83 56 50 57 34 58 35 59 43 60 36 61 38 62 44 63 37 64 39 65
REMARK SMILES IDX 40 66 41 67 42 68 66 69 67 70 75 71 68 72 70 73 76 74 69 75
REMARK SMILES IDX 71 76 72 77 73 78 74 79 51 80 52 81 60 82 53 83 55 84 61 85
REMARK SMILES IDX 54 86 56 87 57 88 58 89 59 90
REMARK H PARENT 81 43 49 54
REMARK Flexibility Score: inf
ROOT
ATOM      1  C   UNL A   1      40.991  20.303  26.688  1.00  0.00     0.202 C 
ENDROOT
BRANCH   1   2
ATOM      2  C   UNL A   1      40.693  21.810  26.702  1.00  0.00     0.261 C 
BRANCH   2   3
ATOM      3  O   UNL A   1      39.461  22.185  26.050  1.00  0.00    -0.463 OA
BRANCH   3   4
ATOM      4  C   UNL A   1      38.879  23.330  26.500  1.00  0.00     0.316 C 
ATOM      5  O   UNL A   1      39.391  24.076  27.334  1.00  0.00    -0.251 OA
BRANCH   4   6
ATOM      6  C   UNL A   1      37.551  23.701  25.867  1.00  0.00     0.196 C 
BRANCH   6   7
ATOM      7  S   UNL A   1      36.740  22.469  24.814  1.00  0.00    -0.100 SA
BRANCH   7   8
ATOM      8  C   UNL A   1      35.306  22.052  25.870  1.00  0.00     0.282 C 
ATOM      9  C   UNL A   1      31.199  23.842  26.484  1.00  0.00     0.121 A 
ATOM     10  C   UNL A   1      30.833  22.633  25.765  1.00  0.00     0.049 A 
ATOM     11  C   UNL A   1      32.470  24.131  26.806  1.00  0.00     0.076 A 
ATOM     12  C   UNL A   1      31.728  21.743  25.311  1.00  0.00     0.034 A 
ATOM     13  C   UNL A   1      33.510  23.182  26.390  1.00  0.00     0.090 A 
ATOM     14  C   UNL A   1      33.146  22.008  25.575  1.00  0.00     0.087 A 
ATOM     15  N   UNL A   1      34.775  23.231  26.610  1.00  0.00    -0.246 NA
ATOM     16  N   UNL A   1      34.179  21.334  25.200  1.00  0.00    -0.246 NA
BRANCH   9  17
ATOM     17  O   UNL A   1      30.210  24.792  26.602  1.00  0.00    -0.494 OA
BRANCH  17  18
ATOM     18  C   UNL A   1      30.277  25.893  25.690  1.00  0.00     0.226 C 
ATOM     19  C   UNL A   1      31.036  27.062  26.299  1.00  0.00     0.049 C 
ENDBRANCH  17  18
ENDBRANCH   9  17
ENDBRANCH   7   8
ENDBRANCH   6   7
ENDBRANCH   4   6
ENDBRANCH   3   4
ENDBRANCH   2   3
ENDBRANCH   1   2
BRANCH   1  20
ATOM     20  O   UNL A   1      42.287  19.860  27.084  1.00  0.00    -0.374 OA
BRANCH  20  21
ATOM     21  C   UNL A   1      42.648  18.512  26.809  1.00  0.00     0.202 C 
BRANCH  21  22
ATOM     22  C   UNL A   1      43.496  18.215  25.564  1.00  0.00     0.261 C 
BRANCH  22  23
ATOM     23  O   UNL A   1      43.533  19.279  24.609  1.00  0.00    -0.460 OA
BRANCH  23  24
ATOM     24  C   UNL A   1      44.778  19.727  24.310  1.00  0.00     0.338 C 
ATOM     25  O   UNL A   1      45.631  19.162  23.644  1.00  0.00    -0.246 OA
BRANCH  24  26
ATOM     26  C   UNL A   1      44.914  21.111  24.789  1.00  0.00     0.060 A 
ATOM     27  C   UNL A   1      45.221  21.371  26.126  1.00  0.00     0.016 A 
ATOM     28  C   UNL A   1      44.761  22.155  23.869  1.00  0.00     0.016 A 
ATOM     29  C   UNL A   1      45.380  22.694  26.541  1.00  0.00     0.010 A 
ATOM     30  C   UNL A   1      44.917  23.474  24.289  1.00  0.00     0.010 A 
ATOM     31  C   UNL A   1      45.237  23.752  25.625  1.00  0.00    -0.014 A 
BRANCH  31  32
ATOM     32  C   UNL A   1      45.520  25.147  26.038  1.00  0.00     0.031 A 
ATOM     33  C   UNL A   1      44.418  26.060  26.488  1.00  0.00     0.074 A 
ATOM     34  C   UNL A   1      46.786  25.597  25.951  1.00  0.00     0.049 A 
ATOM     35  N   UNL A   1      44.495  27.309  26.865  1.00  0.00    -0.248 NA
ATOM     36  C   UNL A   1      43.055  25.505  26.516  1.00  0.00     0.031 C 
ATOM     37  C   UNL A   1      47.926  24.808  25.479  1.00  0.00     0.029 A 
ATOM     38  N   UNL A   1      47.323  26.825  26.235  1.00  0.00    -0.354 N 
ATOM     39  C   UNL A   1      43.196  27.699  27.160  1.00  0.00     0.074 A 
ATOM     40  C   UNL A   1      42.344  26.557  26.907  1.00  0.00     0.031 C 
ATOM     41  C   UNL A   1      49.030  25.570  25.515  1.00  0.00     0.029 A 
ATOM     42  C   UNL A   1      48.671  26.905  25.980  1.00  0.00     0.049 A 
ATOM     43  H   UNL A   1      46.795  27.577  26.589  1.00  0.00     0.167 HD
ATOM     44  C   UNL A   1      42.762  28.896  27.619  1.00  0.00     0.034 A 
ATOM     45  C   UNL A   1      49.525  27.941  26.101  1.00  0.00     0.034 A 
ATOM     46  C   UNL A   1      43.619  30.018  27.891  1.00  0.00     0.049 A 
ATOM     47  C   UNL A   1      49.014  29.257  26.611  1.00  0.00     0.074 A 
ATOM     48  C   UNL A   1      43.274  31.252  28.414  1.00  0.00     0.029 A 
ATOM     49  N   UNL A   1      44.984  30.051  27.652  1.00  0.00    -0.354 N 
ATOM     50  N   UNL A   1      47.801  29.573  26.991  1.00  0.00    -0.248 NA
ATOM     51  C   UNL A   1      49.989  30.352  26.731  1.00  0.00     0.031 C 
ATOM     52  C   UNL A   1      44.426  32.039  28.474  1.00  0.00     0.029 A 
ATOM     53  C   UNL A   1      45.493  31.287  28.008  1.00  0.00     0.049 A 
ATOM     54  H   UNL A   1      45.512  29.307  27.283  1.00  0.00     0.167 HD
ATOM     55  C   UNL A   1      47.868  30.893  27.417  1.00  0.00     0.074 A 
ATOM     56  C   UNL A   1      49.244  31.316  27.258  1.00  0.00     0.031 C 
ATOM     57  C   UNL A   1      46.872  31.683  27.886  1.00  0.00     0.034 A 
BRANCH  44  58
ATOM     58  C   UNL A   1      41.297  29.058  27.920  1.00  0.00     0.023 A 
ATOM     59  C   UNL A   1      40.403  29.302  26.860  1.00  0.00     0.012 A 
ATOM     60  C   UNL A   1      40.796  28.836  29.217  1.00  0.00     0.148 A 
ATOM     61  C   UNL A   1      39.027  29.327  27.086  1.00  0.00     0.002 A 
ATOM     62  C   UNL A   1      39.421  28.835  29.429  1.00  0.00     0.091 A 
ATOM     63  F   UNL A   1      41.669  28.611  30.209  1.00  0.00    -0.205 F 
ATOM     64  C   UNL A   1      38.538  29.082  28.365  1.00  0.00     0.022 A 
BRANCH  62  65
ATOM     65  S   UNL A   1      38.682  28.482  31.028  1.00  0.00     0.127 S 
ATOM     66  O   UNL A   1      39.454  29.359  31.908  1.00  0.00    -0.237 OA
ATOM     67  O   UNL A   1      37.294  28.895  30.820  1.00  0.00    -0.237 OA
ATOM     68  O   UNL A   1      38.872  27.057  31.258  1.00  0.00    -0.744 OA
ENDBRANCH  62  65
ENDBRANCH  44  58
BRANCH  45  69
ATOM     69  C   UNL A   1      50.963  27.737  25.783  1.00  0.00     0.023 A 
ATOM     70  C   UNL A   1      51.853  27.395  26.818  1.00  0.00     0.012 A 
ATOM     71  C   UNL A   1      51.433  27.802  24.456  1.00  0.00     0.148 A 
ATOM     72  C   UNL A   1      53.194  27.128  26.539  1.00  0.00     0.002 A 
ATOM     73  C   UNL A   1      52.761  27.499  24.181  1.00  0.00     0.091 A 
ATOM     74  F   UNL A   1      50.562  28.126  23.492  1.00  0.00    -0.205 F 
ATOM     75  C   UNL A   1      53.645  27.171  25.222  1.00  0.00     0.022 A 
BRANCH  73  76
ATOM     76  S   UNL A   1      53.417  27.438  22.511  1.00  0.00     0.127 S 
ATOM     77  O   UNL A   1      54.842  27.228  22.758  1.00  0.00    -0.237 OA
ATOM     78  O   UNL A   1      52.711  26.284  21.956  1.00  0.00    -0.237 OA
ATOM     79  O   UNL A   1      53.072  28.714  21.900  1.00  0.00    -0.744 OA
ENDBRANCH  73  76
ENDBRANCH  45  69
BRANCH  57  80
ATOM     80  C   UNL A   1      47.214  33.091  28.285  1.00  0.00     0.023 A 
ATOM     81  C   UNL A   1      47.681  33.348  29.588  1.00  0.00     0.012 A 
ATOM     82  C   UNL A   1      47.205  34.128  27.330  1.00  0.00     0.148 A 
ATOM     83  C   UNL A   1      48.132  34.620  29.937  1.00  0.00     0.002 A 
ATOM     84  C   UNL A   1      47.689  35.383  27.676  1.00  0.00     0.091 A 
ATOM     85  F   UNL A   1      46.751  33.855  26.098  1.00  0.00    -0.205 F 
ATOM     86  C   UNL A   1      48.149  35.632  28.979  1.00  0.00     0.022 A 
BRANCH  84  87
ATOM     87  S   UNL A   1      47.816  36.732  26.496  1.00  0.00     0.127 S 
ATOM     88  O   UNL A   1      48.231  37.840  27.355  1.00  0.00    -0.237 OA
ATOM     89  O   UNL A   1      48.852  36.246  25.584  1.00  0.00    -0.237 OA
ATOM     90  O   UNL A   1      46.496  36.876  25.899  1.00  0.00    -0.744 OA
ENDBRANCH  84  87
ENDBRANCH  57  80
ENDBRANCH  31  32
ENDBRANCH  24  26
ENDBRANCH  23  24
ENDBRANCH  22  23
ENDBRANCH  21  22
ENDBRANCH  20  21
ENDBRANCH   1  20
TORSDOF 21
ENDMDL
MODEL 3
REMARK VINA RESULT:      -9.2      6.105     11.065
REMARK SMILES CCOc1ccc2c(c1)=N[C@H](SCC(=O)OCCOCCOC(=O)c1ccc(-c3c4nc(c(-c5cccc(S(=O)(=O)[O-])c5F)c5ccc([nH]5)c(-c5cccc(S(=O)(=O)[O-])c5F)c5nc(c(-c6cccc(S(=O)(=O)[O-])c6F)c6ccc3[nH]6)C=C5)C=C4)cc1)N=2
REMARK SMILES IDX 18 1 17 2 16 3 14 4 15 5 13 6 12 7 11 8 4 9 5 10 9 11 6 12
REMARK SMILES IDX 8 13 7 14 10 15 88 16 3 17 2 18 1 19 19 20 20 21 21 22 22 23
REMARK SMILES IDX 23 24 24 25 25 26 26 27 87 28 27 29 86 30 28 31 29 32 30 33
REMARK SMILES IDX 80 34 31 35 85 36 79 37 81 38 32 39 84 40 78 41 77 42 33 44
REMARK SMILES IDX 65 45 45 46 64 47 46 48 49 49 63 50 82 51 47 52 48 53 62 55
REMARK SMILES IDX 83 56 50 57 34 58 35 59 43 60 36 61 38 62 44 63 37 64 39 65
REMARK SMILES IDX 40 66 41 67 42 68 66 69 67 70 75 71 68 72 70 73 76 74 69 75
REMARK SMILES IDX 71 76 72 77 73 78 74 79 51 80 52 81 60 82 53 83 55 84 61 85
REMARK SMILES IDX 54 86 56 87 57 88 58 89 59 90
REMARK H PARENT 81 43 49 54
REMARK Flexibility Score: inf
ROOT
ATOM      1  C   UNL A   1      34.637  34.517  30.640  1.00  0.00     0.202 C 
ENDROOT
BRANCH   1   2
ATOM      2  C   UNL A   1      34.770  33.692  31.930  1.00  0.00     0.261 C 
BRANCH   2   3
ATOM      3  O   UNL A   1      35.923  34.019  32.736  1.00  0.00    -0.463 OA
BRANCH   3   4
ATOM      4  C   UNL A   1      35.990  33.405  33.948  1.00  0.00     0.316 C 
ATOM      5  O   UNL A   1      35.223  33.645  34.880  1.00  0.00    -0.251 OA
BRANCH   4   6
ATOM      6  C   UNL A   1      37.047  32.327  34.096  1.00  0.00     0.196 C 
BRANCH   6   7
ATOM      7  S   UNL A   1      38.522  32.716  35.077  1.00  0.00    -0.100 SA
BRANCH   7   8
ATOM      8  C   UNL A   1      37.733  33.479  36.539  1.00  0.00     0.282 C 
ATOM      9  C   UNL A   1      37.861  32.673  40.987  1.00  0.00     0.121 A 
ATOM     10  C   UNL A   1      38.627  33.907  40.941  1.00  0.00     0.049 A 
ATOM     11  C   UNL A   1      37.322  32.119  39.890  1.00  0.00     0.076 A 
ATOM     12  C   UNL A   1      38.912  34.559  39.803  1.00  0.00     0.034 A 
ATOM     13  C   UNL A   1      37.543  32.796  38.606  1.00  0.00     0.090 A 
ATOM     14  C   UNL A   1      38.403  33.993  38.549  1.00  0.00     0.087 A 
ATOM     15  N   UNL A   1      37.104  32.474  37.443  1.00  0.00    -0.246 NA
ATOM     16  N   UNL A   1      38.587  34.406  37.341  1.00  0.00    -0.246 NA
BRANCH   9  17
ATOM     17  O   UNL A   1      37.925  31.972  42.170  1.00  0.00    -0.494 OA
BRANCH  17  18
ATOM     18  C   UNL A   1      38.783  30.827  42.183  1.00  0.00     0.226 C 
ATOM     19  C   UNL A   1      38.239  29.745  43.103  1.00  0.00     0.049 C 
ENDBRANCH  17  18
ENDBRANCH   9  17
ENDBRANCH   7   8
ENDBRANCH   6   7
ENDBRANCH   4   6
ENDBRANCH   3   4
ENDBRANCH   2   3
ENDBRANCH   1   2
BRANCH   1  20
ATOM     20  O   UNL A   1      33.465  34.354  29.845  1.00  0.00    -0.374 OA
BRANCH  20  21
ATOM     21  C   UNL A   1      33.624  34.181  28.442  1.00  0.00     0.202 C 
BRANCH  21  22
ATOM     22  C   UNL A   1      33.629  32.756  27.871  1.00  0.00     0.261 C 
BRANCH  22  23
ATOM     23  O   UNL A   1      34.588  31.883  28.472  1.00  0.00    -0.460 OA
BRANCH  23  24
ATOM     24  C   UNL A   1      34.720  30.679  27.860  1.00  0.00     0.338 C 
ATOM     25  O   UNL A   1      33.953  30.164  27.063  1.00  0.00    -0.246 OA
BRANCH  24  26
ATOM     26  C   UNL A   1      36.042  30.122  28.185  1.00  0.00     0.060 A 
ATOM     27  C   UNL A   1      37.104  30.246  27.287  1.00  0.00     0.016 A 
ATOM     28  C   UNL A   1      36.217  29.497  29.424  1.00  0.00     0.016 A 
ATOM     29  C   UNL A   1      38.355  29.740  27.640  1.00  0.00     0.010 A 
ATOM     30  C   UNL A   1      37.468  28.989  29.772  1.00  0.00     0.010 A 
ATOM     31  C   UNL A   1      38.547  29.116  28.886  1.00  0.00    -0.014 A 
BRANCH  31  32
ATOM     32  C   UNL A   1      39.900  28.683  29.309  1.00  0.00     0.031 A 
ATOM     33  C   UNL A   1      40.650  29.423  30.376  1.00  0.00     0.074 A 
ATOM     34  C   UNL A   1      40.466  27.639  28.676  1.00  0.00     0.049 A 
ATOM     35  N   UNL A   1      41.845  29.184  30.849  1.00  0.00    -0.248 NA
ATOM     36  C   UNL A   1      39.980  30.580  30.991  1.00  0.00     0.031 C 
ATOM     37  C   UNL A   1      39.844  26.878  27.590  1.00  0.00     0.029 A 
ATOM     38  N   UNL A   1      41.692  27.048  28.839  1.00  0.00    -0.354 N 
ATOM     39  C   UNL A   1      42.081  30.165  31.803  1.00  0.00     0.074 A 
ATOM     40  C   UNL A   1      40.909  31.013  31.836  1.00  0.00     0.031 C 
ATOM     41  C   UNL A   1      40.689  25.916  27.189  1.00  0.00     0.029 A 
ATOM     42  C   UNL A   1      41.921  26.011  27.966  1.00  0.00     0.049 A 
ATOM     43  H   UNL A   1      42.345  27.338  29.516  1.00  0.00     0.167 HD
ATOM     44  C   UNL A   1      43.170  30.327  32.590  1.00  0.00     0.034 A 
ATOM     45  C   UNL A   1      43.004  25.227  27.803  1.00  0.00     0.034 A 
ATOM     46  C   UNL A   1      44.321  29.465  32.567  1.00  0.00     0.049 A 
ATOM     47  C   UNL A   1      44.197  25.431  28.690  1.00  0.00     0.074 A 
ATOM     48  C   UNL A   1      45.446  29.518  33.372  1.00  0.00     0.029 A 
ATOM     49  N   UNL A   1      44.502  28.405  31.693  1.00  0.00    -0.354 N 
ATOM     50  N   UNL A   1      44.357  26.293  29.663  1.00  0.00    -0.248 NA
ATOM     51  C   UNL A   1      45.350  24.543  28.476  1.00  0.00     0.031 C 
ATOM     52  C   UNL A   1      46.317  28.502  32.971  1.00  0.00     0.029 A 
ATOM     53  C   UNL A   1      45.725  27.802  31.932  1.00  0.00     0.049 A 
ATOM     54  H   UNL A   1      43.858  28.123  31.005  1.00  0.00     0.167 HD
ATOM     55  C   UNL A   1      45.615  26.041  30.193  1.00  0.00     0.074 A 
ATOM     56  C   UNL A   1      46.173  24.935  29.440  1.00  0.00     0.031 C 
ATOM     57  C   UNL A   1      46.252  26.677  31.206  1.00  0.00     0.034 A 
BRANCH  44  58
ATOM     58  C   UNL A   1      43.165  31.445  33.597  1.00  0.00     0.023 A 
ATOM     59  C   UNL A   1      43.479  32.750  33.171  1.00  0.00     0.012 A 
ATOM     60  C   UNL A   1      42.723  31.229  34.916  1.00  0.00     0.148 A 
ATOM     61  C   UNL A   1      43.356  33.828  34.047  1.00  0.00     0.002 A 
ATOM     62  C   UNL A   1      42.578  32.313  35.775  1.00  0.00     0.091 A 
ATOM     63  F   UNL A   1      42.437  29.976  35.296  1.00  0.00    -0.205 F 
ATOM     64  C   UNL A   1      42.896  33.611  35.342  1.00  0.00     0.022 A 
BRANCH  62  65
ATOM     65  S   UNL A   1      41.946  32.151  37.449  1.00  0.00     0.127 S 
ATOM     66  O   UNL A   1      42.935  31.259  38.052  1.00  0.00    -0.237 OA
ATOM     67  O   UNL A   1      41.997  33.532  37.929  1.00  0.00    -0.237 OA
ATOM     68  O   UNL A   1      40.607  31.593  37.326  1.00  0.00    -0.744 OA
ENDBRANCH  62  65
ENDBRANCH  44  58
BRANCH  45  69
ATOM     69  C   UNL A   1      42.967  24.140  26.789  1.00  0.00     0.023 A 
ATOM     70  C   UNL A   1      43.642  24.319  25.567  1.00  0.00     0.012 A 
ATOM     71  C   UNL A   1      42.338  22.909  27.061  1.00  0.00     0.148 A 
ATOM     72  C   UNL A   1      43.685  23.290  24.625  1.00  0.00     0.002 A 
ATOM     73  C   UNL A   1      42.416  21.877  26.134  1.00  0.00     0.091 A 
ATOM     74  F   UNL A   1      41.708  22.767  28.234  1.00  0.00    -0.205 F 
ATOM     75  C   UNL A   1      43.081  22.068  24.913  1.00  0.00     0.022 A 
BRANCH  73  76
ATOM     76  S   UNL A   1      41.750  20.239  26.448  1.00  0.00     0.127 S 
ATOM     77  O   UNL A   1      40.315  20.467  26.296  1.00  0.00    -0.237 OA
ATOM     78  O   UNL A   1      42.367  19.457  25.376  1.00  0.00    -0.237 OA
ATOM     79  O   UNL A   1      42.186  19.881  27.790  1.00  0.00    -0.744 OA
ENDBRANCH  73  76
ENDBRANCH  45  69
BRANCH  57  80
ATOM     80  C   UNL A   1      47.624  26.201  31.590  1.00  0.00     0.023 A 
ATOM     81  C   UNL A   1      48.748  26.706  30.910  1.00  0.00     0.012 A 
ATOM     82  C   UNL A   1      47.804  25.365  32.710  1.00  0.00     0.148 A 
ATOM     83  C   UNL A   1      50.035  26.384  31.338  1.00  0.00     0.002 A 
ATOM     84  C   UNL A   1      49.089  25.076  33.151  1.00  0.00     0.091 A 
ATOM     85  F   UNL A   1      46.715  24.895  33.335  1.00  0.00    -0.205 F 
ATOM     86  C   UNL A   1      50.205  25.581  32.465  1.00  0.00     0.022 A 
BRANCH  84  87
ATOM     87  S   UNL A   1      49.412  24.110  34.632  1.00  0.00     0.127 S 
ATOM     88  O   UNL A   1      49.042  22.765  34.195  1.00  0.00    -0.237 OA
ATOM     89  O   UNL A   1      50.846  24.316  34.826  1.00  0.00    -0.237 OA
ATOM     90  O   UNL A   1      48.566  24.672  35.676  1.00  0.00    -0.744 OA
ENDBRANCH  84  87
ENDBRANCH  57  80
ENDBRANCH  31  32
ENDBRANCH  24  26
ENDBRANCH  23  24
ENDBRANCH  22  23
ENDBRANCH  21  22
ENDBRANCH  20  21
ENDBRANCH   1  20
TORSDOF 21
ENDMDL
