MODEL 1
REMARK VINA RESULT:      -8.5      0.000      0.000
REMARK SMILES CC[C@H](Oc1cccc(/C=C2\SC(=S)N(NC(=O)c3cccc(O)c3)C2=O)c1)C(=O)OCCOCCOC(=O)c1ccc(-c2c3nc(c(-c4cccc(S(=O)(=O)[O-])c4F)c4ccc([nH]4)c(-c4cccc(S(=O)(=O)[O-])c4F)c4nc(c(-c5cccc(S(=O)(=O)[O-])c5F)c5ccc2[nH]5)C=C4)C=C3)cc1
REMARK SMILES IDX 32 1 31 2 29 3 30 4 3 5 2 6 1 7 4 8 5 9 6 10 28 11 7 12 9 13
REMARK SMILES IDX 8 14 10 15 11 16 12 17 26 18 13 19 15 20 27 21 14 22 16 23
REMARK SMILES IDX 17 24 18 26 19 27 20 28 25 29 21 30 23 31 22 32 24 33 33 35
REMARK SMILES IDX 34 36 35 37 36 38 37 39 38 40 39 41 40 42 41 43 102 44 42 45
REMARK SMILES IDX 101 46 43 47 44 48 45 49 95 50 46 51 100 52 94 53 96 54
REMARK SMILES IDX 47 55 99 56 93 57 92 58 48 60 80 61 60 62 79 63 61 64 64 65
REMARK SMILES IDX 78 66 97 67 62 68 63 69 77 71 98 72 65 73 49 74 50 75 58 76
REMARK SMILES IDX 51 77 53 78 59 79 52 80 54 81 55 82 56 83 57 84 81 85 82 86
REMARK SMILES IDX 90 87 83 88 85 89 91 90 84 91 86 92 87 93 88 94 89 95 66 96
REMARK SMILES IDX 67 97 75 98 68 99 70 100 76 101 69 102 71 103 72 104 73 105
REMARK SMILES IDX 74 106
REMARK H PARENT 16 25 24 34 96 59 64 70
REMARK Flexibility Score: inf
ROOT
ATOM      1  C   UNL A   1      43.695  22.294  25.640  1.00  0.00     0.261 C 
ENDROOT
BRANCH   1   2
ATOM      2  O   UNL A   1      43.031  21.884  26.844  1.00  0.00    -0.461 OA
BRANCH   2   3
ATOM      3  C   UNL A   1      41.877  22.546  27.140  1.00  0.00     0.347 C 
ATOM      4  O   UNL A   1      40.779  22.019  27.289  1.00  0.00    -0.248 OA
BRANCH   3   5
ATOM      5  C   UNL A   1      42.082  24.065  27.174  1.00  0.00     0.282 C 
BRANCH   5   6
ATOM      6  C   UNL A   1      42.232  24.412  28.675  1.00  0.00     0.054 C 
ATOM      7  C   UNL A   1      43.266  25.456  29.066  1.00  0.00     0.008 C 
ENDBRANCH   5   6
BRANCH   5   8
ATOM      8  O   UNL A   1      41.048  24.703  26.416  1.00  0.00    -0.479 OA
BRANCH   8   9
ATOM      9  C   UNL A   1      40.841  26.052  26.531  1.00  0.00     0.121 A 
ATOM     10  C   UNL A   1      41.538  27.030  25.829  1.00  0.00     0.046 A 
ATOM     11  C   UNL A   1      39.908  26.432  27.514  1.00  0.00     0.054 A 
ATOM     12  C   UNL A   1      41.434  28.363  26.215  1.00  0.00     0.004 A 
ATOM     13  C   UNL A   1      39.769  27.773  27.902  1.00  0.00    -0.021 A 
ATOM     14  C   UNL A   1      40.573  28.724  27.250  1.00  0.00     0.008 A 
BRANCH  13  15
ATOM     15  C   UNL A   1      38.851  28.304  28.933  1.00  0.00     0.029 C 
ATOM     16  C   UNL A   1      37.731  29.039  28.887  1.00  0.00     0.082 C 
ATOM     17  S   UNL A   1      36.927  29.760  27.557  1.00  0.00    -0.052 SA
ATOM     18  C   UNL A   1      37.048  29.429  30.160  1.00  0.00     0.285 C 
ATOM     19  C   UNL A   1      35.968  30.816  28.589  1.00  0.00     0.168 C 
ATOM     20  N   UNL A   1      36.252  30.534  29.912  1.00  0.00    -0.198 N 
ATOM     21  O   UNL A   1      37.208  28.842  31.222  1.00  0.00    -0.266 OA
ATOM     22  S   UNL A   1      34.924  31.971  27.996  1.00  0.00    -0.050 S 
BRANCH  20  23
ATOM     23  N   UNL A   1      35.636  31.265  30.943  1.00  0.00    -0.255 N 
ATOM     24  C   UNL A   1      36.086  32.438  31.514  1.00  0.00     0.270 C 
ATOM     25  H   UNL A   1      34.793  30.900  31.297  1.00  0.00     0.192 HD
ATOM     26  O   UNL A   1      35.374  33.065  32.296  1.00  0.00    -0.267 OA
BRANCH  24  27
ATOM     27  C   UNL A   1      37.454  32.941  31.275  1.00  0.00     0.045 A 
ATOM     28  C   UNL A   1      37.620  33.835  30.207  1.00  0.00     0.014 A 
ATOM     29  C   UNL A   1      38.543  32.585  32.077  1.00  0.00     0.060 A 
ATOM     30  C   UNL A   1      38.861  34.427  29.978  1.00  0.00     0.005 A 
ATOM     31  C   UNL A   1      39.771  33.200  31.846  1.00  0.00     0.116 A 
ATOM     32  C   UNL A   1      39.935  34.119  30.810  1.00  0.00     0.046 A 
BRANCH  31  33
ATOM     33  O   UNL A   1      40.855  32.950  32.635  1.00  0.00    -0.508 OA
ATOM     34  H   UNL A   1      40.952  33.396  33.454  1.00  0.00     0.293 HD
ENDBRANCH  31  33
ENDBRANCH  24  27
ENDBRANCH  20  23
ENDBRANCH  13  15
ENDBRANCH   8   9
ENDBRANCH   5   8
ENDBRANCH   3   5
ENDBRANCH   2   3
ENDBRANCH   1   2
BRANCH   1  35
ATOM     35  C   UNL A   1      45.060  21.633  25.444  1.00  0.00     0.202 C 
BRANCH  35  36
ATOM     36  O   UNL A   1      46.210  22.475  25.452  1.00  0.00    -0.374 OA
BRANCH  36  37
ATOM     37  C   UNL A   1      46.268  23.533  24.497  1.00  0.00     0.202 C 
BRANCH  37  38
ATOM     38  C   UNL A   1      46.129  24.971  25.011  1.00  0.00     0.261 C 
BRANCH  38  39
ATOM     39  O   UNL A   1      47.176  25.844  24.555  1.00  0.00    -0.460 OA
BRANCH  39  40
ATOM     40  C   UNL A   1      46.840  27.153  24.502  1.00  0.00     0.338 C 
ATOM     41  O   UNL A   1      46.669  27.831  23.488  1.00  0.00    -0.246 OA
BRANCH  40  42
ATOM     42  C   UNL A   1      46.535  27.664  25.846  1.00  0.00     0.060 A 
ATOM     43  C   UNL A   1      45.191  27.737  26.235  1.00  0.00     0.016 A 
ATOM     44  C   UNL A   1      47.541  28.151  26.680  1.00  0.00     0.016 A 
ATOM     45  C   UNL A   1      44.846  28.352  27.437  1.00  0.00     0.010 A 
ATOM     46  C   UNL A   1      47.194  28.769  27.885  1.00  0.00     0.010 A 
ATOM     47  C   UNL A   1      45.843  28.910  28.249  1.00  0.00    -0.014 A 
BRANCH  47  48
ATOM     48  C   UNL A   1      45.466  29.758  29.404  1.00  0.00     0.031 A 
ATOM     49  C   UNL A   1      45.000  31.168  29.156  1.00  0.00     0.074 A 
ATOM     50  C   UNL A   1      45.542  29.282  30.659  1.00  0.00     0.049 A 
ATOM     51  N   UNL A   1      44.640  32.083  30.018  1.00  0.00    -0.248 NA
ATOM     52  C   UNL A   1      44.934  31.606  27.752  1.00  0.00     0.031 C 
ATOM     53  C   UNL A   1      45.981  27.935  31.024  1.00  0.00     0.029 A 
ATOM     54  N   UNL A   1      45.276  29.886  31.860  1.00  0.00    -0.354 N 
ATOM     55  C   UNL A   1      44.336  33.213  29.266  1.00  0.00     0.074 A 
ATOM     56  C   UNL A   1      44.564  32.872  27.879  1.00  0.00     0.031 C 
ATOM     57  C   UNL A   1      45.977  27.824  32.363  1.00  0.00     0.029 A 
ATOM     58  C   UNL A   1      45.560  29.097  32.949  1.00  0.00     0.049 A 
ATOM     59  H   UNL A   1      44.914  30.800  31.936  1.00  0.00     0.167 HD
ATOM     60  C   UNL A   1      43.893  34.419  29.690  1.00  0.00     0.034 A 
ATOM     61  C   UNL A   1      45.508  29.376  34.266  1.00  0.00     0.034 A 
ATOM     62  C   UNL A   1      43.647  34.749  31.069  1.00  0.00     0.049 A 
ATOM     63  C   UNL A   1      45.031  30.734  34.713  1.00  0.00     0.074 A 
ATOM     64  C   UNL A   1      43.140  35.924  31.594  1.00  0.00     0.029 A 
ATOM     65  N   UNL A   1      43.907  33.910  32.141  1.00  0.00    -0.354 N 
ATOM     66  N   UNL A   1      44.621  31.746  33.987  1.00  0.00    -0.248 NA
ATOM     67  C   UNL A   1      44.978  30.977  36.161  1.00  0.00     0.031 C 
ATOM     68  C   UNL A   1      43.124  35.807  32.989  1.00  0.00     0.029 A 
ATOM     69  C   UNL A   1      43.589  34.546  33.329  1.00  0.00     0.049 A 
ATOM     70  H   UNL A   1      44.265  32.997  32.069  1.00  0.00     0.167 HD
ATOM     71  C   UNL A   1      44.225  32.728  34.888  1.00  0.00     0.074 A 
ATOM     72  C   UNL A   1      44.428  32.183  36.214  1.00  0.00     0.031 C 
ATOM     73  C   UNL A   1      43.747  33.974  34.641  1.00  0.00     0.034 A 
BRANCH  60  74
ATOM     74  C   UNL A   1      43.625  35.474  28.648  1.00  0.00     0.023 A 
ATOM     75  C   UNL A   1      42.386  35.495  27.978  1.00  0.00     0.012 A 
ATOM     76  C   UNL A   1      44.576  36.478  28.377  1.00  0.00     0.148 A 
ATOM     77  C   UNL A   1      42.109  36.480  27.028  1.00  0.00     0.002 A 
ATOM     78  C   UNL A   1      44.275  37.481  27.463  1.00  0.00     0.091 A 
ATOM     79  F   UNL A   1      45.757  36.427  29.009  1.00  0.00    -0.205 F 
ATOM     80  C   UNL A   1      43.048  37.477  26.780  1.00  0.00     0.022 A 
BRANCH  78  81
ATOM     81  S   UNL A   1      45.385  38.854  27.134  1.00  0.00     0.127 S 
ATOM     82  O   UNL A   1      46.312  38.260  26.172  1.00  0.00    -0.237 OA
ATOM     83  O   UNL A   1      44.479  39.855  26.570  1.00  0.00    -0.237 OA
ATOM     84  O   UNL A   1      45.965  39.218  28.420  1.00  0.00    -0.744 OA
ENDBRANCH  78  81
ENDBRANCH  60  74
BRANCH  61  85
ATOM     85  C   UNL A   1      45.882  28.334  35.263  1.00  0.00     0.023 A 
ATOM     86  C   UNL A   1      47.220  28.228  35.688  1.00  0.00     0.012 A 
ATOM     87  C   UNL A   1      44.917  27.462  35.805  1.00  0.00     0.148 A 
ATOM     88  C   UNL A   1      47.598  27.252  36.612  1.00  0.00     0.002 A 
ATOM     89  C   UNL A   1      45.290  26.530  36.766  1.00  0.00     0.091 A 
ATOM     90  F   UNL A   1      43.653  27.568  35.376  1.00  0.00    -0.205 F 
ATOM     91  C   UNL A   1      46.632  26.412  37.158  1.00  0.00     0.022 A 
BRANCH  89  92
ATOM     92  S   UNL A   1      44.094  25.495  37.619  1.00  0.00     0.127 S 
ATOM     93  O   UNL A   1      43.566  24.684  36.524  1.00  0.00    -0.237 OA
ATOM     94  O   UNL A   1      44.943  24.772  38.567  1.00  0.00    -0.237 OA
ATOM     95  O   UNL A   1      43.149  26.413  38.239  1.00  0.00    -0.744 OA
ENDBRANCH  89  92
ENDBRANCH  61  85
BRANCH  73  96
ATOM     96  C   UNL A   1      43.369  34.829  35.824  1.00  0.00     0.023 A 
ATOM     97  C   UNL A   1      44.346  35.617  36.463  1.00  0.00     0.012 A 
ATOM     98  C   UNL A   1      42.029  34.907  36.252  1.00  0.00     0.148 A 
ATOM     99  C   UNL A   1      44.001  36.446  37.530  1.00  0.00     0.002 A 
ATOM    100  C   UNL A   1      41.684  35.773  37.283  1.00  0.00     0.091 A 
ATOM    101  F   UNL A   1      41.115  34.137  35.643  1.00  0.00    -0.205 F 
ATOM    102  C   UNL A   1      42.670  36.533  37.932  1.00  0.00     0.022 A 
BRANCH 100 103
ATOM    103  S   UNL A   1      39.982  36.025  37.802  1.00  0.00     0.127 S 
ATOM    104  O   UNL A   1      39.390  36.618  36.605  1.00  0.00    -0.237 OA
ATOM    105  O   UNL A   1      39.540  34.661  38.091  1.00  0.00    -0.237 OA
ATOM    106  O   UNL A   1      40.043  36.898  38.967  1.00  0.00    -0.744 OA
ENDBRANCH 100 103
ENDBRANCH  73  96
ENDBRANCH  47  48
ENDBRANCH  40  42
ENDBRANCH  39  40
ENDBRANCH  38  39
ENDBRANCH  37  38
ENDBRANCH  36  37
ENDBRANCH  35  36
ENDBRANCH   1  35
TORSDOF 24
ENDMDL
MODEL 2
REMARK VINA RESULT:      -8.2      4.913      8.051
REMARK SMILES CC[C@H](Oc1cccc(/C=C2\SC(=S)N(NC(=O)c3cccc(O)c3)C2=O)c1)C(=O)OCCOCCOC(=O)c1ccc(-c2c3nc(c(-c4cccc(S(=O)(=O)[O-])c4F)c4ccc([nH]4)c(-c4cccc(S(=O)(=O)[O-])c4F)c4nc(c(-c5cccc(S(=O)(=O)[O-])c5F)c5ccc2[nH]5)C=C4)C=C3)cc1
REMARK SMILES IDX 32 1 31 2 29 3 30 4 3 5 2 6 1 7 4 8 5 9 6 10 28 11 7 12 9 13
REMARK SMILES IDX 8 14 10 15 11 16 12 17 26 18 13 19 15 20 27 21 14 22 16 23
REMARK SMILES IDX 17 24 18 26 19 27 20 28 25 29 21 30 23 31 22 32 24 33 33 35
REMARK SMILES IDX 34 36 35 37 36 38 37 39 38 40 39 41 40 42 41 43 102 44 42 45
REMARK SMILES IDX 101 46 43 47 44 48 45 49 95 50 46 51 100 52 94 53 96 54
REMARK SMILES IDX 47 55 99 56 93 57 92 58 48 60 80 61 60 62 79 63 61 64 64 65
REMARK SMILES IDX 78 66 97 67 62 68 63 69 77 71 98 72 65 73 49 74 50 75 58 76
REMARK SMILES IDX 51 77 53 78 59 79 52 80 54 81 55 82 56 83 57 84 81 85 82 86
REMARK SMILES IDX 90 87 83 88 85 89 91 90 84 91 86 92 87 93 88 94 89 95 66 96
REMARK SMILES IDX 67 97 75 98 68 99 70 100 76 101 69 102 71 103 72 104 73 105
REMARK SMILES IDX 74 106
REMARK H PARENT 16 25 24 34 96 59 64 70
REMARK Flexibility Score: inf
ROOT
ATOM      1  C   UNL A   1      39.117  29.163  27.517  1.00  0.00     0.261 C 
ENDROOT
BRANCH   1   2
ATOM      2  O   UNL A   1      38.592  29.974  28.576  1.00  0.00    -0.461 OA
BRANCH   2   3
ATOM      3  C   UNL A   1      37.319  29.685  28.969  1.00  0.00     0.347 C 
ATOM      4  O   UNL A   1      37.019  28.999  29.941  1.00  0.00    -0.248 OA
BRANCH   3   5
ATOM      5  C   UNL A   1      36.278  30.241  27.991  1.00  0.00     0.282 C 
BRANCH   5   6
ATOM      6  C   UNL A   1      36.327  31.776  28.188  1.00  0.00     0.054 C 
ATOM      7  C   UNL A   1      35.682  32.355  29.436  1.00  0.00     0.008 C 
ENDBRANCH   5   6
BRANCH   5   8
ATOM      8  O   UNL A   1      35.034  29.558  28.178  1.00  0.00    -0.479 OA
BRANCH   8   9
ATOM      9  C   UNL A   1      34.009  29.735  27.287  1.00  0.00     0.121 A 
ATOM     10  C   UNL A   1      33.141  30.822  27.273  1.00  0.00     0.046 A 
ATOM     11  C   UNL A   1      33.800  28.665  26.395  1.00  0.00     0.054 A 
ATOM     12  C   UNL A   1      31.984  30.771  26.501  1.00  0.00     0.004 A 
ATOM     13  C   UNL A   1      32.652  28.606  25.591  1.00  0.00    -0.021 A 
ATOM     14  C   UNL A   1      31.737  29.667  25.686  1.00  0.00     0.008 A 
BRANCH  13  15
ATOM     15  C   UNL A   1      32.298  27.534  24.635  1.00  0.00     0.029 C 
ATOM     16  C   UNL A   1      31.674  26.354  24.755  1.00  0.00     0.082 C 
ATOM     17  S   UNL A   1      31.085  25.544  26.145  1.00  0.00    -0.052 SA
ATOM     18  C   UNL A   1      31.498  25.483  23.551  1.00  0.00     0.285 C 
ATOM     19  C   UNL A   1      30.944  24.004  25.301  1.00  0.00     0.168 C 
ATOM     20  N   UNL A   1      31.292  24.181  23.976  1.00  0.00    -0.198 N 
ATOM     21  O   UNL A   1      31.547  25.898  22.401  1.00  0.00    -0.266 OA
ATOM     22  S   UNL A   1      30.487  22.589  26.053  1.00  0.00    -0.050 S 
BRANCH  20  23
ATOM     23  N   UNL A   1      31.293  23.091  23.088  1.00  0.00    -0.255 N 
ATOM     24  C   UNL A   1      32.263  22.116  22.969  1.00  0.00     0.270 C 
ATOM     25  H   UNL A   1      30.518  23.015  22.485  1.00  0.00     0.192 HD
ATOM     26  O   UNL A   1      32.070  21.125  22.268  1.00  0.00    -0.267 OA
BRANCH  24  27
ATOM     27  C   UNL A   1      33.587  22.260  23.608  1.00  0.00     0.045 A 
ATOM     28  C   UNL A   1      34.517  23.083  22.954  1.00  0.00     0.014 A 
ATOM     29  C   UNL A   1      33.915  21.643  24.819  1.00  0.00     0.060 A 
ATOM     30  C   UNL A   1      35.753  23.345  23.543  1.00  0.00     0.005 A 
ATOM     31  C   UNL A   1      35.146  21.931  25.402  1.00  0.00     0.116 A 
ATOM     32  C   UNL A   1      36.062  22.778  24.778  1.00  0.00     0.046 A 
BRANCH  31  33
ATOM     33  O   UNL A   1      35.500  21.418  26.616  1.00  0.00    -0.508 OA
ATOM     34  H   UNL A   1      36.234  20.839  26.684  1.00  0.00     0.293 HD
ENDBRANCH  31  33
ENDBRANCH  24  27
ENDBRANCH  20  23
ENDBRANCH  13  15
ENDBRANCH   8   9
ENDBRANCH   5   8
ENDBRANCH   3   5
ENDBRANCH   2   3
ENDBRANCH   1   2
BRANCH   1  35
ATOM     35  C   UNL A   1      40.065  28.065  28.005  1.00  0.00     0.202 C 
BRANCH  35  36
ATOM     36  O   UNL A   1      39.778  26.724  27.618  1.00  0.00    -0.374 OA
BRANCH  36  37
ATOM     37  C   UNL A   1      40.618  26.120  26.636  1.00  0.00     0.202 C 
BRANCH  37  38
ATOM     38  C   UNL A   1      41.393  27.045  25.689  1.00  0.00     0.261 C 
BRANCH  38  39
ATOM     39  O   UNL A   1      42.799  26.753  25.630  1.00  0.00    -0.460 OA
BRANCH  39  40
ATOM     40  C   UNL A   1      43.423  26.729  26.829  1.00  0.00     0.338 C 
ATOM     41  O   UNL A   1      43.818  25.731  27.436  1.00  0.00    -0.246 OA
BRANCH  40  42
ATOM     42  C   UNL A   1      43.735  28.093  27.279  1.00  0.00     0.060 A 
ATOM     43  C   UNL A   1      44.624  28.248  28.350  1.00  0.00     0.016 A 
ATOM     44  C   UNL A   1      43.096  29.201  26.722  1.00  0.00     0.016 A 
ATOM     45  C   UNL A   1      44.832  29.509  28.905  1.00  0.00     0.010 A 
ATOM     46  C   UNL A   1      43.305  30.465  27.280  1.00  0.00     0.010 A 
ATOM     47  C   UNL A   1      44.141  30.618  28.400  1.00  0.00    -0.014 A 
BRANCH  47  48
ATOM     48  C   UNL A   1      44.185  31.909  29.128  1.00  0.00     0.031 A 
ATOM     49  C   UNL A   1      45.183  32.954  28.706  1.00  0.00     0.074 A 
ATOM     50  C   UNL A   1      43.350  32.146  30.155  1.00  0.00     0.049 A 
ATOM     51  N   UNL A   1      45.402  34.140  29.214  1.00  0.00    -0.248 NA
ATOM     52  C   UNL A   1      46.050  32.619  27.566  1.00  0.00     0.031 C 
ATOM     53  C   UNL A   1      42.344  31.209  30.657  1.00  0.00     0.029 A 
ATOM     54  N   UNL A   1      43.234  33.237  30.977  1.00  0.00    -0.354 N 
ATOM     55  C   UNL A   1      46.451  34.679  28.477  1.00  0.00     0.074 A 
ATOM     56  C   UNL A   1      46.831  33.687  27.495  1.00  0.00     0.031 C 
ATOM     57  C   UNL A   1      41.729  31.759  31.717  1.00  0.00     0.029 A 
ATOM     58  C   UNL A   1      42.314  33.072  31.984  1.00  0.00     0.049 A 
ATOM     59  H   UNL A   1      43.760  34.062  30.856  1.00  0.00     0.167 HD
ATOM     60  C   UNL A   1      47.035  35.894  28.597  1.00  0.00     0.034 A 
ATOM     61  C   UNL A   1      41.994  33.880  33.015  1.00  0.00     0.034 A 
ATOM     62  C   UNL A   1      46.640  36.886  29.561  1.00  0.00     0.049 A 
ATOM     63  C   UNL A   1      42.672  35.220  33.138  1.00  0.00     0.074 A 
ATOM     64  C   UNL A   1      47.129  38.170  29.722  1.00  0.00     0.029 A 
ATOM     65  N   UNL A   1      45.676  36.699  30.539  1.00  0.00    -0.354 N 
ATOM     66  N   UNL A   1      43.569  35.768  32.353  1.00  0.00    -0.248 NA
ATOM     67  C   UNL A   1      42.272  36.067  34.270  1.00  0.00     0.031 C 
ATOM     68  C   UNL A   1      46.482  38.749  30.819  1.00  0.00     0.029 A 
ATOM     69  C   UNL A   1      45.566  37.837  31.319  1.00  0.00     0.049 A 
ATOM     70  H   UNL A   1      45.147  35.879  30.660  1.00  0.00     0.167 HD
ATOM     71  C   UNL A   1      43.809  37.035  32.872  1.00  0.00     0.074 A 
ATOM     72  C   UNL A   1      42.951  37.180  34.030  1.00  0.00     0.031 C 
ATOM     73  C   UNL A   1      44.671  37.989  32.437  1.00  0.00     0.034 A 
BRANCH  60  74
ATOM     74  C   UNL A   1      48.155  36.231  27.647  1.00  0.00     0.023 A 
ATOM     75  C   UNL A   1      47.859  36.787  26.386  1.00  0.00     0.012 A 
ATOM     76  C   UNL A   1      49.500  36.053  28.027  1.00  0.00     0.148 A 
ATOM     77  C   UNL A   1      48.884  37.129  25.504  1.00  0.00     0.002 A 
ATOM     78  C   UNL A   1      50.516  36.438  27.160  1.00  0.00     0.091 A 
ATOM     79  F   UNL A   1      49.760  35.502  29.221  1.00  0.00    -0.205 F 
ATOM     80  C   UNL A   1      50.210  36.966  25.895  1.00  0.00     0.022 A 
BRANCH  78  81
ATOM     81  S   UNL A   1      52.254  36.343  27.603  1.00  0.00     0.127 S 
ATOM     82  O   UNL A   1      52.479  34.898  27.604  1.00  0.00    -0.237 OA
ATOM     83  O   UNL A   1      52.893  37.058  26.498  1.00  0.00    -0.237 OA
ATOM     84  O   UNL A   1      52.374  36.996  28.899  1.00  0.00    -0.744 OA
ENDBRANCH  78  81
ENDBRANCH  60  74
BRANCH  61  85
ATOM     85  C   UNL A   1      40.950  33.461  33.993  1.00  0.00     0.023 A 
ATOM     86  C   UNL A   1      41.339  32.901  35.225  1.00  0.00     0.012 A 
ATOM     87  C   UNL A   1      39.580  33.634  33.717  1.00  0.00     0.148 A 
ATOM     88  C   UNL A   1      40.380  32.490  36.153  1.00  0.00     0.002 A 
ATOM     89  C   UNL A   1      38.633  33.274  34.668  1.00  0.00     0.091 A 
ATOM     90  F   UNL A   1      39.231  34.154  32.532  1.00  0.00    -0.205 F 
ATOM     91  C   UNL A   1      39.030  32.686  35.879  1.00  0.00     0.022 A 
BRANCH  89  92
ATOM     92  S   UNL A   1      36.880  33.608  34.456  1.00  0.00     0.127 S 
ATOM     93  O   UNL A   1      36.375  33.427  35.815  1.00  0.00    -0.237 OA
ATOM     94  O   UNL A   1      36.893  34.994  33.984  1.00  0.00    -0.237 OA
ATOM     95  O   UNL A   1      36.410  32.643  33.472  1.00  0.00    -0.744 OA
ENDBRANCH  89  92
ENDBRANCH  61  85
BRANCH  73  96
ATOM     96  C   UNL A   1      44.708  39.297  33.187  1.00  0.00     0.023 A 
ATOM     97  C   UNL A   1      45.638  39.483  34.228  1.00  0.00     0.012 A 
ATOM     98  C   UNL A   1      43.871  40.365  32.807  1.00  0.00     0.148 A 
ATOM     99  C   UNL A   1      45.713  40.704  34.900  1.00  0.00     0.002 A 
ATOM    100  C   UNL A   1      43.987  41.593  33.448  1.00  0.00     0.091 A 
ATOM    101  F   UNL A   1      42.980  40.162  31.825  1.00  0.00    -0.205 F 
ATOM    102  C   UNL A   1      44.897  41.760  34.503  1.00  0.00     0.022 A 
BRANCH 100 103
ATOM    103  S   UNL A   1      43.047  43.038  32.938  1.00  0.00     0.127 S 
ATOM    104  O   UNL A   1      41.675  42.610  33.203  1.00  0.00    -0.237 OA
ATOM    105  O   UNL A   1      43.550  44.071  33.844  1.00  0.00    -0.237 OA
ATOM    106  O   UNL A   1      43.374  43.255  31.536  1.00  0.00    -0.744 OA
ENDBRANCH 100 103
ENDBRANCH  73  96
ENDBRANCH  47  48
ENDBRANCH  40  42
ENDBRANCH  39  40
ENDBRANCH  38  39
ENDBRANCH  37  38
ENDBRANCH  36  37
ENDBRANCH  35  36
ENDBRANCH   1  35
TORSDOF 24
ENDMDL
MODEL 3
REMARK VINA RESULT:      -8.2      4.093      8.355
REMARK SMILES CC[C@H](Oc1cccc(/C=C2\SC(=S)N(NC(=O)c3cccc(O)c3)C2=O)c1)C(=O)OCCOCCOC(=O)c1ccc(-c2c3nc(c(-c4cccc(S(=O)(=O)[O-])c4F)c4ccc([nH]4)c(-c4cccc(S(=O)(=O)[O-])c4F)c4nc(c(-c5cccc(S(=O)(=O)[O-])c5F)c5ccc2[nH]5)C=C4)C=C3)cc1
REMARK SMILES IDX 32 1 31 2 29 3 30 4 3 5 2 6 1 7 4 8 5 9 6 10 28 11 7 12 9 13
REMARK SMILES IDX 8 14 10 15 11 16 12 17 26 18 13 19 15 20 27 21 14 22 16 23
REMARK SMILES IDX 17 24 18 26 19 27 20 28 25 29 21 30 23 31 22 32 24 33 33 35
REMARK SMILES IDX 34 36 35 37 36 38 37 39 38 40 39 41 40 42 41 43 102 44 42 45
REMARK SMILES IDX 101 46 43 47 44 48 45 49 95 50 46 51 100 52 94 53 96 54
REMARK SMILES IDX 47 55 99 56 93 57 92 58 48 60 80 61 60 62 79 63 61 64 64 65
REMARK SMILES IDX 78 66 97 67 62 68 63 69 77 71 98 72 65 73 49 74 50 75 58 76
REMARK SMILES IDX 51 77 53 78 59 79 52 80 54 81 55 82 56 83 57 84 81 85 82 86
REMARK SMILES IDX 90 87 83 88 85 89 91 90 84 91 86 92 87 93 88 94 89 95 66 96
REMARK SMILES IDX 67 97 75 98 68 99 70 100 76 101 69 102 71 103 72 104 73 105
REMARK SMILES IDX 74 106
REMARK H PARENT 16 25 24 34 96 59 64 70
REMARK Flexibility Score: inf
ROOT
ATOM      1  C   UNL A   1      44.751  19.643  25.200  1.00  0.00     0.261 C 
ENDROOT
BRANCH   1   2
ATOM      2  O   UNL A   1      43.409  19.860  24.741  1.00  0.00    -0.461 OA
BRANCH   2   3
ATOM      3  C   UNL A   1      42.422  19.573  25.637  1.00  0.00     0.347 C 
ATOM      4  O   UNL A   1      41.934  18.462  25.817  1.00  0.00    -0.248 OA
BRANCH   3   5
ATOM      5  C   UNL A   1      41.907  20.832  26.343  1.00  0.00     0.282 C 
BRANCH   5   6
ATOM      6  C   UNL A   1      42.396  20.695  27.805  1.00  0.00     0.054 C 
ATOM      7  C   UNL A   1      42.373  21.934  28.685  1.00  0.00     0.008 C 
ENDBRANCH   5   6
BRANCH   5   8
ATOM      8  O   UNL A   1      40.506  20.981  26.092  1.00  0.00    -0.479 OA
BRANCH   8   9
ATOM      9  C   UNL A   1      39.929  22.223  26.119  1.00  0.00     0.121 A 
ATOM     10  C   UNL A   1      40.614  23.419  26.311  1.00  0.00     0.046 A 
ATOM     11  C   UNL A   1      38.523  22.232  26.037  1.00  0.00     0.054 A 
ATOM     12  C   UNL A   1      39.906  24.584  26.584  1.00  0.00     0.004 A 
ATOM     13  C   UNL A   1      37.790  23.402  26.286  1.00  0.00    -0.021 A 
ATOM     14  C   UNL A   1      38.512  24.568  26.589  1.00  0.00     0.008 A 
BRANCH  13  15
ATOM     15  C   UNL A   1      36.318  23.545  26.257  1.00  0.00     0.029 C 
ATOM     16  C   UNL A   1      35.382  23.310  25.328  1.00  0.00     0.082 C 
ATOM     17  S   UNL A   1      35.534  22.807  23.697  1.00  0.00    -0.052 SA
ATOM     18  C   UNL A   1      33.944  23.594  25.635  1.00  0.00     0.285 C 
ATOM     19  C   UNL A   1      33.885  23.281  23.299  1.00  0.00     0.168 C 
ATOM     20  N   UNL A   1      33.261  23.745  24.441  1.00  0.00    -0.198 N 
ATOM     21  O   UNL A   1      33.499  23.679  26.772  1.00  0.00    -0.266 OA
ATOM     22  S   UNL A   1      33.253  23.184  21.761  1.00  0.00    -0.050 S 
BRANCH  20  23
ATOM     23  N   UNL A   1      31.938  24.218  24.386  1.00  0.00    -0.255 N 
ATOM     24  C   UNL A   1      31.517  25.467  23.977  1.00  0.00     0.270 C 
ATOM     25  H   UNL A   1      31.235  23.589  24.672  1.00  0.00     0.192 HD
ATOM     26  O   UNL A   1      30.320  25.702  23.821  1.00  0.00    -0.267 OA
BRANCH  24  27
ATOM     27  C   UNL A   1      32.467  26.581  23.789  1.00  0.00     0.045 A 
ATOM     28  C   UNL A   1      32.885  26.839  22.475  1.00  0.00     0.014 A 
ATOM     29  C   UNL A   1      32.920  27.377  24.847  1.00  0.00     0.060 A 
ATOM     30  C   UNL A   1      33.705  27.934  22.205  1.00  0.00     0.005 A 
ATOM     31  C   UNL A   1      33.724  28.477  24.556  1.00  0.00     0.116 A 
ATOM     32  C   UNL A   1      34.113  28.763  23.248  1.00  0.00     0.046 A 
BRANCH  31  33
ATOM     33  O   UNL A   1      34.143  29.333  25.533  1.00  0.00    -0.508 OA
ATOM     34  H   UNL A   1      34.387  30.211  25.313  1.00  0.00     0.293 HD
ENDBRANCH  31  33
ENDBRANCH  24  27
ENDBRANCH  20  23
ENDBRANCH  13  15
ENDBRANCH   8   9
ENDBRANCH   5   8
ENDBRANCH   3   5
ENDBRANCH   2   3
ENDBRANCH   1   2
BRANCH   1  35
ATOM     35  C   UNL A   1      45.800  20.417  24.400  1.00  0.00     0.202 C 
BRANCH  35  36
ATOM     36  O   UNL A   1      45.958  21.804  24.687  1.00  0.00    -0.374 OA
BRANCH  36  37
ATOM     37  C   UNL A   1      45.032  22.716  24.099  1.00  0.00     0.202 C 
BRANCH  37  38
ATOM     38  C   UNL A   1      44.855  24.087  24.765  1.00  0.00     0.261 C 
BRANCH  38  39
ATOM     39  O   UNL A   1      44.121  24.031  25.999  1.00  0.00    -0.460 OA
BRANCH  39  40
ATOM     40  C   UNL A   1      44.869  24.198  27.112  1.00  0.00     0.338 C 
ATOM     41  O   UNL A   1      45.927  23.627  27.383  1.00  0.00    -0.246 OA
BRANCH  40  42
ATOM     42  C   UNL A   1      44.341  25.299  27.931  1.00  0.00     0.060 A 
ATOM     43  C   UNL A   1      45.181  26.389  28.192  1.00  0.00     0.016 A 
ATOM     44  C   UNL A   1      43.076  25.224  28.513  1.00  0.00     0.016 A 
ATOM     45  C   UNL A   1      44.778  27.381  29.083  1.00  0.00     0.010 A 
ATOM     46  C   UNL A   1      42.673  26.219  29.407  1.00  0.00     0.010 A 
ATOM     47  C   UNL A   1      43.539  27.280  29.729  1.00  0.00    -0.014 A 
BRANCH  47  48
ATOM     48  C   UNL A   1      43.207  28.204  30.839  1.00  0.00     0.031 A 
ATOM     49  C   UNL A   1      43.875  28.014  32.175  1.00  0.00     0.074 A 
ATOM     50  C   UNL A   1      42.319  29.198  30.662  1.00  0.00     0.049 A 
ATOM     51  N   UNL A   1      43.718  28.693  33.281  1.00  0.00    -0.248 NA
ATOM     52  C   UNL A   1      44.842  26.910  32.279  1.00  0.00     0.031 C 
ATOM     53  C   UNL A   1      41.607  29.480  29.416  1.00  0.00     0.029 A 
ATOM     54  N   UNL A   1      41.846  30.139  31.541  1.00  0.00    -0.354 N 
ATOM     55  C   UNL A   1      44.542  28.082  34.221  1.00  0.00     0.074 A 
ATOM     56  C   UNL A   1      45.187  26.971  33.557  1.00  0.00     0.031 C 
ATOM     57  C   UNL A   1      40.768  30.510  29.618  1.00  0.00     0.029 A 
ATOM     58  C   UNL A   1      40.866  30.943  31.011  1.00  0.00     0.049 A 
ATOM     59  H   UNL A   1      42.179  30.230  32.464  1.00  0.00     0.167 HD
ATOM     60  C   UNL A   1      44.753  28.424  35.513  1.00  0.00     0.034 A 
ATOM     61  C   UNL A   1      40.119  31.905  31.589  1.00  0.00     0.034 A 
ATOM     62  C   UNL A   1      44.125  29.543  36.164  1.00  0.00     0.049 A 
ATOM     63  C   UNL A   1      40.359  32.253  33.035  1.00  0.00     0.074 A 
ATOM     64  C   UNL A   1      44.319  30.007  37.452  1.00  0.00     0.029 A 
ATOM     65  N   UNL A   1      43.168  30.360  35.583  1.00  0.00    -0.354 N 
ATOM     66  N   UNL A   1      41.237  31.753  33.872  1.00  0.00    -0.248 NA
ATOM     67  C   UNL A   1      39.529  33.322  33.609  1.00  0.00     0.031 C 
ATOM     68  C   UNL A   1      43.455  31.088  37.662  1.00  0.00     0.029 A 
ATOM     69  C   UNL A   1      42.748  31.317  36.492  1.00  0.00     0.049 A 
ATOM     70  H   UNL A   1      42.836  30.274  34.661  1.00  0.00     0.167 HD
ATOM     71  C   UNL A   1      41.092  32.470  35.054  1.00  0.00     0.074 A 
ATOM     72  C   UNL A   1      40.053  33.452  34.820  1.00  0.00     0.031 C 
ATOM     73  C   UNL A   1      41.750  32.322  36.231  1.00  0.00     0.034 A 
BRANCH  60  74
ATOM     74  C   UNL A   1      45.720  27.588  36.311  1.00  0.00     0.023 A 
ATOM     75  C   UNL A   1      45.249  26.473  37.033  1.00  0.00     0.012 A 
ATOM     76  C   UNL A   1      47.100  27.871  36.296  1.00  0.00     0.148 A 
ATOM     77  C   UNL A   1      46.133  25.672  37.756  1.00  0.00     0.002 A 
ATOM     78  C   UNL A   1      47.979  27.042  36.982  1.00  0.00     0.091 A 
ATOM     79  F   UNL A   1      47.524  28.949  35.622  1.00  0.00    -0.205 F 
ATOM     80  C   UNL A   1      47.497  25.949  37.721  1.00  0.00     0.022 A 
BRANCH  78  81
ATOM     81  S   UNL A   1      49.760  27.268  36.933  1.00  0.00     0.127 S 
ATOM     82  O   UNL A   1      50.222  26.162  37.771  1.00  0.00    -0.237 OA
ATOM     83  O   UNL A   1      50.051  27.115  35.507  1.00  0.00    -0.237 OA
ATOM     84  O   UNL A   1      50.010  28.602  37.463  1.00  0.00    -0.744 OA
ENDBRANCH  78  81
ENDBRANCH  60  74
BRANCH  61  85
ATOM     85  C   UNL A   1      39.099  32.638  30.787  1.00  0.00     0.023 A 
ATOM     86  C   UNL A   1      39.494  33.735  29.998  1.00  0.00     0.012 A 
ATOM     87  C   UNL A   1      37.748  32.241  30.787  1.00  0.00     0.148 A 
ATOM     88  C   UNL A   1      38.556  34.445  29.247  1.00  0.00     0.002 A 
ATOM     89  C   UNL A   1      36.829  32.918  29.993  1.00  0.00     0.091 A 
ATOM     90  F   UNL A   1      37.390  31.205  31.557  1.00  0.00    -0.205 F 
ATOM     91  C   UNL A   1      37.227  34.030  29.236  1.00  0.00     0.022 A 
BRANCH  89  92
ATOM     92  S   UNL A   1      35.125  32.375  29.817  1.00  0.00     0.127 S 
ATOM     93  O   UNL A   1      34.573  33.404  28.939  1.00  0.00    -0.237 OA
ATOM     94  O   UNL A   1      35.292  31.060  29.196  1.00  0.00    -0.237 OA
ATOM     95  O   UNL A   1      34.581  32.336  31.167  1.00  0.00    -0.744 OA
ENDBRANCH  89  92
ENDBRANCH  61  85
BRANCH  73  96
ATOM     96  C   UNL A   1      41.402  33.267  37.354  1.00  0.00     0.023 A 
ATOM     97  C   UNL A   1      40.314  32.981  38.201  1.00  0.00     0.012 A 
ATOM     98  C   UNL A   1      42.203  34.397  37.614  1.00  0.00     0.148 A 
ATOM     99  C   UNL A   1      40.009  33.823  39.270  1.00  0.00     0.002 A 
ATOM    100  C   UNL A   1      41.923  35.203  38.711  1.00  0.00     0.091 A 
ATOM    101  F   UNL A   1      43.225  34.662  36.786  1.00  0.00    -0.205 F 
ATOM    102  C   UNL A   1      40.819  34.925  39.532  1.00  0.00     0.022 A 
BRANCH 100 103
ATOM    103  S   UNL A   1      42.969  36.586  39.183  1.00  0.00     0.127 S 
ATOM    104  O   UNL A   1      42.358  37.004  40.443  1.00  0.00    -0.237 OA
ATOM    105  O   UNL A   1      44.280  35.952  39.320  1.00  0.00    -0.237 OA
ATOM    106  O   UNL A   1      42.876  37.549  38.094  1.00  0.00    -0.744 OA
ENDBRANCH 100 103
ENDBRANCH  73  96
ENDBRANCH  47  48
ENDBRANCH  40  42
ENDBRANCH  39  40
ENDBRANCH  38  39
ENDBRANCH  37  38
ENDBRANCH  36  37
ENDBRANCH  35  36
ENDBRANCH   1  35
TORSDOF 24
ENDMDL
