MODEL 1
REMARK VINA RESULT:     -10.0      0.000      0.000
REMARK SMILES C#CC[N@H+](CC(=O)OCCOCCOC(=O)c1ccc(-c2c3nc(c(-c4cccc(S(=O)(=O)[O-])c4F)c4ccc([nH]4)c(-c4cccc(S(=O)(=O)[O-])c4F)c4nc(c(-c5cccc(S(=O)(=O)[O-])c5F)c5ccc2[nH]5)C=C4)C=C3)cc1)[C@H](C)c1ccccc1[N+](=O)[O-]
REMARK SMILES IDX 10 1 9 2 8 3 6 4 7 5 5 6 4 7 3 9 2 10 1 11 80 12 81 13 82 14
REMARK SMILES IDX 83 15 87 16 84 17 86 18 85 19 88 20 89 21 90 22 11 23 12 24
REMARK SMILES IDX 13 25 14 26 15 27 16 28 17 29 18 30 79 31 19 32 78 33 20 34
REMARK SMILES IDX 21 35 22 36 72 37 23 38 77 39 71 40 73 41 24 42 76 43 70 44
REMARK SMILES IDX 69 45 25 47 57 48 37 49 56 50 38 51 41 52 55 53 74 54 39 55
REMARK SMILES IDX 40 56 54 58 75 59 42 60 26 61 27 62 35 63 28 64 30 65 36 66
REMARK SMILES IDX 29 67 31 68 32 69 33 70 34 71 58 72 59 73 67 74 60 75 62 76
REMARK SMILES IDX 68 77 61 78 63 79 64 80 65 81 66 82 43 83 44 84 52 85 45 86
REMARK SMILES IDX 47 87 53 88 46 89 48 90 49 91 50 92 51 93
REMARK H PARENT 4 8 73 46 41 57
REMARK Flexibility Score: inf
ROOT
ATOM      1  C   UNL A   1      33.048  22.110  25.214  1.00  0.00     0.202 C 
ENDROOT
BRANCH   1   2
ATOM      2  C   UNL A   1      32.905  23.352  26.095  1.00  0.00     0.261 C 
BRANCH   2   3
ATOM      3  O   UNL A   1      32.692  24.528  25.300  1.00  0.00    -0.459 OA
BRANCH   3   4
ATOM      4  C   UNL A   1      33.722  25.397  25.219  1.00  0.00     0.361 C 
ATOM      5  O   UNL A   1      34.845  25.173  25.667  1.00  0.00    -0.245 OA
BRANCH   4   6
ATOM      6  C   UNL A   1      33.381  26.740  24.584  1.00  0.00     0.387 C 
BRANCH   6   7
ATOM      7  N   UNL A   1      32.307  27.649  25.151  1.00  0.00    -0.309 N 
ATOM      8  H   UNL A   1      32.296  28.562  24.695  1.00  0.00     0.349 HD
BRANCH   7   9
ATOM      9  C   UNL A   1      30.958  27.091  24.895  1.00  0.00     0.354 C 
BRANCH   9  10
ATOM     10  C   UNL A   1      30.215  27.708  23.784  1.00  0.00    -0.047 C 
ATOM     11  C   UNL A   1      29.604  28.257  22.902  1.00  0.00     0.010 C 
ENDBRANCH   9  10
ENDBRANCH   7   9
BRANCH   7  12
ATOM     12  C   UNL A   1      32.632  27.849  26.621  1.00  0.00     0.220 C 
ATOM     13  C   UNL A   1      31.368  27.767  27.524  1.00  0.00     0.081 C 
BRANCH  12  14
ATOM     14  C   UNL A   1      33.596  29.011  26.939  1.00  0.00     0.087 A 
ATOM     15  C   UNL A   1      34.930  28.755  27.330  1.00  0.00     0.017 A 
ATOM     16  C   UNL A   1      33.220  30.377  26.903  1.00  0.00     0.278 A 
ATOM     17  C   UNL A   1      35.814  29.775  27.710  1.00  0.00     0.001 A 
ATOM     18  C   UNL A   1      34.096  31.400  27.335  1.00  0.00     0.086 A 
ATOM     19  C   UNL A   1      35.388  31.094  27.746  1.00  0.00     0.007 A 
BRANCH  16  20
ATOM     20  N   UNL A   1      31.926  30.833  26.390  1.00  0.00     0.063 N 
ATOM     21  O   UNL A   1      31.318  31.683  27.060  1.00  0.00    -0.258 OA
ATOM     22  O   UNL A   1      31.565  30.444  25.271  1.00  0.00    -0.258 OA
ENDBRANCH  16  20
ENDBRANCH  12  14
ENDBRANCH   7  12
ENDBRANCH   6   7
ENDBRANCH   4   6
ENDBRANCH   3   4
ENDBRANCH   2   3
ENDBRANCH   1   2
BRANCH   1  23
ATOM     23  O   UNL A   1      34.007  21.127  25.600  1.00  0.00    -0.374 OA
BRANCH  23  24
ATOM     24  C   UNL A   1      35.300  21.562  26.011  1.00  0.00     0.202 C 
BRANCH  24  25
ATOM     25  C   UNL A   1      36.538  20.907  25.392  1.00  0.00     0.261 C 
BRANCH  25  26
ATOM     26  O   UNL A   1      37.635  21.801  25.167  1.00  0.00    -0.460 OA
BRANCH  26  27
ATOM     27  C   UNL A   1      38.749  21.486  25.871  1.00  0.00     0.338 C 
ATOM     28  O   UNL A   1      39.371  20.437  25.841  1.00  0.00    -0.246 OA
BRANCH  27  29
ATOM     29  C   UNL A   1      39.258  22.680  26.562  1.00  0.00     0.060 A 
ATOM     30  C   UNL A   1      38.617  23.895  26.292  1.00  0.00     0.016 A 
ATOM     31  C   UNL A   1      40.390  22.633  27.375  1.00  0.00     0.016 A 
ATOM     32  C   UNL A   1      39.146  25.082  26.783  1.00  0.00     0.010 A 
ATOM     33  C   UNL A   1      40.920  23.829  27.869  1.00  0.00     0.010 A 
ATOM     34  C   UNL A   1      40.326  25.061  27.537  1.00  0.00    -0.014 A 
BRANCH  34  35
ATOM     35  C   UNL A   1      40.998  26.344  27.855  1.00  0.00     0.031 A 
ATOM     36  C   UNL A   1      42.397  26.589  27.359  1.00  0.00     0.074 A 
ATOM     37  C   UNL A   1      40.347  27.298  28.546  1.00  0.00     0.049 A 
ATOM     38  N   UNL A   1      43.157  27.640  27.517  1.00  0.00    -0.248 NA
ATOM     39  C   UNL A   1      43.025  25.505  26.585  1.00  0.00     0.031 C 
ATOM     40  C   UNL A   1      38.986  27.180  29.067  1.00  0.00     0.029 A 
ATOM     41  N   UNL A   1      40.753  28.548  28.937  1.00  0.00    -0.354 N 
ATOM     42  C   UNL A   1      44.362  27.335  26.893  1.00  0.00     0.074 A 
ATOM     43  C   UNL A   1      44.237  25.993  26.369  1.00  0.00     0.031 C 
ATOM     44  C   UNL A   1      38.674  28.308  29.726  1.00  0.00     0.029 A 
ATOM     45  C   UNL A   1      39.823  29.210  29.703  1.00  0.00     0.049 A 
ATOM     46  H   UNL A   1      41.625  28.934  28.694  1.00  0.00     0.167 HD
ATOM     47  C   UNL A   1      45.467  28.107  26.760  1.00  0.00     0.034 A 
ATOM     48  C   UNL A   1      39.901  30.395  30.337  1.00  0.00     0.034 A 
ATOM     49  C   UNL A   1      45.580  29.446  27.275  1.00  0.00     0.049 A 
ATOM     50  C   UNL A   1      41.154  31.220  30.203  1.00  0.00     0.074 A 
ATOM     51  C   UNL A   1      46.640  30.327  27.151  1.00  0.00     0.029 A 
ATOM     52  N   UNL A   1      44.613  30.089  28.031  1.00  0.00    -0.354 N 
ATOM     53  N   UNL A   1      42.246  30.959  29.524  1.00  0.00    -0.248 NA
ATOM     54  C   UNL A   1      41.173  32.516  30.895  1.00  0.00     0.031 C 
ATOM     55  C   UNL A   1      46.336  31.481  27.878  1.00  0.00     0.029 A 
ATOM     56  C   UNL A   1      45.060  31.346  28.401  1.00  0.00     0.049 A 
ATOM     57  H   UNL A   1      43.738  29.709  28.270  1.00  0.00     0.167 HD
ATOM     58  C   UNL A   1      43.063  32.075  29.673  1.00  0.00     0.074 A 
ATOM     59  C   UNL A   1      42.330  33.020  30.490  1.00  0.00     0.031 C 
ATOM     60  C   UNL A   1      44.309  32.295  29.183  1.00  0.00     0.034 A 
BRANCH  47  61
ATOM     61  C   UNL A   1      46.649  27.522  26.031  1.00  0.00     0.023 A 
ATOM     62  C   UNL A   1      46.781  27.698  24.638  1.00  0.00     0.012 A 
ATOM     63  C   UNL A   1      47.662  26.845  26.738  1.00  0.00     0.148 A 
ATOM     64  C   UNL A   1      47.881  27.177  23.957  1.00  0.00     0.002 A 
ATOM     65  C   UNL A   1      48.780  26.374  26.061  1.00  0.00     0.091 A 
ATOM     66  F   UNL A   1      47.512  26.671  28.059  1.00  0.00    -0.205 F 
ATOM     67  C   UNL A   1      48.885  26.527  24.670  1.00  0.00     0.022 A 
BRANCH  65  68
ATOM     68  S   UNL A   1      50.165  25.596  26.901  1.00  0.00     0.127 S 
ATOM     69  O   UNL A   1      50.588  26.657  27.816  1.00  0.00    -0.237 OA
ATOM     70  O   UNL A   1      49.525  24.452  27.549  1.00  0.00    -0.237 OA
ATOM     71  O   UNL A   1      51.126  25.251  25.863  1.00  0.00    -0.744 OA
ENDBRANCH  65  68
ENDBRANCH  47  61
BRANCH  48  72
ATOM     72  C   UNL A   1      38.752  30.883  31.151  1.00  0.00     0.023 A 
ATOM     73  C   UNL A   1      38.604  30.456  32.484  1.00  0.00     0.012 A 
ATOM     74  C   UNL A   1      37.809  31.775  30.604  1.00  0.00     0.148 A 
ATOM     75  C   UNL A   1      37.514  30.879  33.246  1.00  0.00     0.002 A 
ATOM     76  C   UNL A   1      36.760  32.239  31.388  1.00  0.00     0.091 A 
ATOM     77  F   UNL A   1      37.964  32.160  29.330  1.00  0.00    -0.205 F 
ATOM     78  C   UNL A   1      36.598  31.776  32.702  1.00  0.00     0.022 A 
BRANCH  76  79
ATOM     79  S   UNL A   1      35.609  33.491  30.811  1.00  0.00     0.127 S 
ATOM     80  O   UNL A   1      35.632  34.447  31.915  1.00  0.00    -0.237 OA
ATOM     81  O   UNL A   1      36.260  33.950  29.583  1.00  0.00    -0.237 OA
ATOM     82  O   UNL A   1      34.344  32.802  30.601  1.00  0.00    -0.744 OA
ENDBRANCH  76  79
ENDBRANCH  48  72
BRANCH  60  83
ATOM     83  C   UNL A   1      44.945  33.634  29.465  1.00  0.00     0.023 A 
ATOM     84  C   UNL A   1      45.680  33.838  30.649  1.00  0.00     0.012 A 
ATOM     85  C   UNL A   1      44.855  34.675  28.521  1.00  0.00     0.148 A 
ATOM     86  C   UNL A   1      46.277  35.072  30.909  1.00  0.00     0.002 A 
ATOM     87  C   UNL A   1      45.502  35.881  28.759  1.00  0.00     0.091 A 
ATOM     88  F   UNL A   1      44.140  34.468  27.406  1.00  0.00    -0.205 F 
ATOM     89  C   UNL A   1      46.197  36.088  29.960  1.00  0.00     0.022 A 
BRANCH  87  90
ATOM     90  S   UNL A   1      45.537  37.212  27.553  1.00  0.00     0.127 S 
ATOM     91  O   UNL A   1      46.241  38.262  28.288  1.00  0.00    -0.237 OA
ATOM     92  O   UNL A   1      46.304  36.615  26.459  1.00  0.00    -0.237 OA
ATOM     93  O   UNL A   1      44.147  37.503  27.230  1.00  0.00    -0.744 OA
ENDBRANCH  87  90
ENDBRANCH  60  83
ENDBRANCH  34  35
ENDBRANCH  27  29
ENDBRANCH  26  27
ENDBRANCH  25  26
ENDBRANCH  24  25
ENDBRANCH  23  24
ENDBRANCH   1  23
TORSDOF 23
ENDMDL
MODEL 2
REMARK VINA RESULT:      -9.9      1.487      2.477
REMARK SMILES C#CC[N@H+](CC(=O)OCCOCCOC(=O)c1ccc(-c2c3nc(c(-c4cccc(S(=O)(=O)[O-])c4F)c4ccc([nH]4)c(-c4cccc(S(=O)(=O)[O-])c4F)c4nc(c(-c5cccc(S(=O)(=O)[O-])c5F)c5ccc2[nH]5)C=C4)C=C3)cc1)[C@H](C)c1ccccc1[N+](=O)[O-]
REMARK SMILES IDX 10 1 9 2 8 3 6 4 7 5 5 6 4 7 3 9 2 10 1 11 80 12 81 13 82 14
REMARK SMILES IDX 83 15 87 16 84 17 86 18 85 19 88 20 89 21 90 22 11 23 12 24
REMARK SMILES IDX 13 25 14 26 15 27 16 28 17 29 18 30 79 31 19 32 78 33 20 34
REMARK SMILES IDX 21 35 22 36 72 37 23 38 77 39 71 40 73 41 24 42 76 43 70 44
REMARK SMILES IDX 69 45 25 47 57 48 37 49 56 50 38 51 41 52 55 53 74 54 39 55
REMARK SMILES IDX 40 56 54 58 75 59 42 60 26 61 27 62 35 63 28 64 30 65 36 66
REMARK SMILES IDX 29 67 31 68 32 69 33 70 34 71 58 72 59 73 67 74 60 75 62 76
REMARK SMILES IDX 68 77 61 78 63 79 64 80 65 81 66 82 43 83 44 84 52 85 45 86
REMARK SMILES IDX 47 87 53 88 46 89 48 90 49 91 50 92 51 93
REMARK H PARENT 4 8 73 46 41 57
REMARK Flexibility Score: inf
ROOT
ATOM      1  C   UNL A   1      33.715  20.115  24.813  1.00  0.00     0.202 C 
ENDROOT
BRANCH   1   2
ATOM      2  C   UNL A   1      32.218  20.341  25.029  1.00  0.00     0.261 C 
BRANCH   2   3
ATOM      3  O   UNL A   1      31.726  21.388  24.178  1.00  0.00    -0.459 OA
BRANCH   3   4
ATOM      4  C   UNL A   1      31.811  22.646  24.658  1.00  0.00     0.361 C 
ATOM      5  O   UNL A   1      31.995  22.917  25.844  1.00  0.00    -0.245 OA
BRANCH   4   6
ATOM      6  C   UNL A   1      31.588  23.745  23.626  1.00  0.00     0.387 C 
BRANCH   6   7
ATOM      7  N   UNL A   1      32.469  24.979  23.562  1.00  0.00    -0.309 N 
ATOM      8  H   UNL A   1      32.504  25.473  24.454  1.00  0.00     0.349 HD
BRANCH   7   9
ATOM      9  C   UNL A   1      33.878  24.605  23.290  1.00  0.00     0.354 C 
BRANCH   9  10
ATOM     10  C   UNL A   1      34.778  24.634  24.455  1.00  0.00    -0.047 C 
ATOM     11  C   UNL A   1      35.474  24.666  25.438  1.00  0.00     0.010 C 
ENDBRANCH   9  10
ENDBRANCH   7   9
BRANCH   7  12
ATOM     12  C   UNL A   1      31.856  25.902  22.524  1.00  0.00     0.220 C 
ATOM     13  C   UNL A   1      32.762  26.068  21.270  1.00  0.00     0.081 C 
BRANCH  12  14
ATOM     14  C   UNL A   1      31.242  27.208  23.071  1.00  0.00     0.087 A 
ATOM     15  C   UNL A   1      29.924  27.585  22.725  1.00  0.00     0.017 A 
ATOM     16  C   UNL A   1      31.940  28.117  23.904  1.00  0.00     0.278 A 
ATOM     17  C   UNL A   1      29.357  28.802  23.130  1.00  0.00     0.001 A 
ATOM     18  C   UNL A   1      31.385  29.366  24.269  1.00  0.00     0.086 A 
ATOM     19  C   UNL A   1      30.098  29.707  23.873  1.00  0.00     0.007 A 
BRANCH  16  20
ATOM     20  N   UNL A   1      33.258  27.825  24.472  1.00  0.00     0.063 N 
ATOM     21  O   UNL A   1      34.250  28.163  23.807  1.00  0.00    -0.258 OA
ATOM     22  O   UNL A   1      33.316  27.372  25.624  1.00  0.00    -0.258 OA
ENDBRANCH  16  20
ENDBRANCH  12  14
ENDBRANCH   7  12
ENDBRANCH   6   7
ENDBRANCH   4   6
ENDBRANCH   3   4
ENDBRANCH   2   3
ENDBRANCH   1   2
BRANCH   1  23
ATOM     23  O   UNL A   1      34.616  20.677  25.765  1.00  0.00    -0.374 OA
BRANCH  23  24
ATOM     24  C   UNL A   1      35.793  21.325  25.288  1.00  0.00     0.202 C 
BRANCH  24  25
ATOM     25  C   UNL A   1      37.077  20.507  25.119  1.00  0.00     0.261 C 
BRANCH  25  26
ATOM     26  O   UNL A   1      38.271  21.291  25.002  1.00  0.00    -0.460 OA
BRANCH  26  27
ATOM     27  C   UNL A   1      39.193  21.028  25.958  1.00  0.00     0.338 C 
ATOM     28  O   UNL A   1      39.749  19.965  26.178  1.00  0.00    -0.246 OA
BRANCH  27  29
ATOM     29  C   UNL A   1      39.611  22.281  26.607  1.00  0.00     0.060 A 
ATOM     30  C   UNL A   1      39.012  23.463  26.156  1.00  0.00     0.016 A 
ATOM     31  C   UNL A   1      40.629  22.311  27.560  1.00  0.00     0.016 A 
ATOM     32  C   UNL A   1      39.476  24.691  26.610  1.00  0.00     0.010 A 
ATOM     33  C   UNL A   1      41.092  23.549  28.017  1.00  0.00     0.010 A 
ATOM     34  C   UNL A   1      40.549  24.744  27.509  1.00  0.00    -0.014 A 
BRANCH  34  35
ATOM     35  C   UNL A   1      41.176  26.054  27.803  1.00  0.00     0.031 A 
ATOM     36  C   UNL A   1      42.578  26.325  27.328  1.00  0.00     0.074 A 
ATOM     37  C   UNL A   1      40.484  27.008  28.451  1.00  0.00     0.049 A 
ATOM     38  N   UNL A   1      43.304  27.403  27.471  1.00  0.00    -0.248 NA
ATOM     39  C   UNL A   1      43.254  25.239  26.600  1.00  0.00     0.031 C 
ATOM     40  C   UNL A   1      39.116  26.865  28.948  1.00  0.00     0.029 A 
ATOM     41  N   UNL A   1      40.845  28.281  28.814  1.00  0.00    -0.354 N 
ATOM     42  C   UNL A   1      44.530  27.115  26.882  1.00  0.00     0.074 A 
ATOM     43  C   UNL A   1      44.455  25.756  26.394  1.00  0.00     0.031 C 
ATOM     44  C   UNL A   1      38.757  28.003  29.567  1.00  0.00     0.029 A 
ATOM     45  C   UNL A   1      39.880  28.937  29.541  1.00  0.00     0.049 A 
ATOM     46  H   UNL A   1      41.710  28.685  28.577  1.00  0.00     0.167 HD
ATOM     47  C   UNL A   1      45.615  27.915  26.749  1.00  0.00     0.034 A 
ATOM     48  C   UNL A   1      39.911  30.142  30.141  1.00  0.00     0.034 A 
ATOM     49  C   UNL A   1      45.679  29.272  27.226  1.00  0.00     0.049 A 
ATOM     50  C   UNL A   1      41.142  30.998  30.009  1.00  0.00     0.074 A 
ATOM     51  C   UNL A   1      46.715  30.179  27.097  1.00  0.00     0.029 A 
ATOM     52  N   UNL A   1      44.678  29.908  27.942  1.00  0.00    -0.354 N 
ATOM     53  N   UNL A   1      42.254  30.751  29.360  1.00  0.00    -0.248 NA
ATOM     54  C   UNL A   1      41.108  32.314  30.662  1.00  0.00     0.031 C 
ATOM     55  C   UNL A   1      46.362  31.345  27.784  1.00  0.00     0.029 A 
ATOM     56  C   UNL A   1      45.080  31.188  28.284  1.00  0.00     0.049 A 
ATOM     57  H   UNL A   1      43.808  29.509  28.174  1.00  0.00     0.167 HD
ATOM     58  C   UNL A   1      43.036  31.894  29.493  1.00  0.00     0.074 A 
ATOM     59  C   UNL A   1      42.259  32.840  30.266  1.00  0.00     0.031 C 
ATOM     60  C   UNL A   1      44.285  32.136  29.022  1.00  0.00     0.034 A 
BRANCH  47  61
ATOM     61  C   UNL A   1      46.829  27.344  26.061  1.00  0.00     0.023 A 
ATOM     62  C   UNL A   1      46.968  27.452  24.662  1.00  0.00     0.012 A 
ATOM     63  C   UNL A   1      47.862  26.751  26.812  1.00  0.00     0.148 A 
ATOM     64  C   UNL A   1      48.097  26.944  24.019  1.00  0.00     0.002 A 
ATOM     65  C   UNL A   1      49.007  26.294  26.171  1.00  0.00     0.091 A 
ATOM     66  F   UNL A   1      47.706  26.641  28.139  1.00  0.00    -0.205 F 
ATOM     67  C   UNL A   1      49.120  26.377  24.774  1.00  0.00     0.022 A 
BRANCH  65  68
ATOM     68  S   UNL A   1      50.415  25.623  27.062  1.00  0.00     0.127 S 
ATOM     69  O   UNL A   1      50.612  26.631  28.104  1.00  0.00    -0.237 OA
ATOM     70  O   UNL A   1      49.890  24.344  27.542  1.00  0.00    -0.237 OA
ATOM     71  O   UNL A   1      51.494  25.514  26.091  1.00  0.00    -0.744 OA
ENDBRANCH  65  68
ENDBRANCH  47  61
BRANCH  48  72
ATOM     72  C   UNL A   1      38.730  30.619  30.916  1.00  0.00     0.023 A 
ATOM     73  C   UNL A   1      38.675  30.415  32.308  1.00  0.00     0.012 A 
ATOM     74  C   UNL A   1      37.665  31.279  30.274  1.00  0.00     0.148 A 
ATOM     75  C   UNL A   1      37.561  30.827  33.041  1.00  0.00     0.002 A 
ATOM     76  C   UNL A   1      36.587  31.740  31.018  1.00  0.00     0.091 A 
ATOM     77  F   UNL A   1      37.735  31.453  28.947  1.00  0.00    -0.205 F 
ATOM     78  C   UNL A   1      36.522  31.497  32.399  1.00  0.00     0.022 A 
BRANCH  76  79
ATOM     79  S   UNL A   1      35.269  32.723  30.296  1.00  0.00     0.127 S 
ATOM     80  O   UNL A   1      34.368  32.896  31.432  1.00  0.00    -0.237 OA
ATOM     81  O   UNL A   1      35.988  33.930  29.888  1.00  0.00    -0.237 OA
ATOM     82  O   UNL A   1      34.744  31.933  29.191  1.00  0.00    -0.744 OA
ENDBRANCH  76  79
ENDBRANCH  48  72
BRANCH  60  83
ATOM     83  C   UNL A   1      44.876  33.500  29.278  1.00  0.00     0.023 A 
ATOM     84  C   UNL A   1      45.674  33.730  30.416  1.00  0.00     0.012 A 
ATOM     85  C   UNL A   1      44.680  34.543  28.351  1.00  0.00     0.148 A 
ATOM     86  C   UNL A   1      46.229  34.988  30.650  1.00  0.00     0.002 A 
ATOM     87  C   UNL A   1      45.285  35.776  28.561  1.00  0.00     0.091 A 
ATOM     88  F   UNL A   1      43.907  34.312  27.281  1.00  0.00    -0.205 F 
ATOM     89  C   UNL A   1      46.044  36.006  29.718  1.00  0.00     0.022 A 
BRANCH  87  90
ATOM     90  S   UNL A   1      45.184  37.116  27.368  1.00  0.00     0.127 S 
ATOM     91  O   UNL A   1      46.147  36.686  26.355  1.00  0.00    -0.237 OA
ATOM     92  O   UNL A   1      43.785  37.048  26.947  1.00  0.00    -0.237 OA
ATOM     93  O   UNL A   1      45.543  38.329  28.091  1.00  0.00    -0.744 OA
ENDBRANCH  87  90
ENDBRANCH  60  83
ENDBRANCH  34  35
ENDBRANCH  27  29
ENDBRANCH  26  27
ENDBRANCH  25  26
ENDBRANCH  24  25
ENDBRANCH  23  24
ENDBRANCH   1  23
TORSDOF 23
ENDMDL
MODEL 3
REMARK VINA RESULT:      -9.8      1.610      7.979
REMARK SMILES C#CC[N@H+](CC(=O)OCCOCCOC(=O)c1ccc(-c2c3nc(c(-c4cccc(S(=O)(=O)[O-])c4F)c4ccc([nH]4)c(-c4cccc(S(=O)(=O)[O-])c4F)c4nc(c(-c5cccc(S(=O)(=O)[O-])c5F)c5ccc2[nH]5)C=C4)C=C3)cc1)[C@H](C)c1ccccc1[N+](=O)[O-]
REMARK SMILES IDX 10 1 9 2 8 3 6 4 7 5 5 6 4 7 3 9 2 10 1 11 80 12 81 13 82 14
REMARK SMILES IDX 83 15 87 16 84 17 86 18 85 19 88 20 89 21 90 22 11 23 12 24
REMARK SMILES IDX 13 25 14 26 15 27 16 28 17 29 18 30 79 31 19 32 78 33 20 34
REMARK SMILES IDX 21 35 22 36 72 37 23 38 77 39 71 40 73 41 24 42 76 43 70 44
REMARK SMILES IDX 69 45 25 47 57 48 37 49 56 50 38 51 41 52 55 53 74 54 39 55
REMARK SMILES IDX 40 56 54 58 75 59 42 60 26 61 27 62 35 63 28 64 30 65 36 66
REMARK SMILES IDX 29 67 31 68 32 69 33 70 34 71 58 72 59 73 67 74 60 75 62 76
REMARK SMILES IDX 68 77 61 78 63 79 64 80 65 81 66 82 43 83 44 84 52 85 45 86
REMARK SMILES IDX 47 87 53 88 46 89 48 90 49 91 50 92 51 93
REMARK H PARENT 4 8 73 46 41 57
REMARK Flexibility Score: inf
ROOT
ATOM      1  C   UNL A   1      33.750  19.907  24.828  1.00  0.00     0.202 C 
ENDROOT
BRANCH   1   2
ATOM      2  C   UNL A   1      32.867  20.644  25.835  1.00  0.00     0.261 C 
BRANCH   2   3
ATOM      3  O   UNL A   1      33.635  21.580  26.607  1.00  0.00    -0.459 OA
BRANCH   3   4
ATOM      4  C   UNL A   1      32.956  22.609  27.158  1.00  0.00     0.361 C 
ATOM      5  O   UNL A   1      32.378  22.547  28.242  1.00  0.00    -0.245 OA
BRANCH   4   6
ATOM      6  C   UNL A   1      32.886  23.866  26.301  1.00  0.00     0.387 C 
BRANCH   6   7
ATOM      7  N   UNL A   1      32.872  23.807  24.785  1.00  0.00    -0.309 N 
ATOM      8  H   UNL A   1      33.071  22.869  24.435  1.00  0.00     0.349 HD
BRANCH   7   9
ATOM      9  C   UNL A   1      31.522  24.119  24.259  1.00  0.00     0.354 C 
BRANCH   9  10
ATOM     10  C   UNL A   1      30.679  24.955  25.129  1.00  0.00    -0.047 C 
ATOM     11  C   UNL A   1      29.959  25.598  25.850  1.00  0.00     0.010 C 
ENDBRANCH   9  10
ENDBRANCH   7   9
BRANCH   7  12
ATOM     12  C   UNL A   1      33.964  24.744  24.299  1.00  0.00     0.220 C 
ATOM     13  C   UNL A   1      35.386  24.248  24.685  1.00  0.00     0.081 C 
BRANCH  12  14
ATOM     14  C   UNL A   1      33.704  26.247  24.531  1.00  0.00     0.087 A 
ATOM     15  C   UNL A   1      34.021  26.851  25.770  1.00  0.00     0.017 A 
ATOM     16  C   UNL A   1      33.115  27.103  23.567  1.00  0.00     0.278 A 
ATOM     17  C   UNL A   1      33.725  28.192  26.052  1.00  0.00     0.001 A 
ATOM     18  C   UNL A   1      32.771  28.440  23.871  1.00  0.00     0.086 A 
ATOM     19  C   UNL A   1      33.069  28.977  25.118  1.00  0.00     0.007 A 
BRANCH  16  20
ATOM     20  N   UNL A   1      32.850  26.684  22.188  1.00  0.00     0.063 N 
ATOM     21  O   UNL A   1      33.826  26.345  21.500  1.00  0.00    -0.258 OA
ATOM     22  O   UNL A   1      31.671  26.575  21.821  1.00  0.00    -0.258 OA
ENDBRANCH  16  20
ENDBRANCH  12  14
ENDBRANCH   7  12
ENDBRANCH   6   7
ENDBRANCH   4   6
ENDBRANCH   3   4
ENDBRANCH   2   3
ENDBRANCH   1   2
BRANCH   1  23
ATOM     23  O   UNL A   1      35.112  19.674  25.183  1.00  0.00    -0.374 OA
BRANCH  23  24
ATOM     24  C   UNL A   1      36.080  20.666  24.854  1.00  0.00     0.202 C 
BRANCH  24  25
ATOM     25  C   UNL A   1      37.564  20.286  24.848  1.00  0.00     0.261 C 
BRANCH  25  26
ATOM     26  O   UNL A   1      38.457  21.371  25.126  1.00  0.00    -0.460 OA
BRANCH  26  27
ATOM     27  C   UNL A   1      39.309  21.128  26.151  1.00  0.00     0.338 C 
ATOM     28  O   UNL A   1      39.788  20.054  26.476  1.00  0.00    -0.246 OA
BRANCH  27  29
ATOM     29  C   UNL A   1      39.764  22.398  26.735  1.00  0.00     0.060 A 
ATOM     30  C   UNL A   1      39.216  23.574  26.209  1.00  0.00     0.016 A 
ATOM     31  C   UNL A   1      40.771  22.446  27.699  1.00  0.00     0.016 A 
ATOM     32  C   UNL A   1      39.719  24.809  26.601  1.00  0.00     0.010 A 
ATOM     33  C   UNL A   1      41.274  23.690  28.093  1.00  0.00     0.010 A 
ATOM     34  C   UNL A   1      40.781  24.873  27.512  1.00  0.00    -0.014 A 
BRANCH  34  35
ATOM     35  C   UNL A   1      41.453  26.174  27.740  1.00  0.00     0.031 A 
ATOM     36  C   UNL A   1      40.764  27.226  28.567  1.00  0.00     0.074 A 
ATOM     37  C   UNL A   1      42.685  26.399  27.248  1.00  0.00     0.049 A 
ATOM     38  N   UNL A   1      41.179  28.422  28.894  1.00  0.00    -0.248 NA
ATOM     39  C   UNL A   1      39.431  26.888  29.094  1.00  0.00     0.031 C 
ATOM     40  C   UNL A   1      43.455  25.451  26.443  1.00  0.00     0.029 A 
ATOM     41  N   UNL A   1      43.495  27.501  27.343  1.00  0.00    -0.354 N 
ATOM     42  C   UNL A   1      40.149  28.991  29.634  1.00  0.00     0.074 A 
ATOM     43  C   UNL A   1      39.083  28.016  29.694  1.00  0.00     0.031 C 
ATOM     44  C   UNL A   1      44.624  26.020  26.103  1.00  0.00     0.029 A 
ATOM     45  C   UNL A   1      44.667  27.380  26.634  1.00  0.00     0.049 A 
ATOM     46  H   UNL A   1      43.261  28.300  27.867  1.00  0.00     0.167 HD
ATOM     47  C   UNL A   1      40.101  30.211  30.220  1.00  0.00     0.034 A 
ATOM     48  C   UNL A   1      45.649  28.276  26.415  1.00  0.00     0.034 A 
ATOM     49  C   UNL A   1      41.170  31.174  30.166  1.00  0.00     0.049 A 
ATOM     50  C   UNL A   1      45.555  29.639  27.048  1.00  0.00     0.074 A 
ATOM     51  C   UNL A   1      41.236  32.418  30.766  1.00  0.00     0.029 A 
ATOM     52  N   UNL A   1      42.347  31.011  29.453  1.00  0.00    -0.354 N 
ATOM     53  N   UNL A   1      44.621  30.124  27.830  1.00  0.00    -0.248 NA
ATOM     54  C   UNL A   1      46.668  30.565  26.797  1.00  0.00     0.031 C 
ATOM     55  C   UNL A   1      42.430  33.030  30.372  1.00  0.00     0.029 A 
ATOM     56  C   UNL A   1      43.137  32.141  29.579  1.00  0.00     0.049 A 
ATOM     57  H   UNL A   1      42.587  30.210  28.934  1.00  0.00     0.167 HD
ATOM     58  C   UNL A   1      45.052  31.395  28.196  1.00  0.00     0.074 A 
ATOM     59  C   UNL A   1      46.341  31.594  27.566  1.00  0.00     0.031 C 
ATOM     60  C   UNL A   1      44.435  32.316  28.978  1.00  0.00     0.034 A 
BRANCH  47  61
ATOM     61  C   UNL A   1      38.847  30.582  30.971  1.00  0.00     0.023 A 
ATOM     62  C   UNL A   1      38.758  30.354  32.359  1.00  0.00     0.012 A 
ATOM     63  C   UNL A   1      37.776  31.211  30.306  1.00  0.00     0.148 A 
ATOM     64  C   UNL A   1      37.610  30.711  33.066  1.00  0.00     0.002 A 
ATOM     65  C   UNL A   1      36.657  31.611  31.026  1.00  0.00     0.091 A 
ATOM     66  F   UNL A   1      37.870  31.405  28.983  1.00  0.00    -0.205 F 
ATOM     67  C   UNL A   1      36.566  31.349  32.402  1.00  0.00     0.022 A 
BRANCH  65  68
ATOM     68  S   UNL A   1      35.295  32.514  30.278  1.00  0.00     0.127 S 
ATOM     69  O   UNL A   1      34.931  31.631  29.169  1.00  0.00    -0.237 OA
ATOM     70  O   UNL A   1      34.321  32.555  31.369  1.00  0.00    -0.237 OA
ATOM     71  O   UNL A   1      35.833  33.809  29.889  1.00  0.00    -0.744 OA
ENDBRANCH  65  68
ENDBRANCH  47  61
BRANCH  48  72
ATOM     72  C   UNL A   1      46.816  27.909  25.564  1.00  0.00     0.023 A 
ATOM     73  C   UNL A   1      46.748  28.078  24.168  1.00  0.00     0.012 A 
ATOM     74  C   UNL A   1      47.996  27.399  26.139  1.00  0.00     0.148 A 
ATOM     75  C   UNL A   1      47.821  27.707  23.356  1.00  0.00     0.002 A 
ATOM     76  C   UNL A   1      49.082  27.089  25.331  1.00  0.00     0.091 A 
ATOM     77  F   UNL A   1      48.034  27.237  27.469  1.00  0.00    -0.205 F 
ATOM     78  C   UNL A   1      48.990  27.222  23.938  1.00  0.00     0.022 A 
BRANCH  76  79
ATOM     79  S   UNL A   1      50.668  26.581  26.004  1.00  0.00     0.127 S 
ATOM     80  O   UNL A   1      51.106  27.796  26.685  1.00  0.00    -0.237 OA
ATOM     81  O   UNL A   1      50.277  25.483  26.889  1.00  0.00    -0.237 OA
ATOM     82  O   UNL A   1      51.473  26.175  24.861  1.00  0.00    -0.744 OA
ENDBRANCH  76  79
ENDBRANCH  48  72
BRANCH  60  83
ATOM     83  C   UNL A   1      45.167  33.606  29.249  1.00  0.00     0.023 A 
ATOM     84  C   UNL A   1      45.949  33.753  30.412  1.00  0.00     0.012 A 
ATOM     85  C   UNL A   1      45.121  34.658  28.313  1.00  0.00     0.148 A 
ATOM     86  C   UNL A   1      46.634  34.942  30.660  1.00  0.00     0.002 A 
ATOM     87  C   UNL A   1      45.853  35.817  28.538  1.00  0.00     0.091 A 
ATOM     88  F   UNL A   1      44.362  34.507  27.218  1.00  0.00    -0.205 F 
ATOM     89  C   UNL A   1      46.596  35.968  29.719  1.00  0.00     0.022 A 
BRANCH  87  90
ATOM     90  S   UNL A   1      45.944  37.150  27.338  1.00  0.00     0.127 S 
ATOM     91  O   UNL A   1      46.970  38.010  27.925  1.00  0.00    -0.237 OA
ATOM     92  O   UNL A   1      46.359  36.445  26.126  1.00  0.00    -0.237 OA
ATOM     93  O   UNL A   1      44.608  37.730  27.277  1.00  0.00    -0.744 OA
ENDBRANCH  87  90
ENDBRANCH  60  83
ENDBRANCH  34  35
ENDBRANCH  27  29
ENDBRANCH  26  27
ENDBRANCH  25  26
ENDBRANCH  24  25
ENDBRANCH  23  24
ENDBRANCH   1  23
TORSDOF 23
ENDMDL
