MODEL 1
REMARK VINA RESULT:     -10.5      0.000      0.000
REMARK SMILES CC[N@@H+](Cc1cccc(C)n1)Cc1csc(C(=O)OCCOCCOC(=O)c2ccc(-c3c4nc(c(-c5cccc(S(=O)(=O)[O-])c5F)c5ccc([nH]5)c(-c5cccc(S(=O)(=O)[O-])c5F)c5nc(c(-c6cccc(S(=O)(=O)[O-])c6F)c6ccc3[nH]6)C=C5)C=C4)cc2)n1
REMARK SMILES IDX 21 1 20 2 19 3 17 4 18 5 16 6 13 7 14 8 91 9 15 10 12 11
REMARK SMILES IDX 3 12 2 14 1 15 4 16 5 17 6 18 11 19 7 20 9 21 8 22 10 23
REMARK SMILES IDX 22 24 23 25 24 26 25 27 26 28 27 29 28 30 29 31 90 32 30 33
REMARK SMILES IDX 89 34 31 35 32 36 33 37 83 38 34 39 88 40 82 41 84 42 35 43
REMARK SMILES IDX 87 44 81 45 80 46 36 48 68 49 48 50 67 51 49 52 52 53 66 54
REMARK SMILES IDX 85 55 50 56 51 57 65 59 86 60 53 61 37 62 38 63 46 64 39 65
REMARK SMILES IDX 41 66 47 67 40 68 42 69 43 70 44 71 45 72 69 73 70 74 78 75
REMARK SMILES IDX 71 76 73 77 79 78 72 79 74 80 75 81 76 82 77 83 54 84 55 85
REMARK SMILES IDX 63 86 56 87 58 88 64 89 57 90 59 91 60 92 61 93 62 94
REMARK H PARENT 3 13 84 47 52 58
REMARK Flexibility Score: inf
ROOT
ATOM      1  C   UNL A   1      31.155  28.959  24.935  1.00  0.00     0.202 C 
ENDROOT
BRANCH   1   2
ATOM      2  C   UNL A   1      32.380  28.921  24.016  1.00  0.00     0.261 C 
BRANCH   2   3
ATOM      3  O   UNL A   1      33.050  27.659  24.138  1.00  0.00    -0.458 OA
BRANCH   3   4
ATOM      4  C   UNL A   1      32.410  26.572  23.610  1.00  0.00     0.367 C 
ATOM      5  O   UNL A   1      31.859  26.558  22.514  1.00  0.00    -0.243 OA
BRANCH   4   6
ATOM      6  C   UNL A   1      32.564  25.433  24.505  1.00  0.00     0.202 A 
ATOM      7  C   UNL A   1      32.165  23.476  25.489  1.00  0.00     0.106 A 
ATOM      8  C   UNL A   1      33.320  23.841  26.159  1.00  0.00     0.097 A 
ATOM      9  N   UNL A   1      31.699  24.444  24.609  1.00  0.00    -0.229 NA
ATOM     10  S   UNL A   1      33.901  25.344  25.576  1.00  0.00    -0.115 S 
BRANCH   7  11
ATOM     11  C   UNL A   1      31.453  22.150  25.627  1.00  0.00     0.320 C 
BRANCH  11  12
ATOM     12  N   UNL A   1      32.046  21.035  24.868  1.00  0.00    -0.325 N 
ATOM     13  H   UNL A   1      31.223  20.545  24.518  1.00  0.00     0.348 HD
BRANCH  12  14
ATOM     14  C   UNL A   1      32.826  21.420  23.681  1.00  0.00     0.259 C 
ATOM     15  C   UNL A   1      32.099  21.219  22.356  1.00  0.00     0.071 C 
ENDBRANCH  12  14
BRANCH  12  16
ATOM     16  C   UNL A   1      32.830  20.106  25.715  1.00  0.00     0.319 C 
BRANCH  16  17
ATOM     17  C   UNL A   1      33.083  18.730  25.122  1.00  0.00     0.095 A 
ATOM     18  C   UNL A   1      34.108  18.507  24.207  1.00  0.00     0.030 A 
ATOM     19  N   UNL A   1      32.369  17.704  25.664  1.00  0.00    -0.252 NA
ATOM     20  C   UNL A   1      34.412  17.201  23.838  1.00  0.00     0.004 A 
ATOM     21  C   UNL A   1      32.701  16.437  25.324  1.00  0.00     0.038 A 
ATOM     22  C   UNL A   1      33.710  16.148  24.412  1.00  0.00     0.023 A 
ATOM     23  C   UNL A   1      31.965  15.343  26.035  1.00  0.00     0.067 C 
ENDBRANCH  16  17
ENDBRANCH  12  16
ENDBRANCH  11  12
ENDBRANCH   7  11
ENDBRANCH   4   6
ENDBRANCH   3   4
ENDBRANCH   2   3
ENDBRANCH   1   2
BRANCH   1  24
ATOM     24  O   UNL A   1      31.397  29.615  26.183  1.00  0.00    -0.374 OA
BRANCH  24  25
ATOM     25  C   UNL A   1      32.352  30.681  26.141  1.00  0.00     0.202 C 
BRANCH  25  26
ATOM     26  C   UNL A   1      31.823  32.025  26.649  1.00  0.00     0.261 C 
BRANCH  26  27
ATOM     27  O   UNL A   1      32.871  33.010  26.664  1.00  0.00    -0.460 OA
BRANCH  27  28
ATOM     28  C   UNL A   1      33.260  33.414  27.895  1.00  0.00     0.338 C 
ATOM     29  O   UNL A   1      32.631  34.115  28.671  1.00  0.00    -0.246 OA
BRANCH  28  30
ATOM     30  C   UNL A   1      34.525  32.745  28.265  1.00  0.00     0.060 A 
ATOM     31  C   UNL A   1      34.439  31.426  28.729  1.00  0.00     0.016 A 
ATOM     32  C   UNL A   1      35.761  33.395  28.207  1.00  0.00     0.016 A 
ATOM     33  C   UNL A   1      35.579  30.773  29.192  1.00  0.00     0.010 A 
ATOM     34  C   UNL A   1      36.904  32.738  28.675  1.00  0.00     0.010 A 
ATOM     35  C   UNL A   1      36.811  31.439  29.204  1.00  0.00    -0.014 A 
BRANCH  35  36
ATOM     36  C   UNL A   1      37.969  30.820  29.894  1.00  0.00     0.031 A 
ATOM     37  C   UNL A   1      38.292  31.238  31.302  1.00  0.00     0.074 A 
ATOM     38  C   UNL A   1      38.721  29.893  29.274  1.00  0.00     0.049 A 
ATOM     39  N   UNL A   1      39.248  30.821  32.089  1.00  0.00    -0.248 NA
ATOM     40  C   UNL A   1      37.424  32.266  31.901  1.00  0.00     0.031 C 
ATOM     41  C   UNL A   1      38.514  29.414  27.909  1.00  0.00     0.029 A 
ATOM     42  N   UNL A   1      39.825  29.206  29.712  1.00  0.00    -0.354 N 
ATOM     43  C   UNL A   1      39.115  31.549  33.265  1.00  0.00     0.074 A 
ATOM     44  C   UNL A   1      37.993  32.446  33.083  1.00  0.00     0.031 C 
ATOM     45  C   UNL A   1      39.481  28.529  27.608  1.00  0.00     0.029 A 
ATOM     46  C   UNL A   1      40.379  28.391  28.754  1.00  0.00     0.049 A 
ATOM     47  H   UNL A   1      40.186  29.289  30.624  1.00  0.00     0.167 HD
ATOM     48  C   UNL A   1      39.846  31.466  34.402  1.00  0.00     0.034 A 
ATOM     49  C   UNL A   1      41.492  27.632  28.792  1.00  0.00     0.034 A 
ATOM     50  C   UNL A   1      40.944  30.557  34.591  1.00  0.00     0.049 A 
ATOM     51  C   UNL A   1      42.294  27.561  30.066  1.00  0.00     0.074 A 
ATOM     52  C   UNL A   1      41.705  30.353  35.728  1.00  0.00     0.029 A 
ATOM     53  N   UNL A   1      41.446  29.709  33.616  1.00  0.00    -0.354 N 
ATOM     54  N   UNL A   1      42.069  28.148  31.217  1.00  0.00    -0.248 NA
ATOM     55  C   UNL A   1      43.483  26.696  30.057  1.00  0.00     0.031 C 
ATOM     56  C   UNL A   1      42.683  29.396  35.435  1.00  0.00     0.029 A 
ATOM     57  C   UNL A   1      42.516  28.991  34.119  1.00  0.00     0.049 A 
ATOM     58  H   UNL A   1      41.093  29.631  32.701  1.00  0.00     0.167 HD
ATOM     59  C   UNL A   1      43.067  27.700  32.077  1.00  0.00     0.074 A 
ATOM     60  C   UNL A   1      43.886  26.776  31.318  1.00  0.00     0.031 C 
ATOM     61  C   UNL A   1      43.292  28.035  33.372  1.00  0.00     0.034 A 
BRANCH  48  62
ATOM     62  C   UNL A   1      39.455  32.361  35.546  1.00  0.00     0.023 A 
ATOM     63  C   UNL A   1      38.645  31.853  36.581  1.00  0.00     0.012 A 
ATOM     64  C   UNL A   1      39.924  33.687  35.623  1.00  0.00     0.148 A 
ATOM     65  C   UNL A   1      38.283  32.657  37.660  1.00  0.00     0.002 A 
ATOM     66  C   UNL A   1      39.591  34.472  36.722  1.00  0.00     0.091 A 
ATOM     67  F   UNL A   1      40.670  34.162  34.615  1.00  0.00    -0.205 F 
ATOM     68  C   UNL A   1      38.764  33.962  37.736  1.00  0.00     0.022 A 
BRANCH  66  69
ATOM     69  S   UNL A   1      40.220  36.140  36.938  1.00  0.00     0.127 S 
ATOM     70  O   UNL A   1      39.492  36.579  38.128  1.00  0.00    -0.237 OA
ATOM     71  O   UNL A   1      41.650  35.908  37.149  1.00  0.00    -0.237 OA
ATOM     72  O   UNL A   1      39.900  36.849  35.706  1.00  0.00    -0.744 OA
ENDBRANCH  66  69
ENDBRANCH  48  62
BRANCH  49  73
ATOM     73  C   UNL A   1      41.887  26.839  27.594  1.00  0.00     0.023 A 
ATOM     74  C   UNL A   1      42.544  27.477  26.525  1.00  0.00     0.012 A 
ATOM     75  C   UNL A   1      41.644  25.454  27.524  1.00  0.00     0.148 A 
ATOM     76  C   UNL A   1      42.935  26.754  25.397  1.00  0.00     0.002 A 
ATOM     77  C   UNL A   1      42.083  24.730  26.422  1.00  0.00     0.091 A 
ATOM     78  F   UNL A   1      40.999  24.870  28.544  1.00  0.00    -0.205 F 
ATOM     79  C   UNL A   1      42.715  25.380  25.351  1.00  0.00     0.022 A 
BRANCH  77  80
ATOM     80  S   UNL A   1      41.957  22.939  26.336  1.00  0.00     0.127 S 
ATOM     81  O   UNL A   1      42.620  22.654  25.067  1.00  0.00    -0.237 OA
ATOM     82  O   UNL A   1      42.700  22.527  27.527  1.00  0.00    -0.237 OA
ATOM     83  O   UNL A   1      40.531  22.645  26.386  1.00  0.00    -0.744 OA
ENDBRANCH  77  80
ENDBRANCH  49  73
BRANCH  61  84
ATOM     84  C   UNL A   1      44.458  27.385  34.071  1.00  0.00     0.023 A 
ATOM     85  C   UNL A   1      45.732  27.982  34.003  1.00  0.00     0.012 A 
ATOM     86  C   UNL A   1      44.276  26.234  34.863  1.00  0.00     0.148 A 
ATOM     87  C   UNL A   1      46.813  27.428  34.689  1.00  0.00     0.002 A 
ATOM     88  C   UNL A   1      45.347  25.713  35.580  1.00  0.00     0.091 A 
ATOM     89  F   UNL A   1      43.061  25.668  34.901  1.00  0.00    -0.205 F 
ATOM     90  C   UNL A   1      46.618  26.303  35.486  1.00  0.00     0.022 A 
BRANCH  88  91
ATOM     91  S   UNL A   1      45.165  24.323  36.704  1.00  0.00     0.127 S 
ATOM     92  O   UNL A   1      44.128  24.809  37.613  1.00  0.00    -0.237 OA
ATOM     93  O   UNL A   1      44.735  23.249  35.808  1.00  0.00    -0.237 OA
ATOM     94  O   UNL A   1      46.478  24.118  37.300  1.00  0.00    -0.744 OA
ENDBRANCH  88  91
ENDBRANCH  61  84
ENDBRANCH  35  36
ENDBRANCH  28  30
ENDBRANCH  27  28
ENDBRANCH  26  27
ENDBRANCH  25  26
ENDBRANCH  24  25
ENDBRANCH   1  24
TORSDOF 22
ENDMDL
MODEL 2
REMARK VINA RESULT:     -10.3      5.071     10.753
REMARK SMILES CC[N@@H+](Cc1cccc(C)n1)Cc1csc(C(=O)OCCOCCOC(=O)c2ccc(-c3c4nc(c(-c5cccc(S(=O)(=O)[O-])c5F)c5ccc([nH]5)c(-c5cccc(S(=O)(=O)[O-])c5F)c5nc(c(-c6cccc(S(=O)(=O)[O-])c6F)c6ccc3[nH]6)C=C5)C=C4)cc2)n1
REMARK SMILES IDX 21 1 20 2 19 3 17 4 18 5 16 6 13 7 14 8 91 9 15 10 12 11
REMARK SMILES IDX 3 12 2 14 1 15 4 16 5 17 6 18 11 19 7 20 9 21 8 22 10 23
REMARK SMILES IDX 22 24 23 25 24 26 25 27 26 28 27 29 28 30 29 31 90 32 30 33
REMARK SMILES IDX 89 34 31 35 32 36 33 37 83 38 34 39 88 40 82 41 84 42 35 43
REMARK SMILES IDX 87 44 81 45 80 46 36 48 68 49 48 50 67 51 49 52 52 53 66 54
REMARK SMILES IDX 85 55 50 56 51 57 65 59 86 60 53 61 37 62 38 63 46 64 39 65
REMARK SMILES IDX 41 66 47 67 40 68 42 69 43 70 44 71 45 72 69 73 70 74 78 75
REMARK SMILES IDX 71 76 73 77 79 78 72 79 74 80 75 81 76 82 77 83 54 84 55 85
REMARK SMILES IDX 63 86 56 87 58 88 64 89 57 90 59 91 60 92 61 93 62 94
REMARK H PARENT 3 13 84 47 52 58
REMARK Flexibility Score: inf
ROOT
ATOM      1  C   UNL A   1      35.077  21.463  25.233  1.00  0.00     0.202 C 
ENDROOT
BRANCH   1   2
ATOM      2  C   UNL A   1      33.960  21.363  26.276  1.00  0.00     0.261 C 
BRANCH   2   3
ATOM      3  O   UNL A   1      32.741  20.932  25.654  1.00  0.00    -0.458 OA
BRANCH   3   4
ATOM      4  C   UNL A   1      32.273  21.704  24.627  1.00  0.00     0.367 C 
ATOM      5  O   UNL A   1      32.279  21.365  23.447  1.00  0.00    -0.243 OA
BRANCH   4   6
ATOM      6  C   UNL A   1      31.698  22.931  25.162  1.00  0.00     0.202 A 
ATOM      7  C   UNL A   1      31.228  25.095  25.392  1.00  0.00     0.106 A 
ATOM      8  C   UNL A   1      30.464  24.581  26.426  1.00  0.00     0.097 A 
ATOM      9  N   UNL A   1      31.998  24.142  24.737  1.00  0.00    -0.229 NA
ATOM     10  S   UNL A   1      30.604  22.874  26.482  1.00  0.00    -0.115 S 
BRANCH   7  11
ATOM     11  C   UNL A   1      31.239  26.538  24.943  1.00  0.00     0.320 C 
BRANCH  11  12
ATOM     12  N   UNL A   1      31.743  26.769  23.578  1.00  0.00    -0.325 N 
ATOM     13  H   UNL A   1      32.107  25.851  23.320  1.00  0.00     0.348 HD
BRANCH  12  14
ATOM     14  C   UNL A   1      30.722  27.099  22.572  1.00  0.00     0.259 C 
ATOM     15  C   UNL A   1      29.412  27.625  23.150  1.00  0.00     0.071 C 
ENDBRANCH  12  14
BRANCH  12  16
ATOM     16  C   UNL A   1      32.850  27.753  23.524  1.00  0.00     0.319 C 
BRANCH  16  17
ATOM     17  C   UNL A   1      32.865  28.788  24.636  1.00  0.00     0.095 A 
ATOM     18  C   UNL A   1      31.784  29.636  24.858  1.00  0.00     0.030 A 
ATOM     19  N   UNL A   1      33.914  28.721  25.502  1.00  0.00    -0.252 NA
ATOM     20  C   UNL A   1      31.774  30.435  25.997  1.00  0.00     0.004 A 
ATOM     21  C   UNL A   1      33.873  29.476  26.625  1.00  0.00     0.038 A 
ATOM     22  C   UNL A   1      32.825  30.346  26.902  1.00  0.00     0.023 A 
ATOM     23  C   UNL A   1      34.992  29.280  27.600  1.00  0.00     0.067 C 
ENDBRANCH  16  17
ENDBRANCH  12  16
ENDBRANCH  11  12
ENDBRANCH   7  11
ENDBRANCH   4   6
ENDBRANCH   3   4
ENDBRANCH   2   3
ENDBRANCH   1   2
BRANCH   1  24
ATOM     24  O   UNL A   1      36.037  20.405  25.319  1.00  0.00    -0.374 OA
BRANCH  24  25
ATOM     25  C   UNL A   1      37.290  20.659  24.676  1.00  0.00     0.202 C 
BRANCH  25  26
ATOM     26  C   UNL A   1      38.506  20.085  25.409  1.00  0.00     0.261 C 
BRANCH  26  27
ATOM     27  O   UNL A   1      39.538  21.077  25.535  1.00  0.00    -0.460 OA
BRANCH  27  28
ATOM     28  C   UNL A   1      40.292  20.980  26.655  1.00  0.00     0.338 C 
ATOM     29  O   UNL A   1      40.811  19.972  27.106  1.00  0.00    -0.246 OA
BRANCH  28  30
ATOM     30  C   UNL A   1      40.553  22.329  27.201  1.00  0.00     0.060 A 
ATOM     31  C   UNL A   1      39.862  23.400  26.619  1.00  0.00     0.016 A 
ATOM     32  C   UNL A   1      41.480  22.557  28.223  1.00  0.00     0.016 A 
ATOM     33  C   UNL A   1      40.137  24.706  27.016  1.00  0.00     0.010 A 
ATOM     34  C   UNL A   1      41.756  23.870  28.617  1.00  0.00     0.010 A 
ATOM     35  C   UNL A   1      41.114  24.952  27.990  1.00  0.00    -0.014 A 
BRANCH  35  36
ATOM     36  C   UNL A   1      41.554  26.344  28.249  1.00  0.00     0.031 A 
ATOM     37  C   UNL A   1      42.956  26.749  27.886  1.00  0.00     0.074 A 
ATOM     38  C   UNL A   1      40.712  27.238  28.797  1.00  0.00     0.049 A 
ATOM     39  N   UNL A   1      43.541  27.911  28.017  1.00  0.00    -0.248 NA
ATOM     40  C   UNL A   1      43.814  25.706  27.299  1.00  0.00     0.031 C 
ATOM     41  C   UNL A   1      39.335  26.961  29.201  1.00  0.00     0.029 A 
ATOM     42  N   UNL A   1      40.905  28.555  29.127  1.00  0.00    -0.354 N 
ATOM     43  C   UNL A   1      44.839  27.735  27.555  1.00  0.00     0.074 A 
ATOM     44  C   UNL A   1      44.962  26.350  27.153  1.00  0.00     0.031 C 
ATOM     45  C   UNL A   1      38.814  28.071  29.754  1.00  0.00     0.029 A 
ATOM     46  C   UNL A   1      39.824  29.128  29.754  1.00  0.00     0.049 A 
ATOM     47  H   UNL A   1      41.738  29.044  28.935  1.00  0.00     0.167 HD
ATOM     48  C   UNL A   1      45.835  28.648  27.455  1.00  0.00     0.034 A 
ATOM     49  C   UNL A   1      39.672  30.360  30.279  1.00  0.00     0.034 A 
ATOM     50  C   UNL A   1      45.705  30.029  27.831  1.00  0.00     0.049 A 
ATOM     51  C   UNL A   1      40.797  31.356  30.162  1.00  0.00     0.074 A 
ATOM     52  C   UNL A   1      46.635  31.045  27.708  1.00  0.00     0.029 A 
ATOM     53  N   UNL A   1      44.578  30.587  28.415  1.00  0.00    -0.354 N 
ATOM     54  N   UNL A   1      41.970  31.215  29.592  1.00  0.00    -0.248 NA
ATOM     55  C   UNL A   1      40.565  32.692  30.731  1.00  0.00     0.031 C 
ATOM     56  C   UNL A   1      46.079  32.215  28.237  1.00  0.00     0.029 A 
ATOM     57  C   UNL A   1      44.794  31.930  28.672  1.00  0.00     0.049 A 
ATOM     58  H   UNL A   1      43.747  30.100  28.617  1.00  0.00     0.167 HD
ATOM     59  C   UNL A   1      42.601  32.449  29.704  1.00  0.00     0.074 A 
ATOM     60  C   UNL A   1      41.672  33.332  30.379  1.00  0.00     0.031 C 
ATOM     61  C   UNL A   1      43.843  32.813  29.297  1.00  0.00     0.034 A 
BRANCH  48  62
ATOM     62  C   UNL A   1      47.146  28.185  26.881  1.00  0.00     0.023 A 
ATOM     63  C   UNL A   1      48.232  27.931  27.744  1.00  0.00     0.012 A 
ATOM     64  C   UNL A   1      47.294  27.957  25.499  1.00  0.00     0.148 A 
ATOM     65  C   UNL A   1      49.452  27.486  27.238  1.00  0.00     0.002 A 
ATOM     66  C   UNL A   1      48.502  27.476  25.006  1.00  0.00     0.091 A 
ATOM     67  F   UNL A   1      46.260  28.232  24.691  1.00  0.00    -0.205 F 
ATOM     68  C   UNL A   1      49.584  27.249  25.872  1.00  0.00     0.022 A 
BRANCH  66  69
ATOM     69  S   UNL A   1      48.742  27.077  23.272  1.00  0.00     0.127 S 
ATOM     70  O   UNL A   1      50.194  26.928  23.200  1.00  0.00    -0.237 OA
ATOM     71  O   UNL A   1      47.993  25.826  23.135  1.00  0.00    -0.237 OA
ATOM     72  O   UNL A   1      48.185  28.197  22.525  1.00  0.00    -0.744 OA
ENDBRANCH  66  69
ENDBRANCH  48  62
BRANCH  49  73
ATOM     73  C   UNL A   1      38.383  30.733  30.925  1.00  0.00     0.023 A 
ATOM     74  C   UNL A   1      38.126  30.328  32.248  1.00  0.00     0.012 A 
ATOM     75  C   UNL A   1      37.428  31.515  30.246  1.00  0.00     0.148 A 
ATOM     76  C   UNL A   1      36.930  30.676  32.879  1.00  0.00     0.002 A 
ATOM     77  C   UNL A   1      36.263  31.902  30.898  1.00  0.00     0.091 A 
ATOM     78  F   UNL A   1      37.684  31.872  28.980  1.00  0.00    -0.205 F 
ATOM     79  C   UNL A   1      36.005  31.472  32.208  1.00  0.00     0.022 A 
BRANCH  77  80
ATOM     80  S   UNL A   1      35.078  33.031  30.156  1.00  0.00     0.127 S 
ATOM     81  O   UNL A   1      34.555  32.232  29.051  1.00  0.00    -0.237 OA
ATOM     82  O   UNL A   1      34.139  33.250  31.257  1.00  0.00    -0.237 OA
ATOM     83  O   UNL A   1      35.844  34.211  29.778  1.00  0.00    -0.744 OA
ENDBRANCH  77  80
ENDBRANCH  49  73
BRANCH  61  84
ATOM     84  C   UNL A   1      44.273  34.236  29.545  1.00  0.00     0.023 A 
ATOM     85  C   UNL A   1      44.860  34.581  30.779  1.00  0.00     0.012 A 
ATOM     86  C   UNL A   1      44.175  35.209  28.531  1.00  0.00     0.148 A 
ATOM     87  C   UNL A   1      45.316  35.879  31.009  1.00  0.00     0.002 A 
ATOM     88  C   UNL A   1      44.673  36.488  28.751  1.00  0.00     0.091 A 
ATOM     89  F   UNL A   1      43.597  34.867  27.370  1.00  0.00    -0.205 F 
ATOM     90  C   UNL A   1      45.234  36.828  29.992  1.00  0.00     0.022 A 
BRANCH  88  91
ATOM     91  S   UNL A   1      44.693  37.744  27.465  1.00  0.00     0.127 S 
ATOM     92  O   UNL A   1      45.298  38.875  28.165  1.00  0.00    -0.237 OA
ATOM     93  O   UNL A   1      45.544  37.133  26.444  1.00  0.00    -0.237 OA
ATOM     94  O   UNL A   1      43.305  37.923  27.063  1.00  0.00    -0.744 OA
ENDBRANCH  88  91
ENDBRANCH  61  84
ENDBRANCH  35  36
ENDBRANCH  28  30
ENDBRANCH  27  28
ENDBRANCH  26  27
ENDBRANCH  25  26
ENDBRANCH  24  25
ENDBRANCH   1  24
TORSDOF 22
ENDMDL
MODEL 3
REMARK VINA RESULT:      -9.8      4.819     10.605
REMARK SMILES CC[N@@H+](Cc1cccc(C)n1)Cc1csc(C(=O)OCCOCCOC(=O)c2ccc(-c3c4nc(c(-c5cccc(S(=O)(=O)[O-])c5F)c5ccc([nH]5)c(-c5cccc(S(=O)(=O)[O-])c5F)c5nc(c(-c6cccc(S(=O)(=O)[O-])c6F)c6ccc3[nH]6)C=C5)C=C4)cc2)n1
REMARK SMILES IDX 21 1 20 2 19 3 17 4 18 5 16 6 13 7 14 8 91 9 15 10 12 11
REMARK SMILES IDX 3 12 2 14 1 15 4 16 5 17 6 18 11 19 7 20 9 21 8 22 10 23
REMARK SMILES IDX 22 24 23 25 24 26 25 27 26 28 27 29 28 30 29 31 90 32 30 33
REMARK SMILES IDX 89 34 31 35 32 36 33 37 83 38 34 39 88 40 82 41 84 42 35 43
REMARK SMILES IDX 87 44 81 45 80 46 36 48 68 49 48 50 67 51 49 52 52 53 66 54
REMARK SMILES IDX 85 55 50 56 51 57 65 59 86 60 53 61 37 62 38 63 46 64 39 65
REMARK SMILES IDX 41 66 47 67 40 68 42 69 43 70 44 71 45 72 69 73 70 74 78 75
REMARK SMILES IDX 71 76 73 77 79 78 72 79 74 80 75 81 76 82 77 83 54 84 55 85
REMARK SMILES IDX 63 86 56 87 58 88 64 89 57 90 59 91 60 92 61 93 62 94
REMARK H PARENT 3 13 84 47 52 58
REMARK Flexibility Score: inf
ROOT
ATOM      1  C   UNL A   1      35.355  21.444  25.168  1.00  0.00     0.202 C 
ENDROOT
BRANCH   1   2
ATOM      2  C   UNL A   1      33.984  21.333  25.842  1.00  0.00     0.261 C 
BRANCH   2   3
ATOM      3  O   UNL A   1      32.953  21.232  24.850  1.00  0.00    -0.458 OA
BRANCH   3   4
ATOM      4  C   UNL A   1      32.827  22.286  23.990  1.00  0.00     0.367 C 
ATOM      5  O   UNL A   1      33.220  22.283  22.826  1.00  0.00    -0.243 OA
BRANCH   4   6
ATOM      6  C   UNL A   1      32.087  23.360  24.639  1.00  0.00     0.202 A 
ATOM      7  C   UNL A   1      31.308  25.400  25.074  1.00  0.00     0.106 A 
ATOM      8  C   UNL A   1      30.647  24.686  26.058  1.00  0.00     0.097 A 
ATOM      9  N   UNL A   1      32.197  24.637  24.328  1.00  0.00    -0.229 NA
ATOM     10  S   UNL A   1      31.038  23.020  25.954  1.00  0.00    -0.115 S 
BRANCH   7  11
ATOM     11  C   UNL A   1      31.097  26.863  24.761  1.00  0.00     0.320 C 
BRANCH  11  12
ATOM     12  N   UNL A   1      31.630  27.313  23.463  1.00  0.00    -0.325 N 
ATOM     13  H   UNL A   1      31.898  26.435  23.019  1.00  0.00     0.348 HD
BRANCH  12  14
ATOM     14  C   UNL A   1      30.653  27.943  22.560  1.00  0.00     0.259 C 
ATOM     15  C   UNL A   1      29.249  28.072  23.140  1.00  0.00     0.071 C 
ENDBRANCH  12  14
BRANCH  12  16
ATOM     16  C   UNL A   1      32.832  28.170  23.592  1.00  0.00     0.319 C 
BRANCH  16  17
ATOM     17  C   UNL A   1      32.872  29.068  24.818  1.00  0.00     0.095 A 
ATOM     18  C   UNL A   1      31.770  29.827  25.202  1.00  0.00     0.030 A 
ATOM     19  N   UNL A   1      33.976  28.954  25.606  1.00  0.00    -0.252 NA
ATOM     20  C   UNL A   1      31.798  30.485  26.427  1.00  0.00     0.004 A 
ATOM     21  C   UNL A   1      33.974  29.570  26.812  1.00  0.00     0.038 A 
ATOM     22  C   UNL A   1      32.908  30.346  27.252  1.00  0.00     0.023 A 
ATOM     23  C   UNL A   1      35.161  29.319  27.690  1.00  0.00     0.067 C 
ENDBRANCH  16  17
ENDBRANCH  12  16
ENDBRANCH  11  12
ENDBRANCH   7  11
ENDBRANCH   4   6
ENDBRANCH   3   4
ENDBRANCH   2   3
ENDBRANCH   1   2
BRANCH   1  24
ATOM     24  O   UNL A   1      36.136  20.249  25.260  1.00  0.00    -0.374 OA
BRANCH  24  25
ATOM     25  C   UNL A   1      37.415  20.300  24.618  1.00  0.00     0.202 C 
BRANCH  25  26
ATOM     26  C   UNL A   1      38.531  19.569  25.370  1.00  0.00     0.261 C 
BRANCH  26  27
ATOM     27  O   UNL A   1      39.706  20.392  25.460  1.00  0.00    -0.460 OA
BRANCH  27  28
ATOM     28  C   UNL A   1      40.343  20.352  26.653  1.00  0.00     0.338 C 
ATOM     29  O   UNL A   1      40.763  19.361  27.228  1.00  0.00    -0.246 OA
BRANCH  28  30
ATOM     30  C   UNL A   1      40.621  21.727  27.119  1.00  0.00     0.060 A 
ATOM     31  C   UNL A   1      40.056  22.778  26.385  1.00  0.00     0.016 A 
ATOM     32  C   UNL A   1      41.447  21.993  28.215  1.00  0.00     0.016 A 
ATOM     33  C   UNL A   1      40.361  24.098  26.708  1.00  0.00     0.010 A 
ATOM     34  C   UNL A   1      41.754  23.320  28.536  1.00  0.00     0.010 A 
ATOM     35  C   UNL A   1      41.243  24.376  27.761  1.00  0.00    -0.014 A 
BRANCH  35  36
ATOM     36  C   UNL A   1      41.730  25.762  27.958  1.00  0.00     0.031 A 
ATOM     37  C   UNL A   1      43.094  26.140  27.448  1.00  0.00     0.074 A 
ATOM     38  C   UNL A   1      40.964  26.676  28.582  1.00  0.00     0.049 A 
ATOM     39  N   UNL A   1      43.708  27.291  27.506  1.00  0.00    -0.248 NA
ATOM     40  C   UNL A   1      43.869  25.076  26.787  1.00  0.00     0.031 C 
ATOM     41  C   UNL A   1      39.632  26.427  29.129  1.00  0.00     0.029 A 
ATOM     42  N   UNL A   1      41.213  27.992  28.876  1.00  0.00    -0.354 N 
ATOM     43  C   UNL A   1      44.948  27.089  26.914  1.00  0.00     0.074 A 
ATOM     44  C   UNL A   1      45.006  25.699  26.516  1.00  0.00     0.031 C 
ATOM     45  C   UNL A   1      39.190  27.551  29.721  1.00  0.00     0.029 A 
ATOM     46  C   UNL A   1      40.213  28.589  29.605  1.00  0.00     0.049 A 
ATOM     47  H   UNL A   1      42.029  28.464  28.593  1.00  0.00     0.167 HD
ATOM     48  C   UNL A   1      45.944  27.983  26.703  1.00  0.00     0.034 A 
ATOM     49  C   UNL A   1      40.136  29.828  30.131  1.00  0.00     0.034 A 
ATOM     50  C   UNL A   1      45.876  29.370  27.075  1.00  0.00     0.049 A 
ATOM     51  C   UNL A   1      41.259  30.803  29.888  1.00  0.00     0.074 A 
ATOM     52  C   UNL A   1      46.806  30.368  26.846  1.00  0.00     0.029 A 
ATOM     53  N   UNL A   1      44.826  29.952  27.767  1.00  0.00    -0.354 N 
ATOM     54  N   UNL A   1      42.364  30.636  29.201  1.00  0.00    -0.248 NA
ATOM     55  C   UNL A   1      41.110  32.148  30.464  1.00  0.00     0.031 C 
ATOM     56  C   UNL A   1      46.327  31.552  27.418  1.00  0.00     0.029 A 
ATOM     57  C   UNL A   1      45.090  31.293  27.986  1.00  0.00     0.049 A 
ATOM     58  H   UNL A   1      44.012  29.482  28.059  1.00  0.00     0.167 HD
ATOM     59  C   UNL A   1      43.024  31.860  29.234  1.00  0.00     0.074 A 
ATOM     60  C   UNL A   1      42.185  32.766  29.992  1.00  0.00     0.031 C 
ATOM     61  C   UNL A   1      44.223  32.199  28.697  1.00  0.00     0.034 A 
BRANCH  48  62
ATOM     62  C   UNL A   1      47.180  27.492  26.001  1.00  0.00     0.023 A 
ATOM     63  C   UNL A   1      47.328  27.714  24.616  1.00  0.00     0.012 A 
ATOM     64  C   UNL A   1      48.215  26.854  26.713  1.00  0.00     0.148 A 
ATOM     65  C   UNL A   1      48.472  27.283  23.946  1.00  0.00     0.002 A 
ATOM     66  C   UNL A   1      49.370  26.462  26.045  1.00  0.00     0.091 A 
ATOM     67  F   UNL A   1      48.044  26.626  28.023  1.00  0.00    -0.205 F 
ATOM     68  C   UNL A   1      49.496  26.667  24.662  1.00  0.00     0.022 A 
BRANCH  66  69
ATOM     69  S   UNL A   1      50.769  25.724  26.896  1.00  0.00     0.127 S 
ATOM     70  O   UNL A   1      50.176  24.501  27.433  1.00  0.00    -0.237 OA
ATOM     71  O   UNL A   1      51.720  25.512  25.803  1.00  0.00    -0.237 OA
ATOM     72  O   UNL A   1      51.195  26.705  27.885  1.00  0.00    -0.744 OA
ENDBRANCH  66  69
ENDBRANCH  48  62
BRANCH  49  73
ATOM     73  C   UNL A   1      38.927  30.230  30.903  1.00  0.00     0.023 A 
ATOM     74  C   UNL A   1      38.782  29.806  32.237  1.00  0.00     0.012 A 
ATOM     75  C   UNL A   1      37.940  31.056  30.332  1.00  0.00     0.148 A 
ATOM     76  C   UNL A   1      37.664  30.179  32.984  1.00  0.00     0.002 A 
ATOM     77  C   UNL A   1      36.855  31.468  31.097  1.00  0.00     0.091 A 
ATOM     78  F   UNL A   1      38.088  31.432  29.054  1.00  0.00    -0.205 F 
ATOM     79  C   UNL A   1      36.708  31.019  32.419  1.00  0.00     0.022 A 
BRANCH  77  80
ATOM     80  S   UNL A   1      35.646  32.650  30.492  1.00  0.00     0.127 S 
ATOM     81  O   UNL A   1      34.471  32.312  31.292  1.00  0.00    -0.237 OA
ATOM     82  O   UNL A   1      36.275  33.927  30.831  1.00  0.00    -0.237 OA
ATOM     83  O   UNL A   1      35.532  32.397  29.062  1.00  0.00    -0.744 OA
ENDBRANCH  77  80
ENDBRANCH  49  73
BRANCH  61  84
ATOM     84  C   UNL A   1      44.701  33.615  28.885  1.00  0.00     0.023 A 
ATOM     85  C   UNL A   1      44.388  34.590  27.917  1.00  0.00     0.012 A 
ATOM     86  C   UNL A   1      45.383  33.999  30.057  1.00  0.00     0.148 A 
ATOM     87  C   UNL A   1      44.773  35.919  28.099  1.00  0.00     0.002 A 
ATOM     88  C   UNL A   1      45.722  35.333  30.252  1.00  0.00     0.091 A 
ATOM     89  F   UNL A   1      45.688  33.054  30.958  1.00  0.00    -0.205 F 
ATOM     90  C   UNL A   1      45.427  36.292  29.271  1.00  0.00     0.022 A 
BRANCH  88  91
ATOM     91  S   UNL A   1      46.483  35.917  31.772  1.00  0.00     0.127 S 
ATOM     92  O   UNL A   1      45.482  35.542  32.769  1.00  0.00    -0.237 OA
ATOM     93  O   UNL A   1      47.719  35.135  31.825  1.00  0.00    -0.237 OA
ATOM     94  O   UNL A   1      46.686  37.348  31.592  1.00  0.00    -0.744 OA
ENDBRANCH  88  91
ENDBRANCH  61  84
ENDBRANCH  35  36
ENDBRANCH  28  30
ENDBRANCH  27  28
ENDBRANCH  26  27
ENDBRANCH  25  26
ENDBRANCH  24  25
ENDBRANCH   1  24
TORSDOF 22
ENDMDL
