MODEL 1
REMARK VINA RESULT:     -11.7      0.000      0.000
REMARK SMILES CCCCN1C(=O)[C@@H]2[C@H](CCC(=O)OCCOCCOC(=O)c3ccc(-c4c5nc(c(-c6cccc(S(=O)(=O)[O-])c6F)c6ccc([nH]6)c(-c6cccc(S(=O)(=O)[O-])c6F)c6nc(c(-c7cccc(S(=O)(=O)[O-])c7F)c7ccc4[nH]7)C=C6)C=C5)cc3)[NH2+][C@]3(C(=O)Nc4c(CC)cccc43)[C@@H]2C1=O
REMARK SMILES IDX 16 1 15 2 14 3 12 4 13 5 11 6 10 7 9 8 5 9 6 10 100 11 7 12
REMARK SMILES IDX 8 13 99 14 101 15 87 16 86 17 88 18 98 19 89 22 90 23 91 24
REMARK SMILES IDX 97 25 92 27 96 28 95 29 4 30 3 31 2 32 1 33 93 34 94 35
REMARK SMILES IDX 17 36 18 37 19 38 20 39 21 40 22 41 23 42 24 43 85 44 25 45
REMARK SMILES IDX 84 46 26 47 27 48 28 49 78 50 29 51 83 52 77 53 79 54 30 55
REMARK SMILES IDX 82 56 76 57 75 58 31 60 63 61 43 62 62 63 44 64 47 65 61 66
REMARK SMILES IDX 80 67 45 68 46 69 60 71 81 72 48 73 32 74 33 75 41 76 34 77
REMARK SMILES IDX 36 78 42 79 35 80 37 81 38 82 39 83 40 84 64 85 65 86 73 87
REMARK SMILES IDX 66 88 68 89 74 90 67 91 69 92 70 93 71 94 72 95 49 96 50 97
REMARK SMILES IDX 58 98 51 99 53 100 59 101 52 102 54 103 55 104 56 105 57 106
REMARK H PARENT 86 20 86 21 90 26 79 59 47 70
REMARK Flexibility Score: inf
ROOT
ATOM      1  C   UNL A   1      31.984  28.661  27.214  1.00  0.00     0.202 C 
ENDROOT
BRANCH   1   2
ATOM      2  C   UNL A   1      31.006  27.697  26.536  1.00  0.00     0.261 C 
BRANCH   2   3
ATOM      3  O   UNL A   1      31.252  26.346  26.948  1.00  0.00    -0.463 OA
BRANCH   3   4
ATOM      4  C   UNL A   1      30.368  25.444  26.464  1.00  0.00     0.306 C 
ATOM      5  O   UNL A   1      29.148  25.567  26.466  1.00  0.00    -0.252 OA
BRANCH   4   6
ATOM      6  C   UNL A   1      31.035  24.297  25.757  1.00  0.00     0.129 C 
BRANCH   6   7
ATOM      7  C   UNL A   1      31.042  24.202  24.227  1.00  0.00     0.077 C 
BRANCH   7   8
ATOM      8  C   UNL A   1      31.522  22.934  23.481  1.00  0.00     0.197 C 
ATOM      9  N   UNL A   1      34.121  24.595  23.730  1.00  0.00    -0.282 N 
ATOM     10  C   UNL A   1      33.486  24.256  22.568  1.00  0.00     0.239 C 
ATOM     11  C   UNL A   1      34.362  23.491  24.512  1.00  0.00     0.240 C 
ATOM     12  O   UNL A   1      33.307  24.944  21.577  1.00  0.00    -0.274 OA
ATOM     13  C   UNL A   1      32.888  22.911  22.775  1.00  0.00     0.157 C 
ATOM     14  C   UNL A   1      33.844  22.267  23.770  1.00  0.00     0.174 C 
ATOM     15  O   UNL A   1      34.993  23.493  25.555  1.00  0.00    -0.274 OA
ATOM     16  C   UNL A   1      32.954  21.284  24.512  1.00  0.00     0.216 C 
ATOM     17  N   UNL A   1      31.619  21.914  24.555  1.00  0.00    -0.326 N 
ATOM     18  C   UNL A   1      33.479  20.911  25.940  1.00  0.00     0.291 C 
ATOM     19  C   UNL A   1      32.885  19.904  23.869  1.00  0.00     0.047 A 
ATOM     20  H   UNL A   1      30.903  21.202  24.414  1.00  0.00     0.347 HD
ATOM     21  H   UNL A   1      31.481  22.359  25.462  1.00  0.00     0.347 HD
ATOM     22  O   UNL A   1      33.521  21.601  26.945  1.00  0.00    -0.267 OA
ATOM     23  N   UNL A   1      33.856  19.571  25.902  1.00  0.00    -0.320 N 
ATOM     24  C   UNL A   1      33.468  18.956  24.720  1.00  0.00     0.054 A 
ATOM     25  C   UNL A   1      32.278  19.495  22.690  1.00  0.00     0.013 A 
ATOM     26  H   UNL A   1      34.342  19.114  26.626  1.00  0.00     0.170 HD
ATOM     27  C   UNL A   1      33.521  17.600  24.421  1.00  0.00    -0.024 A 
ATOM     28  C   UNL A   1      32.273  18.131  22.384  1.00  0.00     0.001 A 
ATOM     29  C   UNL A   1      32.890  17.198  23.233  1.00  0.00     0.006 A 
BRANCH   9  30
ATOM     30  C   UNL A   1      34.384  25.973  24.118  1.00  0.00     0.128 C 
BRANCH  30  31
ATOM     31  C   UNL A   1      33.170  26.890  24.120  1.00  0.00     0.022 C 
BRANCH  31  32
ATOM     32  C   UNL A   1      33.323  28.109  23.215  1.00  0.00    -0.002 C 
ATOM     33  C   UNL A   1      31.999  28.732  22.800  1.00  0.00     0.004 C 
ENDBRANCH  31  32
ENDBRANCH  30  31
ENDBRANCH   9  30
BRANCH  27  34
ATOM     34  C   UNL A   1      34.181  16.578  25.306  1.00  0.00     0.034 C 
ATOM     35  C   UNL A   1      33.625  15.175  25.110  1.00  0.00     0.009 C 
ENDBRANCH  27  34
ENDBRANCH   7   8
ENDBRANCH   6   7
ENDBRANCH   4   6
ENDBRANCH   3   4
ENDBRANCH   2   3
ENDBRANCH   1   2
BRANCH   1  36
ATOM     36  O   UNL A   1      32.511  29.735  26.437  1.00  0.00    -0.374 OA
BRANCH  36  37
ATOM     37  C   UNL A   1      31.623  30.757  25.986  1.00  0.00     0.202 C 
BRANCH  37  38
ATOM     38  C   UNL A   1      31.738  32.163  26.596  1.00  0.00     0.261 C 
BRANCH  38  39
ATOM     39  O   UNL A   1      32.531  32.191  27.799  1.00  0.00    -0.460 OA
BRANCH  39  40
ATOM     40  C   UNL A   1      33.493  33.152  27.818  1.00  0.00     0.338 C 
ATOM     41  O   UNL A   1      33.328  34.355  27.746  1.00  0.00    -0.246 OA
BRANCH  40  42
ATOM     42  C   UNL A   1      34.791  32.544  28.168  1.00  0.00     0.060 A 
ATOM     43  C   UNL A   1      35.943  33.316  28.309  1.00  0.00     0.016 A 
ATOM     44  C   UNL A   1      34.814  31.173  28.456  1.00  0.00     0.016 A 
ATOM     45  C   UNL A   1      37.114  32.708  28.778  1.00  0.00     0.010 A 
ATOM     46  C   UNL A   1      35.985  30.570  28.911  1.00  0.00     0.010 A 
ATOM     47  C   UNL A   1      37.141  31.337  29.100  1.00  0.00    -0.014 A 
BRANCH  47  48
ATOM     48  C   UNL A   1      38.309  30.741  29.799  1.00  0.00     0.031 A 
ATOM     49  C   UNL A   1      39.162  29.680  29.164  1.00  0.00     0.074 A 
ATOM     50  C   UNL A   1      38.548  31.115  31.073  1.00  0.00     0.049 A 
ATOM     51  N   UNL A   1      40.225  29.092  29.648  1.00  0.00    -0.248 NA
ATOM     52  C   UNL A   1      38.775  29.212  27.823  1.00  0.00     0.031 C 
ATOM     53  C   UNL A   1      37.734  32.065  31.835  1.00  0.00     0.029 A 
ATOM     54  N   UNL A   1      39.525  30.731  31.957  1.00  0.00    -0.354 N 
ATOM     55  C   UNL A   1      40.631  28.176  28.685  1.00  0.00     0.074 A 
ATOM     56  C   UNL A   1      39.691  28.278  27.588  1.00  0.00     0.031 C 
ATOM     57  C   UNL A   1      38.252  32.199  33.065  1.00  0.00     0.029 A 
ATOM     58  C   UNL A   1      39.417  31.329  33.190  1.00  0.00     0.049 A 
ATOM     59  H   UNL A   1      40.235  30.087  31.730  1.00  0.00     0.167 HD
ATOM     60  C   UNL A   1      41.698  27.344  28.708  1.00  0.00     0.034 A 
ATOM     61  C   UNL A   1      40.167  31.197  34.301  1.00  0.00     0.034 A 
ATOM     62  C   UNL A   1      42.638  27.252  29.794  1.00  0.00     0.049 A 
ATOM     63  C   UNL A   1      41.359  30.286  34.288  1.00  0.00     0.074 A 
ATOM     64  C   UNL A   1      43.796  26.493  29.859  1.00  0.00     0.029 A 
ATOM     65  N   UNL A   1      42.526  27.912  31.005  1.00  0.00    -0.354 N 
ATOM     66  N   UNL A   1      41.817  29.552  33.305  1.00  0.00    -0.248 NA
ATOM     67  C   UNL A   1      42.153  30.202  35.523  1.00  0.00     0.031 C 
ATOM     68  C   UNL A   1      44.373  26.682  31.116  1.00  0.00     0.029 A 
ATOM     69  C   UNL A   1      43.587  27.574  31.827  1.00  0.00     0.049 A 
ATOM     70  H   UNL A   1      41.799  28.531  31.246  1.00  0.00     0.167 HD
ATOM     71  C   UNL A   1      42.963  28.937  33.793  1.00  0.00     0.074 A 
ATOM     72  C   UNL A   1      43.140  29.395  35.155  1.00  0.00     0.031 C 
ATOM     73  C   UNL A   1      43.784  28.063  33.165  1.00  0.00     0.034 A 
BRANCH  60  74
ATOM     74  C   UNL A   1      41.975  26.497  27.496  1.00  0.00     0.023 A 
ATOM     75  C   UNL A   1      42.691  27.060  26.423  1.00  0.00     0.012 A 
ATOM     76  C   UNL A   1      41.674  25.120  27.488  1.00  0.00     0.148 A 
ATOM     77  C   UNL A   1      43.107  26.266  25.356  1.00  0.00     0.002 A 
ATOM     78  C   UNL A   1      42.116  24.330  26.434  1.00  0.00     0.091 A 
ATOM     79  F   UNL A   1      40.990  24.611  28.522  1.00  0.00    -0.205 F 
ATOM     80  C   UNL A   1      42.830  24.901  25.366  1.00  0.00     0.022 A 
BRANCH  78  81
ATOM     81  S   UNL A   1      41.864  22.552  26.373  1.00  0.00     0.127 S 
ATOM     82  O   UNL A   1      40.406  22.464  26.299  1.00  0.00    -0.237 OA
ATOM     83  O   UNL A   1      42.560  22.187  25.141  1.00  0.00    -0.237 OA
ATOM     84  O   UNL A   1      42.451  22.019  27.595  1.00  0.00    -0.744 OA
ENDBRANCH  78  81
ENDBRANCH  60  74
BRANCH  61  85
ATOM     85  C   UNL A   1      39.835  32.010  35.503  1.00  0.00     0.023 A 
ATOM     86  C   UNL A   1      40.419  33.281  35.656  1.00  0.00     0.012 A 
ATOM     87  C   UNL A   1      38.899  31.556  36.451  1.00  0.00     0.148 A 
ATOM     88  C   UNL A   1      40.082  34.087  36.744  1.00  0.00     0.002 A 
ATOM     89  C   UNL A   1      38.540  32.380  37.511  1.00  0.00     0.091 A 
ATOM     90  F   UNL A   1      38.359  30.342  36.278  1.00  0.00    -0.205 F 
ATOM     91  C   UNL A   1      39.137  33.640  37.665  1.00  0.00     0.022 A 
BRANCH  89  92
ATOM     92  S   UNL A   1      37.266  31.934  38.695  1.00  0.00     0.127 S 
ATOM     93  O   UNL A   1      36.168  32.811  38.295  1.00  0.00    -0.237 OA
ATOM     94  O   UNL A   1      37.064  30.516  38.393  1.00  0.00    -0.237 OA
ATOM     95  O   UNL A   1      37.834  32.201  40.009  1.00  0.00    -0.744 OA
ENDBRANCH  89  92
ENDBRANCH  61  85
BRANCH  73  96
ATOM     96  C   UNL A   1      44.975  27.537  33.917  1.00  0.00     0.023 A 
ATOM     97  C   UNL A   1      46.176  28.273  33.917  1.00  0.00     0.012 A 
ATOM     98  C   UNL A   1      44.861  26.393  34.729  1.00  0.00     0.148 A 
ATOM     99  C   UNL A   1      47.248  27.874  34.715  1.00  0.00     0.002 A 
ATOM    100  C   UNL A   1      45.920  26.020  35.547  1.00  0.00     0.091 A 
ATOM    101  F   UNL A   1      43.707  25.708  34.705  1.00  0.00    -0.205 F 
ATOM    102  C   UNL A   1      47.115  26.757  35.538  1.00  0.00     0.022 A 
BRANCH 100 103
ATOM    103  S   UNL A   1      45.822  24.641  36.694  1.00  0.00     0.127 S 
ATOM    104  O   UNL A   1      47.138  24.689  37.330  1.00  0.00    -0.237 OA
ATOM    105  O   UNL A   1      44.711  25.037  37.558  1.00  0.00    -0.237 OA
ATOM    106  O   UNL A   1      45.573  23.456  35.883  1.00  0.00    -0.744 OA
ENDBRANCH 100 103
ENDBRANCH  73  96
ENDBRANCH  47  48
ENDBRANCH  40  42
ENDBRANCH  39  40
ENDBRANCH  38  39
ENDBRANCH  37  38
ENDBRANCH  36  37
ENDBRANCH   1  36
TORSDOF 23
ENDMDL
MODEL 2
REMARK VINA RESULT:     -11.4      1.936      2.557
REMARK SMILES CCCCN1C(=O)[C@@H]2[C@H](CCC(=O)OCCOCCOC(=O)c3ccc(-c4c5nc(c(-c6cccc(S(=O)(=O)[O-])c6F)c6ccc([nH]6)c(-c6cccc(S(=O)(=O)[O-])c6F)c6nc(c(-c7cccc(S(=O)(=O)[O-])c7F)c7ccc4[nH]7)C=C6)C=C5)cc3)[NH2+][C@]3(C(=O)Nc4c(CC)cccc43)[C@@H]2C1=O
REMARK SMILES IDX 16 1 15 2 14 3 12 4 13 5 11 6 10 7 9 8 5 9 6 10 100 11 7 12
REMARK SMILES IDX 8 13 99 14 101 15 87 16 86 17 88 18 98 19 89 22 90 23 91 24
REMARK SMILES IDX 97 25 92 27 96 28 95 29 4 30 3 31 2 32 1 33 93 34 94 35
REMARK SMILES IDX 17 36 18 37 19 38 20 39 21 40 22 41 23 42 24 43 85 44 25 45
REMARK SMILES IDX 84 46 26 47 27 48 28 49 78 50 29 51 83 52 77 53 79 54 30 55
REMARK SMILES IDX 82 56 76 57 75 58 31 60 63 61 43 62 62 63 44 64 47 65 61 66
REMARK SMILES IDX 80 67 45 68 46 69 60 71 81 72 48 73 32 74 33 75 41 76 34 77
REMARK SMILES IDX 36 78 42 79 35 80 37 81 38 82 39 83 40 84 64 85 65 86 73 87
REMARK SMILES IDX 66 88 68 89 74 90 67 91 69 92 70 93 71 94 72 95 49 96 50 97
REMARK SMILES IDX 58 98 51 99 53 100 59 101 52 102 54 103 55 104 56 105 57 106
REMARK H PARENT 86 20 86 21 90 26 79 59 47 70
REMARK Flexibility Score: inf
ROOT
ATOM      1  C   UNL A   1      33.192  28.384  27.274  1.00  0.00     0.202 C 
ENDROOT
BRANCH   1   2
ATOM      2  C   UNL A   1      31.667  28.397  27.123  1.00  0.00     0.261 C 
BRANCH   2   3
ATOM      3  O   UNL A   1      31.151  27.063  27.039  1.00  0.00    -0.463 OA
BRANCH   3   4
ATOM      4  C   UNL A   1      30.676  26.723  25.819  1.00  0.00     0.306 C 
ATOM      5  O   UNL A   1      30.587  27.473  24.852  1.00  0.00    -0.252 OA
BRANCH   4   6
ATOM      6  C   UNL A   1      30.396  25.251  25.692  1.00  0.00     0.129 C 
BRANCH   6   7
ATOM      7  C   UNL A   1      31.512  24.213  25.848  1.00  0.00     0.077 C 
BRANCH   7   8
ATOM      8  C   UNL A   1      31.590  22.946  24.963  1.00  0.00     0.197 C 
ATOM      9  N   UNL A   1      33.476  24.912  23.495  1.00  0.00    -0.282 N 
ATOM     10  C   UNL A   1      32.307  24.398  23.009  1.00  0.00     0.239 C 
ATOM     11  C   UNL A   1      34.317  23.919  23.936  1.00  0.00     0.240 C 
ATOM     12  O   UNL A   1      31.441  24.967  22.365  1.00  0.00    -0.274 OA
ATOM     13  C   UNL A   1      32.182  23.017  23.544  1.00  0.00     0.157 C 
ATOM     14  C   UNL A   1      33.633  22.582  23.693  1.00  0.00     0.174 C 
ATOM     15  O   UNL A   1      35.457  24.090  24.332  1.00  0.00    -0.274 OA
ATOM     16  C   UNL A   1      33.574  21.574  24.829  1.00  0.00     0.216 C 
ATOM     17  N   UNL A   1      32.495  22.046  25.720  1.00  0.00    -0.326 N 
ATOM     18  C   UNL A   1      34.932  21.395  25.587  1.00  0.00     0.291 C 
ATOM     19  C   UNL A   1      33.316  20.142  24.373  1.00  0.00     0.047 A 
ATOM     20  H   UNL A   1      31.967  21.246  26.067  1.00  0.00     0.347 HD
ATOM     21  H   UNL A   1      32.900  22.552  26.506  1.00  0.00     0.347 HD
ATOM     22  O   UNL A   1      35.500  22.174  26.334  1.00  0.00    -0.267 OA
ATOM     23  N   UNL A   1      35.392  20.110  25.310  1.00  0.00    -0.320 N 
ATOM     24  C   UNL A   1      34.438  19.350  24.649  1.00  0.00     0.054 A 
ATOM     25  C   UNL A   1      32.168  19.560  23.855  1.00  0.00     0.013 A 
ATOM     26  H   UNL A   1      36.287  19.781  25.553  1.00  0.00     0.170 HD
ATOM     27  C   UNL A   1      34.489  17.987  24.379  1.00  0.00    -0.024 A 
ATOM     28  C   UNL A   1      32.171  18.183  23.617  1.00  0.00     0.001 A 
ATOM     29  C   UNL A   1      33.315  17.408  23.870  1.00  0.00     0.006 A 
BRANCH   9  30
ATOM     30  C   UNL A   1      33.718  26.341  23.631  1.00  0.00     0.128 C 
BRANCH  30  31
ATOM     31  C   UNL A   1      33.826  27.109  22.323  1.00  0.00     0.022 C 
BRANCH  31  32
ATOM     32  C   UNL A   1      33.880  28.624  22.506  1.00  0.00    -0.002 C 
ATOM     33  C   UNL A   1      33.559  29.080  23.921  1.00  0.00     0.004 C 
ENDBRANCH  31  32
ENDBRANCH  30  31
ENDBRANCH   9  30
BRANCH  27  34
ATOM     34  C   UNL A   1      35.702  17.133  24.631  1.00  0.00     0.034 C 
ATOM     35  C   UNL A   1      35.378  15.848  25.378  1.00  0.00     0.009 C 
ENDBRANCH  27  34
ENDBRANCH   7   8
ENDBRANCH   6   7
ENDBRANCH   4   6
ENDBRANCH   3   4
ENDBRANCH   2   3
ENDBRANCH   1   2
BRANCH   1  36
ATOM     36  O   UNL A   1      33.853  29.629  27.490  1.00  0.00    -0.374 OA
BRANCH  36  37
ATOM     37  C   UNL A   1      33.142  30.839  27.234  1.00  0.00     0.202 C 
BRANCH  37  38
ATOM     38  C   UNL A   1      33.777  32.176  27.646  1.00  0.00     0.261 C 
BRANCH  38  39
ATOM     39  O   UNL A   1      32.830  33.261  27.681  1.00  0.00    -0.460 OA
BRANCH  39  40
ATOM     40  C   UNL A   1      33.234  34.340  28.403  1.00  0.00     0.338 C 
ATOM     41  O   UNL A   1      32.699  35.432  28.452  1.00  0.00    -0.246 OA
BRANCH  40  42
ATOM     42  C   UNL A   1      34.317  33.941  29.321  1.00  0.00     0.060 A 
ATOM     43  C   UNL A   1      34.067  33.161  30.450  1.00  0.00     0.016 A 
ATOM     44  C   UNL A   1      35.629  34.286  28.972  1.00  0.00     0.016 A 
ATOM     45  C   UNL A   1      35.149  32.697  31.207  1.00  0.00     0.010 A 
ATOM     46  C   UNL A   1      36.703  33.832  29.736  1.00  0.00     0.010 A 
ATOM     47  C   UNL A   1      36.475  33.012  30.848  1.00  0.00    -0.014 A 
BRANCH  47  48
ATOM     48  C   UNL A   1      37.624  32.346  31.515  1.00  0.00     0.031 A 
ATOM     49  C   UNL A   1      38.345  31.187  30.891  1.00  0.00     0.074 A 
ATOM     50  C   UNL A   1      37.963  32.754  32.756  1.00  0.00     0.049 A 
ATOM     51  N   UNL A   1      39.379  30.529  31.348  1.00  0.00    -0.248 NA
ATOM     52  C   UNL A   1      37.847  30.696  29.596  1.00  0.00     0.031 C 
ATOM     53  C   UNL A   1      37.277  33.805  33.511  1.00  0.00     0.029 A 
ATOM     54  N   UNL A   1      38.950  32.323  33.608  1.00  0.00    -0.354 N 
ATOM     55  C   UNL A   1      39.651  29.539  30.412  1.00  0.00     0.074 A 
ATOM     56  C   UNL A   1      38.664  29.675  29.361  1.00  0.00     0.031 C 
ATOM     57  C   UNL A   1      37.871  33.947  34.706  1.00  0.00     0.029 A 
ATOM     58  C   UNL A   1      38.962  32.983  34.814  1.00  0.00     0.049 A 
ATOM     59  H   UNL A   1      39.588  31.610  33.376  1.00  0.00     0.167 HD
ATOM     60  C   UNL A   1      40.642  28.617  30.422  1.00  0.00     0.034 A 
ATOM     61  C   UNL A   1      39.757  32.835  35.891  1.00  0.00     0.034 A 
ATOM     62  C   UNL A   1      41.629  28.490  31.462  1.00  0.00     0.049 A 
ATOM     63  C   UNL A   1      40.863  31.821  35.862  1.00  0.00     0.074 A 
ATOM     64  C   UNL A   1      42.718  27.635  31.505  1.00  0.00     0.029 A 
ATOM     65  N   UNL A   1      41.640  29.210  32.643  1.00  0.00    -0.354 N 
ATOM     66  N   UNL A   1      41.202  31.007  34.894  1.00  0.00    -0.248 NA
ATOM     67  C   UNL A   1      41.714  31.722  37.058  1.00  0.00     0.031 C 
ATOM     68  C   UNL A   1      43.378  27.827  32.722  1.00  0.00     0.029 A 
ATOM     69  C   UNL A   1      42.712  28.816  33.426  1.00  0.00     0.049 A 
ATOM     70  H   UNL A   1      40.984  29.901  32.890  1.00  0.00     0.167 HD
ATOM     71  C   UNL A   1      42.316  30.315  35.352  1.00  0.00     0.074 A 
ATOM     72  C   UNL A   1      42.605  30.815  36.680  1.00  0.00     0.031 C 
ATOM     73  C   UNL A   1      43.023  29.345  34.727  1.00  0.00     0.034 A 
BRANCH  60  74
ATOM     74  C   UNL A   1      40.778  27.696  29.240  1.00  0.00     0.023 A 
ATOM     75  C   UNL A   1      39.916  26.586  29.143  1.00  0.00     0.012 A 
ATOM     76  C   UNL A   1      41.630  28.013  28.164  1.00  0.00     0.148 A 
ATOM     77  C   UNL A   1      39.899  25.803  27.990  1.00  0.00     0.002 A 
ATOM     78  C   UNL A   1      41.588  27.244  27.008  1.00  0.00     0.091 A 
ATOM     79  F   UNL A   1      42.440  29.074  28.285  1.00  0.00    -0.205 F 
ATOM     80  C   UNL A   1      40.725  26.138  26.920  1.00  0.00     0.022 A 
BRANCH  78  81
ATOM     81  S   UNL A   1      42.566  27.620  25.549  1.00  0.00     0.127 S 
ATOM     82  O   UNL A   1      43.914  27.701  26.112  1.00  0.00    -0.237 OA
ATOM     83  O   UNL A   1      42.326  26.446  24.710  1.00  0.00    -0.237 OA
ATOM     84  O   UNL A   1      42.043  28.872  25.022  1.00  0.00    -0.744 OA
ENDBRANCH  78  81
ENDBRANCH  60  74
BRANCH  61  85
ATOM     85  C   UNL A   1      39.563  33.726  37.066  1.00  0.00     0.023 A 
ATOM     86  C   UNL A   1      39.991  35.064  36.994  1.00  0.00     0.012 A 
ATOM     87  C   UNL A   1      38.899  33.270  38.222  1.00  0.00     0.148 A 
ATOM     88  C   UNL A   1      39.771  35.936  38.060  1.00  0.00     0.002 A 
ATOM     89  C   UNL A   1      38.649  34.154  39.264  1.00  0.00     0.091 A 
ATOM     90  F   UNL A   1      38.502  31.991  38.261  1.00  0.00    -0.205 F 
ATOM     91  C   UNL A   1      39.093  35.484  39.190  1.00  0.00     0.022 A 
BRANCH  89  92
ATOM     92  S   UNL A   1      37.703  33.693  40.719  1.00  0.00     0.127 S 
ATOM     93  O   UNL A   1      38.610  32.758  41.379  1.00  0.00    -0.237 OA
ATOM     94  O   UNL A   1      37.549  34.984  41.392  1.00  0.00    -0.237 OA
ATOM     95  O   UNL A   1      36.463  33.117  40.219  1.00  0.00    -0.744 OA
ENDBRANCH  89  92
ENDBRANCH  61  85
BRANCH  73  96
ATOM     96  C   UNL A   1      44.203  28.749  35.443  1.00  0.00     0.023 A 
ATOM     97  C   UNL A   1      45.477  29.329  35.283  1.00  0.00     0.012 A 
ATOM     98  C   UNL A   1      44.025  27.708  36.374  1.00  0.00     0.148 A 
ATOM     99  C   UNL A   1      46.558  28.877  36.039  1.00  0.00     0.002 A 
ATOM    100  C   UNL A   1      45.098  27.286  37.149  1.00  0.00     0.091 A 
ATOM    101  F   UNL A   1      42.802  27.171  36.502  1.00  0.00    -0.205 F 
ATOM    102  C   UNL A   1      46.366  27.867  36.980  1.00  0.00     0.022 A 
BRANCH 100 103
ATOM    103  S   UNL A   1      44.937  26.042  38.435  1.00  0.00     0.127 S 
ATOM    104  O   UNL A   1      44.080  25.051  37.785  1.00  0.00    -0.237 OA
ATOM    105  O   UNL A   1      46.323  25.618  38.629  1.00  0.00    -0.237 OA
ATOM    106  O   UNL A   1      44.339  26.717  39.579  1.00  0.00    -0.744 OA
ENDBRANCH 100 103
ENDBRANCH  73  96
ENDBRANCH  47  48
ENDBRANCH  40  42
ENDBRANCH  39  40
ENDBRANCH  38  39
ENDBRANCH  37  38
ENDBRANCH  36  37
ENDBRANCH   1  36
TORSDOF 23
ENDMDL
MODEL 3
REMARK VINA RESULT:     -11.2      2.511      8.188
REMARK SMILES CCCCN1C(=O)[C@@H]2[C@H](CCC(=O)OCCOCCOC(=O)c3ccc(-c4c5nc(c(-c6cccc(S(=O)(=O)[O-])c6F)c6ccc([nH]6)c(-c6cccc(S(=O)(=O)[O-])c6F)c6nc(c(-c7cccc(S(=O)(=O)[O-])c7F)c7ccc4[nH]7)C=C6)C=C5)cc3)[NH2+][C@]3(C(=O)Nc4c(CC)cccc43)[C@@H]2C1=O
REMARK SMILES IDX 16 1 15 2 14 3 12 4 13 5 11 6 10 7 9 8 5 9 6 10 100 11 7 12
REMARK SMILES IDX 8 13 99 14 101 15 87 16 86 17 88 18 98 19 89 22 90 23 91 24
REMARK SMILES IDX 97 25 92 27 96 28 95 29 4 30 3 31 2 32 1 33 93 34 94 35
REMARK SMILES IDX 17 36 18 37 19 38 20 39 21 40 22 41 23 42 24 43 85 44 25 45
REMARK SMILES IDX 84 46 26 47 27 48 28 49 78 50 29 51 83 52 77 53 79 54 30 55
REMARK SMILES IDX 82 56 76 57 75 58 31 60 63 61 43 62 62 63 44 64 47 65 61 66
REMARK SMILES IDX 80 67 45 68 46 69 60 71 81 72 48 73 32 74 33 75 41 76 34 77
REMARK SMILES IDX 36 78 42 79 35 80 37 81 38 82 39 83 40 84 64 85 65 86 73 87
REMARK SMILES IDX 66 88 68 89 74 90 67 91 69 92 70 93 71 94 72 95 49 96 50 97
REMARK SMILES IDX 58 98 51 99 53 100 59 101 52 102 54 103 55 104 56 105 57 106
REMARK H PARENT 86 20 86 21 90 26 79 59 47 70
REMARK Flexibility Score: inf
ROOT
ATOM      1  C   UNL A   1      32.490  28.271  23.879  1.00  0.00     0.202 C 
ENDROOT
BRANCH   1   2
ATOM      2  C   UNL A   1      31.910  27.100  23.080  1.00  0.00     0.261 C 
BRANCH   2   3
ATOM      3  O   UNL A   1      32.941  26.179  22.704  1.00  0.00    -0.463 OA
BRANCH   3   4
ATOM      4  C   UNL A   1      32.547  24.885  22.664  1.00  0.00     0.306 C 
ATOM      5  O   UNL A   1      31.428  24.469  22.946  1.00  0.00    -0.252 OA
BRANCH   4   6
ATOM      6  C   UNL A   1      33.591  23.976  22.076  1.00  0.00     0.129 C 
BRANCH   6   7
ATOM      7  C   UNL A   1      34.407  23.025  22.959  1.00  0.00     0.077 C 
BRANCH   7   8
ATOM      8  C   UNL A   1      35.215  23.524  24.181  1.00  0.00     0.197 C 
ATOM      9  N   UNL A   1      33.449  21.294  25.402  1.00  0.00    -0.282 N 
ATOM     10  C   UNL A   1      33.396  22.626  25.705  1.00  0.00     0.239 C 
ATOM     11  C   UNL A   1      34.727  20.803  25.521  1.00  0.00     0.240 C 
ATOM     12  O   UNL A   1      32.409  23.318  25.896  1.00  0.00    -0.274 OA
ATOM     13  C   UNL A   1      34.783  23.151  25.610  1.00  0.00     0.157 C 
ATOM     14  C   UNL A   1      35.627  21.940  25.981  1.00  0.00     0.174 C 
ATOM     15  O   UNL A   1      35.043  19.631  25.399  1.00  0.00    -0.274 OA
ATOM     16  C   UNL A   1      36.929  22.189  25.238  1.00  0.00     0.216 C 
ATOM     17  N   UNL A   1      36.546  22.896  23.999  1.00  0.00    -0.326 N 
ATOM     18  C   UNL A   1      37.750  20.888  24.948  1.00  0.00     0.291 C 
ATOM     19  C   UNL A   1      37.951  22.995  26.031  1.00  0.00     0.047 A 
ATOM     20  H   UNL A   1      37.238  23.616  23.792  1.00  0.00     0.347 HD
ATOM     21  H   UNL A   1      36.508  22.232  23.226  1.00  0.00     0.347 HD
ATOM     22  O   UNL A   1      37.501  19.983  24.169  1.00  0.00    -0.267 OA
ATOM     23  N   UNL A   1      38.909  20.953  25.717  1.00  0.00    -0.320 N 
ATOM     24  C   UNL A   1      39.067  22.197  26.312  1.00  0.00     0.054 A 
ATOM     25  C   UNL A   1      37.951  24.335  26.390  1.00  0.00     0.013 A 
ATOM     26  H   UNL A   1      39.541  20.206  25.826  1.00  0.00     0.170 HD
ATOM     27  C   UNL A   1      40.184  22.667  26.993  1.00  0.00    -0.024 A 
ATOM     28  C   UNL A   1      39.079  24.851  27.034  1.00  0.00     0.001 A 
ATOM     29  C   UNL A   1      40.177  24.028  27.337  1.00  0.00     0.006 A 
BRANCH   9  30
ATOM     30  C   UNL A   1      32.305  20.548  24.898  1.00  0.00     0.128 C 
BRANCH  30  31
ATOM     31  C   UNL A   1      32.437  20.044  23.469  1.00  0.00     0.022 C 
BRANCH  31  32
ATOM     32  C   UNL A   1      32.555  18.525  23.366  1.00  0.00    -0.002 C 
ATOM     33  C   UNL A   1      32.329  17.804  24.685  1.00  0.00     0.004 C 
ENDBRANCH  31  32
ENDBRANCH  30  31
ENDBRANCH   9  30
BRANCH  27  34
ATOM     34  C   UNL A   1      41.371  21.809  27.337  1.00  0.00     0.034 C 
ATOM     35  C   UNL A   1      42.271  21.533  26.143  1.00  0.00     0.009 C 
ENDBRANCH  27  34
ENDBRANCH   7   8
ENDBRANCH   6   7
ENDBRANCH   4   6
ENDBRANCH   3   4
ENDBRANCH   2   3
ENDBRANCH   1   2
BRANCH   1  36
ATOM     36  O   UNL A   1      31.577  29.185  24.485  1.00  0.00    -0.374 OA
BRANCH  36  37
ATOM     37  C   UNL A   1      31.544  29.283  25.907  1.00  0.00     0.202 C 
BRANCH  37  38
ATOM     38  C   UNL A   1      32.151  30.524  26.581  1.00  0.00     0.261 C 
BRANCH  38  39
ATOM     39  O   UNL A   1      33.535  30.349  26.941  1.00  0.00    -0.460 OA
BRANCH  39  40
ATOM     40  C   UNL A   1      34.126  31.455  27.463  1.00  0.00     0.338 C 
ATOM     41  O   UNL A   1      33.629  32.558  27.598  1.00  0.00    -0.246 OA
BRANCH  40  42
ATOM     42  C   UNL A   1      35.420  31.085  28.068  1.00  0.00     0.060 A 
ATOM     43  C   UNL A   1      36.469  31.999  28.162  1.00  0.00     0.016 A 
ATOM     44  C   UNL A   1      35.533  29.811  28.639  1.00  0.00     0.016 A 
ATOM     45  C   UNL A   1      37.622  31.637  28.869  1.00  0.00     0.010 A 
ATOM     46  C   UNL A   1      36.688  29.451  29.331  1.00  0.00     0.010 A 
ATOM     47  C   UNL A   1      37.735  30.370  29.474  1.00  0.00    -0.014 A 
BRANCH  47  48
ATOM     48  C   UNL A   1      38.856  30.065  30.401  1.00  0.00     0.031 A 
ATOM     49  C   UNL A   1      38.955  30.691  31.763  1.00  0.00     0.074 A 
ATOM     50  C   UNL A   1      39.849  29.267  29.959  1.00  0.00     0.049 A 
ATOM     51  N   UNL A   1      39.863  30.496  32.684  1.00  0.00    -0.248 NA
ATOM     52  C   UNL A   1      37.914  31.659  32.142  1.00  0.00     0.031 C 
ATOM     53  C   UNL A   1      39.919  28.675  28.621  1.00  0.00     0.029 A 
ATOM     54  N   UNL A   1      40.997  28.831  30.574  1.00  0.00    -0.354 N 
ATOM     55  C   UNL A   1      39.518  31.322  33.747  1.00  0.00     0.074 A 
ATOM     56  C   UNL A   1      38.319  32.031  33.352  1.00  0.00     0.031 C 
ATOM     57  C   UNL A   1      41.039  27.945  28.521  1.00  0.00     0.029 A 
ATOM     58  C   UNL A   1      41.781  28.035  29.774  1.00  0.00     0.049 A 
ATOM     59  H   UNL A   1      41.235  29.067  31.500  1.00  0.00     0.167 HD
ATOM     60  C   UNL A   1      40.133  31.459  34.945  1.00  0.00     0.034 A 
ATOM     61  C   UNL A   1      42.966  27.440  30.014  1.00  0.00     0.034 A 
ATOM     62  C   UNL A   1      41.319  30.745  35.340  1.00  0.00     0.049 A 
ATOM     63  C   UNL A   1      43.612  27.591  31.360  1.00  0.00     0.074 A 
ATOM     64  C   UNL A   1      41.957  30.765  36.569  1.00  0.00     0.029 A 
ATOM     65  N   UNL A   1      42.055  29.907  34.521  1.00  0.00    -0.354 N 
ATOM     66  N   UNL A   1      43.179  28.249  32.407  1.00  0.00    -0.248 NA
ATOM     67  C   UNL A   1      44.892  26.898  31.571  1.00  0.00     0.031 C 
ATOM     68  C   UNL A   1      43.091  29.953  36.487  1.00  0.00     0.029 A 
ATOM     69  C   UNL A   1      43.146  29.410  35.215  1.00  0.00     0.049 A 
ATOM     70  H   UNL A   1      41.837  29.696  33.585  1.00  0.00     0.167 HD
ATOM     71  C   UNL A   1      44.119  28.033  33.406  1.00  0.00     0.074 A 
ATOM     72  C   UNL A   1      45.139  27.171  32.847  1.00  0.00     0.031 C 
ATOM     73  C   UNL A   1      44.135  28.519  34.669  1.00  0.00     0.034 A 
BRANCH  60  74
ATOM     74  C   UNL A   1      39.514  32.368  35.971  1.00  0.00     0.023 A 
ATOM     75  C   UNL A   1      38.573  31.833  36.872  1.00  0.00     0.012 A 
ATOM     76  C   UNL A   1      39.975  33.688  36.147  1.00  0.00     0.148 A 
ATOM     77  C   UNL A   1      38.098  32.598  37.936  1.00  0.00     0.002 A 
ATOM     78  C   UNL A   1      39.518  34.434  37.225  1.00  0.00     0.091 A 
ATOM     79  F   UNL A   1      40.870  34.171  35.274  1.00  0.00    -0.205 F 
ATOM     80  C   UNL A   1      38.578  33.892  38.119  1.00  0.00     0.022 A 
BRANCH  78  81
ATOM     81  S   UNL A   1      40.112  36.090  37.589  1.00  0.00     0.127 S 
ATOM     82  O   UNL A   1      39.811  36.791  36.340  1.00  0.00    -0.237 OA
ATOM     83  O   UNL A   1      39.270  36.475  38.721  1.00  0.00    -0.237 OA
ATOM     84  O   UNL A   1      41.530  35.954  37.892  1.00  0.00    -0.744 OA
ENDBRANCH  78  81
ENDBRANCH  60  74
BRANCH  61  85
ATOM     85  C   UNL A   1      43.580  26.591  28.959  1.00  0.00     0.023 A 
ATOM     86  C   UNL A   1      43.331  25.206  28.959  1.00  0.00     0.012 A 
ATOM     87  C   UNL A   1      44.350  27.158  27.926  1.00  0.00     0.148 A 
ATOM     88  C   UNL A   1      43.848  24.394  27.949  1.00  0.00     0.002 A 
ATOM     89  C   UNL A   1      44.830  26.350  26.903  1.00  0.00     0.091 A 
ATOM     90  F   UNL A   1      44.570  28.480  27.952  1.00  0.00    -0.205 F 
ATOM     91  C   UNL A   1      44.589  24.967  26.917  1.00  0.00     0.022 A 
BRANCH  89  92
ATOM     92  S   UNL A   1      45.713  27.006  25.483  1.00  0.00     0.127 S 
ATOM     93  O   UNL A   1      44.695  27.853  24.866  1.00  0.00    -0.237 OA
ATOM     94  O   UNL A   1      46.810  27.729  26.126  1.00  0.00    -0.237 OA
ATOM     95  O   UNL A   1      46.123  25.849  24.701  1.00  0.00    -0.744 OA
ENDBRANCH  89  92
ENDBRANCH  61  85
BRANCH  73  96
ATOM     96  C   UNL A   1      45.275  28.131  35.569  1.00  0.00     0.023 A 
ATOM     97  C   UNL A   1      46.502  28.815  35.469  1.00  0.00     0.012 A 
ATOM     98  C   UNL A   1      45.086  27.188  36.598  1.00  0.00     0.148 A 
ATOM     99  C   UNL A   1      47.527  28.563  36.381  1.00  0.00     0.002 A 
ATOM    100  C   UNL A   1      46.098  26.967  37.524  1.00  0.00     0.091 A 
ATOM    101  F   UNL A   1      43.910  26.547  36.665  1.00  0.00    -0.205 F 
ATOM    102  C   UNL A   1      47.320  27.650  37.415  1.00  0.00     0.022 A 
BRANCH 100 103
ATOM    103  S   UNL A   1      45.904  25.866  38.929  1.00  0.00     0.127 S 
ATOM    104  O   UNL A   1      44.465  25.948  39.175  1.00  0.00    -0.237 OA
ATOM    105  O   UNL A   1      46.358  24.587  38.384  1.00  0.00    -0.237 OA
ATOM    106  O   UNL A   1      46.742  26.410  39.990  1.00  0.00    -0.744 OA
ENDBRANCH 100 103
ENDBRANCH  73  96
ENDBRANCH  47  48
ENDBRANCH  40  42
ENDBRANCH  39  40
ENDBRANCH  38  39
ENDBRANCH  37  38
ENDBRANCH  36  37
ENDBRANCH   1  36
TORSDOF 23
ENDMDL
