MODEL 1
REMARK VINA RESULT:     -10.6      0.000      0.000
REMARK SMILES CCN(Cc1ccccn1)c1nc(C)cc(C)c1C(=O)OCCOCCOC(=O)c1ccc(-c2c3nc(c(-c4cccc(S(=O)(=O)[O-])c4F)c4ccc([nH]4)c(-c4cccc(S(=O)(=O)[O-])c4F)c4nc(c(-c5cccc(S(=O)(=O)[O-])c5F)c5ccc2[nH]5)C=C4)C=C3)cc1
REMARK SMILES IDX 24 1 23 2 22 3 21 4 19 5 20 6 18 7 11 8 12 9 13 10 16 11
REMARK SMILES IDX 14 12 15 13 17 14 3 15 2 16 1 17 4 18 5 19 6 20 10 21 7 22
REMARK SMILES IDX 9 23 8 24 25 25 26 26 27 27 28 28 29 29 30 30 31 31 92 32
REMARK SMILES IDX 32 33 91 34 33 35 34 36 35 37 85 38 36 39 90 40 84 41 86 42
REMARK SMILES IDX 37 43 89 44 83 45 82 46 38 48 70 49 50 50 69 51 51 52 54 53
REMARK SMILES IDX 68 54 87 55 52 56 53 57 67 59 88 60 55 61 39 62 40 63 48 64
REMARK SMILES IDX 41 65 43 66 49 67 42 68 44 69 45 70 46 71 47 72 71 73 72 74
REMARK SMILES IDX 80 75 73 76 75 77 81 78 74 79 76 80 77 81 78 82 79 83 56 84
REMARK SMILES IDX 57 85 65 86 58 87 60 88 66 89 59 90 61 91 62 92 63 93 64 94
REMARK H PARENT 86 47 54 58
REMARK Flexibility Score: inf
ROOT
ATOM      1  O   UNL A   1      31.515  29.817  26.832  1.00  0.00    -0.374 OA
ENDROOT
BRANCH   1   2
ATOM      2  C   UNL A   1      32.461  28.834  27.271  1.00  0.00     0.202 C 
BRANCH   2   3
ATOM      3  C   UNL A   1      32.355  27.434  26.664  1.00  0.00     0.261 C 
BRANCH   3   4
ATOM      4  O   UNL A   1      31.019  27.244  26.183  1.00  0.00    -0.460 OA
BRANCH   4   5
ATOM      5  C   UNL A   1      30.677  25.972  25.879  1.00  0.00     0.342 C 
ATOM      6  O   UNL A   1      30.153  25.165  26.628  1.00  0.00    -0.246 OA
BRANCH   5   7
ATOM      7  C   UNL A   1      30.975  25.732  24.452  1.00  0.00     0.105 A 
ATOM      8  C   UNL A   1      32.040  24.881  24.110  1.00  0.00     0.144 A 
ATOM      9  N   UNL A   1      32.497  24.870  22.836  1.00  0.00    -0.235 NA
ATOM     10  C   UNL A   1      31.939  25.665  21.897  1.00  0.00     0.040 A 
ATOM     11  C   UNL A   1      30.307  26.475  23.449  1.00  0.00    -0.031 A 
ATOM     12  C   UNL A   1      32.636  25.719  20.573  1.00  0.00     0.067 C 
ATOM     13  C   UNL A   1      30.814  26.431  22.150  1.00  0.00     0.028 A 
ATOM     14  C   UNL A   1      29.086  27.314  23.713  1.00  0.00     0.045 C 
BRANCH   8  15
ATOM     15  N   UNL A   1      32.673  24.011  24.989  1.00  0.00    -0.350 N 
BRANCH  15  16
ATOM     16  C   UNL A   1      32.315  22.600  25.040  1.00  0.00     0.115 C 
ATOM     17  C   UNL A   1      32.136  22.100  26.465  1.00  0.00     0.027 C 
ENDBRANCH  15  16
BRANCH  15  18
ATOM     18  C   UNL A   1      34.007  24.396  25.470  1.00  0.00     0.174 C 
BRANCH  18  19
ATOM     19  C   UNL A   1      35.178  23.515  25.050  1.00  0.00     0.060 A 
ATOM     20  C   UNL A   1      35.620  23.433  23.727  1.00  0.00     0.026 A 
ATOM     21  N   UNL A   1      35.756  22.779  26.037  1.00  0.00    -0.259 NA
ATOM     22  C   UNL A   1      36.714  22.629  23.418  1.00  0.00     0.004 A 
ATOM     23  C   UNL A   1      36.828  22.027  25.713  1.00  0.00     0.111 A 
ATOM     24  C   UNL A   1      37.340  21.920  24.433  1.00  0.00     0.020 A 
ENDBRANCH  18  19
ENDBRANCH  15  18
ENDBRANCH   8  15
ENDBRANCH   5   7
ENDBRANCH   4   5
ENDBRANCH   3   4
ENDBRANCH   2   3
ENDBRANCH   1   2
BRANCH   1  25
ATOM     25  C   UNL A   1      32.016  31.030  26.280  1.00  0.00     0.202 C 
BRANCH  25  26
ATOM     26  C   UNL A   1      31.894  32.336  27.067  1.00  0.00     0.261 C 
BRANCH  26  27
ATOM     27  O   UNL A   1      33.014  33.194  26.909  1.00  0.00    -0.460 OA
BRANCH  27  28
ATOM     28  C   UNL A   1      33.471  33.690  28.082  1.00  0.00     0.338 C 
ATOM     29  O   UNL A   1      32.933  34.508  28.810  1.00  0.00    -0.246 OA
BRANCH  28  30
ATOM     30  C   UNL A   1      34.672  32.936  28.445  1.00  0.00     0.060 A 
ATOM     31  C   UNL A   1      34.518  31.585  28.780  1.00  0.00     0.016 A 
ATOM     32  C   UNL A   1      35.924  33.552  28.447  1.00  0.00     0.016 A 
ATOM     33  C   UNL A   1      35.624  30.851  29.177  1.00  0.00     0.010 A 
ATOM     34  C   UNL A   1      37.031  32.820  28.854  1.00  0.00     0.010 A 
ATOM     35  C   UNL A   1      36.870  31.485  29.261  1.00  0.00    -0.014 A 
BRANCH  35  36
ATOM     36  C   UNL A   1      37.975  30.808  29.958  1.00  0.00     0.031 A 
ATOM     37  C   UNL A   1      38.264  31.210  31.374  1.00  0.00     0.074 A 
ATOM     38  C   UNL A   1      38.700  29.875  29.323  1.00  0.00     0.049 A 
ATOM     39  N   UNL A   1      39.214  30.804  32.169  1.00  0.00    -0.248 NA
ATOM     40  C   UNL A   1      37.365  32.216  31.970  1.00  0.00     0.031 C 
ATOM     41  C   UNL A   1      38.481  29.428  27.947  1.00  0.00     0.029 A 
ATOM     42  N   UNL A   1      39.786  29.159  29.745  1.00  0.00    -0.354 N 
ATOM     43  C   UNL A   1      39.053  31.529  33.344  1.00  0.00     0.074 A 
ATOM     44  C   UNL A   1      37.923  32.409  33.156  1.00  0.00     0.031 C 
ATOM     45  C   UNL A   1      39.427  28.530  27.628  1.00  0.00     0.029 A 
ATOM     46  C   UNL A   1      40.330  28.367  28.764  1.00  0.00     0.049 A 
ATOM     47  H   UNL A   1      40.143  29.206  30.662  1.00  0.00     0.167 HD
ATOM     48  C   UNL A   1      39.783  31.455  34.479  1.00  0.00     0.034 A 
ATOM     49  C   UNL A   1      41.450  27.620  28.784  1.00  0.00     0.034 A 
ATOM     50  C   UNL A   1      40.896  30.562  34.644  1.00  0.00     0.049 A 
ATOM     51  C   UNL A   1      42.252  27.568  30.056  1.00  0.00     0.074 A 
ATOM     52  C   UNL A   1      41.681  30.359  35.763  1.00  0.00     0.029 A 
ATOM     53  N   UNL A   1      41.394  29.735  33.647  1.00  0.00    -0.354 N 
ATOM     54  N   UNL A   1      42.029  28.172  31.199  1.00  0.00    -0.248 NA
ATOM     55  C   UNL A   1      43.442  26.707  30.054  1.00  0.00     0.031 C 
ATOM     56  C   UNL A   1      42.680  29.439  35.429  1.00  0.00     0.029 A 
ATOM     57  C   UNL A   1      42.488  29.032  34.118  1.00  0.00     0.049 A 
ATOM     58  H   UNL A   1      41.024  29.660  32.737  1.00  0.00     0.167 HD
ATOM     59  C   UNL A   1      43.024  27.735  32.064  1.00  0.00     0.074 A 
ATOM     60  C   UNL A   1      43.842  26.801  31.315  1.00  0.00     0.031 C 
ATOM     61  C   UNL A   1      43.253  28.077  33.357  1.00  0.00     0.034 A 
BRANCH  48  62
ATOM     62  C   UNL A   1      39.398  32.358  35.620  1.00  0.00     0.023 A 
ATOM     63  C   UNL A   1      38.348  31.992  36.489  1.00  0.00     0.012 A 
ATOM     64  C   UNL A   1      40.102  33.554  35.855  1.00  0.00     0.148 A 
ATOM     65  C   UNL A   1      37.984  32.820  37.550  1.00  0.00     0.002 A 
ATOM     66  C   UNL A   1      39.767  34.349  36.944  1.00  0.00     0.091 A 
ATOM     67  F   UNL A   1      41.078  33.899  35.003  1.00  0.00    -0.205 F 
ATOM     68  C   UNL A   1      38.700  33.992  37.785  1.00  0.00     0.022 A 
BRANCH  66  69
ATOM     69  S   UNL A   1      40.678  35.835  37.376  1.00  0.00     0.127 S 
ATOM     70  O   UNL A   1      41.535  35.352  38.458  1.00  0.00    -0.237 OA
ATOM     71  O   UNL A   1      41.380  36.136  36.129  1.00  0.00    -0.237 OA
ATOM     72  O   UNL A   1      39.680  36.821  37.766  1.00  0.00    -0.744 OA
ENDBRANCH  66  69
ENDBRANCH  48  62
BRANCH  49  73
ATOM     73  C   UNL A   1      41.853  26.848  27.577  1.00  0.00     0.023 A 
ATOM     74  C   UNL A   1      42.462  27.514  26.497  1.00  0.00     0.012 A 
ATOM     75  C   UNL A   1      41.662  25.455  27.506  1.00  0.00     0.148 A 
ATOM     76  C   UNL A   1      42.843  26.812  25.353  1.00  0.00     0.002 A 
ATOM     77  C   UNL A   1      42.095  24.752  26.388  1.00  0.00     0.091 A 
ATOM     78  F   UNL A   1      41.073  24.841  28.543  1.00  0.00    -0.205 F 
ATOM     79  C   UNL A   1      42.669  25.431  25.302  1.00  0.00     0.022 A 
BRANCH  77  80
ATOM     80  S   UNL A   1      42.027  22.961  26.290  1.00  0.00     0.127 S 
ATOM     81  O   UNL A   1      42.580  22.712  24.961  1.00  0.00    -0.237 OA
ATOM     82  O   UNL A   1      42.892  22.567  27.403  1.00  0.00    -0.237 OA
ATOM     83  O   UNL A   1      40.625  22.608  26.466  1.00  0.00    -0.744 OA
ENDBRANCH  77  80
ENDBRANCH  49  73
BRANCH  61  84
ATOM     84  C   UNL A   1      44.400  27.401  34.060  1.00  0.00     0.023 A 
ATOM     85  C   UNL A   1      45.688  27.970  34.019  1.00  0.00     0.012 A 
ATOM     86  C   UNL A   1      44.179  26.238  34.824  1.00  0.00     0.148 A 
ATOM     87  C   UNL A   1      46.747  27.369  34.697  1.00  0.00     0.002 A 
ATOM     88  C   UNL A   1      45.225  25.679  35.542  1.00  0.00     0.091 A 
ATOM     89  F   UNL A   1      42.947  25.706  34.836  1.00  0.00    -0.205 F 
ATOM     90  C   UNL A   1      46.513  26.232  35.468  1.00  0.00     0.022 A 
BRANCH  88  91
ATOM     91  S   UNL A   1      44.995  24.280  36.645  1.00  0.00     0.127 S 
ATOM     92  O   UNL A   1      46.374  23.854  36.876  1.00  0.00    -0.237 OA
ATOM     93  O   UNL A   1      44.345  24.901  37.799  1.00  0.00    -0.237 OA
ATOM     94  O   UNL A   1      44.161  23.328  35.921  1.00  0.00    -0.744 OA
ENDBRANCH  88  91
ENDBRANCH  61  84
ENDBRANCH  35  36
ENDBRANCH  28  30
ENDBRANCH  27  28
ENDBRANCH  26  27
ENDBRANCH  25  26
ENDBRANCH   1  25
TORSDOF 21
ENDMDL
MODEL 2
REMARK VINA RESULT:     -10.5      4.802     10.483
REMARK SMILES CCN(Cc1ccccn1)c1nc(C)cc(C)c1C(=O)OCCOCCOC(=O)c1ccc(-c2c3nc(c(-c4cccc(S(=O)(=O)[O-])c4F)c4ccc([nH]4)c(-c4cccc(S(=O)(=O)[O-])c4F)c4nc(c(-c5cccc(S(=O)(=O)[O-])c5F)c5ccc2[nH]5)C=C4)C=C3)cc1
REMARK SMILES IDX 24 1 23 2 22 3 21 4 19 5 20 6 18 7 11 8 12 9 13 10 16 11
REMARK SMILES IDX 14 12 15 13 17 14 3 15 2 16 1 17 4 18 5 19 6 20 10 21 7 22
REMARK SMILES IDX 9 23 8 24 25 25 26 26 27 27 28 28 29 29 30 30 31 31 92 32
REMARK SMILES IDX 32 33 91 34 33 35 34 36 35 37 85 38 36 39 90 40 84 41 86 42
REMARK SMILES IDX 37 43 89 44 83 45 82 46 38 48 70 49 50 50 69 51 51 52 54 53
REMARK SMILES IDX 68 54 87 55 52 56 53 57 67 59 88 60 55 61 39 62 40 63 48 64
REMARK SMILES IDX 41 65 43 66 49 67 42 68 44 69 45 70 46 71 47 72 71 73 72 74
REMARK SMILES IDX 80 75 73 76 75 77 81 78 74 79 76 80 77 81 78 82 79 83 56 84
REMARK SMILES IDX 57 85 65 86 58 87 60 88 66 89 59 90 61 91 62 92 63 93 64 94
REMARK H PARENT 86 47 54 58
REMARK Flexibility Score: inf
ROOT
ATOM      1  O   UNL A   1      37.178  21.166  25.118  1.00  0.00    -0.374 OA
ENDROOT
BRANCH   1   2
ATOM      2  C   UNL A   1      36.577  21.677  23.921  1.00  0.00     0.202 C 
BRANCH   2   3
ATOM      3  C   UNL A   1      36.378  23.191  23.825  1.00  0.00     0.261 C 
BRANCH   3   4
ATOM      4  O   UNL A   1      34.978  23.476  23.937  1.00  0.00    -0.460 OA
BRANCH   4   5
ATOM      5  C   UNL A   1      34.584  24.046  25.097  1.00  0.00     0.342 C 
ATOM      6  O   UNL A   1      35.188  24.899  25.726  1.00  0.00    -0.246 OA
BRANCH   5   7
ATOM      7  C   UNL A   1      33.251  23.520  25.453  1.00  0.00     0.105 A 
ATOM      8  C   UNL A   1      32.106  24.182  24.979  1.00  0.00     0.144 A 
ATOM      9  N   UNL A   1      30.899  23.885  25.514  1.00  0.00    -0.235 NA
ATOM     10  C   UNL A   1      30.788  22.961  26.493  1.00  0.00     0.040 A 
ATOM     11  C   UNL A   1      33.126  22.465  26.389  1.00  0.00    -0.031 A 
ATOM     12  C   UNL A   1      29.446  22.844  27.147  1.00  0.00     0.067 C 
ATOM     13  C   UNL A   1      31.861  22.194  26.912  1.00  0.00     0.028 A 
ATOM     14  C   UNL A   1      34.288  21.629  26.855  1.00  0.00     0.045 C 
BRANCH   8  15
ATOM     15  N   UNL A   1      32.103  25.133  23.966  1.00  0.00    -0.350 N 
BRANCH  15  16
ATOM     16  C   UNL A   1      32.188  24.741  22.565  1.00  0.00     0.115 C 
ATOM     17  C   UNL A   1      32.789  25.834  21.696  1.00  0.00     0.027 C 
ENDBRANCH  15  16
BRANCH  15  18
ATOM     18  C   UNL A   1      31.507  26.440  24.275  1.00  0.00     0.174 C 
BRANCH  18  19
ATOM     19  C   UNL A   1      32.166  27.261  25.378  1.00  0.00     0.060 A 
ATOM     20  C   UNL A   1      33.468  27.757  25.270  1.00  0.00     0.026 A 
ATOM     21  N   UNL A   1      31.423  27.460  26.499  1.00  0.00    -0.259 NA
ATOM     22  C   UNL A   1      33.997  28.524  26.304  1.00  0.00     0.004 A 
ATOM     23  C   UNL A   1      31.952  28.226  27.475  1.00  0.00     0.111 A 
ATOM     24  C   UNL A   1      33.221  28.775  27.425  1.00  0.00     0.020 A 
ENDBRANCH  18  19
ENDBRANCH  15  18
ENDBRANCH   8  15
ENDBRANCH   5   7
ENDBRANCH   4   5
ENDBRANCH   3   4
ENDBRANCH   2   3
ENDBRANCH   1   2
BRANCH   1  25
ATOM     25  C   UNL A   1      37.617  19.811  25.121  1.00  0.00     0.202 C 
BRANCH  25  26
ATOM     26  C   UNL A   1      39.086  19.484  25.390  1.00  0.00     0.261 C 
BRANCH  26  27
ATOM     27  O   UNL A   1      39.884  20.636  25.619  1.00  0.00    -0.460 OA
BRANCH  27  28
ATOM     28  C   UNL A   1      40.524  20.609  26.811  1.00  0.00     0.338 C 
ATOM     29  O   UNL A   1      40.986  19.640  27.392  1.00  0.00    -0.246 OA
BRANCH  28  30
ATOM     30  C   UNL A   1      40.743  21.995  27.230  1.00  0.00     0.060 A 
ATOM     31  C   UNL A   1      40.101  23.005  26.504  1.00  0.00     0.016 A 
ATOM     32  C   UNL A   1      41.562  22.285  28.322  1.00  0.00     0.016 A 
ATOM     33  C   UNL A   1      40.323  24.331  26.839  1.00  0.00     0.010 A 
ATOM     34  C   UNL A   1      41.792  23.614  28.651  1.00  0.00     0.010 A 
ATOM     35  C   UNL A   1      41.208  24.633  27.881  1.00  0.00    -0.014 A 
BRANCH  35  36
ATOM     36  C   UNL A   1      41.677  26.018  28.046  1.00  0.00     0.031 A 
ATOM     37  C   UNL A   1      43.026  26.374  27.495  1.00  0.00     0.074 A 
ATOM     38  C   UNL A   1      40.913  26.915  28.688  1.00  0.00     0.049 A 
ATOM     39  N   UNL A   1      43.675  27.502  27.568  1.00  0.00    -0.248 NA
ATOM     40  C   UNL A   1      43.746  25.308  26.774  1.00  0.00     0.031 C 
ATOM     41  C   UNL A   1      39.589  26.647  29.251  1.00  0.00     0.029 A 
ATOM     42  N   UNL A   1      41.157  28.224  28.999  1.00  0.00    -0.354 N 
ATOM     43  C   UNL A   1      44.892  27.274  26.938  1.00  0.00     0.074 A 
ATOM     44  C   UNL A   1      44.899  25.897  26.498  1.00  0.00     0.031 C 
ATOM     45  C   UNL A   1      39.148  27.756  29.867  1.00  0.00     0.029 A 
ATOM     46  C   UNL A   1      40.171  28.794  29.767  1.00  0.00     0.049 A 
ATOM     47  H   UNL A   1      41.960  28.710  28.702  1.00  0.00     0.167 HD
ATOM     48  C   UNL A   1      45.908  28.143  26.739  1.00  0.00     0.034 A 
ATOM     49  C   UNL A   1      40.124  30.009  30.343  1.00  0.00     0.034 A 
ATOM     50  C   UNL A   1      45.871  29.511  27.176  1.00  0.00     0.049 A 
ATOM     51  C   UNL A   1      41.275  30.952  30.118  1.00  0.00     0.074 A 
ATOM     52  C   UNL A   1      46.815  30.502  26.989  1.00  0.00     0.029 A 
ATOM     53  N   UNL A   1      44.836  30.073  27.911  1.00  0.00    -0.354 N 
ATOM     54  N   UNL A   1      42.374  30.765  29.426  1.00  0.00    -0.248 NA
ATOM     55  C   UNL A   1      41.167  32.286  30.724  1.00  0.00     0.031 C 
ATOM     56  C   UNL A   1      46.370  31.653  27.646  1.00  0.00     0.029 A 
ATOM     57  C   UNL A   1      45.126  31.394  28.200  1.00  0.00     0.049 A 
ATOM     58  H   UNL A   1      44.017  29.602  28.185  1.00  0.00     0.167 HD
ATOM     59  C   UNL A   1      43.070  31.966  29.479  1.00  0.00     0.074 A 
ATOM     60  C   UNL A   1      42.257  32.880  30.258  1.00  0.00     0.031 C 
ATOM     61  C   UNL A   1      44.273  32.289  28.942  1.00  0.00     0.034 A 
BRANCH  48  62
ATOM     62  C   UNL A   1      47.130  27.641  26.020  1.00  0.00     0.023 A 
ATOM     63  C   UNL A   1      48.100  26.887  26.713  1.00  0.00     0.012 A 
ATOM     64  C   UNL A   1      47.302  27.884  24.643  1.00  0.00     0.148 A 
ATOM     65  C   UNL A   1      49.236  26.414  26.056  1.00  0.00     0.002 A 
ATOM     66  C   UNL A   1      48.410  27.367  23.985  1.00  0.00     0.091 A 
ATOM     67  F   UNL A   1      46.384  28.626  24.007  1.00  0.00    -0.205 F 
ATOM     68  C   UNL A   1      49.385  26.644  24.691  1.00  0.00     0.022 A 
BRANCH  66  69
ATOM     69  S   UNL A   1      48.654  27.542  22.214  1.00  0.00     0.127 S 
ATOM     70  O   UNL A   1      49.056  26.188  21.836  1.00  0.00    -0.237 OA
ATOM     71  O   UNL A   1      47.320  27.932  21.759  1.00  0.00    -0.237 OA
ATOM     72  O   UNL A   1      49.678  28.564  22.047  1.00  0.00    -0.744 OA
ENDBRANCH  66  69
ENDBRANCH  48  62
BRANCH  49  73
ATOM     73  C   UNL A   1      38.941  30.404  31.155  1.00  0.00     0.023 A 
ATOM     74  C   UNL A   1      38.883  30.051  32.516  1.00  0.00     0.012 A 
ATOM     75  C   UNL A   1      37.888  31.152  30.593  1.00  0.00     0.148 A 
ATOM     76  C   UNL A   1      37.781  30.407  33.296  1.00  0.00     0.002 A 
ATOM     77  C   UNL A   1      36.820  31.550  31.387  1.00  0.00     0.091 A 
ATOM     78  F   UNL A   1      37.960  31.470  29.292  1.00  0.00    -0.205 F 
ATOM     79  C   UNL A   1      36.755  31.164  32.734  1.00  0.00     0.022 A 
BRANCH  77  80
ATOM     80  S   UNL A   1      35.521  32.632  30.782  1.00  0.00     0.127 S 
ATOM     81  O   UNL A   1      34.381  32.212  31.594  1.00  0.00    -0.237 OA
ATOM     82  O   UNL A   1      36.057  33.954  31.107  1.00  0.00    -0.237 OA
ATOM     83  O   UNL A   1      35.413  32.361  29.355  1.00  0.00    -0.744 OA
ENDBRANCH  77  80
ENDBRANCH  49  73
BRANCH  61  84
ATOM     84  C   UNL A   1      44.763  33.700  29.135  1.00  0.00     0.023 A 
ATOM     85  C   UNL A   1      45.763  33.977  30.087  1.00  0.00     0.012 A 
ATOM     86  C   UNL A   1      44.276  34.737  28.316  1.00  0.00     0.148 A 
ATOM     87  C   UNL A   1      46.245  35.275  30.246  1.00  0.00     0.002 A 
ATOM     88  C   UNL A   1      44.803  36.015  28.440  1.00  0.00     0.091 A 
ATOM     89  F   UNL A   1      43.313  34.452  27.427  1.00  0.00    -0.205 F 
ATOM     90  C   UNL A   1      45.775  36.289  29.415  1.00  0.00     0.022 A 
BRANCH  88  91
ATOM     91  S   UNL A   1      44.336  37.358  27.344  1.00  0.00     0.127 S 
ATOM     92  O   UNL A   1      45.577  37.583  26.605  1.00  0.00    -0.237 OA
ATOM     93  O   UNL A   1      43.259  36.754  26.559  1.00  0.00    -0.237 OA
ATOM     94  O   UNL A   1      43.914  38.455  28.205  1.00  0.00    -0.744 OA
ENDBRANCH  88  91
ENDBRANCH  61  84
ENDBRANCH  35  36
ENDBRANCH  28  30
ENDBRANCH  27  28
ENDBRANCH  26  27
ENDBRANCH  25  26
ENDBRANCH   1  25
TORSDOF 21
ENDMDL
MODEL 3
REMARK VINA RESULT:     -10.5      1.762      7.749
REMARK SMILES CCN(Cc1ccccn1)c1nc(C)cc(C)c1C(=O)OCCOCCOC(=O)c1ccc(-c2c3nc(c(-c4cccc(S(=O)(=O)[O-])c4F)c4ccc([nH]4)c(-c4cccc(S(=O)(=O)[O-])c4F)c4nc(c(-c5cccc(S(=O)(=O)[O-])c5F)c5ccc2[nH]5)C=C4)C=C3)cc1
REMARK SMILES IDX 24 1 23 2 22 3 21 4 19 5 20 6 18 7 11 8 12 9 13 10 16 11
REMARK SMILES IDX 14 12 15 13 17 14 3 15 2 16 1 17 4 18 5 19 6 20 10 21 7 22
REMARK SMILES IDX 9 23 8 24 25 25 26 26 27 27 28 28 29 29 30 30 31 31 92 32
REMARK SMILES IDX 32 33 91 34 33 35 34 36 35 37 85 38 36 39 90 40 84 41 86 42
REMARK SMILES IDX 37 43 89 44 83 45 82 46 38 48 70 49 50 50 69 51 51 52 54 53
REMARK SMILES IDX 68 54 87 55 52 56 53 57 67 59 88 60 55 61 39 62 40 63 48 64
REMARK SMILES IDX 41 65 43 66 49 67 42 68 44 69 45 70 46 71 47 72 71 73 72 74
REMARK SMILES IDX 80 75 73 76 75 77 81 78 74 79 76 80 77 81 78 82 79 83 56 84
REMARK SMILES IDX 57 85 65 86 58 87 60 88 66 89 59 90 61 91 62 92 63 93 64 94
REMARK H PARENT 86 47 54 58
REMARK Flexibility Score: inf
ROOT
ATOM      1  O   UNL A   1      31.760  30.189  26.989  1.00  0.00    -0.374 OA
ENDROOT
BRANCH   1   2
ATOM      2  C   UNL A   1      32.370  28.912  27.212  1.00  0.00     0.202 C 
BRANCH   2   3
ATOM      3  C   UNL A   1      31.450  27.690  27.254  1.00  0.00     0.261 C 
BRANCH   3   4
ATOM      4  O   UNL A   1      31.836  26.791  26.208  1.00  0.00    -0.460 OA
BRANCH   4   5
ATOM      5  C   UNL A   1      30.853  26.007  25.711  1.00  0.00     0.342 C 
ATOM      6  O   UNL A   1      29.884  25.588  26.322  1.00  0.00    -0.246 OA
BRANCH   5   7
ATOM      7  C   UNL A   1      31.101  25.795  24.271  1.00  0.00     0.105 A 
ATOM      8  C   UNL A   1      31.988  24.780  23.873  1.00  0.00     0.144 A 
ATOM      9  N   UNL A   1      32.435  24.754  22.596  1.00  0.00    -0.235 NA
ATOM     10  C   UNL A   1      32.036  25.690  21.707  1.00  0.00     0.040 A 
ATOM     11  C   UNL A   1      30.585  26.703  23.316  1.00  0.00    -0.031 A 
ATOM     12  C   UNL A   1      32.731  25.685  20.381  1.00  0.00     0.067 C 
ATOM     13  C   UNL A   1      31.074  26.637  22.011  1.00  0.00     0.028 A 
ATOM     14  C   UNL A   1      29.542  27.740  23.638  1.00  0.00     0.045 C 
BRANCH   8  15
ATOM     15  N   UNL A   1      32.446  23.760  24.697  1.00  0.00    -0.350 N 
BRANCH  15  16
ATOM     16  C   UNL A   1      32.035  22.378  24.486  1.00  0.00     0.115 C 
ATOM     17  C   UNL A   1      31.444  21.753  25.739  1.00  0.00     0.027 C 
ENDBRANCH  15  16
BRANCH  15  18
ATOM     18  C   UNL A   1      33.704  23.995  25.420  1.00  0.00     0.174 C 
BRANCH  18  19
ATOM     19  C   UNL A   1      34.923  23.195  24.974  1.00  0.00     0.060 A 
ATOM     20  C   UNL A   1      35.599  23.459  23.780  1.00  0.00     0.026 A 
ATOM     21  N   UNL A   1      35.302  22.178  25.793  1.00  0.00    -0.259 NA
ATOM     22  C   UNL A   1      36.723  22.707  23.448  1.00  0.00     0.004 A 
ATOM     23  C   UNL A   1      36.407  21.481  25.458  1.00  0.00     0.111 A 
ATOM     24  C   UNL A   1      37.144  21.705  24.309  1.00  0.00     0.020 A 
ENDBRANCH  18  19
ENDBRANCH  15  18
ENDBRANCH   8  15
ENDBRANCH   5   7
ENDBRANCH   4   5
ENDBRANCH   3   4
ENDBRANCH   2   3
ENDBRANCH   1   2
BRANCH   1  25
ATOM     25  C   UNL A   1      32.606  31.286  26.654  1.00  0.00     0.202 C 
BRANCH  25  26
ATOM     26  C   UNL A   1      32.339  32.667  27.254  1.00  0.00     0.261 C 
BRANCH  26  27
ATOM     27  O   UNL A   1      33.520  33.430  27.453  1.00  0.00    -0.460 OA
BRANCH  27  28
ATOM     28  C   UNL A   1      33.445  34.253  28.525  1.00  0.00     0.338 C 
ATOM     29  O   UNL A   1      32.559  35.044  28.802  1.00  0.00    -0.246 OA
BRANCH  28  30
ATOM     30  C   UNL A   1      34.546  33.908  29.426  1.00  0.00     0.060 A 
ATOM     31  C   UNL A   1      35.826  34.373  29.102  1.00  0.00     0.016 A 
ATOM     32  C   UNL A   1      34.314  33.145  30.571  1.00  0.00     0.016 A 
ATOM     33  C   UNL A   1      36.902  34.026  29.904  1.00  0.00     0.010 A 
ATOM     34  C   UNL A   1      35.393  32.789  31.370  1.00  0.00     0.010 A 
ATOM     35  C   UNL A   1      36.688  33.193  31.008  1.00  0.00    -0.014 A 
BRANCH  35  36
ATOM     36  C   UNL A   1      37.845  32.581  31.681  1.00  0.00     0.031 A 
ATOM     37  C   UNL A   1      38.531  31.436  30.997  1.00  0.00     0.074 A 
ATOM     38  C   UNL A   1      38.248  33.038  32.876  1.00  0.00     0.049 A 
ATOM     39  N   UNL A   1      39.525  30.703  31.414  1.00  0.00    -0.248 NA
ATOM     40  C   UNL A   1      38.018  31.059  29.667  1.00  0.00     0.031 C 
ATOM     41  C   UNL A   1      37.634  34.148  33.605  1.00  0.00     0.029 A 
ATOM     42  N   UNL A   1      39.250  32.603  33.699  1.00  0.00    -0.354 N 
ATOM     43  C   UNL A   1      39.734  29.755  30.418  1.00  0.00     0.074 A 
ATOM     44  C   UNL A   1      38.756  29.997  29.382  1.00  0.00     0.031 C 
ATOM     45  C   UNL A   1      38.259  34.289  34.786  1.00  0.00     0.029 A 
ATOM     46  C   UNL A   1      39.289  33.261  34.904  1.00  0.00     0.049 A 
ATOM     47  H   UNL A   1      39.881  31.889  33.451  1.00  0.00     0.167 HD
ATOM     48  C   UNL A   1      40.666  28.778  30.375  1.00  0.00     0.034 A 
ATOM     49  C   UNL A   1      40.057  33.030  35.985  1.00  0.00     0.034 A 
ATOM     50  C   UNL A   1      41.635  28.567  31.414  1.00  0.00     0.049 A 
ATOM     51  C   UNL A   1      41.077  31.925  35.915  1.00  0.00     0.074 A 
ATOM     52  C   UNL A   1      42.661  27.643  31.461  1.00  0.00     0.029 A 
ATOM     53  N   UNL A   1      41.680  29.281  32.603  1.00  0.00    -0.354 N 
ATOM     54  N   UNL A   1      41.341  31.105  34.925  1.00  0.00    -0.248 NA
ATOM     55  C   UNL A   1      41.927  31.733  37.097  1.00  0.00     0.031 C 
ATOM     56  C   UNL A   1      43.302  27.772  32.698  1.00  0.00     0.029 A 
ATOM     57  C   UNL A   1      42.706  28.808  33.400  1.00  0.00     0.049 A 
ATOM     58  H   UNL A   1      41.071  30.016  32.844  1.00  0.00     0.167 HD
ATOM     59  C   UNL A   1      42.412  30.328  35.347  1.00  0.00     0.074 A 
ATOM     60  C   UNL A   1      42.757  30.788  36.678  1.00  0.00     0.031 C 
ATOM     61  C   UNL A   1      43.051  29.319  34.703  1.00  0.00     0.034 A 
BRANCH  48  62
ATOM     62  C   UNL A   1      40.680  27.875  29.171  1.00  0.00     0.023 A 
ATOM     63  C   UNL A   1      39.770  26.801  29.080  1.00  0.00     0.012 A 
ATOM     64  C   UNL A   1      41.573  28.114  28.108  1.00  0.00     0.148 A 
ATOM     65  C   UNL A   1      39.773  25.960  27.968  1.00  0.00     0.002 A 
ATOM     66  C   UNL A   1      41.535  27.302  26.981  1.00  0.00     0.091 A 
ATOM     67  F   UNL A   1      42.449  29.122  28.224  1.00  0.00    -0.205 F 
ATOM     68  C   UNL A   1      40.647  26.216  26.915  1.00  0.00     0.022 A 
BRANCH  66  69
ATOM     69  S   UNL A   1      42.565  27.597  25.539  1.00  0.00     0.127 S 
ATOM     70  O   UNL A   1      42.256  26.431  24.712  1.00  0.00    -0.237 OA
ATOM     71  O   UNL A   1      42.029  28.861  25.035  1.00  0.00    -0.237 OA
ATOM     72  O   UNL A   1      43.934  27.667  26.029  1.00  0.00    -0.744 OA
ENDBRANCH  66  69
ENDBRANCH  48  62
BRANCH  49  73
ATOM     73  C   UNL A   1      39.907  33.876  37.200  1.00  0.00     0.023 A 
ATOM     74  C   UNL A   1      38.900  33.576  38.136  1.00  0.00     0.012 A 
ATOM     75  C   UNL A   1      40.775  34.957  37.446  1.00  0.00     0.148 A 
ATOM     76  C   UNL A   1      38.738  34.358  39.280  1.00  0.00     0.002 A 
ATOM     77  C   UNL A   1      40.644  35.699  38.614  1.00  0.00     0.091 A 
ATOM     78  F   UNL A   1      41.722  35.231  36.537  1.00  0.00    -0.205 F 
ATOM     79  C   UNL A   1      39.615  35.413  39.524  1.00  0.00     0.022 A 
BRANCH  77  80
ATOM     80  S   UNL A   1      41.805  36.990  39.070  1.00  0.00     0.127 S 
ATOM     81  O   UNL A   1      42.660  36.297  40.031  1.00  0.00    -0.237 OA
ATOM     82  O   UNL A   1      42.436  37.293  37.786  1.00  0.00    -0.237 OA
ATOM     83  O   UNL A   1      40.997  38.074  39.613  1.00  0.00    -0.744 OA
ENDBRANCH  77  80
ENDBRANCH  49  73
BRANCH  61  84
ATOM     84  C   UNL A   1      44.219  28.678  35.404  1.00  0.00     0.023 A 
ATOM     85  C   UNL A   1      45.521  29.181  35.215  1.00  0.00     0.012 A 
ATOM     86  C   UNL A   1      44.008  27.620  36.310  1.00  0.00     0.148 A 
ATOM     87  C   UNL A   1      46.601  28.615  35.888  1.00  0.00     0.002 A 
ATOM     88  C   UNL A   1      45.081  27.100  37.020  1.00  0.00     0.091 A 
ATOM     89  F   UNL A   1      42.762  27.147  36.463  1.00  0.00    -0.205 F 
ATOM     90  C   UNL A   1      46.379  27.584  36.799  1.00  0.00     0.022 A 
BRANCH  88  91
ATOM     91  S   UNL A   1      44.876  25.846  38.290  1.00  0.00     0.127 S 
ATOM     92  O   UNL A   1      46.253  25.652  38.740  1.00  0.00    -0.237 OA
ATOM     93  O   UNL A   1      44.007  26.523  39.253  1.00  0.00    -0.237 OA
ATOM     94  O   UNL A   1      44.268  24.698  37.629  1.00  0.00    -0.744 OA
ENDBRANCH  88  91
ENDBRANCH  61  84
ENDBRANCH  35  36
ENDBRANCH  28  30
ENDBRANCH  27  28
ENDBRANCH  26  27
ENDBRANCH  25  26
ENDBRANCH   1  25
TORSDOF 21
ENDMDL
