MODEL 1
REMARK VINA RESULT:     -10.1      0.000      0.000
REMARK SMILES CC(C)(C)N(CC(=O)OCCOCCOC(=O)c1ccc(-c2c3nc(c(-c4cccc(S(=O)(=O)[O-])c4F)c4ccc([nH]4)c(-c4cccc(S(=O)(=O)[O-])c4F)c4nc(c(-c5cccc(S(=O)(=O)[O-])c5F)c5ccc2[nH]5)C=C4)C=C3)cc1)C(=O)N1CC[C@H](C[NH3+])C1
REMARK SMILES IDX 11 1 10 2 9 3 7 4 8 5 6 6 5 7 2 8 1 9 3 10 4 11 81 12 82 13
REMARK SMILES IDX 83 14 84 15 89 16 85 17 86 18 87 19 88 20 12 24 13 25 14 26
REMARK SMILES IDX 15 27 16 28 17 29 18 30 19 31 80 32 20 33 79 34 21 35 22 36
REMARK SMILES IDX 23 37 73 38 24 39 78 40 72 41 74 42 25 43 77 44 71 45 70 46
REMARK SMILES IDX 26 48 58 49 38 50 57 51 39 52 42 53 56 54 75 55 40 56 41 57
REMARK SMILES IDX 55 59 76 60 43 61 27 62 28 63 36 64 29 65 31 66 37 67 30 68
REMARK SMILES IDX 32 69 33 70 34 71 35 72 59 73 60 74 68 75 61 76 63 77 69 78
REMARK SMILES IDX 62 79 64 80 65 81 66 82 67 83 44 84 45 85 53 86 46 87 48 88
REMARK SMILES IDX 54 89 47 90 49 91 50 92 51 93 52 94
REMARK H PARENT 88 21 88 22 88 23 74 47 42 58
REMARK Flexibility Score: inf
ROOT
ATOM      1  C   UNL A   1      34.848  23.213  23.950  1.00  0.00     0.202 C 
ENDROOT
BRANCH   1   2
ATOM      2  C   UNL A   1      33.677  23.319  22.972  1.00  0.00     0.261 C 
BRANCH   2   3
ATOM      3  O   UNL A   1      33.791  24.469  22.097  1.00  0.00    -0.462 OA
BRANCH   3   4
ATOM      4  C   UNL A   1      32.945  25.488  22.414  1.00  0.00     0.325 C 
ATOM      5  O   UNL A   1      31.868  25.679  21.854  1.00  0.00    -0.250 OA
BRANCH   4   6
ATOM      6  C   UNL A   1      33.401  26.387  23.578  1.00  0.00     0.244 C 
BRANCH   6   7
ATOM      7  N   UNL A   1      32.443  27.205  24.339  1.00  0.00    -0.309 N 
BRANCH   7   8
ATOM      8  C   UNL A   1      31.694  26.524  25.485  1.00  0.00     0.037 C 
ATOM      9  C   UNL A   1      31.444  27.443  26.715  1.00  0.00     0.034 C 
ATOM     10  C   UNL A   1      32.491  25.313  26.010  1.00  0.00     0.034 C 
ATOM     11  C   UNL A   1      30.279  26.063  25.041  1.00  0.00     0.034 C 
ENDBRANCH   7   8
BRANCH   7  12
ATOM     12  C   UNL A   1      32.346  28.594  24.204  1.00  0.00     0.320 C 
ATOM     13  O   UNL A   1      33.241  29.341  24.608  1.00  0.00    -0.248 OA
BRANCH  12  14
ATOM     14  N   UNL A   1      31.274  29.178  23.553  1.00  0.00    -0.324 N 
ATOM     15  C   UNL A   1      30.527  28.740  22.395  1.00  0.00     0.122 C 
ATOM     16  C   UNL A   1      30.449  30.156  24.279  1.00  0.00     0.130 C 
ATOM     17  C   UNL A   1      29.660  29.909  22.021  1.00  0.00     0.033 C 
ATOM     18  C   UNL A   1      29.206  30.394  23.398  1.00  0.00     0.065 C 
BRANCH  18  19
ATOM     19  C   UNL A   1      28.710  31.834  23.368  1.00  0.00     0.264 C 
BRANCH  19  20
ATOM     20  N   UNL A   1      28.534  32.297  21.990  1.00  0.00    -0.357 N 
ATOM     21  H   UNL A   1      29.409  32.700  21.653  1.00  0.00     0.344 HD
ATOM     22  H   UNL A   1      27.800  33.004  21.960  1.00  0.00     0.344 HD
ATOM     23  H   UNL A   1      28.272  31.509  21.398  1.00  0.00     0.344 HD
ENDBRANCH  19  20
ENDBRANCH  18  19
ENDBRANCH  12  14
ENDBRANCH   7  12
ENDBRANCH   6   7
ENDBRANCH   4   6
ENDBRANCH   3   4
ENDBRANCH   2   3
ENDBRANCH   1   2
BRANCH   1  24
ATOM     24  O   UNL A   1      35.753  22.127  23.750  1.00  0.00    -0.374 OA
BRANCH  24  25
ATOM     25  C   UNL A   1      35.909  21.195  24.808  1.00  0.00     0.202 C 
BRANCH  25  26
ATOM     26  C   UNL A   1      37.330  20.723  25.175  1.00  0.00     0.261 C 
BRANCH  26  27
ATOM     27  O   UNL A   1      38.272  21.750  25.379  1.00  0.00    -0.460 OA
BRANCH  27  28
ATOM     28  C   UNL A   1      39.316  21.434  26.174  1.00  0.00     0.338 C 
ATOM     29  O   UNL A   1      39.842  20.366  26.345  1.00  0.00    -0.246 OA
BRANCH  28  30
ATOM     30  C   UNL A   1      39.794  22.757  26.592  1.00  0.00     0.060 A 
ATOM     31  C   UNL A   1      39.105  23.877  26.122  1.00  0.00     0.016 A 
ATOM     32  C   UNL A   1      40.791  22.853  27.571  1.00  0.00     0.016 A 
ATOM     33  C   UNL A   1      39.452  25.129  26.607  1.00  0.00     0.010 A 
ATOM     34  C   UNL A   1      41.128  24.102  28.062  1.00  0.00     0.010 A 
ATOM     35  C   UNL A   1      40.486  25.239  27.547  1.00  0.00    -0.014 A 
BRANCH  35  36
ATOM     36  C   UNL A   1      41.079  26.553  27.826  1.00  0.00     0.031 A 
ATOM     37  C   UNL A   1      42.478  26.779  27.337  1.00  0.00     0.074 A 
ATOM     38  C   UNL A   1      40.404  27.470  28.534  1.00  0.00     0.049 A 
ATOM     39  N   UNL A   1      43.256  27.810  27.509  1.00  0.00    -0.248 NA
ATOM     40  C   UNL A   1      43.089  25.683  26.561  1.00  0.00     0.031 C 
ATOM     41  C   UNL A   1      39.042  27.310  29.044  1.00  0.00     0.029 A 
ATOM     42  N   UNL A   1      40.787  28.708  28.968  1.00  0.00    -0.354 N 
ATOM     43  C   UNL A   1      44.459  27.468  26.903  1.00  0.00     0.074 A 
ATOM     44  C   UNL A   1      44.316  26.134  26.372  1.00  0.00     0.031 C 
ATOM     45  C   UNL A   1      38.708  28.411  29.741  1.00  0.00     0.029 A 
ATOM     46  C   UNL A   1      39.842  29.330  29.748  1.00  0.00     0.049 A 
ATOM     47  H   UNL A   1      41.656  29.115  28.745  1.00  0.00     0.167 HD
ATOM     48  C   UNL A   1      45.581  28.214  26.798  1.00  0.00     0.034 A 
ATOM     49  C   UNL A   1      39.911  30.506  30.401  1.00  0.00     0.034 A 
ATOM     50  C   UNL A   1      45.684  29.541  27.329  1.00  0.00     0.049 A 
ATOM     51  C   UNL A   1      41.178  31.314  30.278  1.00  0.00     0.074 A 
ATOM     52  C   UNL A   1      46.739  30.427  27.237  1.00  0.00     0.029 A 
ATOM     53  N   UNL A   1      44.691  30.164  28.074  1.00  0.00    -0.354 N 
ATOM     54  N   UNL A   1      42.268  31.038  29.600  1.00  0.00    -0.248 NA
ATOM     55  C   UNL A   1      41.219  32.600  30.984  1.00  0.00     0.031 C 
ATOM     56  C   UNL A   1      46.398  31.573  27.961  1.00  0.00     0.029 A 
ATOM     57  C   UNL A   1      45.115  31.417  28.467  1.00  0.00     0.049 A 
ATOM     58  H   UNL A   1      43.816  29.769  28.289  1.00  0.00     0.167 HD
ATOM     59  C   UNL A   1      43.105  32.137  29.756  1.00  0.00     0.074 A 
ATOM     60  C   UNL A   1      42.393  33.081  30.595  1.00  0.00     0.031 C 
ATOM     61  C   UNL A   1      44.347  32.349  29.256  1.00  0.00     0.034 A 
BRANCH  48  62
ATOM     62  C   UNL A   1      46.760  27.601  26.093  1.00  0.00     0.023 A 
ATOM     63  C   UNL A   1      46.874  27.694  24.689  1.00  0.00     0.012 A 
ATOM     64  C   UNL A   1      47.759  26.930  26.822  1.00  0.00     0.148 A 
ATOM     65  C   UNL A   1      47.939  27.091  24.022  1.00  0.00     0.002 A 
ATOM     66  C   UNL A   1      48.845  26.377  26.155  1.00  0.00     0.091 A 
ATOM     67  F   UNL A   1      47.618  26.823  28.151  1.00  0.00    -0.205 F 
ATOM     68  C   UNL A   1      48.929  26.442  24.754  1.00  0.00     0.022 A 
BRANCH  66  69
ATOM     69  S   UNL A   1      50.209  25.589  27.018  1.00  0.00     0.127 S 
ATOM     70  O   UNL A   1      49.568  24.388  27.550  1.00  0.00    -0.237 OA
ATOM     71  O   UNL A   1      51.158  25.345  25.931  1.00  0.00    -0.237 OA
ATOM     72  O   UNL A   1      50.662  26.551  28.013  1.00  0.00    -0.744 OA
ENDBRANCH  66  69
ENDBRANCH  48  62
BRANCH  49  73
ATOM     73  C   UNL A   1      38.734  31.007  31.164  1.00  0.00     0.023 A 
ATOM     74  C   UNL A   1      38.620  30.698  32.533  1.00  0.00     0.012 A 
ATOM     75  C   UNL A   1      37.755  31.822  30.561  1.00  0.00     0.148 A 
ATOM     76  C   UNL A   1      37.542  31.171  33.283  1.00  0.00     0.002 A 
ATOM     77  C   UNL A   1      36.711  32.331  31.325  1.00  0.00     0.091 A 
ATOM     78  F   UNL A   1      37.877  32.100  29.255  1.00  0.00    -0.205 F 
ATOM     79  C   UNL A   1      36.593  31.993  32.683  1.00  0.00     0.022 A 
BRANCH  77  80
ATOM     80  S   UNL A   1      35.509  33.497  30.671  1.00  0.00     0.127 S 
ATOM     81  O   UNL A   1      34.337  32.646  30.485  1.00  0.00    -0.237 OA
ATOM     82  O   UNL A   1      35.403  34.463  31.764  1.00  0.00    -0.237 OA
ATOM     83  O   UNL A   1      36.101  34.031  29.452  1.00  0.00    -0.744 OA
ENDBRANCH  77  80
ENDBRANCH  49  73
BRANCH  61  84
ATOM     84  C   UNL A   1      45.000  33.672  29.545  1.00  0.00     0.023 A 
ATOM     85  C   UNL A   1      45.823  33.820  30.676  1.00  0.00     0.012 A 
ATOM     86  C   UNL A   1      44.902  34.722  28.610  1.00  0.00     0.148 A 
ATOM     87  C   UNL A   1      46.527  35.004  30.883  1.00  0.00     0.002 A 
ATOM     88  C   UNL A   1      45.649  35.875  28.793  1.00  0.00     0.091 A 
ATOM     89  F   UNL A   1      44.101  34.556  27.547  1.00  0.00    -0.205 F 
ATOM     90  C   UNL A   1      46.453  36.024  29.935  1.00  0.00     0.022 A 
BRANCH  88  91
ATOM     91  S   UNL A   1      45.706  37.190  27.572  1.00  0.00     0.127 S 
ATOM     92  O   UNL A   1      46.194  36.479  26.392  1.00  0.00    -0.237 OA
ATOM     93  O   UNL A   1      44.304  37.604  27.500  1.00  0.00    -0.237 OA
ATOM     94  O   UNL A   1      46.611  38.200  28.105  1.00  0.00    -0.744 OA
ENDBRANCH  88  91
ENDBRANCH  61  84
ENDBRANCH  35  36
ENDBRANCH  28  30
ENDBRANCH  27  28
ENDBRANCH  26  27
ENDBRANCH  25  26
ENDBRANCH  24  25
ENDBRANCH   1  24
TORSDOF 23
ENDMDL
MODEL 2
REMARK VINA RESULT:     -10.1      1.721      7.804
REMARK SMILES CC(C)(C)N(CC(=O)OCCOCCOC(=O)c1ccc(-c2c3nc(c(-c4cccc(S(=O)(=O)[O-])c4F)c4ccc([nH]4)c(-c4cccc(S(=O)(=O)[O-])c4F)c4nc(c(-c5cccc(S(=O)(=O)[O-])c5F)c5ccc2[nH]5)C=C4)C=C3)cc1)C(=O)N1CC[C@H](C[NH3+])C1
REMARK SMILES IDX 11 1 10 2 9 3 7 4 8 5 6 6 5 7 2 8 1 9 3 10 4 11 81 12 82 13
REMARK SMILES IDX 83 14 84 15 89 16 85 17 86 18 87 19 88 20 12 24 13 25 14 26
REMARK SMILES IDX 15 27 16 28 17 29 18 30 19 31 80 32 20 33 79 34 21 35 22 36
REMARK SMILES IDX 23 37 73 38 24 39 78 40 72 41 74 42 25 43 77 44 71 45 70 46
REMARK SMILES IDX 26 48 58 49 38 50 57 51 39 52 42 53 56 54 75 55 40 56 41 57
REMARK SMILES IDX 55 59 76 60 43 61 27 62 28 63 36 64 29 65 31 66 37 67 30 68
REMARK SMILES IDX 32 69 33 70 34 71 35 72 59 73 60 74 68 75 61 76 63 77 69 78
REMARK SMILES IDX 62 79 64 80 65 81 66 82 67 83 44 84 45 85 53 86 46 87 48 88
REMARK SMILES IDX 54 89 47 90 49 91 50 92 51 93 52 94
REMARK H PARENT 88 21 88 22 88 23 74 47 42 58
REMARK Flexibility Score: inf
ROOT
ATOM      1  C   UNL A   1      34.977  23.045  25.754  1.00  0.00     0.202 C 
ENDROOT
BRANCH   1   2
ATOM      2  C   UNL A   1      33.794  23.664  26.501  1.00  0.00     0.261 C 
BRANCH   2   3
ATOM      3  O   UNL A   1      32.519  23.282  25.928  1.00  0.00    -0.462 OA
BRANCH   3   4
ATOM      4  C   UNL A   1      31.531  24.199  26.123  1.00  0.00     0.325 C 
ATOM      5  O   UNL A   1      31.089  24.501  27.230  1.00  0.00    -0.250 OA
BRANCH   4   6
ATOM      6  C   UNL A   1      31.015  24.895  24.851  1.00  0.00     0.244 C 
BRANCH   6   7
ATOM      7  N   UNL A   1      31.739  26.022  24.242  1.00  0.00    -0.309 N 
BRANCH   7   8
ATOM      8  C   UNL A   1      32.636  25.714  23.042  1.00  0.00     0.037 C 
ATOM      9  C   UNL A   1      32.743  26.878  22.015  1.00  0.00     0.034 C 
ATOM     10  C   UNL A   1      32.097  24.500  22.259  1.00  0.00     0.034 C 
ATOM     11  C   UNL A   1      34.099  25.440  23.485  1.00  0.00     0.034 C 
ENDBRANCH   7   8
BRANCH   7  12
ATOM     12  C   UNL A   1      31.486  27.359  24.567  1.00  0.00     0.320 C 
ATOM     13  O   UNL A   1      32.180  27.960  25.392  1.00  0.00    -0.248 OA
BRANCH  12  14
ATOM     14  N   UNL A   1      30.490  28.076  23.929  1.00  0.00    -0.324 N 
ATOM     15  C   UNL A   1      29.196  27.655  23.442  1.00  0.00     0.122 C 
ATOM     16  C   UNL A   1      30.463  29.540  24.074  1.00  0.00     0.130 C 
ATOM     17  C   UNL A   1      28.686  28.811  22.628  1.00  0.00     0.033 C 
ATOM     18  C   UNL A   1      29.108  29.995  23.498  1.00  0.00     0.065 C 
BRANCH  18  19
ATOM     19  C   UNL A   1      29.152  31.300  22.714  1.00  0.00     0.264 C 
BRANCH  19  20
ATOM     20  N   UNL A   1      29.518  31.058  21.318  1.00  0.00    -0.357 N 
ATOM     21  H   UNL A   1      29.097  31.776  20.726  1.00  0.00     0.344 HD
ATOM     22  H   UNL A   1      29.179  30.140  21.031  1.00  0.00     0.344 HD
ATOM     23  H   UNL A   1      30.533  31.091  21.222  1.00  0.00     0.344 HD
ENDBRANCH  19  20
ENDBRANCH  18  19
ENDBRANCH  12  14
ENDBRANCH   7  12
ENDBRANCH   6   7
ENDBRANCH   4   6
ENDBRANCH   3   4
ENDBRANCH   2   3
ENDBRANCH   1   2
BRANCH   1  24
ATOM     24  O   UNL A   1      35.338  21.713  26.119  1.00  0.00    -0.374 OA
BRANCH  24  25
ATOM     25  C   UNL A   1      35.814  20.854  25.096  1.00  0.00     0.202 C 
BRANCH  25  26
ATOM     26  C   UNL A   1      37.311  20.486  25.075  1.00  0.00     0.261 C 
BRANCH  26  27
ATOM     27  O   UNL A   1      38.186  21.498  25.514  1.00  0.00    -0.460 OA
BRANCH  27  28
ATOM     28  C   UNL A   1      39.305  21.070  26.137  1.00  0.00     0.338 C 
ATOM     29  O   UNL A   1      39.784  19.968  26.162  1.00  0.00    -0.246 OA
BRANCH  28  30
ATOM     30  C   UNL A   1      39.913  22.332  26.576  1.00  0.00     0.060 A 
ATOM     31  C   UNL A   1      39.320  23.522  26.149  1.00  0.00     0.016 A 
ATOM     32  C   UNL A   1      40.935  22.311  27.532  1.00  0.00     0.016 A 
ATOM     33  C   UNL A   1      39.791  24.724  26.656  1.00  0.00     0.010 A 
ATOM     34  C   UNL A   1      41.396  23.509  28.045  1.00  0.00     0.010 A 
ATOM     35  C   UNL A   1      40.851  24.714  27.573  1.00  0.00    -0.014 A 
BRANCH  35  36
ATOM     36  C   UNL A   1      41.569  25.960  27.870  1.00  0.00     0.031 A 
ATOM     37  C   UNL A   1      40.814  27.010  28.629  1.00  0.00     0.074 A 
ATOM     38  C   UNL A   1      42.819  26.150  27.424  1.00  0.00     0.049 A 
ATOM     39  N   UNL A   1      41.181  28.216  28.957  1.00  0.00    -0.248 NA
ATOM     40  C   UNL A   1      39.450  26.653  29.064  1.00  0.00     0.031 C 
ATOM     41  C   UNL A   1      43.607  25.172  26.673  1.00  0.00     0.029 A 
ATOM     42  N   UNL A   1      43.634  27.244  27.516  1.00  0.00    -0.354 N 
ATOM     43  C   UNL A   1      40.080  28.775  29.594  1.00  0.00     0.074 A 
ATOM     44  C   UNL A   1      39.030  27.786  29.598  1.00  0.00     0.031 C 
ATOM     45  C   UNL A   1      44.794  25.721  26.358  1.00  0.00     0.029 A 
ATOM     46  C   UNL A   1      44.830  27.092  26.857  1.00  0.00     0.049 A 
ATOM     47  H   UNL A   1      43.387  28.062  28.007  1.00  0.00     0.167 HD
ATOM     48  C   UNL A   1      39.968  30.008  30.136  1.00  0.00     0.034 A 
ATOM     49  C   UNL A   1      45.825  27.982  26.675  1.00  0.00     0.034 A 
ATOM     50  C   UNL A   1      41.037  30.962  30.124  1.00  0.00     0.049 A 
ATOM     51  C   UNL A   1      45.670  29.354  27.277  1.00  0.00     0.074 A 
ATOM     52  C   UNL A   1      41.077  32.221  30.690  1.00  0.00     0.029 A 
ATOM     53  N   UNL A   1      42.256  30.761  29.489  1.00  0.00    -0.354 N 
ATOM     54  N   UNL A   1      44.675  29.835  27.986  1.00  0.00    -0.248 NA
ATOM     55  C   UNL A   1      46.777  30.297  27.079  1.00  0.00     0.031 C 
ATOM     56  C   UNL A   1      42.307  32.797  30.363  1.00  0.00     0.029 A 
ATOM     57  C   UNL A   1      43.050  31.881  29.632  1.00  0.00     0.049 A 
ATOM     58  H   UNL A   1      42.515  29.942  29.010  1.00  0.00     0.167 HD
ATOM     59  C   UNL A   1      45.056  31.118  28.362  1.00  0.00     0.074 A 
ATOM     60  C   UNL A   1      46.374  31.337  27.798  1.00  0.00     0.031 C 
ATOM     61  C   UNL A   1      44.383  32.033  29.101  1.00  0.00     0.034 A 
BRANCH  48  62
ATOM     62  C   UNL A   1      38.653  30.373  30.767  1.00  0.00     0.023 A 
ATOM     63  C   UNL A   1      38.352  29.945  32.078  1.00  0.00     0.012 A 
ATOM     64  C   UNL A   1      37.709  31.142  30.060  1.00  0.00     0.148 A 
ATOM     65  C   UNL A   1      37.118  30.240  32.656  1.00  0.00     0.002 A 
ATOM     66  C   UNL A   1      36.502  31.476  30.661  1.00  0.00     0.091 A 
ATOM     67  F   UNL A   1      37.997  31.512  28.804  1.00  0.00    -0.205 F 
ATOM     68  C   UNL A   1      36.198  31.013  31.953  1.00  0.00     0.022 A 
BRANCH  66  69
ATOM     69  S   UNL A   1      35.287  32.532  29.867  1.00  0.00     0.127 S 
ATOM     70  O   UNL A   1      34.269  32.647  30.909  1.00  0.00    -0.237 OA
ATOM     71  O   UNL A   1      36.054  33.754  29.625  1.00  0.00    -0.237 OA
ATOM     72  O   UNL A   1      34.872  31.829  28.661  1.00  0.00    -0.744 OA
ENDBRANCH  66  69
ENDBRANCH  48  62
BRANCH  49  73
ATOM     73  C   UNL A   1      47.063  27.579  25.951  1.00  0.00     0.023 A 
ATOM     74  C   UNL A   1      48.080  26.903  26.652  1.00  0.00     0.012 A 
ATOM     75  C   UNL A   1      47.221  27.815  24.570  1.00  0.00     0.148 A 
ATOM     76  C   UNL A   1      49.243  26.491  25.999  1.00  0.00     0.002 A 
ATOM     77  C   UNL A   1      48.359  27.358  23.916  1.00  0.00     0.091 A 
ATOM     78  F   UNL A   1      46.245  28.466  23.922  1.00  0.00    -0.205 F 
ATOM     79  C   UNL A   1      49.379  26.709  24.631  1.00  0.00     0.022 A 
BRANCH  77  80
ATOM     80  S   UNL A   1      48.570  27.484  22.135  1.00  0.00     0.127 S 
ATOM     81  O   UNL A   1      47.375  28.227  21.744  1.00  0.00    -0.237 OA
ATOM     82  O   UNL A   1      49.823  28.233  22.034  1.00  0.00    -0.237 OA
ATOM     83  O   UNL A   1      48.648  26.114  21.649  1.00  0.00    -0.744 OA
ENDBRANCH  77  80
ENDBRANCH  49  73
BRANCH  61  84
ATOM     84  C   UNL A   1      45.074  33.335  29.402  1.00  0.00     0.023 A 
ATOM     85  C   UNL A   1      46.032  33.403  30.428  1.00  0.00     0.012 A 
ATOM     86  C   UNL A   1      44.864  34.449  28.565  1.00  0.00     0.148 A 
ATOM     87  C   UNL A   1      46.764  34.572  30.630  1.00  0.00     0.002 A 
ATOM     88  C   UNL A   1      45.634  35.590  28.737  1.00  0.00     0.091 A 
ATOM     89  F   UNL A   1      43.935  34.359  27.603  1.00  0.00    -0.205 F 
ATOM     90  C   UNL A   1      46.576  35.658  29.776  1.00  0.00     0.022 A 
BRANCH  88  91
ATOM     91  S   UNL A   1      45.544  36.990  27.617  1.00  0.00     0.127 S 
ATOM     92  O   UNL A   1      46.170  36.449  26.412  1.00  0.00    -0.237 OA
ATOM     93  O   UNL A   1      44.100  37.207  27.512  1.00  0.00    -0.237 OA
ATOM     94  O   UNL A   1      46.275  38.073  28.262  1.00  0.00    -0.744 OA
ENDBRANCH  88  91
ENDBRANCH  61  84
ENDBRANCH  35  36
ENDBRANCH  28  30
ENDBRANCH  27  28
ENDBRANCH  26  27
ENDBRANCH  25  26
ENDBRANCH  24  25
ENDBRANCH   1  24
TORSDOF 23
ENDMDL
MODEL 3
REMARK VINA RESULT:      -9.9      1.818      2.290
REMARK SMILES CC(C)(C)N(CC(=O)OCCOCCOC(=O)c1ccc(-c2c3nc(c(-c4cccc(S(=O)(=O)[O-])c4F)c4ccc([nH]4)c(-c4cccc(S(=O)(=O)[O-])c4F)c4nc(c(-c5cccc(S(=O)(=O)[O-])c5F)c5ccc2[nH]5)C=C4)C=C3)cc1)C(=O)N1CC[C@H](C[NH3+])C1
REMARK SMILES IDX 11 1 10 2 9 3 7 4 8 5 6 6 5 7 2 8 1 9 3 10 4 11 81 12 82 13
REMARK SMILES IDX 83 14 84 15 89 16 85 17 86 18 87 19 88 20 12 24 13 25 14 26
REMARK SMILES IDX 15 27 16 28 17 29 18 30 19 31 80 32 20 33 79 34 21 35 22 36
REMARK SMILES IDX 23 37 73 38 24 39 78 40 72 41 74 42 25 43 77 44 71 45 70 46
REMARK SMILES IDX 26 48 58 49 38 50 57 51 39 52 42 53 56 54 75 55 40 56 41 57
REMARK SMILES IDX 55 59 76 60 43 61 27 62 28 63 36 64 29 65 31 66 37 67 30 68
REMARK SMILES IDX 32 69 33 70 34 71 35 72 59 73 60 74 68 75 61 76 63 77 69 78
REMARK SMILES IDX 62 79 64 80 65 81 66 82 67 83 44 84 45 85 53 86 46 87 48 88
REMARK SMILES IDX 54 89 47 90 49 91 50 92 51 93 52 94
REMARK H PARENT 88 21 88 22 88 23 74 47 42 58
REMARK Flexibility Score: inf
ROOT
ATOM      1  C   UNL A   1      36.956  22.762  24.459  1.00  0.00     0.202 C 
ENDROOT
BRANCH   1   2
ATOM      2  C   UNL A   1      35.551  22.552  23.891  1.00  0.00     0.261 C 
BRANCH   2   3
ATOM      3  O   UNL A   1      35.307  23.358  22.711  1.00  0.00    -0.462 OA
BRANCH   3   4
ATOM      4  C   UNL A   1      34.102  23.994  22.718  1.00  0.00     0.325 C 
ATOM      5  O   UNL A   1      33.352  24.042  21.745  1.00  0.00    -0.250 OA
BRANCH   4   6
ATOM      6  C   UNL A   1      33.696  24.626  24.061  1.00  0.00     0.244 C 
BRANCH   6   7
ATOM      7  N   UNL A   1      32.325  24.509  24.583  1.00  0.00    -0.309 N 
BRANCH   7   8
ATOM      8  C   UNL A   1      32.094  23.531  25.735  1.00  0.00     0.037 C 
ATOM      9  C   UNL A   1      30.863  23.874  26.622  1.00  0.00     0.034 C 
ATOM     10  C   UNL A   1      33.311  23.509  26.681  1.00  0.00     0.034 C 
ATOM     11  C   UNL A   1      31.816  22.095  25.210  1.00  0.00     0.034 C 
ENDBRANCH   7   8
BRANCH   7  12
ATOM     12  C   UNL A   1      31.293  25.385  24.227  1.00  0.00     0.320 C 
ATOM     13  O   UNL A   1      30.205  24.963  23.825  1.00  0.00    -0.248 OA
BRANCH  12  14
ATOM     14  N   UNL A   1      31.432  26.753  24.372  1.00  0.00    -0.324 N 
ATOM     15  C   UNL A   1      30.773  27.841  23.686  1.00  0.00     0.122 C 
ATOM     16  C   UNL A   1      31.987  27.282  25.628  1.00  0.00     0.130 C 
ATOM     17  C   UNL A   1      31.522  29.077  24.098  1.00  0.00     0.033 C 
ATOM     18  C   UNL A   1      31.748  28.805  25.585  1.00  0.00     0.065 C 
BRANCH  18  19
ATOM     19  C   UNL A   1      32.880  29.646  26.160  1.00  0.00     0.264 C 
BRANCH  19  20
ATOM     20  N   UNL A   1      32.807  29.689  27.622  1.00  0.00    -0.357 N 
ATOM     21  H   UNL A   1      32.879  30.657  27.937  1.00  0.00     0.344 HD
ATOM     22  H   UNL A   1      33.574  29.145  28.017  1.00  0.00     0.344 HD
ATOM     23  H   UNL A   1      31.917  29.297  27.930  1.00  0.00     0.344 HD
ENDBRANCH  19  20
ENDBRANCH  18  19
ENDBRANCH  12  14
ENDBRANCH   7  12
ENDBRANCH   6   7
ENDBRANCH   4   6
ENDBRANCH   3   4
ENDBRANCH   2   3
ENDBRANCH   1   2
BRANCH   1  24
ATOM     24  O   UNL A   1      37.320  21.955  25.579  1.00  0.00    -0.374 OA
BRANCH  24  25
ATOM     25  C   UNL A   1      37.572  20.579  25.348  1.00  0.00     0.202 C 
BRANCH  25  26
ATOM     26  C   UNL A   1      39.028  20.075  25.391  1.00  0.00     0.261 C 
BRANCH  26  27
ATOM     27  O   UNL A   1      39.990  21.043  25.739  1.00  0.00    -0.460 OA
BRANCH  27  28
ATOM     28  C   UNL A   1      40.480  20.951  26.994  1.00  0.00     0.338 C 
ATOM     29  O   UNL A   1      40.787  19.971  27.618  1.00  0.00    -0.246 OA
BRANCH  28  30
ATOM     30  C   UNL A   1      40.767  22.355  27.314  1.00  0.00     0.060 A 
ATOM     31  C   UNL A   1      39.939  23.332  26.757  1.00  0.00     0.016 A 
ATOM     32  C   UNL A   1      41.726  22.659  28.287  1.00  0.00     0.016 A 
ATOM     33  C   UNL A   1      40.103  24.652  27.147  1.00  0.00     0.010 A 
ATOM     34  C   UNL A   1      41.881  23.975  28.684  1.00  0.00     0.010 A 
ATOM     35  C   UNL A   1      41.098  24.972  28.082  1.00  0.00    -0.014 A 
BRANCH  35  36
ATOM     36  C   UNL A   1      41.502  26.372  28.264  1.00  0.00     0.031 A 
ATOM     37  C   UNL A   1      42.894  26.733  27.842  1.00  0.00     0.074 A 
ATOM     38  C   UNL A   1      40.668  27.254  28.834  1.00  0.00     0.049 A 
ATOM     39  N   UNL A   1      43.524  27.867  27.957  1.00  0.00    -0.248 NA
ATOM     40  C   UNL A   1      43.692  25.659  27.219  1.00  0.00     0.031 C 
ATOM     41  C   UNL A   1      39.303  26.966  29.274  1.00  0.00     0.029 A 
ATOM     42  N   UNL A   1      40.862  28.566  29.166  1.00  0.00    -0.354 N 
ATOM     43  C   UNL A   1      44.802  27.631  27.464  1.00  0.00     0.074 A 
ATOM     44  C   UNL A   1      44.864  26.248  27.061  1.00  0.00     0.031 C 
ATOM     45  C   UNL A   1      38.785  28.072  29.835  1.00  0.00     0.029 A 
ATOM     46  C   UNL A   1      39.793  29.128  29.820  1.00  0.00     0.049 A 
ATOM     47  H   UNL A   1      41.688  29.060  28.956  1.00  0.00     0.167 HD
ATOM     48  C   UNL A   1      45.827  28.504  27.353  1.00  0.00     0.034 A 
ATOM     49  C   UNL A   1      39.667  30.358  30.355  1.00  0.00     0.034 A 
ATOM     50  C   UNL A   1      45.726  29.877  27.755  1.00  0.00     0.049 A 
ATOM     51  C   UNL A   1      40.830  31.309  30.230  1.00  0.00     0.074 A 
ATOM     52  C   UNL A   1      46.667  30.881  27.640  1.00  0.00     0.029 A 
ATOM     53  N   UNL A   1      44.611  30.430  28.372  1.00  0.00    -0.354 N 
ATOM     54  N   UNL A   1      41.993  31.117  29.651  1.00  0.00    -0.248 NA
ATOM     55  C   UNL A   1      40.659  32.648  30.806  1.00  0.00     0.031 C 
ATOM     56  C   UNL A   1      46.134  32.033  28.224  1.00  0.00     0.029 A 
ATOM     57  C   UNL A   1      44.846  31.758  28.663  1.00  0.00     0.049 A 
ATOM     58  H   UNL A   1      43.778  29.946  28.571  1.00  0.00     0.167 HD
ATOM     59  C   UNL A   1      42.674  32.325  29.747  1.00  0.00     0.074 A 
ATOM     60  C   UNL A   1      41.791  33.241  30.443  1.00  0.00     0.031 C 
ATOM     61  C   UNL A   1      43.914  32.650  29.306  1.00  0.00     0.034 A 
BRANCH  48  62
ATOM     62  C   UNL A   1      47.121  27.989  26.787  1.00  0.00     0.023 A 
ATOM     63  C   UNL A   1      48.173  27.612  27.650  1.00  0.00     0.012 A 
ATOM     64  C   UNL A   1      47.299  27.877  25.395  1.00  0.00     0.148 A 
ATOM     65  C   UNL A   1      49.392  27.176  27.135  1.00  0.00     0.002 A 
ATOM     66  C   UNL A   1      48.499  27.393  24.890  1.00  0.00     0.091 A 
ATOM     67  F   UNL A   1      46.302  28.271  24.590  1.00  0.00    -0.205 F 
ATOM     68  C   UNL A   1      49.552  27.056  25.757  1.00  0.00     0.022 A 
BRANCH  66  69
ATOM     69  S   UNL A   1      48.771  27.129  23.135  1.00  0.00     0.127 S 
ATOM     70  O   UNL A   1      48.156  25.818  22.934  1.00  0.00    -0.237 OA
ATOM     71  O   UNL A   1      48.037  28.245  22.540  1.00  0.00    -0.237 OA
ATOM     72  O   UNL A   1      50.214  27.180  22.942  1.00  0.00    -0.744 OA
ENDBRANCH  66  69
ENDBRANCH  48  62
BRANCH  49  73
ATOM     73  C   UNL A   1      38.384  30.769  30.991  1.00  0.00     0.023 A 
ATOM     74  C   UNL A   1      38.182  30.511  32.360  1.00  0.00     0.012 A 
ATOM     75  C   UNL A   1      37.386  31.451  30.267  1.00  0.00     0.148 A 
ATOM     76  C   UNL A   1      37.001  30.904  32.993  1.00  0.00     0.002 A 
ATOM     77  C   UNL A   1      36.234  31.883  30.913  1.00  0.00     0.091 A 
ATOM     78  F   UNL A   1      37.594  31.680  28.962  1.00  0.00    -0.205 F 
ATOM     79  C   UNL A   1      36.032  31.596  32.273  1.00  0.00     0.022 A 
BRANCH  77  80
ATOM     80  S   UNL A   1      34.985  32.888  30.101  1.00  0.00     0.127 S 
ATOM     81  O   UNL A   1      34.433  31.951  29.127  1.00  0.00    -0.237 OA
ATOM     82  O   UNL A   1      34.094  33.217  31.214  1.00  0.00    -0.237 OA
ATOM     83  O   UNL A   1      35.698  34.030  29.544  1.00  0.00    -0.744 OA
ENDBRANCH  77  80
ENDBRANCH  49  73
BRANCH  61  84
ATOM     84  C   UNL A   1      44.375  34.068  29.502  1.00  0.00     0.023 A 
ATOM     85  C   UNL A   1      45.283  34.379  30.529  1.00  0.00     0.012 A 
ATOM     86  C   UNL A   1      44.007  35.060  28.570  1.00  0.00     0.148 A 
ATOM     87  C   UNL A   1      45.808  35.665  30.638  1.00  0.00     0.002 A 
ATOM     88  C   UNL A   1      44.575  36.322  28.652  1.00  0.00     0.091 A 
ATOM     89  F   UNL A   1      43.129  34.737  27.609  1.00  0.00    -0.205 F 
ATOM     90  C   UNL A   1      45.467  36.630  29.692  1.00  0.00     0.022 A 
BRANCH  88  91
ATOM     91  S   UNL A   1      44.285  37.590  27.415  1.00  0.00     0.127 S 
ATOM     92  O   UNL A   1      43.143  37.040  26.686  1.00  0.00    -0.237 OA
ATOM     93  O   UNL A   1      43.980  38.760  28.240  1.00  0.00    -0.237 OA
ATOM     94  O   UNL A   1      45.518  37.695  26.645  1.00  0.00    -0.744 OA
ENDBRANCH  88  91
ENDBRANCH  61  84
ENDBRANCH  35  36
ENDBRANCH  28  30
ENDBRANCH  27  28
ENDBRANCH  26  27
ENDBRANCH  25  26
ENDBRANCH  24  25
ENDBRANCH   1  24
TORSDOF 23
ENDMDL
