MODEL 1
REMARK VINA RESULT:     -11.3      0.000      0.000
REMARK SMILES Cc1ccc(C[N@H+]2CCC[C@@H](C(=O)OCCOCCOC(=O)c3ccc(-c4c5nc(c(-c6cccc(S(=O)(=O)[O-])c6F)c6ccc([nH]6)c(-c6cccc(S(=O)(=O)[O-])c6F)c6nc(c(-c7cccc(S(=O)(=O)[O-])c7F)c7ccc4[nH]7)C=C6)C=C5)cc3)C2)o1
REMARK SMILES IDX 18 1 17 2 16 3 15 4 14 5 12 6 13 7 11 8 7 9 8 10 86 11 9 13
REMARK SMILES IDX 10 14 6 15 5 16 1 17 2 18 3 19 87 20 4 21 19 22 20 23 21 24
REMARK SMILES IDX 22 25 23 26 24 27 85 28 25 29 84 30 26 31 27 32 28 33 78 34
REMARK SMILES IDX 29 35 83 36 77 37 79 38 30 39 82 40 76 41 75 42 31 44 63 45
REMARK SMILES IDX 43 46 62 47 44 48 47 49 61 50 80 51 45 52 46 53 60 55 81 56
REMARK SMILES IDX 48 57 32 58 33 59 41 60 34 61 36 62 42 63 35 64 37 65 38 66
REMARK SMILES IDX 39 67 40 68 64 69 65 70 73 71 66 72 68 73 74 74 67 75 69 76
REMARK SMILES IDX 70 77 71 78 72 79 49 80 50 81 58 82 51 83 53 84 59 85 52 86
REMARK SMILES IDX 54 87 55 88 56 89 57 90
REMARK H PARENT 7 12 79 43 47 54
REMARK Flexibility Score: inf
ROOT
ATOM      1  C   UNL A   1      35.929  20.402  25.008  1.00  0.00     0.202 C 
ENDROOT
BRANCH   1   2
ATOM      2  O   UNL A   1      35.481  21.565  25.700  1.00  0.00    -0.374 OA
BRANCH   2   3
ATOM      3  C   UNL A   1      34.645  22.470  24.983  1.00  0.00     0.202 C 
BRANCH   3   4
ATOM      4  C   UNL A   1      34.095  23.703  25.714  1.00  0.00     0.261 C 
BRANCH   4   5
ATOM      5  O   UNL A   1      32.789  24.117  25.275  1.00  0.00    -0.463 OA
BRANCH   5   6
ATOM      6  C   UNL A   1      32.165  24.964  26.139  1.00  0.00     0.314 C 
ATOM      7  O   UNL A   1      31.402  24.590  27.025  1.00  0.00    -0.252 OA
BRANCH   6   8
ATOM      8  C   UNL A   1      32.537  26.425  25.898  1.00  0.00     0.154 C 
ATOM      9  N   UNL A   1      32.126  28.147  24.070  1.00  0.00    -0.328 N 
ATOM     10  C   UNL A   1      31.399  29.002  25.012  1.00  0.00     0.262 C 
ATOM     11  C   UNL A   1      32.066  26.733  24.471  1.00  0.00     0.278 C 
ATOM     12  H   UNL A   1      33.099  28.451  24.099  1.00  0.00     0.348 HD
ATOM     13  C   UNL A   1      31.945  28.830  26.432  1.00  0.00     0.062 C 
ATOM     14  C   UNL A   1      31.852  27.374  26.887  1.00  0.00     0.027 C 
BRANCH   9  15
ATOM     15  C   UNL A   1      31.655  28.310  22.671  1.00  0.00     0.338 C 
BRANCH  15  16
ATOM     16  C   UNL A   1      30.289  28.907  22.488  1.00  0.00     0.158 A 
ATOM     17  C   UNL A   1      26.899  28.436  23.496  1.00  0.00     0.087 C 
ATOM     18  C   UNL A   1      28.117  28.963  22.849  1.00  0.00     0.101 A 
ATOM     19  C   UNL A   1      28.422  30.105  22.144  1.00  0.00     0.046 A 
ATOM     20  O   UNL A   1      29.232  28.200  22.984  1.00  0.00    -0.460 OA
ATOM     21  C   UNL A   1      29.821  30.068  21.907  1.00  0.00     0.052 A 
ENDBRANCH  15  16
ENDBRANCH   9  15
ENDBRANCH   6   8
ENDBRANCH   5   6
ENDBRANCH   4   5
ENDBRANCH   3   4
ENDBRANCH   2   3
ENDBRANCH   1   2
BRANCH   1  22
ATOM     22  C   UNL A   1      37.434  20.111  24.989  1.00  0.00     0.261 C 
BRANCH  22  23
ATOM     23  O   UNL A   1      38.215  21.287  25.258  1.00  0.00    -0.460 OA
BRANCH  23  24
ATOM     24  C   UNL A   1      39.292  21.080  26.052  1.00  0.00     0.338 C 
ATOM     25  O   UNL A   1      39.974  20.065  26.118  1.00  0.00    -0.246 OA
BRANCH  24  26
ATOM     26  C   UNL A   1      39.689  22.340  26.705  1.00  0.00     0.060 A 
ATOM     27  C   UNL A   1      39.010  23.504  26.319  1.00  0.00     0.016 A 
ATOM     28  C   UNL A   1      40.737  22.400  27.626  1.00  0.00     0.016 A 
ATOM     29  C   UNL A   1      39.419  24.742  26.801  1.00  0.00     0.010 A 
ATOM     30  C   UNL A   1      41.154  23.647  28.100  1.00  0.00     0.010 A 
ATOM     31  C   UNL A   1      40.525  24.824  27.654  1.00  0.00    -0.014 A 
BRANCH  31  32
ATOM     32  C   UNL A   1      41.121  26.152  27.933  1.00  0.00     0.031 A 
ATOM     33  C   UNL A   1      42.509  26.441  27.431  1.00  0.00     0.074 A 
ATOM     34  C   UNL A   1      40.430  27.093  28.599  1.00  0.00     0.049 A 
ATOM     35  N   UNL A   1      43.218  27.533  27.539  1.00  0.00    -0.248 NA
ATOM     36  C   UNL A   1      43.188  25.350  26.709  1.00  0.00     0.031 C 
ATOM     37  C   UNL A   1      39.076  26.931  29.125  1.00  0.00     0.029 A 
ATOM     38  N   UNL A   1      40.784  28.369  28.958  1.00  0.00    -0.354 N 
ATOM     39  C   UNL A   1      44.435  27.256  26.927  1.00  0.00     0.074 A 
ATOM     40  C   UNL A   1      44.374  25.888  26.460  1.00  0.00     0.031 C 
ATOM     41  C   UNL A   1      38.720  28.060  29.760  1.00  0.00     0.029 A 
ATOM     42  C   UNL A   1      39.826  29.015  29.700  1.00  0.00     0.049 A 
ATOM     43  H   UNL A   1      41.642  28.781  28.707  1.00  0.00     0.167 HD
ATOM     44  C   UNL A   1      45.501  28.072  26.753  1.00  0.00     0.034 A 
ATOM     45  C   UNL A   1      39.847  30.233  30.277  1.00  0.00     0.034 A 
ATOM     46  C   UNL A   1      45.550  29.437  27.197  1.00  0.00     0.049 A 
ATOM     47  C   UNL A   1      41.055  31.113  30.090  1.00  0.00     0.074 A 
ATOM     48  C   UNL A   1      46.561  30.364  27.020  1.00  0.00     0.029 A 
ATOM     49  N   UNL A   1      44.552  30.067  27.924  1.00  0.00    -0.354 N 
ATOM     50  N   UNL A   1      42.145  30.885  29.399  1.00  0.00    -0.248 NA
ATOM     51  C   UNL A   1      41.021  32.433  30.737  1.00  0.00     0.031 C 
ATOM     52  C   UNL A   1      46.184  31.549  27.663  1.00  0.00     0.029 A 
ATOM     53  C   UNL A   1      44.928  31.367  28.218  1.00  0.00     0.049 A 
ATOM     54  H   UNL A   1      43.701  29.652  28.191  1.00  0.00     0.167 HD
ATOM     55  C   UNL A   1      42.912  32.041  29.498  1.00  0.00     0.074 A 
ATOM     56  C   UNL A   1      42.152  32.976  30.302  1.00  0.00     0.031 C 
ATOM     57  C   UNL A   1      44.139  32.302  28.980  1.00  0.00     0.034 A 
BRANCH  44  58
ATOM     58  C   UNL A   1      46.695  27.507  26.030  1.00  0.00     0.023 A 
ATOM     59  C   UNL A   1      46.795  27.647  24.629  1.00  0.00     0.012 A 
ATOM     60  C   UNL A   1      47.731  26.867  26.736  1.00  0.00     0.148 A 
ATOM     61  C   UNL A   1      47.890  27.128  23.940  1.00  0.00     0.002 A 
ATOM     62  C   UNL A   1      48.841  26.389  26.046  1.00  0.00     0.091 A 
ATOM     63  F   UNL A   1      47.605  26.717  28.062  1.00  0.00    -0.205 F 
ATOM     64  C   UNL A   1      48.916  26.508  24.649  1.00  0.00     0.022 A 
BRANCH  62  65
ATOM     65  S   UNL A   1      50.243  25.641  26.883  1.00  0.00     0.127 S 
ATOM     66  O   UNL A   1      51.156  25.395  25.769  1.00  0.00    -0.237 OA
ATOM     67  O   UNL A   1      50.666  26.706  27.793  1.00  0.00    -0.237 OA
ATOM     68  O   UNL A   1      49.722  24.452  27.546  1.00  0.00    -0.744 OA
ENDBRANCH  62  65
ENDBRANCH  44  58
BRANCH  45  69
ATOM     69  C   UNL A   1      38.662  30.708  31.044  1.00  0.00     0.023 A 
ATOM     70  C   UNL A   1      38.626  30.537  32.441  1.00  0.00     0.012 A 
ATOM     71  C   UNL A   1      37.590  31.361  30.404  1.00  0.00     0.148 A 
ATOM     72  C   UNL A   1      37.536  30.988  33.185  1.00  0.00     0.002 A 
ATOM     73  C   UNL A   1      36.532  31.855  31.156  1.00  0.00     0.091 A 
ATOM     74  F   UNL A   1      37.637  31.499  29.071  1.00  0.00    -0.205 F 
ATOM     75  C   UNL A   1      36.495  31.657  32.545  1.00  0.00     0.022 A 
BRANCH  73  76
ATOM     76  S   UNL A   1      35.212  32.837  30.436  1.00  0.00     0.127 S 
ATOM     77  O   UNL A   1      35.935  34.021  29.977  1.00  0.00    -0.237 OA
ATOM     78  O   UNL A   1      34.729  31.958  29.371  1.00  0.00    -0.237 OA
ATOM     79  O   UNL A   1      34.255  33.061  31.511  1.00  0.00    -0.744 OA
ENDBRANCH  73  76
ENDBRANCH  45  69
BRANCH  57  80
ATOM     80  C   UNL A   1      44.735  33.662  29.240  1.00  0.00     0.023 A 
ATOM     81  C   UNL A   1      45.459  33.892  30.426  1.00  0.00     0.012 A 
ATOM     82  C   UNL A   1      44.647  34.684  28.275  1.00  0.00     0.148 A 
ATOM     83  C   UNL A   1      46.061  35.127  30.661  1.00  0.00     0.002 A 
ATOM     84  C   UNL A   1      45.289  35.897  28.494  1.00  0.00     0.091 A 
ATOM     85  F   UNL A   1      43.937  34.453  27.161  1.00  0.00    -0.205 F 
ATOM     86  C   UNL A   1      45.987  36.125  29.691  1.00  0.00     0.022 A 
BRANCH  84  87
ATOM     87  S   UNL A   1      45.327  37.201  27.260  1.00  0.00     0.127 S 
ATOM     88  O   UNL A   1      43.903  37.461  27.055  1.00  0.00    -0.237 OA
ATOM     89  O   UNL A   1      46.047  38.268  27.955  1.00  0.00    -0.237 OA
ATOM     90  O   UNL A   1      46.033  36.646  26.113  1.00  0.00    -0.744 OA
ENDBRANCH  84  87
ENDBRANCH  57  80
ENDBRANCH  31  32
ENDBRANCH  24  26
ENDBRANCH  23  24
ENDBRANCH  22  23
ENDBRANCH   1  22
TORSDOF 19
ENDMDL
MODEL 2
REMARK VINA RESULT:     -11.2      4.808     10.386
REMARK SMILES Cc1ccc(C[N@H+]2CCC[C@@H](C(=O)OCCOCCOC(=O)c3ccc(-c4c5nc(c(-c6cccc(S(=O)(=O)[O-])c6F)c6ccc([nH]6)c(-c6cccc(S(=O)(=O)[O-])c6F)c6nc(c(-c7cccc(S(=O)(=O)[O-])c7F)c7ccc4[nH]7)C=C6)C=C5)cc3)C2)o1
REMARK SMILES IDX 18 1 17 2 16 3 15 4 14 5 12 6 13 7 11 8 7 9 8 10 86 11 9 13
REMARK SMILES IDX 10 14 6 15 5 16 1 17 2 18 3 19 87 20 4 21 19 22 20 23 21 24
REMARK SMILES IDX 22 25 23 26 24 27 85 28 25 29 84 30 26 31 27 32 28 33 78 34
REMARK SMILES IDX 29 35 83 36 77 37 79 38 30 39 82 40 76 41 75 42 31 44 63 45
REMARK SMILES IDX 43 46 62 47 44 48 47 49 61 50 80 51 45 52 46 53 60 55 81 56
REMARK SMILES IDX 48 57 32 58 33 59 41 60 34 61 36 62 42 63 35 64 37 65 38 66
REMARK SMILES IDX 39 67 40 68 64 69 65 70 73 71 66 72 68 73 74 74 67 75 69 76
REMARK SMILES IDX 70 77 71 78 72 79 49 80 50 81 58 82 51 83 53 84 59 85 52 86
REMARK SMILES IDX 54 87 55 88 56 89 57 90
REMARK H PARENT 7 12 79 43 47 54
REMARK Flexibility Score: inf
ROOT
ATOM      1  C   UNL A   1      31.402  30.077  25.248  1.00  0.00     0.202 C 
ENDROOT
BRANCH   1   2
ATOM      2  O   UNL A   1      32.351  29.020  25.365  1.00  0.00    -0.374 OA
BRANCH   2   3
ATOM      3  C   UNL A   1      33.318  28.892  24.325  1.00  0.00     0.202 C 
BRANCH   3   4
ATOM      4  C   UNL A   1      32.831  28.794  22.873  1.00  0.00     0.261 C 
BRANCH   4   5
ATOM      5  O   UNL A   1      32.464  27.465  22.461  1.00  0.00    -0.463 OA
BRANCH   5   6
ATOM      6  C   UNL A   1      31.126  27.222  22.530  1.00  0.00     0.314 C 
ATOM      7  O   UNL A   1      30.278  27.936  22.005  1.00  0.00    -0.252 OA
BRANCH   6   8
ATOM      8  C   UNL A   1      30.802  25.952  23.314  1.00  0.00     0.154 C 
ATOM      9  N   UNL A   1      32.100  23.927  24.146  1.00  0.00    -0.328 N 
ATOM     10  C   UNL A   1      31.785  24.272  25.536  1.00  0.00     0.262 C 
ATOM     11  C   UNL A   1      32.088  25.116  23.281  1.00  0.00     0.278 C 
ATOM     12  H   UNL A   1      31.364  23.293  23.836  1.00  0.00     0.348 HD
ATOM     13  C   UNL A   1      30.431  24.980  25.624  1.00  0.00     0.062 C 
ATOM     14  C   UNL A   1      30.410  26.244  24.767  1.00  0.00     0.027 C 
BRANCH   9  15
ATOM     15  C   UNL A   1      33.390  23.203  24.017  1.00  0.00     0.338 C 
BRANCH  15  16
ATOM     16  C   UNL A   1      33.369  21.733  24.323  1.00  0.00     0.158 A 
ATOM     17  C   UNL A   1      32.162  18.642  23.010  1.00  0.00     0.087 C 
ATOM     18  C   UNL A   1      32.801  19.652  23.878  1.00  0.00     0.101 A 
ATOM     19  C   UNL A   1      33.635  19.600  24.972  1.00  0.00     0.046 A 
ATOM     20  O   UNL A   1      32.575  20.947  23.538  1.00  0.00    -0.460 OA
ATOM     21  C   UNL A   1      33.998  20.941  25.262  1.00  0.00     0.052 A 
ENDBRANCH  15  16
ENDBRANCH   9  15
ENDBRANCH   6   8
ENDBRANCH   5   6
ENDBRANCH   4   5
ENDBRANCH   3   4
ENDBRANCH   2   3
ENDBRANCH   1   2
BRANCH   1  22
ATOM     22  C   UNL A   1      31.511  31.253  26.225  1.00  0.00     0.261 C 
BRANCH  22  23
ATOM     23  O   UNL A   1      32.491  31.015  27.249  1.00  0.00    -0.460 OA
BRANCH  23  24
ATOM     24  C   UNL A   1      33.298  32.069  27.513  1.00  0.00     0.338 C 
ATOM     25  O   UNL A   1      32.966  33.244  27.619  1.00  0.00    -0.246 OA
BRANCH  24  26
ATOM     26  C   UNL A   1      34.646  31.597  27.875  1.00  0.00     0.060 A 
ATOM     27  C   UNL A   1      34.824  30.213  28.012  1.00  0.00     0.016 A 
ATOM     28  C   UNL A   1      35.696  32.478  28.136  1.00  0.00     0.016 A 
ATOM     29  C   UNL A   1      36.034  29.708  28.474  1.00  0.00     0.010 A 
ATOM     30  C   UNL A   1      36.909  31.969  28.612  1.00  0.00     0.010 A 
ATOM     31  C   UNL A   1      37.065  30.588  28.825  1.00  0.00    -0.014 A 
BRANCH  31  32
ATOM     32  C   UNL A   1      38.232  30.066  29.574  1.00  0.00     0.031 A 
ATOM     33  C   UNL A   1      38.448  30.527  30.989  1.00  0.00     0.074 A 
ATOM     34  C   UNL A   1      39.071  29.177  29.014  1.00  0.00     0.049 A 
ATOM     35  N   UNL A   1      39.383  30.189  31.837  1.00  0.00    -0.248 NA
ATOM     36  C   UNL A   1      37.476  31.498  31.520  1.00  0.00     0.031 C 
ATOM     37  C   UNL A   1      38.958  28.651  27.655  1.00  0.00     0.029 A 
ATOM     38  N   UNL A   1      40.194  28.573  29.520  1.00  0.00    -0.354 N 
ATOM     39  C   UNL A   1      39.133  30.925  32.989  1.00  0.00     0.074 A 
ATOM     40  C   UNL A   1      37.965  31.738  32.729  1.00  0.00     0.031 C 
ATOM     41  C   UNL A   1      39.986  27.817  27.426  1.00  0.00     0.029 A 
ATOM     42  C   UNL A   1      40.836  27.765  28.615  1.00  0.00     0.049 A 
ATOM     43  H   UNL A   1      40.508  28.707  30.443  1.00  0.00     0.167 HD
ATOM     44  C   UNL A   1      39.804  30.914  34.165  1.00  0.00     0.034 A 
ATOM     45  C   UNL A   1      41.987  27.073  28.729  1.00  0.00     0.034 A 
ATOM     46  C   UNL A   1      40.951  30.088  34.428  1.00  0.00     0.049 A 
ATOM     47  C   UNL A   1      42.730  27.095  30.039  1.00  0.00     0.074 A 
ATOM     48  C   UNL A   1      41.667  29.961  35.604  1.00  0.00     0.029 A 
ATOM     49  N   UNL A   1      41.560  29.262  33.496  1.00  0.00    -0.354 N 
ATOM     50  N   UNL A   1      42.410  27.695  31.161  1.00  0.00    -0.248 NA
ATOM     51  C   UNL A   1      43.977  26.319  30.109  1.00  0.00     0.031 C 
ATOM     52  C   UNL A   1      42.727  29.076  35.374  1.00  0.00     0.029 A 
ATOM     53  C   UNL A   1      42.655  28.634  34.063  1.00  0.00     0.049 A 
ATOM     54  H   UNL A   1      41.258  29.141  32.567  1.00  0.00     0.167 HD
ATOM     55  C   UNL A   1      43.394  27.342  32.078  1.00  0.00     0.074 A 
ATOM     56  C   UNL A   1      44.313  26.462  31.386  1.00  0.00     0.031 C 
ATOM     57  C   UNL A   1      43.533  27.721  33.374  1.00  0.00     0.034 A 
BRANCH  44  58
ATOM     58  C   UNL A   1      39.296  31.810  35.262  1.00  0.00     0.023 A 
ATOM     59  C   UNL A   1      38.331  31.326  36.170  1.00  0.00     0.012 A 
ATOM     60  C   UNL A   1      39.794  33.118  35.415  1.00  0.00     0.148 A 
ATOM     61  C   UNL A   1      37.844  32.142  37.190  1.00  0.00     0.002 A 
ATOM     62  C   UNL A   1      39.334  33.912  36.461  1.00  0.00     0.091 A 
ATOM     63  F   UNL A   1      40.688  33.572  34.525  1.00  0.00    -0.205 F 
ATOM     64  C   UNL A   1      38.352  33.430  37.341  1.00  0.00     0.022 A 
BRANCH  62  65
ATOM     65  S   UNL A   1      39.984  35.556  36.776  1.00  0.00     0.127 S 
ATOM     66  O   UNL A   1      39.275  35.925  38.001  1.00  0.00    -0.237 OA
ATOM     67  O   UNL A   1      41.413  35.297  36.955  1.00  0.00    -0.237 OA
ATOM     68  O   UNL A   1      39.656  36.346  35.597  1.00  0.00    -0.744 OA
ENDBRANCH  62  65
ENDBRANCH  44  58
BRANCH  45  69
ATOM     69  C   UNL A   1      42.479  26.261  27.582  1.00  0.00     0.023 A 
ATOM     70  C   UNL A   1      43.349  26.845  26.642  1.00  0.00     0.012 A 
ATOM     71  C   UNL A   1      42.121  24.907  27.437  1.00  0.00     0.148 A 
ATOM     72  C   UNL A   1      43.839  26.102  25.567  1.00  0.00     0.002 A 
ATOM     73  C   UNL A   1      42.653  24.157  26.396  1.00  0.00     0.091 A 
ATOM     74  F   UNL A   1      41.278  24.375  28.334  1.00  0.00    -0.205 F 
ATOM     75  C   UNL A   1      43.500  24.756  25.450  1.00  0.00     0.022 A 
BRANCH  73  76
ATOM     76  S   UNL A   1      42.374  22.389  26.237  1.00  0.00     0.127 S 
ATOM     77  O   UNL A   1      40.919  22.326  26.113  1.00  0.00    -0.237 OA
ATOM     78  O   UNL A   1      43.112  22.077  25.012  1.00  0.00    -0.237 OA
ATOM     79  O   UNL A   1      42.930  21.792  27.443  1.00  0.00    -0.744 OA
ENDBRANCH  73  76
ENDBRANCH  45  69
BRANCH  57  80
ATOM     80  C   UNL A   1      44.704  27.170  34.145  1.00  0.00     0.023 A 
ATOM     81  C   UNL A   1      45.917  27.886  34.180  1.00  0.00     0.012 A 
ATOM     82  C   UNL A   1      44.579  25.986  34.899  1.00  0.00     0.148 A 
ATOM     83  C   UNL A   1      46.995  27.417  34.930  1.00  0.00     0.002 A 
ATOM     84  C   UNL A   1      45.641  25.550  35.681  1.00  0.00     0.091 A 
ATOM     85  F   UNL A   1      43.423  25.308  34.837  1.00  0.00    -0.205 F 
ATOM     86  C   UNL A   1      46.854  26.258  35.689  1.00  0.00     0.022 A 
BRANCH  84  87
ATOM     87  S   UNL A   1      45.515  24.123  36.764  1.00  0.00     0.127 S 
ATOM     88  O   UNL A   1      44.392  24.497  37.622  1.00  0.00    -0.237 OA
ATOM     89  O   UNL A   1      45.229  23.041  35.822  1.00  0.00    -0.237 OA
ATOM     90  O   UNL A   1      46.804  24.013  37.433  1.00  0.00    -0.744 OA
ENDBRANCH  84  87
ENDBRANCH  57  80
ENDBRANCH  31  32
ENDBRANCH  24  26
ENDBRANCH  23  24
ENDBRANCH  22  23
ENDBRANCH   1  22
TORSDOF 19
ENDMDL
MODEL 3
REMARK VINA RESULT:     -11.2      4.942      8.426
REMARK SMILES Cc1ccc(C[N@H+]2CCC[C@@H](C(=O)OCCOCCOC(=O)c3ccc(-c4c5nc(c(-c6cccc(S(=O)(=O)[O-])c6F)c6ccc([nH]6)c(-c6cccc(S(=O)(=O)[O-])c6F)c6nc(c(-c7cccc(S(=O)(=O)[O-])c7F)c7ccc4[nH]7)C=C6)C=C5)cc3)C2)o1
REMARK SMILES IDX 18 1 17 2 16 3 15 4 14 5 12 6 13 7 11 8 7 9 8 10 86 11 9 13
REMARK SMILES IDX 10 14 6 15 5 16 1 17 2 18 3 19 87 20 4 21 19 22 20 23 21 24
REMARK SMILES IDX 22 25 23 26 24 27 85 28 25 29 84 30 26 31 27 32 28 33 78 34
REMARK SMILES IDX 29 35 83 36 77 37 79 38 30 39 82 40 76 41 75 42 31 44 63 45
REMARK SMILES IDX 43 46 62 47 44 48 47 49 61 50 80 51 45 52 46 53 60 55 81 56
REMARK SMILES IDX 48 57 32 58 33 59 41 60 34 61 36 62 42 63 35 64 37 65 38 66
REMARK SMILES IDX 39 67 40 68 64 69 65 70 73 71 66 72 68 73 74 74 67 75 69 76
REMARK SMILES IDX 70 77 71 78 72 79 49 80 50 81 58 82 51 83 53 84 59 85 52 86
REMARK SMILES IDX 54 87 55 88 56 89 57 90
REMARK H PARENT 7 12 79 43 47 54
REMARK Flexibility Score: inf
ROOT
ATOM      1  C   UNL A   1      32.144  29.091  25.267  1.00  0.00     0.202 C 
ENDROOT
BRANCH   1   2
ATOM      2  O   UNL A   1      31.086  28.264  24.790  1.00  0.00    -0.374 OA
BRANCH   2   3
ATOM      3  C   UNL A   1      31.259  26.853  24.902  1.00  0.00     0.202 C 
BRANCH   3   4
ATOM      4  C   UNL A   1      31.651  26.263  26.263  1.00  0.00     0.261 C 
BRANCH   4   5
ATOM      5  O   UNL A   1      32.398  25.035  26.183  1.00  0.00    -0.463 OA
BRANCH   5   6
ATOM      6  C   UNL A   1      31.783  23.981  26.788  1.00  0.00     0.314 C 
ATOM      7  O   UNL A   1      30.616  24.002  27.166  1.00  0.00    -0.252 OA
BRANCH   6   8
ATOM      8  C   UNL A   1      32.700  22.768  26.922  1.00  0.00     0.154 C 
ATOM      9  N   UNL A   1      33.098  20.615  25.625  1.00  0.00    -0.328 N 
ATOM     10  C   UNL A   1      34.483  21.011  25.354  1.00  0.00     0.262 C 
ATOM     11  C   UNL A   1      32.236  21.787  25.838  1.00  0.00     0.278 C 
ATOM     12  H   UNL A   1      33.121  20.067  26.485  1.00  0.00     0.348 HD
ATOM     13  C   UNL A   1      35.032  21.874  26.492  1.00  0.00     0.062 C 
ATOM     14  C   UNL A   1      34.175  23.122  26.704  1.00  0.00     0.027 C 
BRANCH   9  15
ATOM     15  C   UNL A   1      32.536  19.743  24.562  1.00  0.00     0.338 C 
BRANCH  15  16
ATOM     16  C   UNL A   1      33.024  18.322  24.531  1.00  0.00     0.158 A 
ATOM     17  C   UNL A   1      32.185  15.075  25.748  1.00  0.00     0.087 C 
ATOM     18  C   UNL A   1      32.877  16.194  25.079  1.00  0.00     0.101 A 
ATOM     19  C   UNL A   1      33.913  16.291  24.177  1.00  0.00     0.046 A 
ATOM     20  O   UNL A   1      32.395  17.433  25.355  1.00  0.00    -0.460 OA
ATOM     21  C   UNL A   1      34.010  17.664  23.827  1.00  0.00     0.052 A 
ENDBRANCH  15  16
ENDBRANCH   9  15
ENDBRANCH   6   8
ENDBRANCH   5   6
ENDBRANCH   4   5
ENDBRANCH   3   4
ENDBRANCH   2   3
ENDBRANCH   1   2
BRANCH   1  22
ATOM     22  C   UNL A   1      31.782  30.474  25.823  1.00  0.00     0.261 C 
BRANCH  22  23
ATOM     23  O   UNL A   1      32.304  30.677  27.147  1.00  0.00    -0.460 OA
BRANCH  23  24
ATOM     24  C   UNL A   1      33.057  31.792  27.291  1.00  0.00     0.338 C 
ATOM     25  O   UNL A   1      32.674  32.954  27.230  1.00  0.00    -0.246 OA
BRANCH  24  26
ATOM     26  C   UNL A   1      34.410  31.433  27.753  1.00  0.00     0.060 A 
ATOM     27  C   UNL A   1      34.663  30.077  28.000  1.00  0.00     0.016 A 
ATOM     28  C   UNL A   1      35.390  32.396  27.999  1.00  0.00     0.016 A 
ATOM     29  C   UNL A   1      35.875  29.684  28.557  1.00  0.00     0.010 A 
ATOM     30  C   UNL A   1      36.604  32.000  28.570  1.00  0.00     0.010 A 
ATOM     31  C   UNL A   1      36.831  30.650  28.892  1.00  0.00    -0.014 A 
BRANCH  31  32
ATOM     32  C   UNL A   1      37.986  30.258  29.733  1.00  0.00     0.031 A 
ATOM     33  C   UNL A   1      38.988  29.285  29.176  1.00  0.00     0.074 A 
ATOM     34  C   UNL A   1      38.154  30.778  30.961  1.00  0.00     0.049 A 
ATOM     35  N   UNL A   1      40.081  28.818  29.721  1.00  0.00    -0.248 NA
ATOM     36  C   UNL A   1      38.724  28.770  27.821  1.00  0.00     0.031 C 
ATOM     37  C   UNL A   1      37.255  31.736  31.602  1.00  0.00     0.029 A 
ATOM     38  N   UNL A   1      39.137  30.559  31.893  1.00  0.00    -0.354 N 
ATOM     39  C   UNL A   1      40.618  27.935  28.793  1.00  0.00     0.074 A 
ATOM     40  C   UNL A   1      39.727  27.920  27.654  1.00  0.00     0.031 C 
ATOM     41  C   UNL A   1      37.716  32.007  32.834  1.00  0.00     0.029 A 
ATOM     42  C   UNL A   1      38.931  31.229  33.074  1.00  0.00     0.049 A 
ATOM     43  H   UNL A   1      39.914  29.978  31.730  1.00  0.00     0.167 HD
ATOM     44  C   UNL A   1      41.761  27.213  28.873  1.00  0.00     0.034 A 
ATOM     45  C   UNL A   1      39.637  31.205  34.222  1.00  0.00     0.034 A 
ATOM     46  C   UNL A   1      42.657  27.247  29.996  1.00  0.00     0.049 A 
ATOM     47  C   UNL A   1      40.892  30.375  34.295  1.00  0.00     0.074 A 
ATOM     48  C   UNL A   1      43.868  26.598  30.150  1.00  0.00     0.029 A 
ATOM     49  N   UNL A   1      42.430  27.957  31.165  1.00  0.00    -0.354 N 
ATOM     50  N   UNL A   1      41.457  29.646  33.363  1.00  0.00    -0.248 NA
ATOM     51  C   UNL A   1      41.625  30.390  35.570  1.00  0.00     0.031 C 
ATOM     52  C   UNL A   1      44.362  26.895  31.426  1.00  0.00     0.029 A 
ATOM     53  C   UNL A   1      43.470  27.748  32.055  1.00  0.00     0.049 A 
ATOM     54  H   UNL A   1      41.645  28.525  31.337  1.00  0.00     0.167 HD
ATOM     55  C   UNL A   1      42.626  29.144  33.924  1.00  0.00     0.074 A 
ATOM     56  C   UNL A   1      42.698  29.667  35.273  1.00  0.00     0.031 C 
ATOM     57  C   UNL A   1      43.551  28.315  33.378  1.00  0.00     0.034 A 
BRANCH  44  58
ATOM     58  C   UNL A   1      42.114  26.341  27.697  1.00  0.00     0.023 A 
ATOM     59  C   UNL A   1      42.787  26.899  26.590  1.00  0.00     0.012 A 
ATOM     60  C   UNL A   1      41.809  24.967  27.700  1.00  0.00     0.148 A 
ATOM     61  C   UNL A   1      43.119  26.109  25.490  1.00  0.00     0.002 A 
ATOM     62  C   UNL A   1      42.180  24.177  26.617  1.00  0.00     0.091 A 
ATOM     63  F   UNL A   1      41.142  24.461  28.747  1.00  0.00    -0.205 F 
ATOM     64  C   UNL A   1      42.825  24.748  25.508  1.00  0.00     0.022 A 
BRANCH  62  65
ATOM     65  S   UNL A   1      41.906  22.402  26.583  1.00  0.00     0.127 S 
ATOM     66  O   UNL A   1      42.570  21.976  27.814  1.00  0.00    -0.237 OA
ATOM     67  O   UNL A   1      40.445  22.313  26.617  1.00  0.00    -0.237 OA
ATOM     68  O   UNL A   1      42.511  21.930  25.345  1.00  0.00    -0.744 OA
ENDBRANCH  62  65
ENDBRANCH  44  58
BRANCH  45  69
ATOM     69  C   UNL A   1      39.196  32.034  35.378  1.00  0.00     0.023 A 
ATOM     70  C   UNL A   1      38.316  31.484  36.330  1.00  0.00     0.012 A 
ATOM     71  C   UNL A   1      39.672  33.347  35.560  1.00  0.00     0.148 A 
ATOM     72  C   UNL A   1      37.902  32.233  37.431  1.00  0.00     0.002 A 
ATOM     73  C   UNL A   1      39.298  34.069  36.686  1.00  0.00     0.091 A 
ATOM     74  F   UNL A   1      40.496  33.857  34.633  1.00  0.00    -0.205 F 
ATOM     75  C   UNL A   1      38.401  33.521  37.615  1.00  0.00     0.022 A 
BRANCH  73  76
ATOM     76  S   UNL A   1      39.986  35.683  37.071  1.00  0.00     0.127 S 
ATOM     77  O   UNL A   1      41.406  35.373  37.226  1.00  0.00    -0.237 OA
ATOM     78  O   UNL A   1      39.650  36.448  35.870  1.00  0.00    -0.237 OA
ATOM     79  O   UNL A   1      39.303  36.127  38.278  1.00  0.00    -0.744 OA
ENDBRANCH  73  76
ENDBRANCH  45  69
BRANCH  57  80
ATOM     80  C   UNL A   1      44.740  27.937  34.223  1.00  0.00     0.023 A 
ATOM     81  C   UNL A   1      45.883  28.760  34.230  1.00  0.00     0.012 A 
ATOM     82  C   UNL A   1      44.694  26.812  35.070  1.00  0.00     0.148 A 
ATOM     83  C   UNL A   1      46.973  28.453  35.044  1.00  0.00     0.002 A 
ATOM     84  C   UNL A   1      45.764  26.539  35.914  1.00  0.00     0.091 A 
ATOM     85  F   UNL A   1      43.605  26.029  35.035  1.00  0.00    -0.205 F 
ATOM     86  C   UNL A   1      46.908  27.352  35.894  1.00  0.00     0.022 A 
BRANCH  84  87
ATOM     87  S   UNL A   1      45.728  25.198  37.109  1.00  0.00     0.127 S 
ATOM     88  O   UNL A   1      46.809  24.339  36.627  1.00  0.00    -0.237 OA
ATOM     89  O   UNL A   1      46.014  25.892  38.365  1.00  0.00    -0.237 OA
ATOM     90  O   UNL A   1      44.391  24.626  37.028  1.00  0.00    -0.744 OA
ENDBRANCH  84  87
ENDBRANCH  57  80
ENDBRANCH  31  32
ENDBRANCH  24  26
ENDBRANCH  23  24
ENDBRANCH  22  23
ENDBRANCH   1  22
TORSDOF 19
ENDMDL
