MODEL 1
REMARK VINA RESULT:     -10.0      0.000      0.000
REMARK SMILES C[NH+](C)CCc1nc(Nc2ccc(O)c(C(=O)OCCOCCOC(=O)c3ccc(-c4c5nc(c(-c6cccc(S(=O)(=O)[O-])c6F)c6ccc([nH]6)c(-c6cccc(S(=O)(=O)[O-])c6F)c6nc(c(-c7cccc(S(=O)(=O)[O-])c7F)c7ccc4[nH]7)C=C6)C=C5)cc3)c2)c2ccccc2n1
REMARK SMILES IDX 20 1 19 2 18 3 16 4 17 5 15 6 10 7 11 8 90 9 12 10 13 11
REMARK SMILES IDX 9 12 8 14 6 15 7 16 97 17 96 18 91 19 95 20 92 21 94 22
REMARK SMILES IDX 93 23 5 24 4 25 2 26 1 27 3 28 14 30 21 32 22 33 23 34 24 35
REMARK SMILES IDX 25 36 26 37 27 38 28 39 89 40 29 41 88 42 30 43 31 44 32 45
REMARK SMILES IDX 82 46 33 47 87 48 81 49 83 50 34 51 86 52 80 53 79 54 35 56
REMARK SMILES IDX 67 57 47 58 66 59 48 60 51 61 65 62 84 63 49 64 50 65 64 67
REMARK SMILES IDX 85 68 52 69 36 70 37 71 45 72 38 73 40 74 46 75 39 76 41 77
REMARK SMILES IDX 42 78 43 79 44 80 68 81 69 82 77 83 70 84 72 85 78 86 71 87
REMARK SMILES IDX 73 88 74 89 75 90 76 91 53 92 54 93 62 94 55 95 57 96 63 97
REMARK SMILES IDX 56 98 58 99 59 100 60 101 61 102
REMARK H PARENT 9 13 2 29 14 31 83 55 51 66
REMARK Flexibility Score: inf
ROOT
ATOM      1  C   UNL A   1      43.354  18.796  25.297  1.00  0.00     0.202 C 
ENDROOT
BRANCH   1   2
ATOM      2  C   UNL A   1      44.819  19.217  25.141  1.00  0.00     0.261 C 
BRANCH   2   3
ATOM      3  O   UNL A   1      44.998  20.533  25.681  1.00  0.00    -0.460 OA
BRANCH   3   4
ATOM      4  C   UNL A   1      45.853  21.345  25.022  1.00  0.00     0.342 C 
ATOM      5  O   UNL A   1      46.768  20.995  24.287  1.00  0.00    -0.246 OA
BRANCH   4   6
ATOM      6  C   UNL A   1      45.363  22.743  25.082  1.00  0.00     0.103 A 
ATOM      7  C   UNL A   1      45.992  25.081  25.339  1.00  0.00     0.041 A 
ATOM      8  C   UNL A   1      44.657  25.448  25.141  1.00  0.00     0.030 A 
ATOM      9  C   UNL A   1      46.340  23.729  25.288  1.00  0.00     0.045 A 
ATOM     10  C   UNL A   1      43.677  24.473  24.923  1.00  0.00     0.049 A 
ATOM     11  C   UNL A   1      44.026  23.121  24.915  1.00  0.00     0.130 A 
BRANCH   7  12
ATOM     12  N   UNL A   1      46.948  26.045  25.727  1.00  0.00    -0.340 N 
ATOM     13  H   UNL A   1      46.828  26.512  26.586  1.00  0.00     0.168 HD
BRANCH  12  14
ATOM     14  C   UNL A   1      48.079  26.369  24.926  1.00  0.00     0.142 A 
ATOM     15  C   UNL A   1      48.903  27.210  22.940  1.00  0.00     0.137 A 
ATOM     16  N   UNL A   1      47.858  26.908  23.713  1.00  0.00    -0.215 NA
ATOM     17  N   UNL A   1      50.181  27.022  23.310  1.00  0.00    -0.233 NA
ATOM     18  C   UNL A   1      50.405  26.498  24.520  1.00  0.00     0.076 A 
ATOM     19  C   UNL A   1      49.377  26.134  25.400  1.00  0.00     0.043 A 
ATOM     20  C   UNL A   1      51.721  26.320  24.930  1.00  0.00     0.029 A 
ATOM     21  C   UNL A   1      49.700  25.578  26.665  1.00  0.00     0.014 A 
ATOM     22  C   UNL A   1      52.042  25.790  26.184  1.00  0.00     0.002 A 
ATOM     23  C   UNL A   1      51.028  25.415  27.053  1.00  0.00     0.001 A 
BRANCH  15  24
ATOM     24  C   UNL A   1      48.647  27.944  21.651  1.00  0.00     0.138 C 
BRANCH  24  25
ATOM     25  C   UNL A   1      49.881  28.474  20.899  1.00  0.00     0.269 C 
BRANCH  25  26
ATOM     26  N   UNL A   1      51.251  28.196  21.361  1.00  0.00    -0.339 N 
ATOM     27  C   UNL A   1      52.108  27.653  20.317  1.00  0.00     0.332 C 
ATOM     28  C   UNL A   1      51.903  29.333  22.010  1.00  0.00     0.332 C 
ATOM     29  H   UNL A   1      51.125  27.476  22.072  1.00  0.00     0.347 HD
ENDBRANCH  25  26
ENDBRANCH  24  25
ENDBRANCH  15  24
ENDBRANCH  12  14
ENDBRANCH   7  12
BRANCH  11  30
ATOM     30  O   UNL A   1      43.051  22.178  24.779  1.00  0.00    -0.507 OA
ATOM     31  H   UNL A   1      42.389  22.090  25.436  1.00  0.00     0.293 HD
ENDBRANCH  11  30
ENDBRANCH   4   6
ENDBRANCH   3   4
ENDBRANCH   2   3
ENDBRANCH   1   2
BRANCH   1  32
ATOM     32  O   UNL A   1      42.669  19.327  26.439  1.00  0.00    -0.374 OA
BRANCH  32  33
ATOM     33  C   UNL A   1      41.289  19.654  26.277  1.00  0.00     0.202 C 
BRANCH  33  34
ATOM     34  C   UNL A   1      40.734  20.794  27.141  1.00  0.00     0.261 C 
BRANCH  34  35
ATOM     35  O   UNL A   1      40.837  22.083  26.517  1.00  0.00    -0.460 OA
BRANCH  35  36
ATOM     36  C   UNL A   1      39.649  22.709  26.339  1.00  0.00     0.338 C 
ATOM     37  O   UNL A   1      38.610  22.210  25.927  1.00  0.00    -0.246 OA
BRANCH  36  38
ATOM     38  C   UNL A   1      39.704  24.089  26.853  1.00  0.00     0.060 A 
ATOM     39  C   UNL A   1      40.268  25.058  26.015  1.00  0.00     0.016 A 
ATOM     40  C   UNL A   1      39.305  24.419  28.151  1.00  0.00     0.016 A 
ATOM     41  C   UNL A   1      40.496  26.345  26.493  1.00  0.00     0.010 A 
ATOM     42  C   UNL A   1      39.537  25.715  28.630  1.00  0.00     0.010 A 
ATOM     43  C   UNL A   1      40.173  26.671  27.817  1.00  0.00    -0.014 A 
BRANCH  43  44
ATOM     44  C   UNL A   1      40.619  27.978  28.361  1.00  0.00     0.031 A 
ATOM     45  C   UNL A   1      42.087  28.308  28.395  1.00  0.00     0.074 A 
ATOM     46  C   UNL A   1      39.717  28.885  28.783  1.00  0.00     0.049 A 
ATOM     47  N   UNL A   1      42.675  29.426  28.738  1.00  0.00    -0.248 NA
ATOM     48  C   UNL A   1      43.018  27.241  27.992  1.00  0.00     0.031 C 
ATOM     49  C   UNL A   1      38.270  28.676  28.830  1.00  0.00     0.029 A 
ATOM     50  N   UNL A   1      39.891  30.158  29.263  1.00  0.00    -0.354 N 
ATOM     51  C   UNL A   1      44.041  29.191  28.619  1.00  0.00     0.074 A 
ATOM     52  C   UNL A   1      44.196  27.820  28.184  1.00  0.00     0.031 C 
ATOM     53  C   UNL A   1      37.688  29.779  29.330  1.00  0.00     0.029 A 
ATOM     54  C   UNL A   1      38.719  30.767  29.644  1.00  0.00     0.049 A 
ATOM     55  H   UNL A   1      40.770  30.595  29.328  1.00  0.00     0.167 HD
ATOM     56  C   UNL A   1      45.070  30.044  28.834  1.00  0.00     0.034 A 
ATOM     57  C   UNL A   1      38.501  31.983  30.185  1.00  0.00     0.034 A 
ATOM     58  C   UNL A   1      44.915  31.418  29.229  1.00  0.00     0.049 A 
ATOM     59  C   UNL A   1      39.664  32.921  30.382  1.00  0.00     0.074 A 
ATOM     60  C   UNL A   1      45.895  32.383  29.387  1.00  0.00     0.029 A 
ATOM     61  N   UNL A   1      43.708  32.020  29.546  1.00  0.00    -0.354 N 
ATOM     62  N   UNL A   1      40.931  32.739  30.096  1.00  0.00    -0.248 NA
ATOM     63  C   UNL A   1      39.359  34.251  30.930  1.00  0.00     0.031 C 
ATOM     64  C   UNL A   1      45.283  33.562  29.824  1.00  0.00     0.029 A 
ATOM     65  C   UNL A   1      43.918  33.339  29.914  1.00  0.00     0.049 A 
ATOM     66  H   UNL A   1      42.830  31.577  29.513  1.00  0.00     0.167 HD
ATOM     67  C   UNL A   1      41.566  33.939  30.400  1.00  0.00     0.074 A 
ATOM     68  C   UNL A   1      40.540  34.850  30.861  1.00  0.00     0.031 C 
ATOM     69  C   UNL A   1      42.884  34.253  30.322  1.00  0.00     0.034 A 
BRANCH  56  70
ATOM     70  C   UNL A   1      46.468  29.531  28.612  1.00  0.00     0.023 A 
ATOM     71  C   UNL A   1      47.051  29.620  27.332  1.00  0.00     0.012 A 
ATOM     72  C   UNL A   1      47.233  29.039  29.688  1.00  0.00     0.148 A 
ATOM     73  C   UNL A   1      48.366  29.208  27.120  1.00  0.00     0.002 A 
ATOM     74  C   UNL A   1      48.556  28.667  29.478  1.00  0.00     0.091 A 
ATOM     75  F   UNL A   1      46.653  28.941  30.892  1.00  0.00    -0.205 F 
ATOM     76  C   UNL A   1      49.121  28.744  28.194  1.00  0.00     0.022 A 
BRANCH  74  77
ATOM     77  S   UNL A   1      49.634  28.130  30.810  1.00  0.00     0.127 S 
ATOM     78  O   UNL A   1      50.603  27.306  30.091  1.00  0.00    -0.237 OA
ATOM     79  O   UNL A   1      50.165  29.400  31.309  1.00  0.00    -0.237 OA
ATOM     80  O   UNL A   1      48.785  27.415  31.753  1.00  0.00    -0.744 OA
ENDBRANCH  74  77
ENDBRANCH  56  70
BRANCH  57  81
ATOM     81  C   UNL A   1      37.117  32.405  30.540  1.00  0.00     0.023 A 
ATOM     82  C   UNL A   1      36.646  32.226  31.854  1.00  0.00     0.012 A 
ATOM     83  C   UNL A   1      36.266  32.983  29.579  1.00  0.00     0.148 A 
ATOM     84  C   UNL A   1      35.340  32.581  32.196  1.00  0.00     0.002 A 
ATOM     85  C   UNL A   1      34.987  33.387  29.940  1.00  0.00     0.091 A 
ATOM     86  F   UNL A   1      36.724  33.125  28.326  1.00  0.00    -0.205 F 
ATOM     87  C   UNL A   1      34.514  33.171  31.243  1.00  0.00     0.022 A 
BRANCH  85  88
ATOM     88  S   UNL A   1      33.911  34.272  28.805  1.00  0.00     0.127 S 
ATOM     89  O   UNL A   1      32.787  34.622  29.669  1.00  0.00    -0.237 OA
ATOM     90  O   UNL A   1      34.753  35.398  28.401  1.00  0.00    -0.237 OA
ATOM     91  O   UNL A   1      33.623  33.329  27.733  1.00  0.00    -0.744 OA
ENDBRANCH  85  88
ENDBRANCH  57  81
BRANCH  69  92
ATOM     92  C   UNL A   1      43.292  35.649  30.719  1.00  0.00     0.023 A 
ATOM     93  C   UNL A   1      43.465  36.636  29.728  1.00  0.00     0.012 A 
ATOM     94  C   UNL A   1      43.453  35.999  32.074  1.00  0.00     0.148 A 
ATOM     95  C   UNL A   1      43.836  37.935  30.075  1.00  0.00     0.002 A 
ATOM     96  C   UNL A   1      43.776  37.307  32.416  1.00  0.00     0.091 A 
ATOM     97  F   UNL A   1      43.303  35.045  33.006  1.00  0.00    -0.205 F 
ATOM     98  C   UNL A   1      43.982  38.273  31.418  1.00  0.00     0.022 A 
BRANCH  96  99
ATOM     99  S   UNL A   1      43.885  37.847  34.127  1.00  0.00     0.127 S 
ATOM    100  O   UNL A   1      44.109  39.282  33.974  1.00  0.00    -0.237 OA
ATOM    101  O   UNL A   1      42.568  37.488  34.656  1.00  0.00    -0.237 OA
ATOM    102  O   UNL A   1      44.989  37.092  34.707  1.00  0.00    -0.744 OA
ENDBRANCH  96  99
ENDBRANCH  69  92
ENDBRANCH  43  44
ENDBRANCH  36  38
ENDBRANCH  35  36
ENDBRANCH  34  35
ENDBRANCH  33  34
ENDBRANCH  32  33
ENDBRANCH   1  32
TORSDOF 23
ENDMDL
MODEL 2
REMARK VINA RESULT:      -9.9      4.456      9.047
REMARK SMILES C[NH+](C)CCc1nc(Nc2ccc(O)c(C(=O)OCCOCCOC(=O)c3ccc(-c4c5nc(c(-c6cccc(S(=O)(=O)[O-])c6F)c6ccc([nH]6)c(-c6cccc(S(=O)(=O)[O-])c6F)c6nc(c(-c7cccc(S(=O)(=O)[O-])c7F)c7ccc4[nH]7)C=C6)C=C5)cc3)c2)c2ccccc2n1
REMARK SMILES IDX 20 1 19 2 18 3 16 4 17 5 15 6 10 7 11 8 90 9 12 10 13 11
REMARK SMILES IDX 9 12 8 14 6 15 7 16 97 17 96 18 91 19 95 20 92 21 94 22
REMARK SMILES IDX 93 23 5 24 4 25 2 26 1 27 3 28 14 30 21 32 22 33 23 34 24 35
REMARK SMILES IDX 25 36 26 37 27 38 28 39 89 40 29 41 88 42 30 43 31 44 32 45
REMARK SMILES IDX 82 46 33 47 87 48 81 49 83 50 34 51 86 52 80 53 79 54 35 56
REMARK SMILES IDX 67 57 47 58 66 59 48 60 51 61 65 62 84 63 49 64 50 65 64 67
REMARK SMILES IDX 85 68 52 69 36 70 37 71 45 72 38 73 40 74 46 75 39 76 41 77
REMARK SMILES IDX 42 78 43 79 44 80 68 81 69 82 77 83 70 84 72 85 78 86 71 87
REMARK SMILES IDX 73 88 74 89 75 90 76 91 53 92 54 93 62 94 55 95 57 96 63 97
REMARK SMILES IDX 56 98 58 99 59 100 60 101 61 102
REMARK H PARENT 9 13 2 29 14 31 83 55 51 66
REMARK Flexibility Score: inf
ROOT
ATOM      1  C   UNL A   1      43.048  18.783  25.505  1.00  0.00     0.202 C 
ENDROOT
BRANCH   1   2
ATOM      2  C   UNL A   1      42.665  20.211  25.907  1.00  0.00     0.261 C 
BRANCH   2   3
ATOM      3  O   UNL A   1      41.507  20.175  26.753  1.00  0.00    -0.460 OA
BRANCH   3   4
ATOM      4  C   UNL A   1      40.307  20.168  26.133  1.00  0.00     0.342 C 
ATOM      5  O   UNL A   1      39.713  19.184  25.708  1.00  0.00    -0.246 OA
BRANCH   4   6
ATOM      6  C   UNL A   1      39.659  21.493  26.282  1.00  0.00     0.103 A 
ATOM      7  C   UNL A   1      39.865  23.734  27.213  1.00  0.00     0.041 A 
ATOM      8  C   UNL A   1      38.650  24.081  26.610  1.00  0.00     0.030 A 
ATOM      9  C   UNL A   1      40.372  22.445  27.027  1.00  0.00     0.045 A 
ATOM     10  C   UNL A   1      37.938  23.142  25.855  1.00  0.00     0.049 A 
ATOM     11  C   UNL A   1      38.432  21.844  25.710  1.00  0.00     0.130 A 
BRANCH   7  12
ATOM     12  N   UNL A   1      40.495  24.622  28.111  1.00  0.00    -0.340 N 
ATOM     13  H   UNL A   1      41.212  24.278  28.692  1.00  0.00     0.168 HD
BRANCH  12  14
ATOM     14  C   UNL A   1      40.135  25.996  28.210  1.00  0.00     0.142 A 
ATOM     15  C   UNL A   1      38.953  27.642  29.317  1.00  0.00     0.137 A 
ATOM     16  N   UNL A   1      39.313  26.361  29.211  1.00  0.00    -0.215 NA
ATOM     17  N   UNL A   1      39.382  28.606  28.486  1.00  0.00    -0.233 NA
ATOM     18  C   UNL A   1      40.209  28.249  27.497  1.00  0.00     0.076 A 
ATOM     19  C   UNL A   1      40.634  26.929  27.291  1.00  0.00     0.043 A 
ATOM     20  C   UNL A   1      40.682  29.237  26.642  1.00  0.00     0.029 A 
ATOM     21  C   UNL A   1      41.509  26.633  26.214  1.00  0.00     0.014 A 
ATOM     22  C   UNL A   1      41.560  28.951  25.592  1.00  0.00     0.002 A 
ATOM     23  C   UNL A   1      41.972  27.644  25.375  1.00  0.00     0.001 A 
BRANCH  15  24
ATOM     24  C   UNL A   1      38.155  28.059  30.523  1.00  0.00     0.138 C 
BRANCH  24  25
ATOM     25  C   UNL A   1      38.874  28.001  31.883  1.00  0.00     0.269 C 
BRANCH  25  26
ATOM     26  N   UNL A   1      38.449  28.830  33.023  1.00  0.00    -0.339 N 
ATOM     27  C   UNL A   1      39.558  29.495  33.692  1.00  0.00     0.332 C 
ATOM     28  C   UNL A   1      37.402  29.797  32.698  1.00  0.00     0.332 C 
ATOM     29  H   UNL A   1      38.046  28.157  33.674  1.00  0.00     0.347 HD
ENDBRANCH  25  26
ENDBRANCH  24  25
ENDBRANCH  15  24
ENDBRANCH  12  14
ENDBRANCH   7  12
BRANCH  11  30
ATOM     30  O   UNL A   1      37.691  20.917  25.037  1.00  0.00    -0.507 OA
ATOM     31  H   UNL A   1      37.943  20.650  24.176  1.00  0.00     0.293 HD
ENDBRANCH  11  30
ENDBRANCH   4   6
ENDBRANCH   3   4
ENDBRANCH   2   3
ENDBRANCH   1   2
BRANCH   1  32
ATOM     32  O   UNL A   1      44.432  18.441  25.651  1.00  0.00    -0.374 OA
BRANCH  32  33
ATOM     33  C   UNL A   1      45.360  19.095  24.785  1.00  0.00     0.202 C 
BRANCH  33  34
ATOM     34  C   UNL A   1      46.033  20.368  25.313  1.00  0.00     0.261 C 
BRANCH  34  35
ATOM     35  O   UNL A   1      46.343  21.317  24.281  1.00  0.00    -0.460 OA
BRANCH  35  36
ATOM     36  C   UNL A   1      45.294  22.082  23.898  1.00  0.00     0.338 C 
ATOM     37  O   UNL A   1      44.487  21.832  23.012  1.00  0.00    -0.246 OA
BRANCH  36  38
ATOM     38  C   UNL A   1      45.135  23.239  24.798  1.00  0.00     0.060 A 
ATOM     39  C   UNL A   1      46.299  23.924  25.166  1.00  0.00     0.016 A 
ATOM     40  C   UNL A   1      43.900  23.594  25.346  1.00  0.00     0.016 A 
ATOM     41  C   UNL A   1      46.243  24.923  26.133  1.00  0.00     0.010 A 
ATOM     42  C   UNL A   1      43.846  24.600  26.320  1.00  0.00     0.010 A 
ATOM     43  C   UNL A   1      45.024  25.238  26.749  1.00  0.00    -0.014 A 
BRANCH  43  44
ATOM     44  C   UNL A   1      45.029  26.152  27.919  1.00  0.00     0.031 A 
ATOM     45  C   UNL A   1      45.062  27.641  27.699  1.00  0.00     0.074 A 
ATOM     46  C   UNL A   1      44.961  25.658  29.169  1.00  0.00     0.049 A 
ATOM     47  N   UNL A   1      44.974  28.607  28.578  1.00  0.00    -0.248 NA
ATOM     48  C   UNL A   1      45.214  28.106  26.311  1.00  0.00     0.031 C 
ATOM     49  C   UNL A   1      44.955  24.238  29.516  1.00  0.00     0.029 A 
ATOM     50  N   UNL A   1      44.897  26.302  30.379  1.00  0.00    -0.354 N 
ATOM     51  C   UNL A   1      45.088  29.790  27.857  1.00  0.00     0.074 A 
ATOM     52  C   UNL A   1      45.263  29.422  26.468  1.00  0.00     0.031 C 
ATOM     53  C   UNL A   1      44.908  24.116  30.854  1.00  0.00     0.029 A 
ATOM     54  C   UNL A   1      44.887  25.448  31.456  1.00  0.00     0.049 A 
ATOM     55  H   UNL A   1      44.860  27.281  30.469  1.00  0.00     0.167 HD
ATOM     56  C   UNL A   1      45.032  31.066  28.306  1.00  0.00     0.034 A 
ATOM     57  C   UNL A   1      44.866  25.710  32.779  1.00  0.00     0.034 A 
ATOM     58  C   UNL A   1      44.819  31.433  29.681  1.00  0.00     0.049 A 
ATOM     59  C   UNL A   1      44.772  27.139  33.246  1.00  0.00     0.074 A 
ATOM     60  C   UNL A   1      44.662  32.700  30.217  1.00  0.00     0.029 A 
ATOM     61  N   UNL A   1      44.751  30.541  30.737  1.00  0.00    -0.354 N 
ATOM     62  N   UNL A   1      44.702  28.239  32.535  1.00  0.00    -0.248 NA
ATOM     63  C   UNL A   1      44.702  27.361  34.698  1.00  0.00     0.031 C 
ATOM     64  C   UNL A   1      44.524  32.574  31.604  1.00  0.00     0.029 A 
ATOM     65  C   UNL A   1      44.570  31.227  31.926  1.00  0.00     0.049 A 
ATOM     66  H   UNL A   1      44.820  29.562  30.655  1.00  0.00     0.167 HD
ATOM     67  C   UNL A   1      44.551  29.276  33.450  1.00  0.00     0.074 A 
ATOM     68  C   UNL A   1      44.505  28.670  34.764  1.00  0.00     0.031 C 
ATOM     69  C   UNL A   1      44.474  30.612  33.225  1.00  0.00     0.034 A 
BRANCH  56  70
ATOM     70  C   UNL A   1      45.168  32.176  27.296  1.00  0.00     0.023 A 
ATOM     71  C   UNL A   1      44.044  32.582  26.549  1.00  0.00     0.012 A 
ATOM     72  C   UNL A   1      46.386  32.868  27.149  1.00  0.00     0.148 A 
ATOM     73  C   UNL A   1      44.134  33.648  25.655  1.00  0.00     0.002 A 
ATOM     74  C   UNL A   1      46.458  33.955  26.285  1.00  0.00     0.091 A 
ATOM     75  F   UNL A   1      47.448  32.451  27.851  1.00  0.00    -0.205 F 
ATOM     76  C   UNL A   1      45.336  34.341  25.532  1.00  0.00     0.022 A 
BRANCH  74  77
ATOM     77  S   UNL A   1      47.937  34.960  26.113  1.00  0.00     0.127 S 
ATOM     78  O   UNL A   1      47.373  36.249  25.717  1.00  0.00    -0.237 OA
ATOM     79  O   UNL A   1      48.491  34.927  27.467  1.00  0.00    -0.237 OA
ATOM     80  O   UNL A   1      48.757  34.302  25.106  1.00  0.00    -0.744 OA
ENDBRANCH  74  77
ENDBRANCH  56  70
BRANCH  57  81
ATOM     81  C   UNL A   1      44.889  24.590  33.762  1.00  0.00     0.023 A 
ATOM     82  C   UNL A   1      43.682  23.993  34.171  1.00  0.00     0.012 A 
ATOM     83  C   UNL A   1      46.104  24.115  34.292  1.00  0.00     0.148 A 
ATOM     84  C   UNL A   1      43.681  22.967  35.119  1.00  0.00     0.002 A 
ATOM     85  C   UNL A   1      46.101  23.056  35.191  1.00  0.00     0.091 A 
ATOM     86  F   UNL A   1      47.242  24.712  33.908  1.00  0.00    -0.205 F 
ATOM     87  C   UNL A   1      44.890  22.492  35.620  1.00  0.00     0.022 A 
BRANCH  85  88
ATOM     88  S   UNL A   1      47.621  22.302  35.781  1.00  0.00     0.127 S 
ATOM     89  O   UNL A   1      48.280  21.936  34.530  1.00  0.00    -0.237 OA
ATOM     90  O   UNL A   1      48.248  23.407  36.509  1.00  0.00    -0.237 OA
ATOM     91  O   UNL A   1      47.198  21.195  36.628  1.00  0.00    -0.744 OA
ENDBRANCH  85  88
ENDBRANCH  57  81
BRANCH  69  92
ATOM     92  C   UNL A   1      44.306  31.512  34.422  1.00  0.00     0.023 A 
ATOM     93  C   UNL A   1      45.439  32.108  35.013  1.00  0.00     0.012 A 
ATOM     94  C   UNL A   1      43.027  31.809  34.931  1.00  0.00     0.148 A 
ATOM     95  C   UNL A   1      45.304  32.948  36.119  1.00  0.00     0.002 A 
ATOM     96  C   UNL A   1      42.896  32.685  36.002  1.00  0.00     0.091 A 
ATOM     97  F   UNL A   1      41.960  31.220  34.370  1.00  0.00    -0.205 F 
ATOM     98  C   UNL A   1      44.034  33.245  36.607  1.00  0.00     0.022 A 
BRANCH  96  99
ATOM     99  S   UNL A   1      41.290  33.195  36.627  1.00  0.00     0.127 S 
ATOM    100  O   UNL A   1      40.644  33.698  35.417  1.00  0.00    -0.237 OA
ATOM    101  O   UNL A   1      40.736  31.939  37.136  1.00  0.00    -0.237 OA
ATOM    102  O   UNL A   1      41.566  34.189  37.657  1.00  0.00    -0.744 OA
ENDBRANCH  96  99
ENDBRANCH  69  92
ENDBRANCH  43  44
ENDBRANCH  36  38
ENDBRANCH  35  36
ENDBRANCH  34  35
ENDBRANCH  33  34
ENDBRANCH  32  33
ENDBRANCH   1  32
TORSDOF 23
ENDMDL
MODEL 3
REMARK VINA RESULT:      -9.7      4.573     11.844
REMARK SMILES C[NH+](C)CCc1nc(Nc2ccc(O)c(C(=O)OCCOCCOC(=O)c3ccc(-c4c5nc(c(-c6cccc(S(=O)(=O)[O-])c6F)c6ccc([nH]6)c(-c6cccc(S(=O)(=O)[O-])c6F)c6nc(c(-c7cccc(S(=O)(=O)[O-])c7F)c7ccc4[nH]7)C=C6)C=C5)cc3)c2)c2ccccc2n1
REMARK SMILES IDX 20 1 19 2 18 3 16 4 17 5 15 6 10 7 11 8 90 9 12 10 13 11
REMARK SMILES IDX 9 12 8 14 6 15 7 16 97 17 96 18 91 19 95 20 92 21 94 22
REMARK SMILES IDX 93 23 5 24 4 25 2 26 1 27 3 28 14 30 21 32 22 33 23 34 24 35
REMARK SMILES IDX 25 36 26 37 27 38 28 39 89 40 29 41 88 42 30 43 31 44 32 45
REMARK SMILES IDX 82 46 33 47 87 48 81 49 83 50 34 51 86 52 80 53 79 54 35 56
REMARK SMILES IDX 67 57 47 58 66 59 48 60 51 61 65 62 84 63 49 64 50 65 64 67
REMARK SMILES IDX 85 68 52 69 36 70 37 71 45 72 38 73 40 74 46 75 39 76 41 77
REMARK SMILES IDX 42 78 43 79 44 80 68 81 69 82 77 83 70 84 72 85 78 86 71 87
REMARK SMILES IDX 73 88 74 89 75 90 76 91 53 92 54 93 62 94 55 95 57 96 63 97
REMARK SMILES IDX 56 98 58 99 59 100 60 101 61 102
REMARK H PARENT 9 13 2 29 14 31 83 55 51 66
REMARK Flexibility Score: inf
ROOT
ATOM      1  C   UNL A   1      34.749  21.560  26.310  1.00  0.00     0.202 C 
ENDROOT
BRANCH   1   2
ATOM      2  C   UNL A   1      34.569  20.900  24.940  1.00  0.00     0.261 C 
BRANCH   2   3
ATOM      3  O   UNL A   1      33.178  20.630  24.718  1.00  0.00    -0.460 OA
BRANCH   3   4
ATOM      4  C   UNL A   1      32.557  21.387  23.788  1.00  0.00     0.342 C 
ATOM      5  O   UNL A   1      32.240  21.036  22.658  1.00  0.00    -0.246 OA
BRANCH   4   6
ATOM      6  C   UNL A   1      32.049  22.632  24.413  1.00  0.00     0.103 A 
ATOM      7  C   UNL A   1      32.071  25.066  24.343  1.00  0.00     0.041 A 
ATOM      8  C   UNL A   1      31.143  25.091  25.390  1.00  0.00     0.030 A 
ATOM      9  C   UNL A   1      32.503  23.833  23.847  1.00  0.00     0.045 A 
ATOM     10  C   UNL A   1      30.675  23.898  25.953  1.00  0.00     0.049 A 
ATOM     11  C   UNL A   1      31.144  22.671  25.479  1.00  0.00     0.130 A 
BRANCH   7  12
ATOM     12  N   UNL A   1      32.671  26.262  23.891  1.00  0.00    -0.340 N 
ATOM     13  H   UNL A   1      33.561  26.216  23.472  1.00  0.00     0.168 HD
BRANCH  12  14
ATOM     14  C   UNL A   1      32.040  27.532  24.019  1.00  0.00     0.142 A 
ATOM     15  C   UNL A   1      30.558  29.083  23.166  1.00  0.00     0.137 A 
ATOM     16  N   UNL A   1      31.154  27.892  23.073  1.00  0.00    -0.215 NA
ATOM     17  N   UNL A   1      30.778  29.948  24.170  1.00  0.00    -0.233 NA
ATOM     18  C   UNL A   1      31.650  29.588  25.119  1.00  0.00     0.076 A 
ATOM     19  C   UNL A   1      32.338  28.367  25.104  1.00  0.00     0.043 A 
ATOM     20  C   UNL A   1      31.871  30.459  26.178  1.00  0.00     0.029 A 
ATOM     21  C   UNL A   1      33.251  28.064  26.147  1.00  0.00     0.014 A 
ATOM     22  C   UNL A   1      32.756  30.155  27.217  1.00  0.00     0.002 A 
ATOM     23  C   UNL A   1      33.451  28.953  27.200  1.00  0.00     0.001 A 
BRANCH  15  24
ATOM     24  C   UNL A   1      29.464  29.409  22.185  1.00  0.00     0.138 C 
BRANCH  24  25
ATOM     25  C   UNL A   1      29.060  30.891  22.067  1.00  0.00     0.269 C 
BRANCH  25  26
ATOM     26  N   UNL A   1      28.741  31.706  23.251  1.00  0.00    -0.339 N 
ATOM     27  C   UNL A   1      28.990  33.126  23.052  1.00  0.00     0.332 C 
ATOM     28  C   UNL A   1      27.389  31.497  23.769  1.00  0.00     0.332 C 
ATOM     29  H   UNL A   1      29.390  31.367  23.960  1.00  0.00     0.347 HD
ENDBRANCH  25  26
ENDBRANCH  24  25
ENDBRANCH  15  24
ENDBRANCH  12  14
ENDBRANCH   7  12
BRANCH  11  30
ATOM     30  O   UNL A   1      30.740  21.519  26.087  1.00  0.00    -0.507 OA
ATOM     31  H   UNL A   1      31.104  21.272  26.913  1.00  0.00     0.293 HD
ENDBRANCH  11  30
ENDBRANCH   4   6
ENDBRANCH   3   4
ENDBRANCH   2   3
ENDBRANCH   1   2
BRANCH   1  32
ATOM     32  O   UNL A   1      34.954  22.978  26.301  1.00  0.00    -0.374 OA
BRANCH  32  33
ATOM     33  C   UNL A   1      35.912  23.492  25.376  1.00  0.00     0.202 C 
BRANCH  33  34
ATOM     34  C   UNL A   1      37.312  23.804  25.918  1.00  0.00     0.261 C 
BRANCH  34  35
ATOM     35  O   UNL A   1      38.134  22.637  26.075  1.00  0.00    -0.460 OA
BRANCH  35  36
ATOM     36  C   UNL A   1      39.418  22.905  26.414  1.00  0.00     0.338 C 
ATOM     37  O   UNL A   1      40.394  22.194  26.214  1.00  0.00    -0.246 OA
BRANCH  36  38
ATOM     38  C   UNL A   1      39.542  24.273  26.949  1.00  0.00     0.060 A 
ATOM     39  C   UNL A   1      40.063  25.247  26.090  1.00  0.00     0.016 A 
ATOM     40  C   UNL A   1      39.247  24.584  28.279  1.00  0.00     0.016 A 
ATOM     41  C   UNL A   1      40.355  26.519  26.575  1.00  0.00     0.010 A 
ATOM     42  C   UNL A   1      39.543  25.864  28.765  1.00  0.00     0.010 A 
ATOM     43  C   UNL A   1      40.138  26.823  27.926  1.00  0.00    -0.014 A 
BRANCH  43  44
ATOM     44  C   UNL A   1      40.653  28.109  28.461  1.00  0.00     0.031 A 
ATOM     45  C   UNL A   1      39.688  29.121  29.020  1.00  0.00     0.074 A 
ATOM     46  C   UNL A   1      41.976  28.355  28.487  1.00  0.00     0.049 A 
ATOM     47  N   UNL A   1      39.939  30.257  29.620  1.00  0.00    -0.248 NA
ATOM     48  C   UNL A   1      38.254  28.818  28.887  1.00  0.00     0.031 C 
ATOM     49  C   UNL A   1      43.009  27.471  27.950  1.00  0.00     0.029 A 
ATOM     50  N   UNL A   1      42.673  29.431  28.978  1.00  0.00    -0.354 N 
ATOM     51  C   UNL A   1      38.700  30.816  29.911  1.00  0.00     0.074 A 
ATOM     52  C   UNL A   1      37.697  29.901  29.411  1.00  0.00     0.031 C 
ATOM     53  C   UNL A   1      44.210  28.049  28.124  1.00  0.00     0.029 A 
ATOM     54  C   UNL A   1      44.030  29.344  28.778  1.00  0.00     0.049 A 
ATOM     55  H   UNL A   1      42.243  30.191  29.430  1.00  0.00     0.167 HD
ATOM     56  C   UNL A   1      38.423  31.975  30.553  1.00  0.00     0.034 A 
ATOM     57  C   UNL A   1      45.016  30.211  29.087  1.00  0.00     0.034 A 
ATOM     58  C   UNL A   1      39.419  32.867  31.085  1.00  0.00     0.049 A 
ATOM     59  C   UNL A   1      44.677  31.478  29.830  1.00  0.00     0.074 A 
ATOM     60  C   UNL A   1      39.232  34.021  31.826  1.00  0.00     0.029 A 
ATOM     61  N   UNL A   1      40.786  32.716  30.920  1.00  0.00    -0.354 N 
ATOM     62  N   UNL A   1      43.510  31.903  30.252  1.00  0.00    -0.248 NA
ATOM     63  C   UNL A   1      45.799  32.361  30.182  1.00  0.00     0.031 C 
ATOM     64  C   UNL A   1      40.487  34.582  32.087  1.00  0.00     0.029 A 
ATOM     65  C   UNL A   1      41.455  33.763  31.530  1.00  0.00     0.049 A 
ATOM     66  H   UNL A   1      41.218  31.972  30.439  1.00  0.00     0.167 HD
ATOM     67  C   UNL A   1      43.762  33.083  30.944  1.00  0.00     0.074 A 
ATOM     68  C   UNL A   1      45.195  33.288  30.913  1.00  0.00     0.031 C 
ATOM     69  C   UNL A   1      42.885  33.932  31.537  1.00  0.00     0.034 A 
BRANCH  56  70
ATOM     70  C   UNL A   1      36.975  32.341  30.754  1.00  0.00     0.023 A 
ATOM     71  C   UNL A   1      36.355  32.083  31.993  1.00  0.00     0.012 A 
ATOM     72  C   UNL A   1      36.257  33.014  29.746  1.00  0.00     0.148 A 
ATOM     73  C   UNL A   1      35.035  32.470  32.220  1.00  0.00     0.002 A 
ATOM     74  C   UNL A   1      34.954  33.432  29.993  1.00  0.00     0.091 A 
ATOM     75  F   UNL A   1      36.858  33.228  28.568  1.00  0.00    -0.205 F 
ATOM     76  C   UNL A   1      34.340  33.154  31.225  1.00  0.00     0.022 A 
BRANCH  74  77
ATOM     77  S   UNL A   1      34.002  34.387  28.807  1.00  0.00     0.127 S 
ATOM     78  O   UNL A   1      33.749  33.394  27.765  1.00  0.00    -0.237 OA
ATOM     79  O   UNL A   1      32.824  34.764  29.589  1.00  0.00    -0.237 OA
ATOM     80  O   UNL A   1      34.852  35.502  28.412  1.00  0.00    -0.744 OA
ENDBRANCH  74  77
ENDBRANCH  56  70
BRANCH  57  81
ATOM     81  C   UNL A   1      46.427  29.891  28.735  1.00  0.00     0.023 A 
ATOM     82  C   UNL A   1      46.965  30.347  27.516  1.00  0.00     0.012 A 
ATOM     83  C   UNL A   1      47.239  29.137  29.604  1.00  0.00     0.148 A 
ATOM     84  C   UNL A   1      48.275  30.027  27.152  1.00  0.00     0.002 A 
ATOM     85  C   UNL A   1      48.558  28.870  29.262  1.00  0.00     0.091 A 
ATOM     86  F   UNL A   1      46.702  28.692  30.749  1.00  0.00    -0.205 F 
ATOM     87  C   UNL A   1      49.074  29.297  28.029  1.00  0.00     0.022 A 
BRANCH  85  88
ATOM     88  S   UNL A   1      49.689  28.051  30.392  1.00  0.00     0.127 S 
ATOM     89  O   UNL A   1      48.919  28.044  31.634  1.00  0.00    -0.237 OA
ATOM     90  O   UNL A   1      49.856  26.741  29.763  1.00  0.00    -0.237 OA
ATOM     91  O   UNL A   1      50.894  28.870  30.393  1.00  0.00    -0.744 OA
ENDBRANCH  85  88
ENDBRANCH  57  81
BRANCH  69  92
ATOM     92  C   UNL A   1      43.450  35.148  32.225  1.00  0.00     0.023 A 
ATOM     93  C   UNL A   1      43.879  35.057  33.565  1.00  0.00     0.012 A 
ATOM     94  C   UNL A   1      43.603  36.366  31.534  1.00  0.00     0.148 A 
ATOM     95  C   UNL A   1      44.409  36.170  34.218  1.00  0.00     0.002 A 
ATOM     96  C   UNL A   1      44.177  37.457  32.176  1.00  0.00     0.091 A 
ATOM     97  F   UNL A   1      43.173  36.443  30.266  1.00  0.00    -0.205 F 
ATOM     98  C   UNL A   1      44.568  37.365  33.522  1.00  0.00     0.022 A 
BRANCH  96  99
ATOM     99  S   UNL A   1      44.506  39.003  31.320  1.00  0.00     0.127 S 
ATOM    100  O   UNL A   1      45.891  38.819  30.892  1.00  0.00    -0.237 OA
ATOM    101  O   UNL A   1      43.524  38.978  30.235  1.00  0.00    -0.237 OA
ATOM    102  O   UNL A   1      44.282  40.053  32.306  1.00  0.00    -0.744 OA
ENDBRANCH  96  99
ENDBRANCH  69  92
ENDBRANCH  43  44
ENDBRANCH  36  38
ENDBRANCH  35  36
ENDBRANCH  34  35
ENDBRANCH  33  34
ENDBRANCH  32  33
ENDBRANCH   1  32
TORSDOF 23
ENDMDL
