MODEL 1
REMARK VINA RESULT:     -11.0      0.000      0.000
REMARK SMILES CC(=O)N[C@H]1[C@@H](Oc2ccc(C)c(C)c2)O[C@H]2CO[C@H](c3ccco3)O[C@@H]2[C@H]1OCC(=O)OCCOCCOC(=O)c1ccc(-c2c3nc(c(-c4cccc(S(=O)(=O)[O-])c4F)c4ccc([nH]4)c(-c4cccc(S(=O)(=O)[O-])c4F)c4nc(c(-c5cccc(S(=O)(=O)[O-])c5F)c5ccc2[nH]5)C=C4)C=C3)cc1
REMARK SMILES IDX 35 1 34 2 33 3 31 4 32 5 30 6 29 7 28 8 5 9 6 10 16 11 27 12
REMARK SMILES IDX 17 13 26 14 18 15 20 16 19 17 4 18 1 19 2 20 3 21 7 23 8 24
REMARK SMILES IDX 9 25 15 26 10 27 13 28 11 29 14 30 12 31 21 32 22 33 25 34
REMARK SMILES IDX 23 35 24 36 36 37 37 38 38 39 39 40 40 41 41 42 42 43 43 44
REMARK SMILES IDX 104 45 44 46 103 47 45 48 46 49 47 50 97 51 48 52 102 53
REMARK SMILES IDX 96 54 98 55 49 56 101 57 95 58 94 59 50 61 82 62 62 63 81 64
REMARK SMILES IDX 63 65 66 66 80 67 99 68 64 69 65 70 79 72 100 73 67 74 51 75
REMARK SMILES IDX 52 76 60 77 53 78 55 79 61 80 54 81 56 82 57 83 58 84 59 85
REMARK SMILES IDX 83 86 84 87 92 88 85 89 87 90 93 91 86 92 88 93 89 94 90 95
REMARK SMILES IDX 91 96 68 97 69 98 77 99 70 100 72 101 78 102 71 103 73 104
REMARK SMILES IDX 74 105 75 106 76 107
REMARK H PARENT 4 22 98 60 66 71
REMARK Flexibility Score: inf
ROOT
ATOM      1  C   UNL A   1      38.570  22.148  26.234  1.00  0.00     0.202 C 
ENDROOT
BRANCH   1   2
ATOM      2  C   UNL A   1      37.741  23.428  26.072  1.00  0.00     0.261 C 
BRANCH   2   3
ATOM      3  O   UNL A   1      36.873  23.398  24.911  1.00  0.00    -0.462 OA
BRANCH   3   4
ATOM      4  C   UNL A   1      35.710  24.071  25.074  1.00  0.00     0.332 C 
ATOM      5  O   UNL A   1      35.234  24.826  24.227  1.00  0.00    -0.250 OA
BRANCH   4   6
ATOM      6  C   UNL A   1      34.934  23.818  26.384  1.00  0.00     0.283 C 
BRANCH   6   7
ATOM      7  O   UNL A   1      33.603  23.633  26.787  1.00  0.00    -0.361 OA
BRANCH   7   8
ATOM      8  C   UNL A   1      32.544  23.591  25.827  1.00  0.00     0.179 C 
ATOM      9  C   UNL A   1      31.989  24.983  25.186  1.00  0.00     0.182 C 
ATOM     10  C   UNL A   1      31.296  24.812  23.742  1.00  0.00     0.333 C 
ATOM     11  O   UNL A   1      31.696  23.634  23.039  1.00  0.00    -0.332 OA
ATOM     12  C   UNL A   1      32.839  22.473  24.826  1.00  0.00     0.184 C 
ATOM     13  C   UNL A   1      31.639  22.467  23.867  1.00  0.00     0.180 C 
ATOM     14  O   UNL A   1      33.232  21.159  25.436  1.00  0.00    -0.337 OA
ATOM     15  C   UNL A   1      31.690  21.257  22.995  1.00  0.00     0.199 C 
ATOM     16  C   UNL A   1      33.490  20.267  24.320  1.00  0.00     0.319 C 
ATOM     17  O   UNL A   1      32.184  20.188  23.749  1.00  0.00    -0.343 OA
BRANCH   9  18
ATOM     18  N   UNL A   1      32.886  26.146  25.232  1.00  0.00    -0.345 N 
ATOM     19  C   UNL A   1      31.700  27.608  26.820  1.00  0.00     0.114 C 
ATOM     20  C   UNL A   1      32.809  27.344  25.855  1.00  0.00     0.217 C 
ATOM     21  O   UNL A   1      33.679  28.179  25.614  1.00  0.00    -0.275 OA
ATOM     22  H   UNL A   1      33.709  26.029  24.704  1.00  0.00     0.164 HD
ENDBRANCH   9  18
BRANCH  10  23
ATOM     23  O   UNL A   1      31.250  25.989  22.866  1.00  0.00    -0.463 OA
BRANCH  23  24
ATOM     24  C   UNL A   1      30.380  27.034  23.067  1.00  0.00     0.123 A 
ATOM     25  C   UNL A   1      29.148  26.907  23.686  1.00  0.00     0.047 A 
ATOM     26  C   UNL A   1      30.684  28.265  22.462  1.00  0.00     0.050 A 
ATOM     27  C   UNL A   1      28.156  27.876  23.500  1.00  0.00     0.007 A 
ATOM     28  C   UNL A   1      29.708  29.287  22.322  1.00  0.00    -0.045 A 
ATOM     29  C   UNL A   1      28.403  29.048  22.781  1.00  0.00    -0.048 A 
ATOM     30  C   UNL A   1      30.082  30.582  21.646  1.00  0.00     0.045 C 
ATOM     31  C   UNL A   1      27.245  29.968  22.499  1.00  0.00     0.044 C 
ENDBRANCH  23  24
ENDBRANCH  10  23
BRANCH  16  32
ATOM     32  C   UNL A   1      34.158  18.603  24.489  1.00  0.00     0.159 A 
ATOM     33  C   UNL A   1      34.342  16.969  23.347  1.00  0.00     0.051 A 
ATOM     34  O   UNL A   1      33.330  17.912  26.003  1.00  0.00    -0.464 OA
ATOM     35  C   UNL A   1      33.333  15.560  24.318  1.00  0.00     0.042 A 
ATOM     36  C   UNL A   1      32.910  16.154  25.880  1.00  0.00     0.195 A 
ENDBRANCH  16  32
ENDBRANCH   7   8
ENDBRANCH   6   7
ENDBRANCH   4   6
ENDBRANCH   3   4
ENDBRANCH   2   3
ENDBRANCH   1   2
BRANCH   1  37
ATOM     37  O   UNL A   1      39.877  22.284  26.789  1.00  0.00    -0.374 OA
BRANCH  37  38
ATOM     38  C   UNL A   1      40.575  21.064  27.001  1.00  0.00     0.202 C 
BRANCH  38  39
ATOM     39  C   UNL A   1      41.530  20.602  25.875  1.00  0.00     0.261 C 
BRANCH  39  40
ATOM     40  O   UNL A   1      42.850  21.142  26.088  1.00  0.00    -0.460 OA
BRANCH  40  41
ATOM     41  C   UNL A   1      43.381  22.233  25.486  1.00  0.00     0.338 C 
ATOM     42  O   UNL A   1      43.692  22.350  24.322  1.00  0.00    -0.246 OA
BRANCH  41  43
ATOM     43  C   UNL A   1      43.336  23.301  26.546  1.00  0.00     0.060 A 
ATOM     44  C   UNL A   1      42.175  24.511  26.128  1.00  0.00     0.016 A 
ATOM     45  C   UNL A   1      44.021  23.110  28.152  1.00  0.00     0.016 A 
ATOM     46  C   UNL A   1      41.515  25.659  27.173  1.00  0.00     0.010 A 
ATOM     47  C   UNL A   1      43.321  24.137  29.478  1.00  0.00     0.010 A 
ATOM     48  C   UNL A   1      42.029  25.669  28.872  1.00  0.00    -0.014 A 
BRANCH  48  49
ATOM     49  C   UNL A   1      42.091  27.473  28.992  1.00  0.00     0.031 A 
ATOM     50  C   UNL A   1      43.407  28.345  28.728  1.00  0.00     0.074 A 
ATOM     51  C   UNL A   1      41.032  28.301  29.147  1.00  0.00     0.049 A 
ATOM     52  N   UNL A   1      43.874  29.361  29.428  1.00  0.00    -0.248 NA
ATOM     53  C   UNL A   1      44.352  27.939  27.664  1.00  0.00     0.031 C 
ATOM     54  C   UNL A   1      39.622  27.946  29.103  1.00  0.00     0.029 A 
ATOM     55  N   UNL A   1      41.021  29.671  29.393  1.00  0.00    -0.354 N 
ATOM     56  C   UNL A   1      45.240  29.464  29.112  1.00  0.00     0.074 A 
ATOM     57  C   UNL A   1      45.496  28.448  28.120  1.00  0.00     0.031 C 
ATOM     58  C   UNL A   1      38.886  29.048  29.351  1.00  0.00     0.029 A 
ATOM     59  C   UNL A   1      39.772  30.166  29.691  1.00  0.00     0.049 A 
ATOM     60  H   UNL A   1      41.830  30.232  29.358  1.00  0.00     0.167 HD
ATOM     61  C   UNL A   1      46.187  30.307  29.611  1.00  0.00     0.034 A 
ATOM     62  C   UNL A   1      39.382  31.334  30.257  1.00  0.00     0.034 A 
ATOM     63  C   UNL A   1      45.848  31.562  30.236  1.00  0.00     0.049 A 
ATOM     64  C   UNL A   1      40.392  32.376  30.702  1.00  0.00     0.074 A 
ATOM     65  C   UNL A   1      46.690  32.599  30.608  1.00  0.00     0.029 A 
ATOM     66  N   UNL A   1      44.556  31.994  30.470  1.00  0.00    -0.354 N 
ATOM     67  N   UNL A   1      41.699  32.356  30.627  1.00  0.00    -0.248 NA
ATOM     68  C   UNL A   1      39.859  33.610  31.314  1.00  0.00     0.031 C 
ATOM     69  C   UNL A   1      45.905  33.642  31.108  1.00  0.00     0.029 A 
ATOM     70  C   UNL A   1      44.576  33.281  30.971  1.00  0.00     0.049 A 
ATOM     71  H   UNL A   1      43.744  31.463  30.305  1.00  0.00     0.167 HD
ATOM     72  C   UNL A   1      42.134  33.586  31.126  1.00  0.00     0.074 A 
ATOM     73  C   UNL A   1      40.956  34.330  31.503  1.00  0.00     0.031 C 
ATOM     74  C   UNL A   1      43.400  34.054  31.263  1.00  0.00     0.034 A 
BRANCH  61  75
ATOM     75  C   UNL A   1      47.673  29.981  29.488  1.00  0.00     0.023 A 
ATOM     76  C   UNL A   1      48.386  29.326  30.508  1.00  0.00     0.012 A 
ATOM     77  C   UNL A   1      48.352  30.255  28.269  1.00  0.00     0.148 A 
ATOM     78  C   UNL A   1      49.748  29.033  30.364  1.00  0.00     0.002 A 
ATOM     79  C   UNL A   1      49.688  29.893  28.104  1.00  0.00     0.091 A 
ATOM     80  F   UNL A   1      47.676  30.856  27.280  1.00  0.00    -0.205 F 
ATOM     81  C   UNL A   1      50.394  29.307  29.162  1.00  0.00     0.022 A 
BRANCH  79  82
ATOM     82  S   UNL A   1      50.581  30.088  26.553  1.00  0.00     0.127 S 
ATOM     83  O   UNL A   1      51.912  29.600  26.915  1.00  0.00    -0.237 OA
ATOM     84  O   UNL A   1      49.836  29.204  25.656  1.00  0.00    -0.237 OA
ATOM     85  O   UNL A   1      50.510  31.502  26.215  1.00  0.00    -0.744 OA
ENDBRANCH  79  82
ENDBRANCH  61  75
BRANCH  62  86
ATOM     86  C   UNL A   1      37.928  31.580  30.509  1.00  0.00     0.023 A 
ATOM     87  C   UNL A   1      37.337  31.129  31.707  1.00  0.00     0.012 A 
ATOM     88  C   UNL A   1      37.130  32.253  29.564  1.00  0.00     0.148 A 
ATOM     89  C   UNL A   1      35.977  31.329  31.949  1.00  0.00     0.002 A 
ATOM     90  C   UNL A   1      35.795  32.512  29.842  1.00  0.00     0.091 A 
ATOM     91  F   UNL A   1      37.701  32.640  28.415  1.00  0.00    -0.205 F 
ATOM     92  C   UNL A   1      35.210  32.035  31.025  1.00  0.00     0.022 A 
BRANCH  90  93
ATOM     93  S   UNL A   1      34.768  33.530  28.778  1.00  0.00     0.127 S 
ATOM     94  O   UNL A   1      33.577  33.719  29.603  1.00  0.00    -0.237 OA
ATOM     95  O   UNL A   1      35.601  34.721  28.615  1.00  0.00    -0.237 OA
ATOM     96  O   UNL A   1      34.570  32.758  27.559  1.00  0.00    -0.744 OA
ENDBRANCH  90  93
ENDBRANCH  62  86
BRANCH  74  97
ATOM     97  C   UNL A   1      43.613  35.479  31.709  1.00  0.00     0.023 A 
ATOM     98  C   UNL A   1      43.808  35.795  33.066  1.00  0.00     0.012 A 
ATOM     99  C   UNL A   1      43.738  36.495  30.738  1.00  0.00     0.148 A 
ATOM    100  C   UNL A   1      44.102  37.105  33.450  1.00  0.00     0.002 A 
ATOM    101  C   UNL A   1      44.084  37.784  31.122  1.00  0.00     0.091 A 
ATOM    102  F   UNL A   1      43.539  36.174  29.451  1.00  0.00    -0.205 F 
ATOM    103  C   UNL A   1      44.254  38.094  32.480  1.00  0.00     0.022 A 
BRANCH 101 104
ATOM    104  S   UNL A   1      44.400  39.093  29.933  1.00  0.00     0.127 S 
ATOM    105  O   UNL A   1      43.086  39.253  29.311  1.00  0.00    -0.237 OA
ATOM    106  O   UNL A   1      44.805  40.202  30.797  1.00  0.00    -0.237 OA
ATOM    107  O   UNL A   1      45.445  38.597  29.048  1.00  0.00    -0.744 OA
ENDBRANCH 101 104
ENDBRANCH  74  97
ENDBRANCH  48  49
ENDBRANCH  41  43
ENDBRANCH  40  41
ENDBRANCH  39  40
ENDBRANCH  38  39
ENDBRANCH  37  38
ENDBRANCH   1  37
TORSDOF 23
ENDMDL
MODEL 2
REMARK VINA RESULT:     -10.1      5.884     14.383
REMARK SMILES CC(=O)N[C@H]1[C@@H](Oc2ccc(C)c(C)c2)O[C@H]2CO[C@H](c3ccco3)O[C@@H]2[C@H]1OCC(=O)OCCOCCOC(=O)c1ccc(-c2c3nc(c(-c4cccc(S(=O)(=O)[O-])c4F)c4ccc([nH]4)c(-c4cccc(S(=O)(=O)[O-])c4F)c4nc(c(-c5cccc(S(=O)(=O)[O-])c5F)c5ccc2[nH]5)C=C4)C=C3)cc1
REMARK SMILES IDX 35 1 34 2 33 3 31 4 32 5 30 6 29 7 28 8 5 9 6 10 16 11 27 12
REMARK SMILES IDX 17 13 26 14 18 15 20 16 19 17 4 18 1 19 2 20 3 21 7 23 8 24
REMARK SMILES IDX 9 25 15 26 10 27 13 28 11 29 14 30 12 31 21 32 22 33 25 34
REMARK SMILES IDX 23 35 24 36 36 37 37 38 38 39 39 40 40 41 41 42 42 43 43 44
REMARK SMILES IDX 104 45 44 46 103 47 45 48 46 49 47 50 97 51 48 52 102 53
REMARK SMILES IDX 96 54 98 55 49 56 101 57 95 58 94 59 50 61 82 62 62 63 81 64
REMARK SMILES IDX 63 65 66 66 80 67 99 68 64 69 65 70 79 72 100 73 67 74 51 75
REMARK SMILES IDX 52 76 60 77 53 78 55 79 61 80 54 81 56 82 57 83 58 84 59 85
REMARK SMILES IDX 83 86 84 87 92 88 85 89 87 90 93 91 86 92 88 93 89 94 90 95
REMARK SMILES IDX 91 96 68 97 69 98 77 99 70 100 72 101 78 102 71 103 73 104
REMARK SMILES IDX 74 105 75 106 76 107
REMARK H PARENT 4 22 98 60 66 71
REMARK Flexibility Score: inf
ROOT
ATOM      1  C   UNL A   1      46.558  39.034  34.715  1.00  0.00     0.202 C 
ENDROOT
BRANCH   1   2
ATOM      2  C   UNL A   1      46.094  40.151  33.773  1.00  0.00     0.261 C 
BRANCH   2   3
ATOM      3  O   UNL A   1      44.767  40.644  34.087  1.00  0.00    -0.462 OA
BRANCH   3   4
ATOM      4  C   UNL A   1      43.858  40.446  33.105  1.00  0.00     0.332 C 
ATOM      5  O   UNL A   1      42.646  40.365  33.303  1.00  0.00    -0.250 OA
BRANCH   4   6
ATOM      6  C   UNL A   1      44.394  40.372  31.659  1.00  0.00     0.283 C 
BRANCH   6   7
ATOM      7  O   UNL A   1      44.414  39.450  30.601  1.00  0.00    -0.361 OA
BRANCH   7   8
ATOM      8  C   UNL A   1      43.610  39.653  29.436  1.00  0.00     0.179 C 
ATOM      9  C   UNL A   1      43.927  40.916  28.455  1.00  0.00     0.182 C 
ATOM     10  C   UNL A   1      43.427  40.709  26.937  1.00  0.00     0.333 C 
ATOM     11  O   UNL A   1      43.253  39.343  26.561  1.00  0.00    -0.332 OA
ATOM     12  C   UNL A   1      43.413  38.306  28.740  1.00  0.00     0.184 C 
ATOM     13  C   UNL A   1      42.507  38.605  27.537  1.00  0.00     0.180 C 
ATOM     14  O   UNL A   1      43.003  37.178  29.640  1.00  0.00    -0.337 OA
ATOM     15  C   UNL A   1      42.040  37.330  26.920  1.00  0.00     0.199 C 
ATOM     16  C   UNL A   1      42.904  36.007  28.786  1.00  0.00     0.319 C 
ATOM     17  O   UNL A   1      41.822  36.399  27.940  1.00  0.00    -0.343 OA
BRANCH   9  18
ATOM     18  N   UNL A   1      45.278  41.489  28.516  1.00  0.00    -0.345 N 
ATOM     19  C   UNL A   1      44.805  43.746  29.381  1.00  0.00     0.114 C 
ATOM     20  C   UNL A   1      45.742  42.718  28.840  1.00  0.00     0.217 C 
ATOM     21  O   UNL A   1      46.942  42.941  28.690  1.00  0.00    -0.275 OA
ATOM     22  H   UNL A   1      45.988  40.851  28.276  1.00  0.00     0.164 HD
ENDBRANCH   9  18
BRANCH  10  23
ATOM     23  O   UNL A   1      44.095  41.490  25.889  1.00  0.00    -0.463 OA
BRANCH  23  24
ATOM     24  C   UNL A   1      43.413  42.100  24.863  1.00  0.00     0.123 A 
ATOM     25  C   UNL A   1      42.135  41.745  24.466  1.00  0.00     0.047 A 
ATOM     26  C   UNL A   1      44.114  43.020  24.066  1.00  0.00     0.050 A 
ATOM     27  C   UNL A   1      41.663  42.096  23.197  1.00  0.00     0.007 A 
ATOM     28  C   UNL A   1      43.620  43.439  22.802  1.00  0.00    -0.045 A 
ATOM     29  C   UNL A   1      42.411  42.900  22.334  1.00  0.00    -0.048 A 
ATOM     30  C   UNL A   1      44.422  44.413  21.978  1.00  0.00     0.045 C 
ATOM     31  C   UNL A   1      41.900  43.108  20.932  1.00  0.00     0.044 C 
ENDBRANCH  23  24
ENDBRANCH  10  23
BRANCH  16  32
ATOM     32  C   UNL A   1      42.603  34.337  29.390  1.00  0.00     0.159 A 
ATOM     33  C   UNL A   1      41.473  33.462  30.792  1.00  0.00     0.051 A 
ATOM     34  O   UNL A   1      44.290  33.670  29.798  1.00  0.00    -0.464 OA
ATOM     35  C   UNL A   1      42.771  32.567  32.000  1.00  0.00     0.042 A 
ATOM     36  C   UNL A   1      44.335  32.627  31.278  1.00  0.00     0.195 A 
ENDBRANCH  16  32
ENDBRANCH   7   8
ENDBRANCH   6   7
ENDBRANCH   4   6
ENDBRANCH   3   4
ENDBRANCH   2   3
ENDBRANCH   1   2
BRANCH   1  37
ATOM     37  O   UNL A   1      45.880  38.911  35.964  1.00  0.00    -0.374 OA
BRANCH  37  38
ATOM     38  C   UNL A   1      45.026  37.782  36.082  1.00  0.00     0.202 C 
BRANCH  38  39
ATOM     39  C   UNL A   1      43.505  38.044  35.983  1.00  0.00     0.261 C 
BRANCH  39  40
ATOM     40  O   UNL A   1      42.782  36.796  35.986  1.00  0.00    -0.460 OA
BRANCH  40  41
ATOM     41  C   UNL A   1      42.219  36.193  37.061  1.00  0.00     0.338 C 
ATOM     42  O   UNL A   1      42.291  36.542  38.218  1.00  0.00    -0.246 OA
BRANCH  41  43
ATOM     43  C   UNL A   1      41.361  35.107  36.471  1.00  0.00     0.060 A 
ATOM     44  C   UNL A   1      42.319  33.715  36.111  1.00  0.00     0.016 A 
ATOM     45  C   UNL A   1      39.606  35.096  36.555  1.00  0.00     0.016 A 
ATOM     46  C   UNL A   1      41.740  32.159  35.812  1.00  0.00     0.010 A 
ATOM     47  C   UNL A   1      38.781  33.482  36.432  1.00  0.00     0.010 A 
ATOM     48  C   UNL A   1      39.989  31.871  35.858  1.00  0.00    -0.014 A 
BRANCH  48  49
ATOM     49  C   UNL A   1      39.990  30.760  34.430  1.00  0.00     0.031 A 
ATOM     50  C   UNL A   1      40.885  29.438  34.323  1.00  0.00     0.074 A 
ATOM     51  C   UNL A   1      39.137  30.807  33.380  1.00  0.00     0.049 A 
ATOM     52  N   UNL A   1      41.593  29.006  33.296  1.00  0.00    -0.248 NA
ATOM     53  C   UNL A   1      41.117  28.611  35.528  1.00  0.00     0.031 C 
ATOM     54  C   UNL A   1      37.961  31.650  33.237  1.00  0.00     0.029 A 
ATOM     55  N   UNL A   1      39.175  30.085  32.190  1.00  0.00    -0.354 N 
ATOM     56  C   UNL A   1      42.552  28.123  33.821  1.00  0.00     0.074 A 
ATOM     57  C   UNL A   1      42.288  28.045  35.237  1.00  0.00     0.031 C 
ATOM     58  C   UNL A   1      37.411  31.431  32.025  1.00  0.00     0.029 A 
ATOM     59  C   UNL A   1      38.264  30.521  31.254  1.00  0.00     0.049 A 
ATOM     60  H   UNL A   1      39.794  29.335  32.033  1.00  0.00     0.167 HD
ATOM     61  C   UNL A   1      43.561  27.458  33.190  1.00  0.00     0.034 A 
ATOM     62  C   UNL A   1      38.173  30.298  29.921  1.00  0.00     0.034 A 
ATOM     63  C   UNL A   1      43.539  27.193  31.773  1.00  0.00     0.049 A 
ATOM     64  C   UNL A   1      39.191  29.445  29.188  1.00  0.00     0.074 A 
ATOM     65  C   UNL A   1      44.378  26.375  31.031  1.00  0.00     0.029 A 
ATOM     66  N   UNL A   1      42.562  27.649  30.907  1.00  0.00    -0.354 N 
ATOM     67  N   UNL A   1      40.242  28.816  29.652  1.00  0.00    -0.248 NA
ATOM     68  C   UNL A   1      39.002  29.274  27.733  1.00  0.00     0.031 C 
ATOM     69  C   UNL A   1      43.929  26.372  29.708  1.00  0.00     0.029 A 
ATOM     70  C   UNL A   1      42.769  27.125  29.647  1.00  0.00     0.049 A 
ATOM     71  H   UNL A   1      41.829  28.258  31.153  1.00  0.00     0.167 HD
ATOM     72  C   UNL A   1      40.798  28.137  28.565  1.00  0.00     0.074 A 
ATOM     73  C   UNL A   1      39.974  28.429  27.418  1.00  0.00     0.031 C 
ATOM     74  C   UNL A   1      41.898  27.345  28.525  1.00  0.00     0.034 A 
BRANCH  61  75
ATOM     75  C   UNL A   1      44.754  26.915  33.971  1.00  0.00     0.023 A 
ATOM     76  C   UNL A   1      45.792  27.744  34.433  1.00  0.00     0.012 A 
ATOM     77  C   UNL A   1      44.785  25.540  34.337  1.00  0.00     0.148 A 
ATOM     78  C   UNL A   1      46.870  27.217  35.154  1.00  0.00     0.002 A 
ATOM     79  C   UNL A   1      45.823  25.038  35.119  1.00  0.00     0.091 A 
ATOM     80  F   UNL A   1      43.787  24.745  33.924  1.00  0.00    -0.205 F 
ATOM     81  C   UNL A   1      46.881  25.870  35.504  1.00  0.00     0.022 A 
BRANCH  79  82
ATOM     82  S   UNL A   1      45.870  23.345  35.731  1.00  0.00     0.127 S 
ATOM     83  O   UNL A   1      46.506  22.645  34.614  1.00  0.00    -0.237 OA
ATOM     84  O   UNL A   1      46.709  23.472  36.923  1.00  0.00    -0.237 OA
ATOM     85  O   UNL A   1      44.490  22.966  35.994  1.00  0.00    -0.744 OA
ENDBRANCH  79  82
ENDBRANCH  61  75
BRANCH  62  86
ATOM     86  C   UNL A   1      37.083  30.959  29.138  1.00  0.00     0.023 A 
ATOM     87  C   UNL A   1      37.139  32.346  28.887  1.00  0.00     0.012 A 
ATOM     88  C   UNL A   1      35.990  30.219  28.647  1.00  0.00     0.148 A 
ATOM     89  C   UNL A   1      36.119  32.982  28.178  1.00  0.00     0.002 A 
ATOM     90  C   UNL A   1      35.016  30.845  27.881  1.00  0.00     0.091 A 
ATOM     91  F   UNL A   1      35.934  28.910  28.928  1.00  0.00    -0.205 F 
ATOM     92  C   UNL A   1      35.067  32.230  27.661  1.00  0.00     0.022 A 
BRANCH  90  93
ATOM     93  S   UNL A   1      33.702  29.938  27.060  1.00  0.00     0.127 S 
ATOM     94  O   UNL A   1      32.715  30.988  26.825  1.00  0.00    -0.237 OA
ATOM     95  O   UNL A   1      34.384  29.451  25.862  1.00  0.00    -0.237 OA
ATOM     96  O   UNL A   1      33.298  28.894  27.992  1.00  0.00    -0.744 OA
ENDBRANCH  90  93
ENDBRANCH  62  86
BRANCH  74  97
ATOM     97  C   UNL A   1      42.228  26.609  27.250  1.00  0.00     0.023 A 
ATOM     98  C   UNL A   1      42.843  27.267  26.169  1.00  0.00     0.012 A 
ATOM     99  C   UNL A   1      42.027  25.214  27.186  1.00  0.00     0.148 A 
ATOM    100  C   UNL A   1      43.231  26.550  25.035  1.00  0.00     0.002 A 
ATOM    101  C   UNL A   1      42.464  24.499  26.079  1.00  0.00     0.091 A 
ATOM    102  F   UNL A   1      41.431  24.608  28.224  1.00  0.00    -0.205 F 
ATOM    103  C   UNL A   1      43.055  25.168  24.996  1.00  0.00     0.022 A 
BRANCH 101 104
ATOM    104  S   UNL A   1      42.371  22.707  25.988  1.00  0.00     0.127 S 
ATOM    105  O   UNL A   1      42.964  22.445  24.677  1.00  0.00    -0.237 OA
ATOM    106  O   UNL A   1      43.195  22.298  27.124  1.00  0.00    -0.237 OA
ATOM    107  O   UNL A   1      40.959  22.366  26.104  1.00  0.00    -0.744 OA
ENDBRANCH 101 104
ENDBRANCH  74  97
ENDBRANCH  48  49
ENDBRANCH  41  43
ENDBRANCH  40  41
ENDBRANCH  39  40
ENDBRANCH  38  39
ENDBRANCH  37  38
ENDBRANCH   1  37
TORSDOF 23
ENDMDL
MODEL 3
REMARK VINA RESULT:      -9.2      6.574     12.116
REMARK SMILES CC(=O)N[C@H]1[C@@H](Oc2ccc(C)c(C)c2)O[C@H]2CO[C@H](c3ccco3)O[C@@H]2[C@H]1OCC(=O)OCCOCCOC(=O)c1ccc(-c2c3nc(c(-c4cccc(S(=O)(=O)[O-])c4F)c4ccc([nH]4)c(-c4cccc(S(=O)(=O)[O-])c4F)c4nc(c(-c5cccc(S(=O)(=O)[O-])c5F)c5ccc2[nH]5)C=C4)C=C3)cc1
REMARK SMILES IDX 35 1 34 2 33 3 31 4 32 5 30 6 29 7 28 8 5 9 6 10 16 11 27 12
REMARK SMILES IDX 17 13 26 14 18 15 20 16 19 17 4 18 1 19 2 20 3 21 7 23 8 24
REMARK SMILES IDX 9 25 15 26 10 27 13 28 11 29 14 30 12 31 21 32 22 33 25 34
REMARK SMILES IDX 23 35 24 36 36 37 37 38 38 39 39 40 40 41 41 42 42 43 43 44
REMARK SMILES IDX 104 45 44 46 103 47 45 48 46 49 47 50 97 51 48 52 102 53
REMARK SMILES IDX 96 54 98 55 49 56 101 57 95 58 94 59 50 61 82 62 62 63 81 64
REMARK SMILES IDX 63 65 66 66 80 67 99 68 64 69 65 70 79 72 100 73 67 74 51 75
REMARK SMILES IDX 52 76 60 77 53 78 55 79 61 80 54 81 56 82 57 83 58 84 59 85
REMARK SMILES IDX 83 86 84 87 92 88 85 89 87 90 93 91 86 92 88 93 89 94 90 95
REMARK SMILES IDX 91 96 68 97 69 98 77 99 70 100 72 101 78 102 71 103 73 104
REMARK SMILES IDX 74 105 75 106 76 107
REMARK H PARENT 4 22 98 60 66 71
REMARK Flexibility Score: inf
ROOT
ATOM      1  C   UNL A   1      46.158  29.669  28.472  1.00  0.00     0.202 C 
ENDROOT
BRANCH   1   2
ATOM      2  C   UNL A   1      45.611  29.324  29.861  1.00  0.00     0.261 C 
BRANCH   2   3
ATOM      3  O   UNL A   1      46.357  28.269  30.519  1.00  0.00    -0.462 OA
BRANCH   3   4
ATOM      4  C   UNL A   1      45.655  27.602  31.464  1.00  0.00     0.332 C 
ATOM      5  O   UNL A   1      46.174  26.909  32.338  1.00  0.00    -0.250 OA
BRANCH   4   6
ATOM      6  C   UNL A   1      44.121  27.778  31.451  1.00  0.00     0.283 C 
BRANCH   6   7
ATOM      7  O   UNL A   1      42.985  26.998  31.188  1.00  0.00    -0.361 OA
BRANCH   7   8
ATOM      8  C   UNL A   1      41.936  27.490  30.350  1.00  0.00     0.179 C 
ATOM      9  C   UNL A   1      40.927  28.636  30.920  1.00  0.00     0.182 C 
ATOM     10  C   UNL A   1      40.234  29.531  29.773  1.00  0.00     0.333 C 
ATOM     11  O   UNL A   1      40.942  29.539  28.533  1.00  0.00    -0.332 OA
ATOM     12  C   UNL A   1      42.507  27.744  28.954  1.00  0.00     0.184 C 
ATOM     13  C   UNL A   1      41.313  28.220  28.113  1.00  0.00     0.180 C 
ATOM     14  O   UNL A   1      43.336  26.627  28.392  1.00  0.00    -0.337 OA
ATOM     15  C   UNL A   1      41.689  28.264  26.671  1.00  0.00     0.199 C 
ATOM     16  C   UNL A   1      43.792  27.089  27.093  1.00  0.00     0.319 C 
ATOM     17  O   UNL A   1      42.545  27.190  26.405  1.00  0.00    -0.343 OA
BRANCH   9  18
ATOM     18  N   UNL A   1      41.408  29.455  32.041  1.00  0.00    -0.345 N 
ATOM     19  C   UNL A   1      41.136  27.896  33.929  1.00  0.00     0.114 C 
ATOM     20  C   UNL A   1      41.473  29.241  33.375  1.00  0.00     0.217 C 
ATOM     21  O   UNL A   1      41.830  30.174  34.094  1.00  0.00    -0.275 OA
ATOM     22  H   UNL A   1      41.755  30.334  31.766  1.00  0.00     0.164 HD
ENDBRANCH   9  18
BRANCH  10  23
ATOM     23  O   UNL A   1      39.759  30.868  30.147  1.00  0.00    -0.463 OA
BRANCH  23  24
ATOM     24  C   UNL A   1      38.759  31.522  29.468  1.00  0.00     0.123 A 
ATOM     25  C   UNL A   1      38.529  32.884  29.553  1.00  0.00     0.047 A 
ATOM     26  C   UNL A   1      37.814  30.740  28.781  1.00  0.00     0.050 A 
ATOM     27  C   UNL A   1      37.289  33.419  29.188  1.00  0.00     0.007 A 
ATOM     28  C   UNL A   1      36.576  31.281  28.345  1.00  0.00    -0.045 A 
ATOM     29  C   UNL A   1      36.284  32.625  28.628  1.00  0.00    -0.048 A 
ATOM     30  C   UNL A   1      35.589  30.394  27.631  1.00  0.00     0.045 C 
ATOM     31  C   UNL A   1      34.931  33.245  28.403  1.00  0.00     0.044 C 
ENDBRANCH  23  24
ENDBRANCH  10  23
BRANCH  16  32
ATOM     32  C   UNL A   1      44.965  26.197  26.057  1.00  0.00     0.159 A 
ATOM     33  C   UNL A   1      44.998  24.494  25.004  1.00  0.00     0.051 A 
ATOM     34  O   UNL A   1      46.486  26.017  27.111  1.00  0.00    -0.464 OA
ATOM     35  C   UNL A   1      46.467  23.430  25.813  1.00  0.00     0.042 A 
ATOM     36  C   UNL A   1      47.340  24.432  26.911  1.00  0.00     0.195 A 
ENDBRANCH  16  32
ENDBRANCH   7   8
ENDBRANCH   6   7
ENDBRANCH   4   6
ENDBRANCH   3   4
ENDBRANCH   2   3
ENDBRANCH   1   2
BRANCH   1  37
ATOM     37  O   UNL A   1      45.936  30.995  27.995  1.00  0.00    -0.374 OA
BRANCH  37  38
ATOM     38  C   UNL A   1      44.683  31.209  27.359  1.00  0.00     0.202 C 
BRANCH  38  39
ATOM     39  C   UNL A   1      44.718  31.616  25.867  1.00  0.00     0.261 C 
BRANCH  39  40
ATOM     40  O   UNL A   1      43.862  32.755  25.641  1.00  0.00    -0.460 OA
BRANCH  40  41
ATOM     41  C   UNL A   1      44.255  34.048  25.533  1.00  0.00     0.338 C 
ATOM     42  O   UNL A   1      44.783  34.576  24.580  1.00  0.00    -0.246 OA
BRANCH  41  43
ATOM     43  C   UNL A   1      43.735  34.700  26.786  1.00  0.00     0.060 A 
ATOM     44  C   UNL A   1      44.960  34.718  28.004  1.00  0.00     0.016 A 
ATOM     45  C   UNL A   1      42.277  35.679  26.844  1.00  0.00     0.016 A 
ATOM     46  C   UNL A   1      44.965  35.670  29.397  1.00  0.00     0.010 A 
ATOM     47  C   UNL A   1      42.159  36.907  28.178  1.00  0.00     0.010 A 
ATOM     48  C   UNL A   1      43.604  36.773  29.687  1.00  0.00    -0.014 A 
BRANCH  48  49
ATOM     49  C   UNL A   1      43.525  36.439  31.463  1.00  0.00     0.031 A 
ATOM     50  C   UNL A   1      42.615  35.299  32.122  1.00  0.00     0.074 A 
ATOM     51  C   UNL A   1      44.325  36.975  32.414  1.00  0.00     0.049 A 
ATOM     52  N   UNL A   1      41.855  35.374  33.198  1.00  0.00    -0.248 NA
ATOM     53  C   UNL A   1      42.437  34.008  31.421  1.00  0.00     0.031 C 
ATOM     54  C   UNL A   1      45.499  37.808  32.209  1.00  0.00     0.029 A 
ATOM     55  N   UNL A   1      44.224  36.878  33.799  1.00  0.00    -0.354 N 
ATOM     56  C   UNL A   1      40.916  34.334  33.091  1.00  0.00     0.074 A 
ATOM     57  C   UNL A   1      41.249  33.620  31.883  1.00  0.00     0.031 C 
ATOM     58  C   UNL A   1      45.988  38.178  33.411  1.00  0.00     0.029 A 
ATOM     59  C   UNL A   1      45.092  37.709  34.472  1.00  0.00     0.049 A 
ATOM     60  H   UNL A   1      43.593  36.274  34.253  1.00  0.00     0.167 HD
ATOM     61  C   UNL A   1      39.873  34.017  33.909  1.00  0.00     0.034 A 
ATOM     62  C   UNL A   1      45.115  38.123  35.762  1.00  0.00     0.034 A 
ATOM     63  C   UNL A   1      39.823  34.431  35.289  1.00  0.00     0.049 A 
ATOM     64  C   UNL A   1      44.056  37.684  36.756  1.00  0.00     0.074 A 
ATOM     65  C   UNL A   1      38.943  34.030  36.283  1.00  0.00     0.029 A 
ATOM     66  N   UNL A   1      40.760  35.247  35.894  1.00  0.00    -0.354 N 
ATOM     67  N   UNL A   1      43.024  36.896  36.583  1.00  0.00    -0.248 NA
ATOM     68  C   UNL A   1      44.172  38.202  38.134  1.00  0.00     0.031 C 
ATOM     69  C   UNL A   1      39.326  34.640  37.480  1.00  0.00     0.029 A 
ATOM     70  C   UNL A   1      40.487  35.355  37.244  1.00  0.00     0.049 A 
ATOM     71  H   UNL A   1      41.509  35.687  35.431  1.00  0.00     0.167 HD
ATOM     72  C   UNL A   1      42.410  36.782  37.832  1.00  0.00     0.074 A 
ATOM     73  C   UNL A   1      43.179  37.580  38.756  1.00  0.00     0.031 C 
ATOM     74  C   UNL A   1      41.303  36.079  38.179  1.00  0.00     0.034 A 
BRANCH  61  75
ATOM     75  C   UNL A   1      38.715  33.157  33.408  1.00  0.00     0.023 A 
ATOM     76  C   UNL A   1      38.800  31.756  33.324  1.00  0.00     0.012 A 
ATOM     77  C   UNL A   1      37.468  33.769  33.102  1.00  0.00     0.148 A 
ATOM     78  C   UNL A   1      37.718  30.993  32.868  1.00  0.00     0.002 A 
ATOM     79  C   UNL A   1      36.373  32.997  32.721  1.00  0.00     0.091 A 
ATOM     80  F   UNL A   1      37.368  35.103  33.203  1.00  0.00    -0.205 F 
ATOM     81  C   UNL A   1      36.506  31.610  32.576  1.00  0.00     0.022 A 
BRANCH  79  82
ATOM     82  S   UNL A   1      34.730  33.679  32.442  1.00  0.00     0.127 S 
ATOM     83  O   UNL A   1      34.445  34.301  33.735  1.00  0.00    -0.237 OA
ATOM     84  O   UNL A   1      34.972  34.628  31.355  1.00  0.00    -0.237 OA
ATOM     85  O   UNL A   1      33.875  32.555  32.091  1.00  0.00    -0.744 OA
ENDBRANCH  79  82
ENDBRANCH  61  75
BRANCH  62  86
ATOM     86  C   UNL A   1      46.171  39.086  36.206  1.00  0.00     0.023 A 
ATOM     87  C   UNL A   1      47.426  38.605  36.631  1.00  0.00     0.012 A 
ATOM     88  C   UNL A   1      45.932  40.474  36.211  1.00  0.00     0.148 A 
ATOM     89  C   UNL A   1      48.414  39.488  37.069  1.00  0.00     0.002 A 
ATOM     90  C   UNL A   1      46.943  41.350  36.580  1.00  0.00     0.091 A 
ATOM     91  F   UNL A   1      44.720  40.909  35.840  1.00  0.00    -0.205 F 
ATOM     92  C   UNL A   1      48.180  40.860  37.028  1.00  0.00     0.022 A 
BRANCH  90  93
ATOM     93  S   UNL A   1      46.780  43.132  36.427  1.00  0.00     0.127 S 
ATOM     94  O   UNL A   1      48.070  43.594  36.932  1.00  0.00    -0.237 OA
ATOM     95  O   UNL A   1      46.587  43.288  34.986  1.00  0.00    -0.237 OA
ATOM     96  O   UNL A   1      45.623  43.495  37.235  1.00  0.00    -0.744 OA
ENDBRANCH  90  93
ENDBRANCH  62  86
BRANCH  74  97
ATOM     97  C   UNL A   1      40.906  36.004  39.632  1.00  0.00     0.023 A 
ATOM     98  C   UNL A   1      40.029  36.948  40.197  1.00  0.00     0.012 A 
ATOM     99  C   UNL A   1      41.325  34.901  40.407  1.00  0.00     0.148 A 
ATOM    100  C   UNL A   1      39.593  36.807  41.516  1.00  0.00     0.002 A 
ATOM    101  C   UNL A   1      40.846  34.738  41.700  1.00  0.00     0.091 A 
ATOM    102  F   UNL A   1      42.169  34.018  39.853  1.00  0.00    -0.205 F 
ATOM    103  C   UNL A   1      39.989  35.698  42.261  1.00  0.00     0.022 A 
BRANCH 101 104
ATOM    104  S   UNL A   1      41.222  33.290  42.694  1.00  0.00     0.127 S 
ATOM    105  O   UNL A   1      42.663  33.436  42.900  1.00  0.00    -0.237 OA
ATOM    106  O   UNL A   1      40.409  33.516  43.888  1.00  0.00    -0.237 OA
ATOM    107  O   UNL A   1      40.828  32.136  41.897  1.00  0.00    -0.744 OA
ENDBRANCH 101 104
ENDBRANCH  74  97
ENDBRANCH  48  49
ENDBRANCH  41  43
ENDBRANCH  40  41
ENDBRANCH  39  40
ENDBRANCH  38  39
ENDBRANCH  37  38
ENDBRANCH   1  37
TORSDOF 23
ENDMDL
