MODEL 1
REMARK VINA RESULT:     -11.3      0.000      0.000
REMARK SMILES O=C(OCCOCCOC(=O)c1c(-c2ccc(Cl)cc2)noc1CO[C@@H]1CCCCO1)c1ccc(-c2c3nc(c(-c4cccc(S(=O)(=O)[O-])c4F)c4ccc([nH]4)c(-c4cccc(S(=O)(=O)[O-])c4F)c4nc(c(-c5cccc(S(=O)(=O)[O-])c5F)c5ccc2[nH]5)C=C4)C=C3)cc1
REMARK SMILES IDX 6 1 5 2 4 3 3 4 2 5 1 6 32 7 33 8 94 9 34 10 93 11 35 12
REMARK SMILES IDX 36 13 37 14 87 15 38 16 92 17 86 18 88 19 39 20 91 21 85 22
REMARK SMILES IDX 84 23 40 25 72 26 52 27 71 28 53 29 56 30 70 31 89 32 54 33
REMARK SMILES IDX 55 34 69 36 90 37 57 38 41 39 42 40 50 41 43 42 45 43 51 44
REMARK SMILES IDX 44 45 46 46 47 47 48 48 49 49 73 50 74 51 82 52 75 53 77 54
REMARK SMILES IDX 83 55 76 56 78 57 79 58 80 59 81 60 58 61 59 62 67 63 60 64
REMARK SMILES IDX 62 65 68 66 61 67 63 68 64 69 65 70 66 71 7 72 8 73 9 74
REMARK SMILES IDX 10 75 11 76 12 77 13 78 23 79 21 80 22 81 14 82 15 83 20 84
REMARK SMILES IDX 16 85 19 86 17 87 18 88 24 89 25 90 26 91 27 92 31 93 28 94
REMARK SMILES IDX 30 95 29 96
REMARK H PARENT 88 24 56 35
REMARK Flexibility Score: inf
ROOT
ATOM      1  O   UNL A   1      34.030  23.125  27.136  1.00  0.00    -0.374 OA
ENDROOT
BRANCH   1   2
ATOM      2  C   UNL A   1      35.103  22.209  27.022  1.00  0.00     0.202 C 
BRANCH   2   3
ATOM      3  C   UNL A   1      36.227  22.671  26.099  1.00  0.00     0.261 C 
BRANCH   3   4
ATOM      4  O   UNL A   1      37.025  21.556  25.656  1.00  0.00    -0.460 OA
BRANCH   4   5
ATOM      5  C   UNL A   1      38.362  21.433  25.878  1.00  0.00     0.338 C 
ATOM      6  O   UNL A   1      38.926  20.354  25.739  1.00  0.00    -0.246 OA
BRANCH   5   7
ATOM      7  C   UNL A   1      39.142  22.628  26.276  1.00  0.00     0.060 A 
ATOM      8  C   UNL A   1      40.246  22.515  27.119  1.00  0.00     0.016 A 
ATOM      9  C   UNL A   1      38.793  23.880  25.771  1.00  0.00     0.016 A 
ATOM     10  C   UNL A   1      40.894  23.639  27.598  1.00  0.00     0.010 A 
ATOM     11  C   UNL A   1      39.532  25.007  26.150  1.00  0.00     0.010 A 
ATOM     12  C   UNL A   1      40.575  24.896  27.086  1.00  0.00    -0.014 A 
BRANCH  12  13
ATOM     13  C   UNL A   1      41.357  26.075  27.529  1.00  0.00     0.031 A 
ATOM     14  C   UNL A   1      40.737  27.059  28.474  1.00  0.00     0.074 A 
ATOM     15  C   UNL A   1      42.625  26.234  27.098  1.00  0.00     0.049 A 
ATOM     16  N   UNL A   1      41.161  28.243  28.820  1.00  0.00    -0.248 NA
ATOM     17  C   UNL A   1      39.463  26.667  29.101  1.00  0.00     0.031 C 
ATOM     18  C   UNL A   1      43.344  25.303  26.221  1.00  0.00     0.029 A 
ATOM     19  N   UNL A   1      43.542  27.223  27.342  1.00  0.00    -0.354 N 
ATOM     20  C   UNL A   1      40.163  28.778  29.624  1.00  0.00     0.074 A 
ATOM     21  C   UNL A   1      39.131  27.774  29.749  1.00  0.00     0.031 C 
ATOM     22  C   UNL A   1      44.600  25.736  26.046  1.00  0.00     0.029 A 
ATOM     23  C   UNL A   1      44.746  27.027  26.702  1.00  0.00     0.049 A 
ATOM     24  H   UNL A   1      43.358  27.999  27.920  1.00  0.00     0.167 HD
ATOM     25  C   UNL A   1      40.116  30.006  30.190  1.00  0.00     0.034 A 
ATOM     26  C   UNL A   1      45.828  27.825  26.615  1.00  0.00     0.034 A 
ATOM     27  C   UNL A   1      41.187  30.959  30.100  1.00  0.00     0.049 A 
ATOM     28  C   UNL A   1      45.762  29.169  27.282  1.00  0.00     0.074 A 
ATOM     29  C   UNL A   1      41.246  32.247  30.596  1.00  0.00     0.029 A 
ATOM     30  N   UNL A   1      42.407  30.708  29.484  1.00  0.00    -0.354 N 
ATOM     31  N   UNL A   1      44.797  29.678  28.011  1.00  0.00    -0.248 NA
ATOM     32  C   UNL A   1      46.920  30.054  27.109  1.00  0.00     0.031 C 
ATOM     33  C   UNL A   1      42.505  32.774  30.283  1.00  0.00     0.029 A 
ATOM     34  C   UNL A   1      43.231  31.810  29.597  1.00  0.00     0.049 A 
ATOM     35  H   UNL A   1      42.647  29.867  29.032  1.00  0.00     0.167 HD
ATOM     36  C   UNL A   1      45.229  30.943  28.384  1.00  0.00     0.074 A 
ATOM     37  C   UNL A   1      46.562  31.104  27.836  1.00  0.00     0.031 C 
ATOM     38  C   UNL A   1      44.574  31.903  29.082  1.00  0.00     0.034 A 
BRANCH  25  39
ATOM     39  C   UNL A   1      38.861  30.372  30.931  1.00  0.00     0.023 A 
ATOM     40  C   UNL A   1      38.680  29.949  32.262  1.00  0.00     0.012 A 
ATOM     41  C   UNL A   1      37.846  31.119  30.298  1.00  0.00     0.148 A 
ATOM     42  C   UNL A   1      37.495  30.233  32.942  1.00  0.00     0.002 A 
ATOM     43  C   UNL A   1      36.680  31.425  30.993  1.00  0.00     0.091 A 
ATOM     44  F   UNL A   1      38.025  31.487  29.022  1.00  0.00    -0.205 F 
ATOM     45  C   UNL A   1      36.499  30.975  32.310  1.00  0.00     0.022 A 
BRANCH  43  46
ATOM     46  S   UNL A   1      35.356  32.403  30.275  1.00  0.00     0.127 S 
ATOM     47  O   UNL A   1      36.044  33.660  29.982  1.00  0.00    -0.237 OA
ATOM     48  O   UNL A   1      34.994  31.616  29.096  1.00  0.00    -0.237 OA
ATOM     49  O   UNL A   1      34.317  32.480  31.293  1.00  0.00    -0.744 OA
ENDBRANCH  43  46
ENDBRANCH  25  39
BRANCH  26  50
ATOM     50  C   UNL A   1      47.043  27.370  25.876  1.00  0.00     0.023 A 
ATOM     51  C   UNL A   1      47.937  26.479  26.500  1.00  0.00     0.012 A 
ATOM     52  C   UNL A   1      47.296  27.763  24.546  1.00  0.00     0.148 A 
ATOM     53  C   UNL A   1      49.062  26.002  25.823  1.00  0.00     0.002 A 
ATOM     54  C   UNL A   1      48.381  27.233  23.854  1.00  0.00     0.091 A 
ATOM     55  F   UNL A   1      46.460  28.638  23.967  1.00  0.00    -0.205 F 
ATOM     56  C   UNL A   1      49.275  26.365  24.495  1.00  0.00     0.022 A 
BRANCH  54  57
ATOM     57  S   UNL A   1      48.604  27.530  22.095  1.00  0.00     0.127 S 
ATOM     58  O   UNL A   1      49.766  28.413  22.082  1.00  0.00    -0.237 OA
ATOM     59  O   UNL A   1      48.848  26.183  21.576  1.00  0.00    -0.237 OA
ATOM     60  O   UNL A   1      47.343  28.112  21.652  1.00  0.00    -0.744 OA
ENDBRANCH  54  57
ENDBRANCH  26  50
BRANCH  38  61
ATOM     61  C   UNL A   1      45.297  33.203  29.293  1.00  0.00     0.023 A 
ATOM     62  C   UNL A   1      46.120  33.356  30.425  1.00  0.00     0.012 A 
ATOM     63  C   UNL A   1      45.226  34.229  28.334  1.00  0.00     0.148 A 
ATOM     64  C   UNL A   1      46.853  34.526  30.608  1.00  0.00     0.002 A 
ATOM     65  C   UNL A   1      45.992  35.375  28.503  1.00  0.00     0.091 A 
ATOM     66  F   UNL A   1      44.413  34.069  27.281  1.00  0.00    -0.205 F 
ATOM     67  C   UNL A   1      46.800  35.529  29.642  1.00  0.00     0.022 A 
BRANCH  65  68
ATOM     68  S   UNL A   1      46.044  36.667  27.258  1.00  0.00     0.127 S 
ATOM     69  O   UNL A   1      46.476  35.925  26.075  1.00  0.00    -0.237 OA
ATOM     70  O   UNL A   1      44.653  37.124  27.217  1.00  0.00    -0.237 OA
ATOM     71  O   UNL A   1      46.984  37.659  27.761  1.00  0.00    -0.744 OA
ENDBRANCH  65  68
ENDBRANCH  38  61
ENDBRANCH  12  13
ENDBRANCH   5   7
ENDBRANCH   4   5
ENDBRANCH   3   4
ENDBRANCH   2   3
ENDBRANCH   1   2
BRANCH   1  72
ATOM     72  C   UNL A   1      32.840  22.642  27.757  1.00  0.00     0.202 C 
BRANCH  72  73
ATOM     73  C   UNL A   1      31.669  23.187  26.949  1.00  0.00     0.261 C 
BRANCH  73  74
ATOM     74  O   UNL A   1      32.197  23.989  25.878  1.00  0.00    -0.459 OA
BRANCH  74  75
ATOM     75  C   UNL A   1      31.432  24.089  24.750  1.00  0.00     0.344 C 
ATOM     76  O   UNL A   1      30.214  24.133  24.700  1.00  0.00    -0.246 OA
BRANCH  75  77
ATOM     77  C   UNL A   1      32.267  24.097  23.587  1.00  0.00     0.133 A 
ATOM     78  C   UNL A   1      32.879  23.020  22.900  1.00  0.00     0.128 A 
ATOM     79  C   UNL A   1      32.720  25.226  22.944  1.00  0.00     0.177 A 
ATOM     80  N   UNL A   1      33.551  23.465  21.827  1.00  0.00    -0.079 NA
ATOM     81  O   UNL A   1      33.458  24.848  21.865  1.00  0.00    -0.357 OA
BRANCH  78  82
ATOM     82  C   UNL A   1      32.848  21.609  23.251  1.00  0.00     0.005 A 
ATOM     83  C   UNL A   1      33.617  21.113  24.312  1.00  0.00     0.012 A 
ATOM     84  C   UNL A   1      32.076  20.726  22.484  1.00  0.00     0.012 A 
ATOM     85  C   UNL A   1      33.635  19.739  24.581  1.00  0.00     0.021 A 
ATOM     86  C   UNL A   1      32.091  19.356  22.758  1.00  0.00     0.021 A 
ATOM     87  C   UNL A   1      32.877  18.867  23.799  1.00  0.00     0.041 A 
ATOM     88  Cl  UNL A   1      32.919  17.178  24.119  1.00  0.00    -0.084 Cl
ENDBRANCH  78  82
BRANCH  79  89
ATOM     89  C   UNL A   1      32.624  26.677  23.242  1.00  0.00     0.242 C 
BRANCH  89  90
ATOM     90  O   UNL A   1      33.850  27.071  23.831  1.00  0.00    -0.345 OA
BRANCH  90  91
ATOM     91  C   UNL A   1      33.842  27.864  25.017  1.00  0.00     0.250 C 
ATOM     92  C   UNL A   1      33.414  27.187  26.329  1.00  0.00     0.062 C 
ATOM     93  O   UNL A   1      33.331  29.180  24.809  1.00  0.00    -0.353 OA
ATOM     94  C   UNL A   1      31.997  27.523  26.775  1.00  0.00     0.008 C 
ATOM     95  C   UNL A   1      31.990  29.422  25.206  1.00  0.00     0.163 C 
ATOM     96  C   UNL A   1      31.741  29.010  26.646  1.00  0.00     0.029 C 
ENDBRANCH  90  91
ENDBRANCH  89  90
ENDBRANCH  79  89
ENDBRANCH  75  77
ENDBRANCH  74  75
ENDBRANCH  73  74
ENDBRANCH  72  73
ENDBRANCH   1  72
TORSDOF 21
ENDMDL
MODEL 2
REMARK VINA RESULT:     -11.1      1.904      7.730
REMARK SMILES O=C(OCCOCCOC(=O)c1c(-c2ccc(Cl)cc2)noc1CO[C@@H]1CCCCO1)c1ccc(-c2c3nc(c(-c4cccc(S(=O)(=O)[O-])c4F)c4ccc([nH]4)c(-c4cccc(S(=O)(=O)[O-])c4F)c4nc(c(-c5cccc(S(=O)(=O)[O-])c5F)c5ccc2[nH]5)C=C4)C=C3)cc1
REMARK SMILES IDX 6 1 5 2 4 3 3 4 2 5 1 6 32 7 33 8 94 9 34 10 93 11 35 12
REMARK SMILES IDX 36 13 37 14 87 15 38 16 92 17 86 18 88 19 39 20 91 21 85 22
REMARK SMILES IDX 84 23 40 25 72 26 52 27 71 28 53 29 56 30 70 31 89 32 54 33
REMARK SMILES IDX 55 34 69 36 90 37 57 38 41 39 42 40 50 41 43 42 45 43 51 44
REMARK SMILES IDX 44 45 46 46 47 47 48 48 49 49 73 50 74 51 82 52 75 53 77 54
REMARK SMILES IDX 83 55 76 56 78 57 79 58 80 59 81 60 58 61 59 62 67 63 60 64
REMARK SMILES IDX 62 65 68 66 61 67 63 68 64 69 65 70 66 71 7 72 8 73 9 74
REMARK SMILES IDX 10 75 11 76 12 77 13 78 23 79 21 80 22 81 14 82 15 83 20 84
REMARK SMILES IDX 16 85 19 86 17 87 18 88 24 89 25 90 26 91 27 92 31 93 28 94
REMARK SMILES IDX 30 95 29 96
REMARK H PARENT 88 24 56 35
REMARK Flexibility Score: inf
ROOT
ATOM      1  O   UNL A   1      37.468  21.405  25.773  1.00  0.00    -0.374 OA
ENDROOT
BRANCH   1   2
ATOM      2  C   UNL A   1      37.928  20.397  24.892  1.00  0.00     0.202 C 
BRANCH   2   3
ATOM      3  C   UNL A   1      38.744  19.299  25.569  1.00  0.00     0.261 C 
BRANCH   3   4
ATOM      4  O   UNL A   1      40.110  19.714  25.763  1.00  0.00    -0.460 OA
BRANCH   4   5
ATOM      5  C   UNL A   1      40.637  20.084  26.962  1.00  0.00     0.338 C 
ATOM      6  O   UNL A   1      40.816  19.260  27.851  1.00  0.00    -0.246 OA
BRANCH   5   7
ATOM      7  C   UNL A   1      41.011  21.501  27.182  1.00  0.00     0.060 A 
ATOM      8  C   UNL A   1      40.548  22.505  26.333  1.00  0.00     0.016 A 
ATOM      9  C   UNL A   1      41.807  21.843  28.275  1.00  0.00     0.016 A 
ATOM     10  C   UNL A   1      41.003  23.806  26.455  1.00  0.00     0.010 A 
ATOM     11  C   UNL A   1      42.160  23.183  28.479  1.00  0.00     0.010 A 
ATOM     12  C   UNL A   1      41.777  24.171  27.555  1.00  0.00    -0.014 A 
BRANCH  12  13
ATOM     13  C   UNL A   1      42.160  25.592  27.727  1.00  0.00     0.031 A 
ATOM     14  C   UNL A   1      43.488  26.066  27.221  1.00  0.00     0.074 A 
ATOM     15  C   UNL A   1      41.298  26.448  28.313  1.00  0.00     0.049 A 
ATOM     16  N   UNL A   1      44.096  27.198  27.446  1.00  0.00    -0.248 NA
ATOM     17  C   UNL A   1      44.241  25.138  26.361  1.00  0.00     0.031 C 
ATOM     18  C   UNL A   1      39.954  26.102  28.790  1.00  0.00     0.029 A 
ATOM     19  N   UNL A   1      41.409  27.784  28.600  1.00  0.00    -0.354 N 
ATOM     20  C   UNL A   1      45.341  27.082  26.842  1.00  0.00     0.074 A 
ATOM     21  C   UNL A   1      45.386  25.786  26.203  1.00  0.00     0.031 C 
ATOM     22  C   UNL A   1      39.350  27.203  29.258  1.00  0.00     0.029 A 
ATOM     23  C   UNL A   1      40.296  28.308  29.220  1.00  0.00     0.049 A 
ATOM     24  H   UNL A   1      42.207  28.318  28.383  1.00  0.00     0.167 HD
ATOM     25  C   UNL A   1      46.354  27.979  26.838  1.00  0.00     0.034 A 
ATOM     26  C   UNL A   1      40.083  29.531  29.743  1.00  0.00     0.034 A 
ATOM     27  C   UNL A   1      46.255  29.285  27.428  1.00  0.00     0.049 A 
ATOM     28  C   UNL A   1      41.214  30.519  29.695  1.00  0.00     0.074 A 
ATOM     29  C   UNL A   1      47.220  30.269  27.524  1.00  0.00     0.029 A 
ATOM     30  N   UNL A   1      45.099  29.797  28.004  1.00  0.00    -0.354 N 
ATOM     31  N   UNL A   1      42.400  30.385  29.150  1.00  0.00    -0.248 NA
ATOM     32  C   UNL A   1      40.989  31.819  30.339  1.00  0.00     0.031 C 
ATOM     33  C   UNL A   1      46.645  31.378  28.156  1.00  0.00     0.029 A 
ATOM     34  C   UNL A   1      45.320  31.086  28.447  1.00  0.00     0.049 A 
ATOM     35  H   UNL A   1      44.247  29.310  28.086  1.00  0.00     0.167 HD
ATOM     36  C   UNL A   1      43.064  31.580  29.385  1.00  0.00     0.074 A 
ATOM     37  C   UNL A   1      42.130  32.443  30.085  1.00  0.00     0.031 C 
ATOM     38  C   UNL A   1      44.341  31.926  29.089  1.00  0.00     0.034 A 
BRANCH  25  39
ATOM     39  C   UNL A   1      47.643  27.554  26.193  1.00  0.00     0.023 A 
ATOM     40  C   UNL A   1      47.886  27.856  24.839  1.00  0.00     0.012 A 
ATOM     41  C   UNL A   1      48.609  26.834  26.926  1.00  0.00     0.148 A 
ATOM     42  C   UNL A   1      49.053  27.418  24.213  1.00  0.00     0.002 A 
ATOM     43  C   UNL A   1      49.784  26.427  26.303  1.00  0.00     0.091 A 
ATOM     44  F   UNL A   1      48.346  26.532  28.205  1.00  0.00    -0.205 F 
ATOM     45  C   UNL A   1      50.003  26.709  24.945  1.00  0.00     0.022 A 
BRANCH  43  46
ATOM     46  S   UNL A   1      51.081  25.539  27.172  1.00  0.00     0.127 S 
ATOM     47  O   UNL A   1      50.348  24.391  27.703  1.00  0.00    -0.237 OA
ATOM     48  O   UNL A   1      52.015  25.220  26.092  1.00  0.00    -0.237 OA
ATOM     49  O   UNL A   1      51.602  26.465  28.168  1.00  0.00    -0.744 OA
ENDBRANCH  43  46
ENDBRANCH  25  39
BRANCH  26  50
ATOM     50  C   UNL A   1      38.761  29.874  30.345  1.00  0.00     0.023 A 
ATOM     51  C   UNL A   1      38.468  29.453  31.656  1.00  0.00     0.012 A 
ATOM     52  C   UNL A   1      37.811  30.658  29.658  1.00  0.00     0.148 A 
ATOM     53  C   UNL A   1      37.257  29.792  32.263  1.00  0.00     0.002 A 
ATOM     54  C   UNL A   1      36.636  31.049  30.292  1.00  0.00     0.091 A 
ATOM     55  F   UNL A   1      38.080  31.030  28.396  1.00  0.00    -0.205 F 
ATOM     56  C   UNL A   1      36.349  30.603  31.588  1.00  0.00     0.022 A 
BRANCH  54  57
ATOM     57  S   UNL A   1      35.514  32.232  29.536  1.00  0.00     0.127 S 
ATOM     58  O   UNL A   1      36.388  33.379  29.311  1.00  0.00    -0.237 OA
ATOM     59  O   UNL A   1      35.089  31.534  28.321  1.00  0.00    -0.237 OA
ATOM     60  O   UNL A   1      34.447  32.412  30.514  1.00  0.00    -0.744 OA
ENDBRANCH  54  57
ENDBRANCH  26  50
BRANCH  38  61
ATOM     61  C   UNL A   1      44.791  33.294  29.515  1.00  0.00     0.023 A 
ATOM     62  C   UNL A   1      45.370  33.464  30.787  1.00  0.00     0.012 A 
ATOM     63  C   UNL A   1      44.718  34.383  28.628  1.00  0.00     0.148 A 
ATOM     64  C   UNL A   1      45.856  34.709  31.178  1.00  0.00     0.002 A 
ATOM     65  C   UNL A   1      45.242  35.611  29.010  1.00  0.00     0.091 A 
ATOM     66  F   UNL A   1      44.136  34.202  27.434  1.00  0.00    -0.205 F 
ATOM     67  C   UNL A   1      45.805  35.778  30.286  1.00  0.00     0.022 A 
BRANCH  65  68
ATOM     68  S   UNL A   1      45.294  37.008  27.881  1.00  0.00     0.127 S 
ATOM     69  O   UNL A   1      43.873  37.248  27.639  1.00  0.00    -0.237 OA
ATOM     70  O   UNL A   1      45.959  38.037  28.682  1.00  0.00    -0.237 OA
ATOM     71  O   UNL A   1      46.065  36.554  26.732  1.00  0.00    -0.744 OA
ENDBRANCH  65  68
ENDBRANCH  38  61
ENDBRANCH  12  13
ENDBRANCH   5   7
ENDBRANCH   4   5
ENDBRANCH   3   4
ENDBRANCH   2   3
ENDBRANCH   1   2
BRANCH   1  72
ATOM     72  C   UNL A   1      37.282  22.705  25.215  1.00  0.00     0.202 C 
BRANCH  72  73
ATOM     73  C   UNL A   1      35.799  23.031  25.345  1.00  0.00     0.261 C 
BRANCH  73  74
ATOM     74  O   UNL A   1      35.405  23.796  24.192  1.00  0.00    -0.459 OA
BRANCH  74  75
ATOM     75  C   UNL A   1      34.266  23.399  23.551  1.00  0.00     0.344 C 
ATOM     76  O   UNL A   1      34.101  23.318  22.345  1.00  0.00    -0.246 OA
BRANCH  75  77
ATOM     77  C   UNL A   1      33.236  23.115  24.505  1.00  0.00     0.133 A 
ATOM     78  C   UNL A   1      32.701  21.871  24.922  1.00  0.00     0.128 A 
ATOM     79  C   UNL A   1      32.479  24.059  25.160  1.00  0.00     0.177 A 
ATOM     80  N   UNL A   1      31.770  22.051  25.871  1.00  0.00    -0.079 NA
ATOM     81  O   UNL A   1      31.626  23.424  26.008  1.00  0.00    -0.357 OA
BRANCH  78  82
ATOM     82  C   UNL A   1      33.044  20.546  24.429  1.00  0.00     0.005 A 
ATOM     83  C   UNL A   1      32.234  19.895  23.489  1.00  0.00     0.012 A 
ATOM     84  C   UNL A   1      34.173  19.893  24.940  1.00  0.00     0.012 A 
ATOM     85  C   UNL A   1      32.538  18.588  23.090  1.00  0.00     0.021 A 
ATOM     86  C   UNL A   1      34.478  18.591  24.536  1.00  0.00     0.021 A 
ATOM     87  C   UNL A   1      33.654  17.940  23.620  1.00  0.00     0.041 A 
ATOM     88  Cl  UNL A   1      34.011  16.327  23.143  1.00  0.00    -0.084 Cl
ENDBRANCH  78  82
BRANCH  79  89
ATOM     89  C   UNL A   1      32.377  25.536  25.054  1.00  0.00     0.242 C 
BRANCH  89  90
ATOM     90  O   UNL A   1      31.237  25.826  24.263  1.00  0.00    -0.345 OA
BRANCH  90  91
ATOM     91  C   UNL A   1      31.341  26.758  23.188  1.00  0.00     0.250 C 
ATOM     92  C   UNL A   1      32.458  26.538  22.155  1.00  0.00     0.062 C 
ATOM     93  O   UNL A   1      31.138  28.110  23.595  1.00  0.00    -0.353 OA
ATOM     94  C   UNL A   1      33.657  27.461  22.321  1.00  0.00     0.008 C 
ATOM     95  C   UNL A   1      32.297  28.911  23.775  1.00  0.00     0.163 C 
ATOM     96  C   UNL A   1      33.200  28.886  22.554  1.00  0.00     0.029 C 
ENDBRANCH  90  91
ENDBRANCH  89  90
ENDBRANCH  79  89
ENDBRANCH  75  77
ENDBRANCH  74  75
ENDBRANCH  73  74
ENDBRANCH  72  73
ENDBRANCH   1  72
TORSDOF 21
ENDMDL
MODEL 3
REMARK VINA RESULT:     -11.1      1.970      8.365
REMARK SMILES O=C(OCCOCCOC(=O)c1c(-c2ccc(Cl)cc2)noc1CO[C@@H]1CCCCO1)c1ccc(-c2c3nc(c(-c4cccc(S(=O)(=O)[O-])c4F)c4ccc([nH]4)c(-c4cccc(S(=O)(=O)[O-])c4F)c4nc(c(-c5cccc(S(=O)(=O)[O-])c5F)c5ccc2[nH]5)C=C4)C=C3)cc1
REMARK SMILES IDX 6 1 5 2 4 3 3 4 2 5 1 6 32 7 33 8 94 9 34 10 93 11 35 12
REMARK SMILES IDX 36 13 37 14 87 15 38 16 92 17 86 18 88 19 39 20 91 21 85 22
REMARK SMILES IDX 84 23 40 25 72 26 52 27 71 28 53 29 56 30 70 31 89 32 54 33
REMARK SMILES IDX 55 34 69 36 90 37 57 38 41 39 42 40 50 41 43 42 45 43 51 44
REMARK SMILES IDX 44 45 46 46 47 47 48 48 49 49 73 50 74 51 82 52 75 53 77 54
REMARK SMILES IDX 83 55 76 56 78 57 79 58 80 59 81 60 58 61 59 62 67 63 60 64
REMARK SMILES IDX 62 65 68 66 61 67 63 68 64 69 65 70 66 71 7 72 8 73 9 74
REMARK SMILES IDX 10 75 11 76 12 77 13 78 23 79 21 80 22 81 14 82 15 83 20 84
REMARK SMILES IDX 16 85 19 86 17 87 18 88 24 89 25 90 26 91 27 92 31 93 28 94
REMARK SMILES IDX 30 95 29 96
REMARK H PARENT 88 24 56 35
REMARK Flexibility Score: inf
ROOT
ATOM      1  O   UNL A   1      36.242  20.085  25.090  1.00  0.00    -0.374 OA
ENDROOT
BRANCH   1   2
ATOM      2  C   UNL A   1      37.603  20.130  24.700  1.00  0.00     0.202 C 
BRANCH   2   3
ATOM      3  C   UNL A   1      38.562  20.530  25.817  1.00  0.00     0.261 C 
BRANCH   3   4
ATOM      4  O   UNL A   1      39.671  19.614  25.900  1.00  0.00    -0.460 OA
BRANCH   4   5
ATOM      5  C   UNL A   1      40.845  19.885  26.534  1.00  0.00     0.338 C 
ATOM      6  O   UNL A   1      41.559  18.980  26.948  1.00  0.00    -0.246 OA
BRANCH   5   7
ATOM      7  C   UNL A   1      41.265  21.296  26.706  1.00  0.00     0.060 A 
ATOM      8  C   UNL A   1      41.267  21.895  27.964  1.00  0.00     0.016 A 
ATOM      9  C   UNL A   1      41.702  22.026  25.601  1.00  0.00     0.016 A 
ATOM     10  C   UNL A   1      41.529  23.245  28.110  1.00  0.00     0.010 A 
ATOM     11  C   UNL A   1      42.097  23.359  25.767  1.00  0.00     0.010 A 
ATOM     12  C   UNL A   1      41.991  23.984  27.021  1.00  0.00    -0.014 A 
BRANCH  12  13
ATOM     13  C   UNL A   1      42.374  25.401  27.223  1.00  0.00     0.031 A 
ATOM     14  C   UNL A   1      43.669  25.904  26.662  1.00  0.00     0.074 A 
ATOM     15  C   UNL A   1      41.540  26.229  27.887  1.00  0.00     0.049 A 
ATOM     16  N   UNL A   1      44.281  27.032  26.894  1.00  0.00    -0.248 NA
ATOM     17  C   UNL A   1      44.379  25.013  25.729  1.00  0.00     0.031 C 
ATOM     18  C   UNL A   1      40.228  25.855  28.424  1.00  0.00     0.029 A 
ATOM     19  N   UNL A   1      41.659  27.555  28.215  1.00  0.00    -0.354 N 
ATOM     20  C   UNL A   1      45.491  26.948  26.218  1.00  0.00     0.074 A 
ATOM     21  C   UNL A   1      45.509  25.675  25.531  1.00  0.00     0.031 C 
ATOM     22  C   UNL A   1      39.644  26.934  28.964  1.00  0.00     0.029 A 
ATOM     23  C   UNL A   1      40.580  28.047  28.914  1.00  0.00     0.049 A 
ATOM     24  H   UNL A   1      42.441  28.102  27.974  1.00  0.00     0.167 HD
ATOM     25  C   UNL A   1      46.497  27.852  26.191  1.00  0.00     0.034 A 
ATOM     26  C   UNL A   1      40.389  29.249  29.492  1.00  0.00     0.034 A 
ATOM     27  C   UNL A   1      46.423  29.135  26.832  1.00  0.00     0.049 A 
ATOM     28  C   UNL A   1      41.509  30.247  29.417  1.00  0.00     0.074 A 
ATOM     29  C   UNL A   1      47.387  30.123  26.910  1.00  0.00     0.029 A 
ATOM     30  N   UNL A   1      45.298  29.617  27.489  1.00  0.00    -0.354 N 
ATOM     31  N   UNL A   1      42.664  30.142  28.803  1.00  0.00    -0.248 NA
ATOM     32  C   UNL A   1      41.312  31.521  30.120  1.00  0.00     0.031 C 
ATOM     33  C   UNL A   1      46.841  31.204  27.612  1.00  0.00     0.029 A 
ATOM     34  C   UNL A   1      45.536  30.891  27.965  1.00  0.00     0.049 A 
ATOM     35  H   UNL A   1      44.455  29.120  27.600  1.00  0.00     0.167 HD
ATOM     36  C   UNL A   1      43.333  31.334  29.044  1.00  0.00     0.074 A 
ATOM     37  C   UNL A   1      42.434  32.163  29.825  1.00  0.00     0.031 C 
ATOM     38  C   UNL A   1      44.589  31.700  28.691  1.00  0.00     0.034 A 
BRANCH  25  39
ATOM     39  C   UNL A   1      47.752  27.461  25.460  1.00  0.00     0.023 A 
ATOM     40  C   UNL A   1      48.840  26.917  26.170  1.00  0.00     0.012 A 
ATOM     41  C   UNL A   1      47.861  27.656  24.068  1.00  0.00     0.148 A 
ATOM     42  C   UNL A   1      50.030  26.604  25.513  1.00  0.00     0.002 A 
ATOM     43  C   UNL A   1      49.040  27.313  23.415  1.00  0.00     0.091 A 
ATOM     44  F   UNL A   1      46.825  28.201  23.416  1.00  0.00    -0.205 F 
ATOM     45  C   UNL A   1      50.128  26.797  24.137  1.00  0.00     0.022 A 
BRANCH  43  46
ATOM     46  S   UNL A   1      49.249  27.492  21.640  1.00  0.00     0.127 S 
ATOM     47  O   UNL A   1      49.128  28.940  21.474  1.00  0.00    -0.237 OA
ATOM     48  O   UNL A   1      50.598  26.964  21.433  1.00  0.00    -0.237 OA
ATOM     49  O   UNL A   1      48.190  26.701  21.030  1.00  0.00    -0.744 OA
ENDBRANCH  43  46
ENDBRANCH  25  39
BRANCH  26  50
ATOM     50  C   UNL A   1      39.099  29.560  30.178  1.00  0.00     0.023 A 
ATOM     51  C   UNL A   1      38.911  29.153  31.513  1.00  0.00     0.012 A 
ATOM     52  C   UNL A   1      38.080  30.300  29.546  1.00  0.00     0.148 A 
ATOM     53  C   UNL A   1      37.734  29.462  32.196  1.00  0.00     0.002 A 
ATOM     54  C   UNL A   1      36.938  30.664  30.253  1.00  0.00     0.091 A 
ATOM     55  F   UNL A   1      38.249  30.658  28.264  1.00  0.00    -0.205 F 
ATOM     56  C   UNL A   1      36.755  30.232  31.573  1.00  0.00     0.022 A 
BRANCH  54  57
ATOM     57  S   UNL A   1      35.728  31.797  29.558  1.00  0.00     0.127 S 
ATOM     58  O   UNL A   1      34.889  32.092  30.715  1.00  0.00    -0.237 OA
ATOM     59  O   UNL A   1      36.562  32.910  29.101  1.00  0.00    -0.237 OA
ATOM     60  O   UNL A   1      35.098  31.051  28.475  1.00  0.00    -0.744 OA
ENDBRANCH  54  57
ENDBRANCH  26  50
BRANCH  38  61
ATOM     61  C   UNL A   1      45.054  33.056  29.140  1.00  0.00     0.023 A 
ATOM     62  C   UNL A   1      45.754  33.176  30.355  1.00  0.00     0.012 A 
ATOM     63  C   UNL A   1      44.873  34.185  28.322  1.00  0.00     0.148 A 
ATOM     64  C   UNL A   1      46.253  34.411  30.761  1.00  0.00     0.002 A 
ATOM     65  C   UNL A   1      45.409  35.405  28.713  1.00  0.00     0.091 A 
ATOM     66  F   UNL A   1      44.177  34.049  27.184  1.00  0.00    -0.205 F 
ATOM     67  C   UNL A   1      46.094  35.522  29.934  1.00  0.00     0.022 A 
BRANCH  65  68
ATOM     68  S   UNL A   1      45.321  36.856  27.659  1.00  0.00     0.127 S 
ATOM     69  O   UNL A   1      43.880  37.082  27.581  1.00  0.00    -0.237 OA
ATOM     70  O   UNL A   1      46.054  37.857  28.438  1.00  0.00    -0.237 OA
ATOM     71  O   UNL A   1      45.971  36.475  26.413  1.00  0.00    -0.744 OA
ENDBRANCH  65  68
ENDBRANCH  38  61
ENDBRANCH  12  13
ENDBRANCH   5   7
ENDBRANCH   4   5
ENDBRANCH   3   4
ENDBRANCH   2   3
ENDBRANCH   1   2
BRANCH   1  72
ATOM     72  C   UNL A   1      35.694  21.284  25.636  1.00  0.00     0.202 C 
BRANCH  72  73
ATOM     73  C   UNL A   1      34.344  20.917  26.238  1.00  0.00     0.261 C 
BRANCH  73  74
ATOM     74  O   UNL A   1      33.509  22.088  26.216  1.00  0.00    -0.459 OA
BRANCH  74  75
ATOM     75  C   UNL A   1      32.374  22.019  25.459  1.00  0.00     0.344 C 
ATOM     76  O   UNL A   1      31.327  21.474  25.767  1.00  0.00    -0.246 OA
BRANCH  75  77
ATOM     77  C   UNL A   1      32.584  22.658  24.195  1.00  0.00     0.133 A 
ATOM     78  C   UNL A   1      32.785  24.027  23.891  1.00  0.00     0.128 A 
ATOM     79  C   UNL A   1      32.537  22.030  22.972  1.00  0.00     0.177 A 
ATOM     80  N   UNL A   1      32.982  24.194  22.574  1.00  0.00    -0.079 NA
ATOM     81  O   UNL A   1      32.814  22.942  22.001  1.00  0.00    -0.357 OA
BRANCH  78  82
ATOM     82  C   UNL A   1      32.776  25.153  24.811  1.00  0.00     0.005 A 
ATOM     83  C   UNL A   1      31.686  25.381  25.661  1.00  0.00     0.012 A 
ATOM     84  C   UNL A   1      33.852  26.050  24.810  1.00  0.00     0.012 A 
ATOM     85  C   UNL A   1      31.662  26.516  26.479  1.00  0.00     0.021 A 
ATOM     86  C   UNL A   1      33.829  27.180  25.633  1.00  0.00     0.021 A 
ATOM     87  C   UNL A   1      32.731  27.413  26.457  1.00  0.00     0.041 A 
ATOM     88  Cl  UNL A   1      32.688  28.817  27.449  1.00  0.00    -0.084 Cl
ENDBRANCH  78  82
BRANCH  79  89
ATOM     89  C   UNL A   1      32.182  20.653  22.546  1.00  0.00     0.242 C 
BRANCH  89  90
ATOM     90  O   UNL A   1      32.902  19.755  23.372  1.00  0.00    -0.345 OA
BRANCH  90  91
ATOM     91  C   UNL A   1      32.422  18.425  23.557  1.00  0.00     0.250 C 
ATOM     92  C   UNL A   1      32.218  17.931  24.999  1.00  0.00     0.062 C 
ATOM     93  O   UNL A   1      33.014  17.484  22.663  1.00  0.00    -0.353 OA
ATOM     94  C   UNL A   1      33.313  17.000  25.502  1.00  0.00     0.008 C 
ATOM     95  C   UNL A   1      34.058  16.673  23.178  1.00  0.00     0.163 C 
ATOM     96  C   UNL A   1      33.646  15.960  24.454  1.00  0.00     0.029 C 
ENDBRANCH  90  91
ENDBRANCH  89  90
ENDBRANCH  79  89
ENDBRANCH  75  77
ENDBRANCH  74  75
ENDBRANCH  73  74
ENDBRANCH  72  73
ENDBRANCH   1  72
TORSDOF 21
ENDMDL
