MODEL 1
REMARK VINA RESULT:      -9.8      0.000      0.000
REMARK SMILES Cc1ccc(N2CCC[C@@H](Cn3cc(C(=O)OCCOCCOC(=O)c4ccc(-c5c6nc(c(-c7cccc(S(=O)(=O)[O-])c7F)c7ccc([nH]7)c(-c7cccc(S(=O)(=O)[O-])c7F)c7nc(c(-c8cccc(S(=O)(=O)[O-])c8F)c8ccc5[nH]8)C=C7)C=C6)cc4)nn3)C2)nn1
REMARK SMILES IDX 20 1 19 2 18 3 17 4 15 5 16 6 14 7 12 8 13 9 90 10 89 11
REMARK SMILES IDX 11 12 10 13 6 14 7 15 91 16 8 17 9 18 5 19 1 20 2 21 3 22
REMARK SMILES IDX 93 23 4 24 92 25 21 26 22 27 23 28 24 29 25 30 26 31 27 32
REMARK SMILES IDX 88 33 28 34 87 35 29 36 30 37 31 38 81 39 32 40 86 41 80 42
REMARK SMILES IDX 82 43 33 44 85 45 79 46 78 47 34 49 66 50 46 51 65 52 47 53
REMARK SMILES IDX 50 54 64 55 83 56 48 57 49 58 63 60 84 61 51 62 35 63 36 64
REMARK SMILES IDX 44 65 37 66 39 67 45 68 38 69 40 70 41 71 42 72 43 73 67 74
REMARK SMILES IDX 68 75 76 76 69 77 71 78 77 79 70 80 72 81 73 82 74 83 75 84
REMARK SMILES IDX 52 85 53 86 61 87 54 88 56 89 62 90 55 91 57 92 58 93 59 94
REMARK SMILES IDX 60 95
REMARK H PARENT 82 48 50 59
REMARK Flexibility Score: inf
ROOT
ATOM      1  O   UNL A   1      34.038  34.194  28.825  1.00  0.00    -0.374 OA
ENDROOT
BRANCH   1   2
ATOM      2  C   UNL A   1      33.528  35.497  28.543  1.00  0.00     0.202 C 
BRANCH   2   3
ATOM      3  C   UNL A   1      32.908  36.300  29.685  1.00  0.00     0.261 C 
BRANCH   3   4
ATOM      4  O   UNL A   1      32.564  35.455  30.790  1.00  0.00    -0.458 OA
BRANCH   4   5
ATOM      5  C   UNL A   1      32.859  35.971  32.022  1.00  0.00     0.360 C 
ATOM      6  O   UNL A   1      32.147  36.747  32.638  1.00  0.00    -0.244 OA
BRANCH   5   7
ATOM      7  C   UNL A   1      34.092  35.420  32.558  1.00  0.00     0.190 A 
ATOM      8  N   UNL A   1      36.043  34.551  32.790  1.00  0.00    -0.251 N 
ATOM      9  C   UNL A   1      34.928  34.467  32.008  1.00  0.00     0.146 A 
ATOM     10  N   UNL A   1      35.786  35.224  33.926  1.00  0.00    -0.067 NA
ATOM     11  N   UNL A   1      34.610  35.814  33.768  1.00  0.00    -0.123 NA
BRANCH   8  12
ATOM     12  C   UNL A   1      37.418  34.380  32.363  1.00  0.00     0.151 C 
BRANCH  12  13
ATOM     13  C   UNL A   1      38.107  33.154  33.005  1.00  0.00     0.030 C 
ATOM     14  N   UNL A   1      39.399  32.302  34.857  1.00  0.00    -0.355 N 
ATOM     15  C   UNL A   1      38.472  31.254  35.232  1.00  0.00     0.118 C 
ATOM     16  C   UNL A   1      38.844  33.523  34.312  1.00  0.00     0.123 C 
ATOM     17  C   UNL A   1      37.791  30.778  33.956  1.00  0.00     0.022 C 
ATOM     18  C   UNL A   1      37.146  31.952  33.212  1.00  0.00     0.009 C 
BRANCH  14  19
ATOM     19  C   UNL A   1      40.701  32.286  35.296  1.00  0.00     0.151 A 
ATOM     20  C   UNL A   1      44.764  32.105  36.465  1.00  0.00     0.069 C 
ATOM     21  C   UNL A   1      43.325  32.135  36.068  1.00  0.00     0.060 A 
ATOM     22  C   UNL A   1      42.417  31.255  36.627  1.00  0.00     0.029 A 
ATOM     23  N   UNL A   1      42.934  33.062  35.171  1.00  0.00    -0.154 NA
ATOM     24  C   UNL A   1      41.087  31.345  36.241  1.00  0.00     0.051 A 
ATOM     25  N   UNL A   1      41.620  33.116  34.766  1.00  0.00    -0.133 NA
ENDBRANCH  14  19
ENDBRANCH  12  13
ENDBRANCH   8  12
ENDBRANCH   5   7
ENDBRANCH   4   5
ENDBRANCH   3   4
ENDBRANCH   2   3
ENDBRANCH   1   2
BRANCH   1  26
ATOM     26  C   UNL A   1      33.453  33.030  28.247  1.00  0.00     0.202 C 
BRANCH  26  27
ATOM     27  C   UNL A   1      34.341  31.912  27.718  1.00  0.00     0.261 C 
BRANCH  27  28
ATOM     28  O   UNL A   1      35.195  31.374  28.711  1.00  0.00    -0.460 OA
BRANCH  28  29
ATOM     29  C   UNL A   1      36.425  31.937  28.679  1.00  0.00     0.338 C 
ATOM     30  O   UNL A   1      36.827  32.783  27.896  1.00  0.00    -0.246 OA
BRANCH  29  31
ATOM     31  C   UNL A   1      37.288  31.268  29.648  1.00  0.00     0.060 A 
ATOM     32  C   UNL A   1      38.545  31.851  29.810  1.00  0.00     0.016 A 
ATOM     33  C   UNL A   1      37.022  29.929  29.965  1.00  0.00     0.016 A 
ATOM     34  C   UNL A   1      39.608  31.009  29.990  1.00  0.00     0.010 A 
ATOM     35  C   UNL A   1      38.089  29.086  30.129  1.00  0.00     0.010 A 
ATOM     36  C   UNL A   1      39.366  29.630  30.036  1.00  0.00    -0.014 A 
BRANCH  36  37
ATOM     37  C   UNL A   1      40.511  28.766  30.159  1.00  0.00     0.031 A 
ATOM     38  C   UNL A   1      41.001  28.785  31.551  1.00  0.00     0.074 A 
ATOM     39  C   UNL A   1      41.008  28.051  29.133  1.00  0.00     0.049 A 
ATOM     40  N   UNL A   1      41.986  29.484  32.007  1.00  0.00    -0.248 NA
ATOM     41  C   UNL A   1      40.139  28.206  32.594  1.00  0.00     0.031 C 
ATOM     42  C   UNL A   1      40.399  27.806  27.821  1.00  0.00     0.029 A 
ATOM     43  N   UNL A   1      42.134  27.293  29.091  1.00  0.00    -0.354 N 
ATOM     44  C   UNL A   1      42.044  29.154  33.354  1.00  0.00     0.074 A 
ATOM     45  C   UNL A   1      40.758  28.614  33.702  1.00  0.00     0.031 C 
ATOM     46  C   UNL A   1      41.033  26.768  27.225  1.00  0.00     0.029 A 
ATOM     47  C   UNL A   1      42.172  26.382  28.039  1.00  0.00     0.049 A 
ATOM     48  H   UNL A   1      42.860  27.379  29.750  1.00  0.00     0.167 HD
ATOM     49  C   UNL A   1      43.251  28.964  33.948  1.00  0.00     0.034 A 
ATOM     50  C   UNL A   1      43.054  25.356  27.922  1.00  0.00     0.034 A 
ATOM     51  C   UNL A   1      44.316  29.503  33.145  1.00  0.00     0.049 A 
ATOM     52  C   UNL A   1      44.236  25.736  28.729  1.00  0.00     0.074 A 
ATOM     53  C   UNL A   1      44.764  30.756  32.788  1.00  0.00     0.029 A 
ATOM     54  N   UNL A   1      44.789  28.612  32.217  1.00  0.00    -0.354 N 
ATOM     55  N   UNL A   1      45.004  26.750  28.441  1.00  0.00    -0.248 NA
ATOM     56  C   UNL A   1      44.380  25.197  30.076  1.00  0.00     0.031 C 
ATOM     57  C   UNL A   1      45.372  30.605  31.506  1.00  0.00     0.029 A 
ATOM     58  C   UNL A   1      45.323  29.261  31.140  1.00  0.00     0.049 A 
ATOM     59  H   UNL A   1      44.749  27.633  32.315  1.00  0.00     0.167 HD
ATOM     60  C   UNL A   1      45.369  27.247  29.679  1.00  0.00     0.074 A 
ATOM     61  C   UNL A   1      45.125  26.163  30.621  1.00  0.00     0.031 C 
ATOM     62  C   UNL A   1      45.512  28.586  29.875  1.00  0.00     0.034 A 
BRANCH  49  63
ATOM     63  C   UNL A   1      43.515  27.849  34.932  1.00  0.00     0.023 A 
ATOM     64  C   UNL A   1      44.045  28.194  36.190  1.00  0.00     0.012 A 
ATOM     65  C   UNL A   1      43.535  26.477  34.583  1.00  0.00     0.148 A 
ATOM     66  C   UNL A   1      44.551  27.220  37.060  1.00  0.00     0.002 A 
ATOM     67  C   UNL A   1      43.950  25.506  35.482  1.00  0.00     0.091 A 
ATOM     68  F   UNL A   1      43.306  26.106  33.320  1.00  0.00    -0.205 F 
ATOM     69  C   UNL A   1      44.479  25.873  36.717  1.00  0.00     0.022 A 
BRANCH  67  70
ATOM     70  S   UNL A   1      43.847  23.758  35.079  1.00  0.00     0.127 S 
ATOM     71  O   UNL A   1      44.523  23.156  36.225  1.00  0.00    -0.237 OA
ATOM     72  O   UNL A   1      42.400  23.550  35.029  1.00  0.00    -0.237 OA
ATOM     73  O   UNL A   1      44.513  23.617  33.791  1.00  0.00    -0.744 OA
ENDBRANCH  67  70
ENDBRANCH  49  63
BRANCH  50  74
ATOM     74  C   UNL A   1      42.874  23.956  27.451  1.00  0.00     0.023 A 
ATOM     75  C   UNL A   1      41.580  23.389  27.503  1.00  0.00     0.012 A 
ATOM     76  C   UNL A   1      43.840  23.319  26.645  1.00  0.00     0.148 A 
ATOM     77  C   UNL A   1      41.230  22.297  26.701  1.00  0.00     0.002 A 
ATOM     78  C   UNL A   1      43.489  22.226  25.853  1.00  0.00     0.091 A 
ATOM     79  F   UNL A   1      45.073  23.838  26.576  1.00  0.00    -0.205 F 
ATOM     80  C   UNL A   1      42.178  21.729  25.859  1.00  0.00     0.022 A 
BRANCH  78  81
ATOM     81  S   UNL A   1      44.657  21.441  24.733  1.00  0.00     0.127 S 
ATOM     82  O   UNL A   1      44.143  20.072  24.667  1.00  0.00    -0.237 OA
ATOM     83  O   UNL A   1      44.478  22.220  23.512  1.00  0.00    -0.237 OA
ATOM     84  O   UNL A   1      45.961  21.559  25.375  1.00  0.00    -0.744 OA
ENDBRANCH  78  81
ENDBRANCH  50  74
BRANCH  62  85
ATOM     85  C   UNL A   1      45.745  29.446  28.670  1.00  0.00     0.023 A 
ATOM     86  C   UNL A   1      44.703  29.991  27.894  1.00  0.00     0.012 A 
ATOM     87  C   UNL A   1      47.071  29.828  28.417  1.00  0.00     0.148 A 
ATOM     88  C   UNL A   1      44.990  30.915  26.884  1.00  0.00     0.002 A 
ATOM     89  C   UNL A   1      47.347  30.771  27.441  1.00  0.00     0.091 A 
ATOM     90  F   UNL A   1      48.035  29.286  29.176  1.00  0.00    -0.205 F 
ATOM     91  C   UNL A   1      46.310  31.317  26.668  1.00  0.00     0.022 A 
BRANCH  89  92
ATOM     92  S   UNL A   1      49.006  31.398  27.188  1.00  0.00     0.127 S 
ATOM     93  O   UNL A   1      48.772  32.530  26.294  1.00  0.00    -0.237 OA
ATOM     94  O   UNL A   1      49.407  31.762  28.548  1.00  0.00    -0.237 OA
ATOM     95  O   UNL A   1      49.774  30.301  26.610  1.00  0.00    -0.744 OA
ENDBRANCH  89  92
ENDBRANCH  62  85
ENDBRANCH  36  37
ENDBRANCH  29  31
ENDBRANCH  28  29
ENDBRANCH  27  28
ENDBRANCH  26  27
ENDBRANCH   1  26
TORSDOF 20
ENDMDL
MODEL 2
REMARK VINA RESULT:      -9.5      3.760      9.142
REMARK SMILES Cc1ccc(N2CCC[C@@H](Cn3cc(C(=O)OCCOCCOC(=O)c4ccc(-c5c6nc(c(-c7cccc(S(=O)(=O)[O-])c7F)c7ccc([nH]7)c(-c7cccc(S(=O)(=O)[O-])c7F)c7nc(c(-c8cccc(S(=O)(=O)[O-])c8F)c8ccc5[nH]8)C=C7)C=C6)cc4)nn3)C2)nn1
REMARK SMILES IDX 20 1 19 2 18 3 17 4 15 5 16 6 14 7 12 8 13 9 90 10 89 11
REMARK SMILES IDX 11 12 10 13 6 14 7 15 91 16 8 17 9 18 5 19 1 20 2 21 3 22
REMARK SMILES IDX 93 23 4 24 92 25 21 26 22 27 23 28 24 29 25 30 26 31 27 32
REMARK SMILES IDX 88 33 28 34 87 35 29 36 30 37 31 38 81 39 32 40 86 41 80 42
REMARK SMILES IDX 82 43 33 44 85 45 79 46 78 47 34 49 66 50 46 51 65 52 47 53
REMARK SMILES IDX 50 54 64 55 83 56 48 57 49 58 63 60 84 61 51 62 35 63 36 64
REMARK SMILES IDX 44 65 37 66 39 67 45 68 38 69 40 70 41 71 42 72 43 73 67 74
REMARK SMILES IDX 68 75 76 76 69 77 71 78 77 79 70 80 72 81 73 82 74 83 75 84
REMARK SMILES IDX 52 85 53 86 61 87 54 88 56 89 62 90 55 91 57 92 58 93 59 94
REMARK SMILES IDX 60 95
REMARK H PARENT 82 48 50 59
REMARK Flexibility Score: inf
ROOT
ATOM      1  O   UNL A   1      34.390  32.740  31.743  1.00  0.00    -0.374 OA
ENDROOT
BRANCH   1   2
ATOM      2  C   UNL A   1      34.377  34.165  31.830  1.00  0.00     0.202 C 
BRANCH   2   3
ATOM      3  C   UNL A   1      34.009  34.967  30.583  1.00  0.00     0.261 C 
BRANCH   3   4
ATOM      4  O   UNL A   1      33.229  34.186  29.670  1.00  0.00    -0.458 OA
BRANCH   4   5
ATOM      5  C   UNL A   1      33.825  33.948  28.462  1.00  0.00     0.360 C 
ATOM      6  O   UNL A   1      34.881  34.439  28.100  1.00  0.00    -0.244 OA
BRANCH   5   7
ATOM      7  C   UNL A   1      33.089  32.968  27.680  1.00  0.00     0.190 A 
ATOM      8  N   UNL A   1      32.305  31.150  26.847  1.00  0.00    -0.251 N 
ATOM      9  C   UNL A   1      33.469  31.693  27.306  1.00  0.00     0.146 A 
ATOM     10  N   UNL A   1      31.384  32.103  26.620  1.00  0.00    -0.067 NA
ATOM     11  N   UNL A   1      31.831  33.215  27.184  1.00  0.00    -0.123 NA
BRANCH   8  12
ATOM     12  C   UNL A   1      31.878  29.771  26.980  1.00  0.00     0.151 C 
BRANCH  12  13
ATOM     13  C   UNL A   1      32.116  28.933  25.702  1.00  0.00     0.030 C 
ATOM     14  N   UNL A   1      32.360  26.731  24.745  1.00  0.00    -0.355 N 
ATOM     15  C   UNL A   1      31.298  26.860  23.769  1.00  0.00     0.118 C 
ATOM     16  C   UNL A   1      32.197  27.421  26.008  1.00  0.00     0.123 C 
ATOM     17  C   UNL A   1      31.246  28.324  23.352  1.00  0.00     0.022 C 
ATOM     18  C   UNL A   1      31.090  29.234  24.575  1.00  0.00     0.009 C 
BRANCH  14  19
ATOM     19  C   UNL A   1      33.314  25.749  24.628  1.00  0.00     0.151 A 
ATOM     20  C   UNL A   1      36.402  22.886  24.208  1.00  0.00     0.069 C 
ATOM     21  C   UNL A   1      35.307  23.896  24.319  1.00  0.00     0.060 A 
ATOM     22  C   UNL A   1      34.436  24.115  23.269  1.00  0.00     0.029 A 
ATOM     23  N   UNL A   1      35.178  24.566  25.481  1.00  0.00    -0.154 NA
ATOM     24  C   UNL A   1      33.420  25.045  23.436  1.00  0.00     0.051 A 
ATOM     25  N   UNL A   1      34.192  25.515  25.623  1.00  0.00    -0.133 NA
ENDBRANCH  14  19
ENDBRANCH  12  13
ENDBRANCH   8  12
ENDBRANCH   5   7
ENDBRANCH   4   5
ENDBRANCH   3   4
ENDBRANCH   2   3
ENDBRANCH   1   2
BRANCH   1  26
ATOM     26  C   UNL A   1      35.585  31.997  31.969  1.00  0.00     0.202 C 
BRANCH  26  27
ATOM     27  C   UNL A   1      36.591  31.808  30.843  1.00  0.00     0.261 C 
BRANCH  27  28
ATOM     28  O   UNL A   1      37.092  30.485  30.772  1.00  0.00    -0.460 OA
BRANCH  28  29
ATOM     29  C   UNL A   1      36.687  29.852  29.648  1.00  0.00     0.338 C 
ATOM     30  O   UNL A   1      35.575  29.884  29.145  1.00  0.00    -0.246 OA
BRANCH  29  31
ATOM     31  C   UNL A   1      37.753  28.972  29.178  1.00  0.00     0.060 A 
ATOM     32  C   UNL A   1      38.258  28.100  30.143  1.00  0.00     0.016 A 
ATOM     33  C   UNL A   1      38.477  29.351  28.039  1.00  0.00     0.016 A 
ATOM     34  C   UNL A   1      39.605  27.860  30.127  1.00  0.00     0.010 A 
ATOM     35  C   UNL A   1      39.827  29.122  28.034  1.00  0.00     0.010 A 
ATOM     36  C   UNL A   1      40.379  28.468  29.131  1.00  0.00    -0.014 A 
BRANCH  36  37
ATOM     37  C   UNL A   1      41.802  28.249  29.180  1.00  0.00     0.031 A 
ATOM     38  C   UNL A   1      42.162  27.124  28.296  1.00  0.00     0.074 A 
ATOM     39  C   UNL A   1      42.636  29.002  29.919  1.00  0.00     0.049 A 
ATOM     40  N   UNL A   1      42.370  25.902  28.658  1.00  0.00    -0.248 NA
ATOM     41  C   UNL A   1      41.988  27.302  26.846  1.00  0.00     0.031 C 
ATOM     42  C   UNL A   1      42.354  30.274  30.594  1.00  0.00     0.029 A 
ATOM     43  N   UNL A   1      43.967  28.834  30.135  1.00  0.00    -0.354 N 
ATOM     44  C   UNL A   1      42.673  25.242  27.474  1.00  0.00     0.074 A 
ATOM     45  C   UNL A   1      42.157  26.054  26.406  1.00  0.00     0.031 C 
ATOM     46  C   UNL A   1      43.525  30.874  30.916  1.00  0.00     0.029 A 
ATOM     47  C   UNL A   1      44.618  29.968  30.612  1.00  0.00     0.049 A 
ATOM     48  H   UNL A   1      44.431  27.982  29.967  1.00  0.00     0.167 HD
ATOM     49  C   UNL A   1      43.671  24.320  27.456  1.00  0.00     0.034 A 
ATOM     50  C   UNL A   1      45.965  30.134  30.668  1.00  0.00     0.034 A 
ATOM     51  C   UNL A   1      44.022  23.908  28.788  1.00  0.00     0.049 A 
ATOM     52  C   UNL A   1      46.545  28.772  30.705  1.00  0.00     0.074 A 
ATOM     53  C   UNL A   1      43.441  23.160  29.789  1.00  0.00     0.029 A 
ATOM     54  N   UNL A   1      44.968  24.715  29.366  1.00  0.00    -0.354 N 
ATOM     55  N   UNL A   1      46.360  27.941  31.693  1.00  0.00    -0.248 NA
ATOM     56  C   UNL A   1      47.057  28.183  29.473  1.00  0.00     0.031 C 
ATOM     57  C   UNL A   1      43.950  23.684  31.015  1.00  0.00     0.029 A 
ATOM     58  C   UNL A   1      44.861  24.699  30.727  1.00  0.00     0.049 A 
ATOM     59  H   UNL A   1      45.636  25.235  28.864  1.00  0.00     0.167 HD
ATOM     60  C   UNL A   1      46.291  26.706  31.075  1.00  0.00     0.074 A 
ATOM     61  C   UNL A   1      46.909  26.889  29.768  1.00  0.00     0.031 C 
ATOM     62  C   UNL A   1      45.447  25.744  31.538  1.00  0.00     0.034 A 
BRANCH  49  63
ATOM     63  C   UNL A   1      44.668  24.214  26.327  1.00  0.00     0.023 A 
ATOM     64  C   UNL A   1      44.951  22.932  25.817  1.00  0.00     0.012 A 
ATOM     65  C   UNL A   1      45.538  25.263  25.941  1.00  0.00     0.148 A 
ATOM     66  C   UNL A   1      46.032  22.712  24.956  1.00  0.00     0.002 A 
ATOM     67  C   UNL A   1      46.551  25.061  25.015  1.00  0.00     0.091 A 
ATOM     68  F   UNL A   1      45.502  26.432  26.586  1.00  0.00    -0.205 F 
ATOM     69  C   UNL A   1      46.817  23.781  24.533  1.00  0.00     0.022 A 
BRANCH  67  70
ATOM     70  S   UNL A   1      47.566  26.424  24.432  1.00  0.00     0.127 S 
ATOM     71  O   UNL A   1      48.350  26.732  25.623  1.00  0.00    -0.237 OA
ATOM     72  O   UNL A   1      48.311  25.792  23.342  1.00  0.00    -0.237 OA
ATOM     73  O   UNL A   1      46.626  27.448  23.994  1.00  0.00    -0.744 OA
ENDBRANCH  67  70
ENDBRANCH  49  63
BRANCH  50  74
ATOM     74  C   UNL A   1      46.821  31.316  30.383  1.00  0.00     0.023 A 
ATOM     75  C   UNL A   1      47.931  31.562  31.224  1.00  0.00     0.012 A 
ATOM     76  C   UNL A   1      46.784  31.971  29.134  1.00  0.00     0.148 A 
ATOM     77  C   UNL A   1      49.012  32.341  30.796  1.00  0.00     0.002 A 
ATOM     78  C   UNL A   1      47.859  32.753  28.715  1.00  0.00     0.091 A 
ATOM     79  F   UNL A   1      45.745  31.752  28.317  1.00  0.00    -0.205 F 
ATOM     80  C   UNL A   1      48.986  32.918  29.532  1.00  0.00     0.022 A 
BRANCH  78  81
ATOM     81  S   UNL A   1      47.904  33.527  27.092  1.00  0.00     0.127 S 
ATOM     82  O   UNL A   1      49.202  34.203  27.113  1.00  0.00    -0.237 OA
ATOM     83  O   UNL A   1      47.832  32.372  26.203  1.00  0.00    -0.237 OA
ATOM     84  O   UNL A   1      46.761  34.430  27.053  1.00  0.00    -0.744 OA
ENDBRANCH  78  81
ENDBRANCH  50  74
BRANCH  62  85
ATOM     85  C   UNL A   1      44.975  25.854  32.956  1.00  0.00     0.023 A 
ATOM     86  C   UNL A   1      45.732  25.416  34.060  1.00  0.00     0.012 A 
ATOM     87  C   UNL A   1      43.785  26.564  33.169  1.00  0.00     0.148 A 
ATOM     88  C   UNL A   1      45.303  25.697  35.361  1.00  0.00     0.002 A 
ATOM     89  C   UNL A   1      43.383  26.874  34.458  1.00  0.00     0.091 A 
ATOM     90  F   UNL A   1      43.091  26.963  32.093  1.00  0.00    -0.205 F 
ATOM     91  C   UNL A   1      44.137  26.440  35.560  1.00  0.00     0.022 A 
BRANCH  89  92
ATOM     92  S   UNL A   1      41.953  27.907  34.770  1.00  0.00     0.127 S 
ATOM     93  O   UNL A   1      41.904  27.928  36.230  1.00  0.00    -0.237 OA
ATOM     94  O   UNL A   1      42.348  29.173  34.150  1.00  0.00    -0.237 OA
ATOM     95  O   UNL A   1      40.824  27.250  34.121  1.00  0.00    -0.744 OA
ENDBRANCH  89  92
ENDBRANCH  62  85
ENDBRANCH  36  37
ENDBRANCH  29  31
ENDBRANCH  28  29
ENDBRANCH  27  28
ENDBRANCH  26  27
ENDBRANCH   1  26
TORSDOF 20
ENDMDL
MODEL 3
REMARK VINA RESULT:      -9.4      3.496      6.432
REMARK SMILES Cc1ccc(N2CCC[C@@H](Cn3cc(C(=O)OCCOCCOC(=O)c4ccc(-c5c6nc(c(-c7cccc(S(=O)(=O)[O-])c7F)c7ccc([nH]7)c(-c7cccc(S(=O)(=O)[O-])c7F)c7nc(c(-c8cccc(S(=O)(=O)[O-])c8F)c8ccc5[nH]8)C=C7)C=C6)cc4)nn3)C2)nn1
REMARK SMILES IDX 20 1 19 2 18 3 17 4 15 5 16 6 14 7 12 8 13 9 90 10 89 11
REMARK SMILES IDX 11 12 10 13 6 14 7 15 91 16 8 17 9 18 5 19 1 20 2 21 3 22
REMARK SMILES IDX 93 23 4 24 92 25 21 26 22 27 23 28 24 29 25 30 26 31 27 32
REMARK SMILES IDX 88 33 28 34 87 35 29 36 30 37 31 38 81 39 32 40 86 41 80 42
REMARK SMILES IDX 82 43 33 44 85 45 79 46 78 47 34 49 66 50 46 51 65 52 47 53
REMARK SMILES IDX 50 54 64 55 83 56 48 57 49 58 63 60 84 61 51 62 35 63 36 64
REMARK SMILES IDX 44 65 37 66 39 67 45 68 38 69 40 70 41 71 42 72 43 73 67 74
REMARK SMILES IDX 68 75 76 76 69 77 71 78 77 79 70 80 72 81 73 82 74 83 75 84
REMARK SMILES IDX 52 85 53 86 61 87 54 88 56 89 62 90 55 91 57 92 58 93 59 94
REMARK SMILES IDX 60 95
REMARK H PARENT 82 48 50 59
REMARK Flexibility Score: inf
ROOT
ATOM      1  O   UNL A   1      33.753  34.971  33.124  1.00  0.00    -0.374 OA
ENDROOT
BRANCH   1   2
ATOM      2  C   UNL A   1      32.837  35.296  32.080  1.00  0.00     0.202 C 
BRANCH   2   3
ATOM      3  C   UNL A   1      33.397  35.679  30.711  1.00  0.00     0.261 C 
BRANCH   3   4
ATOM      4  O   UNL A   1      32.898  34.816  29.683  1.00  0.00    -0.458 OA
BRANCH   4   5
ATOM      5  C   UNL A   1      33.740  34.644  28.618  1.00  0.00     0.360 C 
ATOM      6  O   UNL A   1      34.119  35.538  27.881  1.00  0.00    -0.244 OA
BRANCH   5   7
ATOM      7  C   UNL A   1      34.204  33.270  28.513  1.00  0.00     0.190 A 
ATOM      8  N   UNL A   1      34.487  31.217  27.946  1.00  0.00    -0.251 N 
ATOM      9  C   UNL A   1      33.502  32.143  28.132  1.00  0.00     0.146 A 
ATOM     10  N   UNL A   1      35.641  31.622  28.507  1.00  0.00    -0.067 NA
ATOM     11  N   UNL A   1      35.497  32.905  28.804  1.00  0.00    -0.123 NA
BRANCH   8  12
ATOM     12  C   UNL A   1      34.514  30.166  26.949  1.00  0.00     0.151 C 
BRANCH  12  13
ATOM     13  C   UNL A   1      33.111  29.616  26.604  1.00  0.00     0.030 C 
ATOM     14  N   UNL A   1      31.588  28.907  24.872  1.00  0.00    -0.355 N 
ATOM     15  C   UNL A   1      31.346  27.580  25.402  1.00  0.00     0.118 C 
ATOM     16  C   UNL A   1      32.900  29.482  25.079  1.00  0.00     0.123 C 
ATOM     17  C   UNL A   1      31.439  27.678  26.918  1.00  0.00     0.022 C 
ATOM     18  C   UNL A   1      32.776  28.292  27.345  1.00  0.00     0.009 C 
BRANCH  14  19
ATOM     19  C   UNL A   1      30.745  29.460  23.938  1.00  0.00     0.151 A 
ATOM     20  C   UNL A   1      27.976  31.048  21.160  1.00  0.00     0.069 C 
ATOM     21  C   UNL A   1      28.955  30.456  22.120  1.00  0.00     0.060 A 
ATOM     22  C   UNL A   1      29.705  29.347  21.774  1.00  0.00     0.029 A 
ATOM     23  N   UNL A   1      29.105  31.051  23.320  1.00  0.00    -0.154 NA
ATOM     24  C   UNL A   1      30.620  28.855  22.695  1.00  0.00     0.051 A 
ATOM     25  N   UNL A   1      29.986  30.531  24.240  1.00  0.00    -0.133 NA
ENDBRANCH  14  19
ENDBRANCH  12  13
ENDBRANCH   8  12
ENDBRANCH   5   7
ENDBRANCH   4   5
ENDBRANCH   3   4
ENDBRANCH   2   3
ENDBRANCH   1   2
BRANCH   1  26
ATOM     26  C   UNL A   1      35.162  35.079  32.932  1.00  0.00     0.202 C 
BRANCH  26  27
ATOM     27  C   UNL A   1      35.880  34.117  31.995  1.00  0.00     0.261 C 
BRANCH  27  28
ATOM     28  O   UNL A   1      35.503  32.767  32.202  1.00  0.00    -0.460 OA
BRANCH  28  29
ATOM     29  C   UNL A   1      36.520  32.029  32.701  1.00  0.00     0.338 C 
ATOM     30  O   UNL A   1      36.877  31.960  33.867  1.00  0.00    -0.246 OA
BRANCH  29  31
ATOM     31  C   UNL A   1      37.258  31.416  31.600  1.00  0.00     0.060 A 
ATOM     32  C   UNL A   1      37.099  30.035  31.490  1.00  0.00     0.016 A 
ATOM     33  C   UNL A   1      38.361  32.101  31.073  1.00  0.00     0.016 A 
ATOM     34  C   UNL A   1      38.199  29.304  31.130  1.00  0.00     0.010 A 
ATOM     35  C   UNL A   1      39.465  31.368  30.728  1.00  0.00     0.010 A 
ATOM     36  C   UNL A   1      39.393  29.985  30.862  1.00  0.00    -0.014 A 
BRANCH  36  37
ATOM     37  C   UNL A   1      40.549  29.185  30.550  1.00  0.00     0.031 A 
ATOM     38  C   UNL A   1      41.298  28.890  31.787  1.00  0.00     0.074 A 
ATOM     39  C   UNL A   1      40.845  28.775  29.304  1.00  0.00     0.049 A 
ATOM     40  N   UNL A   1      42.346  29.512  32.214  1.00  0.00    -0.248 NA
ATOM     41  C   UNL A   1      40.660  28.024  32.790  1.00  0.00     0.031 C 
ATOM     42  C   UNL A   1      39.997  28.824  28.108  1.00  0.00     0.029 A 
ATOM     43  N   UNL A   1      41.949  28.116  28.865  1.00  0.00    -0.354 N 
ATOM     44  C   UNL A   1      42.667  28.865  33.400  1.00  0.00     0.074 A 
ATOM     45  C   UNL A   1      41.477  28.183  33.832  1.00  0.00     0.031 C 
ATOM     46  C   UNL A   1      40.514  28.002  27.163  1.00  0.00     0.029 A 
ATOM     47  C   UNL A   1      41.792  27.495  27.629  1.00  0.00     0.049 A 
ATOM     48  H   UNL A   1      42.788  28.080  29.378  1.00  0.00     0.167 HD
ATOM     49  C   UNL A   1      43.968  28.606  33.694  1.00  0.00     0.034 A 
ATOM     50  C   UNL A   1      42.645  26.582  27.096  1.00  0.00     0.034 A 
ATOM     51  C   UNL A   1      44.852  29.386  32.870  1.00  0.00     0.049 A 
ATOM     52  C   UNL A   1      43.957  26.820  27.740  1.00  0.00     0.074 A 
ATOM     53  C   UNL A   1      45.210  30.712  32.765  1.00  0.00     0.029 A 
ATOM     54  N   UNL A   1      45.145  28.779  31.676  1.00  0.00    -0.354 N 
ATOM     55  N   UNL A   1      44.644  27.917  27.581  1.00  0.00    -0.248 NA
ATOM     56  C   UNL A   1      44.364  25.977  28.858  1.00  0.00     0.031 C 
ATOM     57  C   UNL A   1      45.560  30.916  31.397  1.00  0.00     0.029 A 
ATOM     58  C   UNL A   1      45.455  29.702  30.719  1.00  0.00     0.049 A 
ATOM     59  H   UNL A   1      45.134  27.805  31.530  1.00  0.00     0.167 HD
ATOM     60  C   UNL A   1      45.237  28.115  28.815  1.00  0.00     0.074 A 
ATOM     61  C   UNL A   1      45.191  26.820  29.482  1.00  0.00     0.031 C 
ATOM     62  C   UNL A   1      45.403  29.370  29.312  1.00  0.00     0.034 A 
BRANCH  49  63
ATOM     63  C   UNL A   1      44.428  27.301  34.299  1.00  0.00     0.023 A 
ATOM     64  C   UNL A   1      45.345  27.357  35.365  1.00  0.00     0.012 A 
ATOM     65  C   UNL A   1      44.225  26.036  33.695  1.00  0.00     0.148 A 
ATOM     66  C   UNL A   1      46.010  26.210  35.816  1.00  0.00     0.002 A 
ATOM     67  C   UNL A   1      44.814  24.887  34.202  1.00  0.00     0.091 A 
ATOM     68  F   UNL A   1      43.589  25.950  32.522  1.00  0.00    -0.205 F 
ATOM     69  C   UNL A   1      45.726  24.971  35.252  1.00  0.00     0.022 A 
BRANCH  67  70
ATOM     70  S   UNL A   1      44.448  23.269  33.511  1.00  0.00     0.127 S 
ATOM     71  O   UNL A   1      45.448  22.438  34.173  1.00  0.00    -0.237 OA
ATOM     72  O   UNL A   1      43.070  23.062  33.958  1.00  0.00    -0.237 OA
ATOM     73  O   UNL A   1      44.589  23.423  32.069  1.00  0.00    -0.744 OA
ENDBRANCH  67  70
ENDBRANCH  49  63
BRANCH  50  74
ATOM     74  C   UNL A   1      42.391  25.333  26.329  1.00  0.00     0.023 A 
ATOM     75  C   UNL A   1      43.319  24.955  25.331  1.00  0.00     0.012 A 
ATOM     76  C   UNL A   1      41.486  24.354  26.791  1.00  0.00     0.148 A 
ATOM     77  C   UNL A   1      43.416  23.631  24.889  1.00  0.00     0.002 A 
ATOM     78  C   UNL A   1      41.581  23.037  26.342  1.00  0.00     0.091 A 
ATOM     79  F   UNL A   1      40.600  24.685  27.738  1.00  0.00    -0.205 F 
ATOM     80  C   UNL A   1      42.562  22.667  25.411  1.00  0.00     0.022 A 
BRANCH  78  81
ATOM     81  S   UNL A   1      40.518  21.732  26.973  1.00  0.00     0.127 S 
ATOM     82  O   UNL A   1      40.748  21.822  28.415  1.00  0.00    -0.237 OA
ATOM     83  O   UNL A   1      39.198  22.177  26.537  1.00  0.00    -0.237 OA
ATOM     84  O   UNL A   1      41.003  20.498  26.367  1.00  0.00    -0.744 OA
ENDBRANCH  78  81
ENDBRANCH  50  74
BRANCH  62  85
ATOM     85  C   UNL A   1      45.390  30.512  28.341  1.00  0.00     0.023 A 
ATOM     86  C   UNL A   1      44.214  31.178  27.944  1.00  0.00     0.012 A 
ATOM     87  C   UNL A   1      46.638  31.011  27.942  1.00  0.00     0.148 A 
ATOM     88  C   UNL A   1      44.292  32.336  27.163  1.00  0.00     0.002 A 
ATOM     89  C   UNL A   1      46.713  32.180  27.201  1.00  0.00     0.091 A 
ATOM     90  F   UNL A   1      47.735  30.349  28.339  1.00  0.00    -0.205 F 
ATOM     91  C   UNL A   1      45.542  32.846  26.805  1.00  0.00     0.022 A 
BRANCH  89  92
ATOM     92  S   UNL A   1      48.288  32.933  26.799  1.00  0.00     0.127 S 
ATOM     93  O   UNL A   1      47.905  33.926  25.797  1.00  0.00    -0.237 OA
ATOM     94  O   UNL A   1      48.700  33.489  28.089  1.00  0.00    -0.237 OA
ATOM     95  O   UNL A   1      49.143  31.857  26.310  1.00  0.00    -0.744 OA
ENDBRANCH  89  92
ENDBRANCH  62  85
ENDBRANCH  36  37
ENDBRANCH  29  31
ENDBRANCH  28  29
ENDBRANCH  27  28
ENDBRANCH  26  27
ENDBRANCH   1  26
TORSDOF 20
ENDMDL
