MODEL 1
REMARK VINA RESULT:     -10.5      0.000      0.000
REMARK SMILES CCC[NH2+]C[C@H]1CCC[N@@H+](Cc2ccc(C(=O)OCCOCCOC(=O)c3ccc(-c4c5nc(c(-c6cccc(S(=O)(=O)[O-])c6F)c6ccc([nH]6)c(-c6cccc(S(=O)(=O)[O-])c6F)c6nc(c(-c7cccc(S(=O)(=O)[O-])c7F)c7ccc4[nH]7)C=C6)C=C5)cc3)cc2)C1
REMARK SMILES IDX 19 1 18 2 16 3 17 4 15 5 12 6 13 7 91 8 14 9 90 10 11 11
REMARK SMILES IDX 10 12 6 13 7 14 92 15 8 16 9 17 5 19 4 20 3 23 2 24 1 25
REMARK SMILES IDX 20 26 21 27 22 28 23 29 24 30 25 31 26 32 27 33 28 34 89 35
REMARK SMILES IDX 29 36 88 37 30 38 31 39 32 40 82 41 33 42 87 43 81 44 83 45
REMARK SMILES IDX 34 46 86 47 80 48 79 49 35 51 67 52 47 53 66 54 48 55 51 56
REMARK SMILES IDX 65 57 84 58 49 59 50 60 64 62 85 63 52 64 36 65 37 66 45 67
REMARK SMILES IDX 38 68 40 69 46 70 39 71 41 72 42 73 43 74 44 75 68 76 69 77
REMARK SMILES IDX 77 78 70 79 72 80 78 81 71 82 73 83 74 84 75 85 76 86 53 87
REMARK SMILES IDX 54 88 62 89 55 90 57 91 63 92 56 93 58 94 59 95 60 96 61 97
REMARK H PARENT 10 18 4 21 4 22 83 50 51 61
REMARK Flexibility Score: inf
ROOT
ATOM      1  C   UNL A   1      32.063  29.045  22.861  1.00  0.00     0.261 C 
ENDROOT
BRANCH   1   2
ATOM      2  O   UNL A   1      31.667  27.783  22.309  1.00  0.00    -0.460 OA
BRANCH   2   3
ATOM      3  C   UNL A   1      32.562  26.778  22.454  1.00  0.00     0.338 C 
ATOM      4  O   UNL A   1      33.598  26.626  21.821  1.00  0.00    -0.246 OA
BRANCH   3   5
ATOM      5  C   UNL A   1      32.168  25.895  23.581  1.00  0.00     0.060 A 
ATOM      6  C   UNL A   1      31.676  24.165  25.738  1.00  0.00     0.006 A 
ATOM      7  C   UNL A   1      32.433  25.325  25.926  1.00  0.00     0.010 A 
ATOM      8  C   UNL A   1      31.028  23.986  24.508  1.00  0.00     0.010 A 
ATOM      9  C   UNL A   1      32.667  26.191  24.856  1.00  0.00     0.016 A 
ATOM     10  C   UNL A   1      31.306  24.809  23.419  1.00  0.00     0.016 A 
BRANCH   6  11
ATOM     11  C   UNL A   1      31.681  23.051  26.777  1.00  0.00     0.299 C 
BRANCH  11  12
ATOM     12  N   UNL A   1      32.707  21.987  26.577  1.00  0.00    -0.331 N 
ATOM     13  C   UNL A   1      33.255  19.881  25.232  1.00  0.00     0.099 C 
ATOM     14  C   UNL A   1      34.655  20.462  24.969  1.00  0.00     0.021 C 
ATOM     15  C   UNL A   1      32.277  21.017  25.555  1.00  0.00     0.271 C 
ATOM     16  C   UNL A   1      35.069  21.436  26.069  1.00  0.00     0.062 C 
ATOM     17  C   UNL A   1      34.028  22.540  26.252  1.00  0.00     0.262 C 
ATOM     18  H   UNL A   1      32.797  21.494  27.466  1.00  0.00     0.348 HD
BRANCH  13  19
ATOM     19  C   UNL A   1      32.817  18.996  24.020  1.00  0.00     0.269 C 
BRANCH  19  20
ATOM     20  N   UNL A   1      32.170  17.706  24.282  1.00  0.00    -0.346 N 
ATOM     21  H   UNL A   1      31.195  17.878  24.528  1.00  0.00     0.346 HD
ATOM     22  H   UNL A   1      32.261  17.145  23.435  1.00  0.00     0.346 HD
BRANCH  20  23
ATOM     23  C   UNL A   1      32.797  16.953  25.370  1.00  0.00     0.260 C 
BRANCH  23  24
ATOM     24  C   UNL A   1      32.157  15.584  25.653  1.00  0.00     0.058 C 
ATOM     25  C   UNL A   1      33.054  14.368  25.464  1.00  0.00     0.010 C 
ENDBRANCH  23  24
ENDBRANCH  20  23
ENDBRANCH  19  20
ENDBRANCH  13  19
ENDBRANCH  11  12
ENDBRANCH   6  11
ENDBRANCH   3   5
ENDBRANCH   2   3
ENDBRANCH   1   2
BRANCH   1  26
ATOM     26  C   UNL A   1      31.270  29.354  24.134  1.00  0.00     0.202 C 
BRANCH  26  27
ATOM     27  O   UNL A   1      32.031  29.756  25.275  1.00  0.00    -0.374 OA
BRANCH  27  28
ATOM     28  C   UNL A   1      31.510  30.840  26.047  1.00  0.00     0.202 C 
BRANCH  28  29
ATOM     29  C   UNL A   1      32.355  31.316  27.234  1.00  0.00     0.261 C 
BRANCH  29  30
ATOM     30  O   UNL A   1      33.301  32.328  26.855  1.00  0.00    -0.460 OA
BRANCH  30  31
ATOM     31  C   UNL A   1      33.900  32.960  27.892  1.00  0.00     0.338 C 
ATOM     32  O   UNL A   1      33.461  33.907  28.531  1.00  0.00    -0.246 OA
BRANCH  31  33
ATOM     33  C   UNL A   1      35.115  32.226  28.287  1.00  0.00     0.060 A 
ATOM     34  C   UNL A   1      34.979  30.868  28.605  1.00  0.00     0.016 A 
ATOM     35  C   UNL A   1      36.350  32.864  28.402  1.00  0.00     0.016 A 
ATOM     36  C   UNL A   1      36.073  30.152  29.088  1.00  0.00     0.010 A 
ATOM     37  C   UNL A   1      37.443  32.146  28.892  1.00  0.00     0.010 A 
ATOM     38  C   UNL A   1      37.301  30.798  29.270  1.00  0.00    -0.014 A 
BRANCH  38  39
ATOM     39  C   UNL A   1      38.408  30.109  29.976  1.00  0.00     0.031 A 
ATOM     40  C   UNL A   1      38.768  30.546  31.367  1.00  0.00     0.074 A 
ATOM     41  C   UNL A   1      39.104  29.131  29.370  1.00  0.00     0.049 A 
ATOM     42  N   UNL A   1      39.754  30.154  32.130  1.00  0.00    -0.248 NA
ATOM     43  C   UNL A   1      37.907  31.574  31.978  1.00  0.00     0.031 C 
ATOM     44  C   UNL A   1      38.846  28.623  28.025  1.00  0.00     0.029 A 
ATOM     45  N   UNL A   1      40.199  28.422  29.798  1.00  0.00    -0.354 N 
ATOM     46  C   UNL A   1      39.662  30.913  33.290  1.00  0.00     0.074 A 
ATOM     47  C   UNL A   1      38.525  31.793  33.130  1.00  0.00     0.031 C 
ATOM     48  C   UNL A   1      39.786  27.714  27.716  1.00  0.00     0.029 A 
ATOM     49  C   UNL A   1      40.728  27.603  28.829  1.00  0.00     0.049 A 
ATOM     50  H   UNL A   1      40.568  28.493  30.708  1.00  0.00     0.167 HD
ATOM     51  C   UNL A   1      40.448  30.875  34.392  1.00  0.00     0.034 A 
ATOM     52  C   UNL A   1      41.866  26.879  28.824  1.00  0.00     0.034 A 
ATOM     53  C   UNL A   1      41.565  29.984  34.551  1.00  0.00     0.049 A 
ATOM     54  C   UNL A   1      42.738  26.868  30.053  1.00  0.00     0.074 A 
ATOM     55  C   UNL A   1      42.383  29.820  35.655  1.00  0.00     0.029 A 
ATOM     56  N   UNL A   1      42.039  29.124  33.572  1.00  0.00    -0.354 N 
ATOM     57  N   UNL A   1      42.568  27.497  31.190  1.00  0.00    -0.248 NA
ATOM     58  C   UNL A   1      43.941  26.023  30.008  1.00  0.00     0.031 C 
ATOM     59  C   UNL A   1      43.377  28.893  35.328  1.00  0.00     0.029 A 
ATOM     60  C   UNL A   1      43.151  28.444  34.036  1.00  0.00     0.049 A 
ATOM     61  H   UNL A   1      41.642  29.014  32.677  1.00  0.00     0.167 HD
ATOM     62  C   UNL A   1      43.619  27.098  32.009  1.00  0.00     0.074 A 
ATOM     63  C   UNL A   1      44.414  26.161  31.241  1.00  0.00     0.031 C 
ATOM     64  C   UNL A   1      43.904  27.477  33.279  1.00  0.00     0.034 A 
BRANCH  51  65
ATOM     65  C   UNL A   1      40.123  31.823  35.516  1.00  0.00     0.023 A 
ATOM     66  C   UNL A   1      40.874  33.006  35.680  1.00  0.00     0.012 A 
ATOM     67  C   UNL A   1      39.044  31.566  36.384  1.00  0.00     0.148 A 
ATOM     68  C   UNL A   1      40.583  33.894  36.714  1.00  0.00     0.002 A 
ATOM     69  C   UNL A   1      38.728  32.480  37.381  1.00  0.00     0.091 A 
ATOM     70  F   UNL A   1      38.355  30.426  36.226  1.00  0.00    -0.205 F 
ATOM     71  C   UNL A   1      39.505  33.636  37.558  1.00  0.00     0.022 A 
BRANCH  69  72
ATOM     72  S   UNL A   1      37.310  32.277  38.463  1.00  0.00     0.127 S 
ATOM     73  O   UNL A   1      37.803  32.863  39.709  1.00  0.00    -0.237 OA
ATOM     74  O   UNL A   1      36.286  33.069  37.780  1.00  0.00    -0.237 OA
ATOM     75  O   UNL A   1      37.039  30.847  38.508  1.00  0.00    -0.744 OA
ENDBRANCH  69  72
ENDBRANCH  51  65
BRANCH  52  76
ATOM     76  C   UNL A   1      42.238  26.101  27.610  1.00  0.00     0.023 A 
ATOM     77  C   UNL A   1      42.994  26.711  26.592  1.00  0.00     0.012 A 
ATOM     78  C   UNL A   1      41.872  24.747  27.477  1.00  0.00     0.148 A 
ATOM     79  C   UNL A   1      43.358  25.994  25.452  1.00  0.00     0.002 A 
ATOM     80  C   UNL A   1      42.288  24.023  26.368  1.00  0.00     0.091 A 
ATOM     81  F   UNL A   1      41.140  24.190  28.453  1.00  0.00    -0.205 F 
ATOM     82  C   UNL A   1      43.015  24.649  25.345  1.00  0.00     0.022 A 
BRANCH  80  83
ATOM     83  S   UNL A   1      42.011  22.255  26.210  1.00  0.00     0.127 S 
ATOM     84  O   UNL A   1      42.758  21.943  24.995  1.00  0.00    -0.237 OA
ATOM     85  O   UNL A   1      42.603  21.749  27.448  1.00  0.00    -0.237 OA
ATOM     86  O   UNL A   1      40.566  22.089  26.122  1.00  0.00    -0.744 OA
ENDBRANCH  80  83
ENDBRANCH  52  76
BRANCH  64  87
ATOM     87  C   UNL A   1      45.099  26.851  33.954  1.00  0.00     0.023 A 
ATOM     88  C   UNL A   1      46.354  27.487  33.903  1.00  0.00     0.012 A 
ATOM     89  C   UNL A   1      44.946  25.682  34.726  1.00  0.00     0.148 A 
ATOM     90  C   UNL A   1      47.446  26.955  34.588  1.00  0.00     0.002 A 
ATOM     91  C   UNL A   1      46.025  25.186  35.448  1.00  0.00     0.091 A 
ATOM     92  F   UNL A   1      43.747  25.084  34.749  1.00  0.00    -0.205 F 
ATOM     93  C   UNL A   1      47.278  25.815  35.372  1.00  0.00     0.022 A 
BRANCH  91  94
ATOM     94  S   UNL A   1      45.879  23.784  36.562  1.00  0.00     0.127 S 
ATOM     95  O   UNL A   1      47.260  23.621  37.016  1.00  0.00    -0.237 OA
ATOM     96  O   UNL A   1      44.958  24.292  37.578  1.00  0.00    -0.237 OA
ATOM     97  O   UNL A   1      45.356  22.684  35.762  1.00  0.00    -0.744 OA
ENDBRANCH  91  94
ENDBRANCH  64  87
ENDBRANCH  38  39
ENDBRANCH  31  33
ENDBRANCH  30  31
ENDBRANCH  29  30
ENDBRANCH  28  29
ENDBRANCH  27  28
ENDBRANCH  26  27
ENDBRANCH   1  26
TORSDOF 23
ENDMDL
MODEL 2
REMARK VINA RESULT:     -10.4      2.346      2.764
REMARK SMILES CCC[NH2+]C[C@H]1CCC[N@@H+](Cc2ccc(C(=O)OCCOCCOC(=O)c3ccc(-c4c5nc(c(-c6cccc(S(=O)(=O)[O-])c6F)c6ccc([nH]6)c(-c6cccc(S(=O)(=O)[O-])c6F)c6nc(c(-c7cccc(S(=O)(=O)[O-])c7F)c7ccc4[nH]7)C=C6)C=C5)cc3)cc2)C1
REMARK SMILES IDX 19 1 18 2 16 3 17 4 15 5 12 6 13 7 91 8 14 9 90 10 11 11
REMARK SMILES IDX 10 12 6 13 7 14 92 15 8 16 9 17 5 19 4 20 3 23 2 24 1 25
REMARK SMILES IDX 20 26 21 27 22 28 23 29 24 30 25 31 26 32 27 33 28 34 89 35
REMARK SMILES IDX 29 36 88 37 30 38 31 39 32 40 82 41 33 42 87 43 81 44 83 45
REMARK SMILES IDX 34 46 86 47 80 48 79 49 35 51 67 52 47 53 66 54 48 55 51 56
REMARK SMILES IDX 65 57 84 58 49 59 50 60 64 62 85 63 52 64 36 65 37 66 45 67
REMARK SMILES IDX 38 68 40 69 46 70 39 71 41 72 42 73 43 74 44 75 68 76 69 77
REMARK SMILES IDX 77 78 70 79 72 80 78 81 71 82 73 83 74 84 75 85 76 86 53 87
REMARK SMILES IDX 54 88 62 89 55 90 57 91 63 92 56 93 58 94 59 95 60 96 61 97
REMARK H PARENT 10 18 4 21 4 22 83 50 51 61
REMARK Flexibility Score: inf
ROOT
ATOM      1  C   UNL A   1      32.541  28.751  22.685  1.00  0.00     0.261 C 
ENDROOT
BRANCH   1   2
ATOM      2  O   UNL A   1      31.998  27.524  22.182  1.00  0.00    -0.460 OA
BRANCH   2   3
ATOM      3  C   UNL A   1      32.806  26.443  22.288  1.00  0.00     0.338 C 
ATOM      4  O   UNL A   1      33.820  26.224  21.639  1.00  0.00    -0.246 OA
BRANCH   3   5
ATOM      5  C   UNL A   1      32.349  25.564  23.394  1.00  0.00     0.060 A 
ATOM      6  C   UNL A   1      31.732  23.817  25.505  1.00  0.00     0.006 A 
ATOM      7  C   UNL A   1      32.584  24.905  25.718  1.00  0.00     0.010 A 
ATOM      8  C   UNL A   1      31.062  23.728  24.276  1.00  0.00     0.010 A 
ATOM      9  C   UNL A   1      32.881  25.779  24.671  1.00  0.00     0.016 A 
ATOM     10  C   UNL A   1      31.399  24.557  23.209  1.00  0.00     0.016 A 
BRANCH   6  11
ATOM     11  C   UNL A   1      31.654  22.676  26.512  1.00  0.00     0.299 C 
BRANCH  11  12
ATOM     12  N   UNL A   1      32.630  21.567  26.308  1.00  0.00    -0.331 N 
ATOM     13  C   UNL A   1      33.130  19.496  24.893  1.00  0.00     0.099 C 
ATOM     14  C   UNL A   1      34.569  20.010  24.719  1.00  0.00     0.021 C 
ATOM     15  C   UNL A   1      32.199  20.668  25.225  1.00  0.00     0.271 C 
ATOM     16  C   UNL A   1      34.981  20.911  25.880  1.00  0.00     0.062 C 
ATOM     17  C   UNL A   1      33.992  22.062  26.067  1.00  0.00     0.262 C 
ATOM     18  H   UNL A   1      32.653  21.033  27.176  1.00  0.00     0.348 HD
BRANCH  13  19
ATOM     19  C   UNL A   1      32.702  18.690  23.623  1.00  0.00     0.269 C 
BRANCH  19  20
ATOM     20  N   UNL A   1      32.547  17.234  23.727  1.00  0.00    -0.346 N 
ATOM     21  H   UNL A   1      31.593  17.032  24.022  1.00  0.00     0.346 HD
ATOM     22  H   UNL A   1      32.758  16.843  22.809  1.00  0.00     0.346 HD
BRANCH  20  23
ATOM     23  C   UNL A   1      33.470  16.620  24.683  1.00  0.00     0.260 C 
BRANCH  23  24
ATOM     24  C   UNL A   1      33.085  15.197  25.121  1.00  0.00     0.058 C 
ATOM     25  C   UNL A   1      32.000  15.090  26.184  1.00  0.00     0.010 C 
ENDBRANCH  23  24
ENDBRANCH  20  23
ENDBRANCH  19  20
ENDBRANCH  13  19
ENDBRANCH  11  12
ENDBRANCH   6  11
ENDBRANCH   3   5
ENDBRANCH   2   3
ENDBRANCH   1   2
BRANCH   1  26
ATOM     26  C   UNL A   1      31.797  29.198  23.947  1.00  0.00     0.202 C 
BRANCH  26  27
ATOM     27  O   UNL A   1      32.552  29.209  25.159  1.00  0.00    -0.374 OA
BRANCH  27  28
ATOM     28  C   UNL A   1      32.274  30.265  26.081  1.00  0.00     0.202 C 
BRANCH  28  29
ATOM     29  C   UNL A   1      33.106  30.299  27.369  1.00  0.00     0.261 C 
BRANCH  29  30
ATOM     30  O   UNL A   1      34.222  31.197  27.270  1.00  0.00    -0.460 OA
BRANCH  30  31
ATOM     31  C   UNL A   1      34.768  31.555  28.456  1.00  0.00     0.338 C 
ATOM     32  O   UNL A   1      34.300  32.329  29.280  1.00  0.00    -0.246 OA
BRANCH  31  33
ATOM     33  C   UNL A   1      35.958  30.729  28.725  1.00  0.00     0.060 A 
ATOM     34  C   UNL A   1      35.927  29.891  29.849  1.00  0.00     0.016 A 
ATOM     35  C   UNL A   1      37.102  30.812  27.930  1.00  0.00     0.016 A 
ATOM     36  C   UNL A   1      37.063  29.169  30.211  1.00  0.00     0.010 A 
ATOM     37  C   UNL A   1      38.240  30.092  28.299  1.00  0.00     0.010 A 
ATOM     38  C   UNL A   1      38.237  29.296  29.460  1.00  0.00    -0.014 A 
BRANCH  38  39
ATOM     39  C   UNL A   1      39.503  28.703  29.952  1.00  0.00     0.031 A 
ATOM     40  C   UNL A   1      40.191  29.329  31.132  1.00  0.00     0.074 A 
ATOM     41  C   UNL A   1      40.051  27.644  29.331  1.00  0.00     0.049 A 
ATOM     42  N   UNL A   1      41.346  29.038  31.668  1.00  0.00    -0.248 NA
ATOM     43  C   UNL A   1      39.483  30.439  31.792  1.00  0.00     0.031 C 
ATOM     44  C   UNL A   1      39.478  26.953  28.178  1.00  0.00     0.029 A 
ATOM     45  N   UNL A   1      41.237  26.992  29.562  1.00  0.00    -0.354 N 
ATOM     46  C   UNL A   1      41.528  29.953  32.697  1.00  0.00     0.074 A 
ATOM     47  C   UNL A   1      40.364  30.813  32.709  1.00  0.00     0.031 C 
ATOM     48  C   UNL A   1      40.334  26.002  27.771  1.00  0.00     0.029 A 
ATOM     49  C   UNL A   1      41.528  26.040  28.614  1.00  0.00     0.049 A 
ATOM     50  H   UNL A   1      41.821  27.187  30.330  1.00  0.00     0.167 HD
ATOM     51  C   UNL A   1      42.566  30.063  33.559  1.00  0.00     0.034 A 
ATOM     52  C   UNL A   1      42.647  25.313  28.422  1.00  0.00     0.034 A 
ATOM     53  C   UNL A   1      43.711  29.194  33.552  1.00  0.00     0.049 A 
ATOM     54  C   UNL A   1      43.800  25.466  29.380  1.00  0.00     0.074 A 
ATOM     55  C   UNL A   1      44.784  29.180  34.426  1.00  0.00     0.029 A 
ATOM     56  N   UNL A   1      43.947  28.201  32.615  1.00  0.00    -0.354 N 
ATOM     57  N   UNL A   1      43.905  26.251  30.425  1.00  0.00    -0.248 NA
ATOM     58  C   UNL A   1      44.976  24.613  29.150  1.00  0.00     0.031 C 
ATOM     59  C   UNL A   1      45.689  28.207  33.990  1.00  0.00     0.029 A 
ATOM     60  C   UNL A   1      45.157  27.583  32.872  1.00  0.00     0.049 A 
ATOM     61  H   UNL A   1      43.341  27.970  31.873  1.00  0.00     0.167 HD
ATOM     62  C   UNL A   1      45.138  25.961  30.999  1.00  0.00     0.074 A 
ATOM     63  C   UNL A   1      45.739  24.919  30.192  1.00  0.00     0.031 C 
ATOM     64  C   UNL A   1      45.723  26.513  32.091  1.00  0.00     0.034 A 
BRANCH  51  65
ATOM     65  C   UNL A   1      42.509  31.164  34.587  1.00  0.00     0.023 A 
ATOM     66  C   UNL A   1      41.949  30.914  35.857  1.00  0.00     0.012 A 
ATOM     67  C   UNL A   1      43.052  32.434  34.309  1.00  0.00     0.148 A 
ATOM     68  C   UNL A   1      41.892  31.923  36.818  1.00  0.00     0.002 A 
ATOM     69  C   UNL A   1      43.037  33.419  35.289  1.00  0.00     0.091 A 
ATOM     70  F   UNL A   1      43.560  32.659  33.089  1.00  0.00    -0.205 F 
ATOM     71  C   UNL A   1      42.444  33.171  36.538  1.00  0.00     0.022 A 
BRANCH  69  72
ATOM     72  S   UNL A   1      43.795  35.029  35.052  1.00  0.00     0.127 S 
ATOM     73  O   UNL A   1      42.978  35.585  33.975  1.00  0.00    -0.237 OA
ATOM     74  O   UNL A   1      43.594  35.659  36.358  1.00  0.00    -0.237 OA
ATOM     75  O   UNL A   1      45.187  34.771  34.712  1.00  0.00    -0.744 OA
ENDBRANCH  69  72
ENDBRANCH  51  65
BRANCH  52  76
ATOM     76  C   UNL A   1      42.723  24.369  27.272  1.00  0.00     0.023 A 
ATOM     77  C   UNL A   1      43.404  24.746  26.100  1.00  0.00     0.012 A 
ATOM     78  C   UNL A   1      42.150  23.083  27.352  1.00  0.00     0.148 A 
ATOM     79  C   UNL A   1      43.491  23.870  25.018  1.00  0.00     0.002 A 
ATOM     80  C   UNL A   1      42.292  22.195  26.294  1.00  0.00     0.091 A 
ATOM     81  F   UNL A   1      41.495  22.750  28.473  1.00  0.00    -0.205 F 
ATOM     82  C   UNL A   1      42.946  22.593  25.118  1.00  0.00     0.022 A 
BRANCH  80  83
ATOM     83  S   UNL A   1      41.743  20.488  26.386  1.00  0.00     0.127 S 
ATOM     84  O   UNL A   1      42.501  19.870  25.302  1.00  0.00    -0.237 OA
ATOM     85  O   UNL A   1      42.171  20.110  27.734  1.00  0.00    -0.237 OA
ATOM     86  O   UNL A   1      40.298  20.528  26.204  1.00  0.00    -0.744 OA
ENDBRANCH  80  83
ENDBRANCH  52  76
BRANCH  64  87
ATOM     87  C   UNL A   1      47.065  25.977  32.522  1.00  0.00     0.023 A 
ATOM     88  C   UNL A   1      48.249  26.569  32.044  1.00  0.00     0.012 A 
ATOM     89  C   UNL A   1      47.144  24.950  33.484  1.00  0.00     0.148 A 
ATOM     90  C   UNL A   1      49.493  26.130  32.497  1.00  0.00     0.002 A 
ATOM     91  C   UNL A   1      48.383  24.553  33.969  1.00  0.00     0.091 A 
ATOM     92  F   UNL A   1      46.005  24.389  33.914  1.00  0.00    -0.205 F 
ATOM     93  C   UNL A   1      49.560  25.134  33.469  1.00  0.00     0.022 A 
BRANCH  91  94
ATOM     94  S   UNL A   1      48.563  23.350  35.292  1.00  0.00     0.127 S 
ATOM     95  O   UNL A   1      48.027  22.141  34.669  1.00  0.00    -0.237 OA
ATOM     96  O   UNL A   1      50.011  23.338  35.503  1.00  0.00    -0.237 OA
ATOM     97  O   UNL A   1      47.790  23.864  36.415  1.00  0.00    -0.744 OA
ENDBRANCH  91  94
ENDBRANCH  64  87
ENDBRANCH  38  39
ENDBRANCH  31  33
ENDBRANCH  30  31
ENDBRANCH  29  30
ENDBRANCH  28  29
ENDBRANCH  27  28
ENDBRANCH  26  27
ENDBRANCH   1  26
TORSDOF 23
ENDMDL
MODEL 3
REMARK VINA RESULT:     -10.2      2.621      3.069
REMARK SMILES CCC[NH2+]C[C@H]1CCC[N@@H+](Cc2ccc(C(=O)OCCOCCOC(=O)c3ccc(-c4c5nc(c(-c6cccc(S(=O)(=O)[O-])c6F)c6ccc([nH]6)c(-c6cccc(S(=O)(=O)[O-])c6F)c6nc(c(-c7cccc(S(=O)(=O)[O-])c7F)c7ccc4[nH]7)C=C6)C=C5)cc3)cc2)C1
REMARK SMILES IDX 19 1 18 2 16 3 17 4 15 5 12 6 13 7 91 8 14 9 90 10 11 11
REMARK SMILES IDX 10 12 6 13 7 14 92 15 8 16 9 17 5 19 4 20 3 23 2 24 1 25
REMARK SMILES IDX 20 26 21 27 22 28 23 29 24 30 25 31 26 32 27 33 28 34 89 35
REMARK SMILES IDX 29 36 88 37 30 38 31 39 32 40 82 41 33 42 87 43 81 44 83 45
REMARK SMILES IDX 34 46 86 47 80 48 79 49 35 51 67 52 47 53 66 54 48 55 51 56
REMARK SMILES IDX 65 57 84 58 49 59 50 60 64 62 85 63 52 64 36 65 37 66 45 67
REMARK SMILES IDX 38 68 40 69 46 70 39 71 41 72 42 73 43 74 44 75 68 76 69 77
REMARK SMILES IDX 77 78 70 79 72 80 78 81 71 82 73 83 74 84 75 85 76 86 53 87
REMARK SMILES IDX 54 88 62 89 55 90 57 91 63 92 56 93 58 94 59 95 60 96 61 97
REMARK H PARENT 10 18 4 21 4 22 83 50 51 61
REMARK Flexibility Score: inf
ROOT
ATOM      1  C   UNL A   1      31.775  28.904  23.015  1.00  0.00     0.261 C 
ENDROOT
BRANCH   1   2
ATOM      2  O   UNL A   1      30.856  28.059  22.311  1.00  0.00    -0.460 OA
BRANCH   2   3
ATOM      3  C   UNL A   1      31.239  26.768  22.174  1.00  0.00     0.338 C 
ATOM      4  O   UNL A   1      31.636  26.229  21.149  1.00  0.00    -0.246 OA
BRANCH   3   5
ATOM      5  C   UNL A   1      31.209  26.079  23.489  1.00  0.00     0.060 A 
ATOM      6  C   UNL A   1      31.223  24.557  25.849  1.00  0.00     0.006 A 
ATOM      7  C   UNL A   1      32.414  24.786  25.153  1.00  0.00     0.010 A 
ATOM      8  C   UNL A   1      30.073  25.247  25.443  1.00  0.00     0.010 A 
ATOM      9  C   UNL A   1      32.408  25.553  23.986  1.00  0.00     0.016 A 
ATOM     10  C   UNL A   1      30.043  25.961  24.248  1.00  0.00     0.016 A 
BRANCH   6  11
ATOM     11  C   UNL A   1      31.138  23.472  26.915  1.00  0.00     0.299 C 
BRANCH  11  12
ATOM     12  N   UNL A   1      32.052  22.309  26.727  1.00  0.00    -0.331 N 
ATOM     13  C   UNL A   1      32.712  20.450  25.098  1.00  0.00     0.099 C 
ATOM     14  C   UNL A   1      34.186  20.822  25.333  1.00  0.00     0.021 C 
ATOM     15  C   UNL A   1      31.817  21.650  25.431  1.00  0.00     0.271 C 
ATOM     16  C   UNL A   1      34.384  21.473  26.699  1.00  0.00     0.062 C 
ATOM     17  C   UNL A   1      33.465  22.681  26.877  1.00  0.00     0.262 C 
ATOM     18  H   UNL A   1      31.836  21.642  27.468  1.00  0.00     0.348 HD
BRANCH  13  19
ATOM     19  C   UNL A   1      32.531  19.912  23.641  1.00  0.00     0.269 C 
BRANCH  19  20
ATOM     20  N   UNL A   1      32.157  18.506  23.447  1.00  0.00    -0.346 N 
ATOM     21  H   UNL A   1      31.149  18.458  23.301  1.00  0.00     0.346 HD
ATOM     22  H   UNL A   1      32.679  18.164  22.641  1.00  0.00     0.346 HD
BRANCH  20  23
ATOM     23  C   UNL A   1      32.503  17.651  24.583  1.00  0.00     0.260 C 
BRANCH  23  24
ATOM     24  C   UNL A   1      33.318  16.400  24.218  1.00  0.00     0.058 C 
ATOM     25  C   UNL A   1      34.376  16.576  23.138  1.00  0.00     0.010 C 
ENDBRANCH  23  24
ENDBRANCH  20  23
ENDBRANCH  19  20
ENDBRANCH  13  19
ENDBRANCH  11  12
ENDBRANCH   6  11
ENDBRANCH   3   5
ENDBRANCH   2   3
ENDBRANCH   1   2
BRANCH   1  26
ATOM     26  C   UNL A   1      31.078  29.612  24.180  1.00  0.00     0.202 C 
BRANCH  26  27
ATOM     27  O   UNL A   1      31.509  29.249  25.493  1.00  0.00    -0.374 OA
BRANCH  27  28
ATOM     28  C   UNL A   1      32.022  30.300  26.316  1.00  0.00     0.202 C 
BRANCH  28  29
ATOM     29  C   UNL A   1      33.308  30.004  27.096  1.00  0.00     0.261 C 
BRANCH  29  30
ATOM     30  O   UNL A   1      34.238  31.098  27.044  1.00  0.00    -0.460 OA
BRANCH  30  31
ATOM     31  C   UNL A   1      34.761  31.454  28.241  1.00  0.00     0.338 C 
ATOM     32  O   UNL A   1      34.276  32.224  29.059  1.00  0.00    -0.246 OA
BRANCH  31  33
ATOM     33  C   UNL A   1      35.948  30.630  28.529  1.00  0.00     0.060 A 
ATOM     34  C   UNL A   1      35.981  29.942  29.749  1.00  0.00     0.016 A 
ATOM     35  C   UNL A   1      37.032  30.576  27.651  1.00  0.00     0.016 A 
ATOM     36  C   UNL A   1      37.123  29.234  30.120  1.00  0.00     0.010 A 
ATOM     37  C   UNL A   1      38.177  29.871  28.028  1.00  0.00     0.010 A 
ATOM     38  C   UNL A   1      38.241  29.228  29.278  1.00  0.00    -0.014 A 
BRANCH  38  39
ATOM     39  C   UNL A   1      39.526  28.661  29.751  1.00  0.00     0.031 A 
ATOM     40  C   UNL A   1      40.280  29.372  30.839  1.00  0.00     0.074 A 
ATOM     41  C   UNL A   1      40.031  27.547  29.192  1.00  0.00     0.049 A 
ATOM     42  N   UNL A   1      41.459  29.111  31.337  1.00  0.00    -0.248 NA
ATOM     43  C   UNL A   1      39.618  30.542  31.441  1.00  0.00     0.031 C 
ATOM     44  C   UNL A   1      39.392  26.772  28.131  1.00  0.00     0.029 A 
ATOM     45  N   UNL A   1      41.222  26.901  29.415  1.00  0.00    -0.354 N 
ATOM     46  C   UNL A   1      41.703  30.105  32.276  1.00  0.00     0.074 A 
ATOM     47  C   UNL A   1      40.549  30.978  32.278  1.00  0.00     0.031 C 
ATOM     48  C   UNL A   1      40.218  25.779  27.760  1.00  0.00     0.029 A 
ATOM     49  C   UNL A   1      41.455  25.871  28.535  1.00  0.00     0.049 A 
ATOM     50  H   UNL A   1      41.848  27.151  30.133  1.00  0.00     0.167 HD
ATOM     51  C   UNL A   1      42.786  30.272  33.072  1.00  0.00     0.034 A 
ATOM     52  C   UNL A   1      42.556  25.116  28.346  1.00  0.00     0.034 A 
ATOM     53  C   UNL A   1      43.921  29.390  33.078  1.00  0.00     0.049 A 
ATOM     54  C   UNL A   1      43.758  25.332  29.228  1.00  0.00     0.074 A 
ATOM     55  C   UNL A   1      45.039  29.433  33.893  1.00  0.00     0.029 A 
ATOM     56  N   UNL A   1      44.099  28.321  32.214  1.00  0.00    -0.354 N 
ATOM     57  N   UNL A   1      43.925  26.198  30.198  1.00  0.00    -0.248 NA
ATOM     58  C   UNL A   1      44.913  24.448  29.009  1.00  0.00     0.031 C 
ATOM     59  C   UNL A   1      45.910  28.416  33.493  1.00  0.00     0.029 A 
ATOM     60  C   UNL A   1      45.316  27.709  32.459  1.00  0.00     0.049 A 
ATOM     61  H   UNL A   1      43.453  28.038  31.526  1.00  0.00     0.167 HD
ATOM     62  C   UNL A   1      45.184  25.940  30.730  1.00  0.00     0.074 A 
ATOM     63  C   UNL A   1      45.733  24.828  29.981  1.00  0.00     0.031 C 
ATOM     64  C   UNL A   1      45.830  26.572  31.741  1.00  0.00     0.034 A 
BRANCH  51  65
ATOM     65  C   UNL A   1      42.792  31.453  34.007  1.00  0.00     0.023 A 
ATOM     66  C   UNL A   1      43.393  32.665  33.607  1.00  0.00     0.012 A 
ATOM     67  C   UNL A   1      42.163  31.377  35.265  1.00  0.00     0.148 A 
ATOM     68  C   UNL A   1      43.403  33.767  34.461  1.00  0.00     0.002 A 
ATOM     69  C   UNL A   1      42.134  32.494  36.090  1.00  0.00     0.091 A 
ATOM     70  F   UNL A   1      41.617  30.209  35.636  1.00  0.00    -0.205 F 
ATOM     71  C   UNL A   1      42.766  33.685  35.697  1.00  0.00     0.022 A 
BRANCH  69  72
ATOM     72  S   UNL A   1      41.268  32.511  37.663  1.00  0.00     0.127 S 
ATOM     73  O   UNL A   1      42.134  31.667  38.486  1.00  0.00    -0.237 OA
ATOM     74  O   UNL A   1      41.292  33.932  38.011  1.00  0.00    -0.237 OA
ATOM     75  O   UNL A   1      39.941  31.974  37.397  1.00  0.00    -0.744 OA
ENDBRANCH  69  72
ENDBRANCH  51  65
BRANCH  52  76
ATOM     76  C   UNL A   1      42.563  24.080  27.276  1.00  0.00     0.023 A 
ATOM     77  C   UNL A   1      43.158  24.362  26.032  1.00  0.00     0.012 A 
ATOM     78  C   UNL A   1      42.010  22.803  27.501  1.00  0.00     0.148 A 
ATOM     79  C   UNL A   1      43.181  23.399  25.023  1.00  0.00     0.002 A 
ATOM     80  C   UNL A   1      42.090  21.831  26.513  1.00  0.00     0.091 A 
ATOM     81  F   UNL A   1      41.437  22.561  28.689  1.00  0.00    -0.205 F 
ATOM     82  C   UNL A   1      42.657  22.132  25.266  1.00  0.00     0.022 A 
BRANCH  80  83
ATOM     83  S   UNL A   1      41.566  20.134  26.783  1.00  0.00     0.127 S 
ATOM     84  O   UNL A   1      40.855  19.839  25.543  1.00  0.00    -0.237 OA
ATOM     85  O   UNL A   1      42.849  19.448  26.940  1.00  0.00    -0.237 OA
ATOM     86  O   UNL A   1      40.749  20.162  27.989  1.00  0.00    -0.744 OA
ENDBRANCH  80  83
ENDBRANCH  52  76
BRANCH  64  87
ATOM     87  C   UNL A   1      47.188  26.056  32.145  1.00  0.00     0.023 A 
ATOM     88  C   UNL A   1      47.304  25.099  33.171  1.00  0.00     0.012 A 
ATOM     89  C   UNL A   1      48.338  26.450  31.432  1.00  0.00     0.148 A 
ATOM     90  C   UNL A   1      48.548  24.560  33.499  1.00  0.00     0.002 A 
ATOM     91  C   UNL A   1      49.566  25.871  31.729  1.00  0.00     0.091 A 
ATOM     92  F   UNL A   1      48.208  27.374  30.470  1.00  0.00    -0.205 F 
ATOM     93  C   UNL A   1      49.675  24.934  32.769  1.00  0.00     0.022 A 
BRANCH  91  94
ATOM     94  S   UNL A   1      51.051  26.215  30.779  1.00  0.00     0.127 S 
ATOM     95  O   UNL A   1      50.691  25.688  29.463  1.00  0.00    -0.237 OA
ATOM     96  O   UNL A   1      51.132  27.673  30.851  1.00  0.00    -0.237 OA
ATOM     97  O   UNL A   1      52.135  25.512  31.453  1.00  0.00    -0.744 OA
ENDBRANCH  91  94
ENDBRANCH  64  87
ENDBRANCH  38  39
ENDBRANCH  31  33
ENDBRANCH  30  31
ENDBRANCH  29  30
ENDBRANCH  28  29
ENDBRANCH  27  28
ENDBRANCH  26  27
ENDBRANCH   1  26
TORSDOF 23
ENDMDL
