MODEL 1
REMARK VINA RESULT:     -10.0      0.000      0.000
REMARK SMILES O=C(CCCN1C(=O)/C(=C/c2ccccc2Cl)SC1=S)Nc1cccc(C(=O)OCCOCCOC(=O)c2ccc(-c3c4nc(c(-c5cccc(S(=O)(=O)[O-])c5F)c5ccc([nH]5)c(-c5cccc(S(=O)(=O)[O-])c5F)c5nc(c(-c6cccc(S(=O)(=O)[O-])c6F)c6ccc3[nH]6)C=C5)C=C4)cc2)c1
REMARK SMILES IDX 30 1 29 2 27 3 28 4 26 5 22 6 23 7 101 8 24 9 25 10 21 11
REMARK SMILES IDX 1 12 2 13 3 15 4 16 5 17 6 18 7 19 19 20 8 21 9 22 18 23
REMARK SMILES IDX 20 24 10 25 11 26 12 27 16 28 13 29 15 30 17 31 14 32 31 33
REMARK SMILES IDX 32 34 33 35 34 36 35 37 36 38 37 39 38 40 39 41 100 42 40 43
REMARK SMILES IDX 99 44 41 45 42 46 43 47 93 48 44 49 98 50 92 51 94 52 45 53
REMARK SMILES IDX 97 54 91 55 90 56 46 58 78 59 58 60 77 61 59 62 62 63 76 64
REMARK SMILES IDX 95 65 60 66 61 67 75 69 96 70 63 71 47 72 48 73 56 74 49 75
REMARK SMILES IDX 51 76 57 77 50 78 52 79 53 80 54 81 55 82 79 83 80 84 88 85
REMARK SMILES IDX 81 86 83 87 89 88 82 89 84 90 85 91 86 92 87 93 64 94 65 95
REMARK SMILES IDX 73 96 66 97 68 98 74 99 67 100 69 101 70 102 71 103 72 104
REMARK H PARENT 21 14 94 57 62 68
REMARK Flexibility Score: inf
ROOT
ATOM      1  C   UNL A   1      33.435  35.754  31.083  1.00  0.00     0.261 C 
ENDROOT
BRANCH   1   2
ATOM      2  O   UNL A   1      33.557  34.451  30.498  1.00  0.00    -0.460 OA
BRANCH   2   3
ATOM      3  C   UNL A   1      33.394  34.378  29.155  1.00  0.00     0.338 C 
ATOM      4  O   UNL A   1      32.799  35.168  28.438  1.00  0.00    -0.246 OA
BRANCH   3   5
ATOM      5  C   UNL A   1      34.255  33.292  28.633  1.00  0.00     0.062 A 
ATOM      6  C   UNL A   1      34.559  31.262  27.353  1.00  0.00     0.042 A 
ATOM      7  C   UNL A   1      35.851  31.131  27.867  1.00  0.00     0.026 A 
ATOM      8  C   UNL A   1      33.749  32.321  27.768  1.00  0.00     0.041 A 
ATOM      9  C   UNL A   1      36.367  32.116  28.714  1.00  0.00     0.003 A 
ATOM     10  C   UNL A   1      35.575  33.203  29.086  1.00  0.00     0.016 A 
BRANCH   6  11
ATOM     11  N   UNL A   1      34.101  30.319  26.415  1.00  0.00    -0.326 N 
ATOM     12  O   UNL A   1      33.402  28.709  27.928  1.00  0.00    -0.275 OA
ATOM     13  C   UNL A   1      33.616  29.073  26.776  1.00  0.00     0.224 C 
ATOM     14  H   UNL A   1      34.128  30.554  25.459  1.00  0.00     0.169 HD
BRANCH  13  15
ATOM     15  C   UNL A   1      33.300  28.165  25.614  1.00  0.00     0.102 C 
BRANCH  15  16
ATOM     16  C   UNL A   1      33.527  26.686  25.924  1.00  0.00     0.032 C 
BRANCH  16  17
ATOM     17  C   UNL A   1      32.311  25.762  25.755  1.00  0.00     0.128 C 
BRANCH  17  18
ATOM     18  N   UNL A   1      32.564  24.419  25.217  1.00  0.00    -0.293 N 
ATOM     19  C   UNL A   1      32.361  23.301  26.010  1.00  0.00     0.266 C 
ATOM     20  C   UNL A   1      32.842  24.157  23.889  1.00  0.00     0.148 C 
ATOM     21  O   UNL A   1      31.857  23.278  27.123  1.00  0.00    -0.268 OA
ATOM     22  C   UNL A   1      32.816  22.083  25.299  1.00  0.00     0.081 C 
ATOM     23  S   UNL A   1      32.976  22.423  23.626  1.00  0.00    -0.054 SA
ATOM     24  S   UNL A   1      33.050  25.252  22.645  1.00  0.00    -0.052 S 
ATOM     25  C   UNL A   1      33.072  20.945  25.956  1.00  0.00     0.031 C 
BRANCH  25  26
ATOM     26  C   UNL A   1      33.463  19.674  25.333  1.00  0.00    -0.006 A 
ATOM     27  C   UNL A   1      32.442  18.727  25.166  1.00  0.00     0.010 A 
ATOM     28  C   UNL A   1      34.759  19.360  24.891  1.00  0.00     0.048 A 
ATOM     29  C   UNL A   1      32.693  17.513  24.529  1.00  0.00     0.001 A 
ATOM     30  C   UNL A   1      35.004  18.147  24.242  1.00  0.00     0.021 A 
ATOM     31  Cl  UNL A   1      36.104  20.420  25.146  1.00  0.00    -0.084 Cl
ATOM     32  C   UNL A   1      33.969  17.228  24.054  1.00  0.00     0.002 A 
ENDBRANCH  25  26
ENDBRANCH  17  18
ENDBRANCH  16  17
ENDBRANCH  15  16
ENDBRANCH  13  15
ENDBRANCH   6  11
ENDBRANCH   3   5
ENDBRANCH   2   3
ENDBRANCH   1   2
BRANCH   1  33
ATOM     33  C   UNL A   1      33.816  35.733  32.569  1.00  0.00     0.202 C 
BRANCH  33  34
ATOM     34  O   UNL A   1      35.211  35.805  32.876  1.00  0.00    -0.374 OA
BRANCH  34  35
ATOM     35  C   UNL A   1      35.742  34.775  33.711  1.00  0.00     0.202 C 
BRANCH  35  36
ATOM     36  C   UNL A   1      37.238  34.465  33.579  1.00  0.00     0.261 C 
BRANCH  36  37
ATOM     37  O   UNL A   1      37.749  34.770  32.271  1.00  0.00    -0.460 OA
BRANCH  37  38
ATOM     38  C   UNL A   1      38.469  33.771  31.705  1.00  0.00     0.338 C 
ATOM     39  O   UNL A   1      38.104  32.625  31.500  1.00  0.00    -0.246 OA
BRANCH  38  40
ATOM     40  C   UNL A   1      39.744  34.301  31.190  1.00  0.00     0.060 A 
ATOM     41  C   UNL A   1      39.810  34.604  29.824  1.00  0.00     0.016 A 
ATOM     42  C   UNL A   1      40.873  34.424  32.002  1.00  0.00     0.016 A 
ATOM     43  C   UNL A   1      41.023  34.976  29.251  1.00  0.00     0.010 A 
ATOM     44  C   UNL A   1      42.091  34.795  31.424  1.00  0.00     0.010 A 
ATOM     45  C   UNL A   1      42.179  35.033  30.039  1.00  0.00    -0.014 A 
BRANCH  45  46
ATOM     46  C   UNL A   1      43.499  35.218  29.387  1.00  0.00     0.031 A 
ATOM     47  C   UNL A   1      44.296  34.007  28.982  1.00  0.00     0.074 A 
ATOM     48  C   UNL A   1      43.977  36.453  29.148  1.00  0.00     0.049 A 
ATOM     49  N   UNL A   1      45.476  33.943  28.422  1.00  0.00    -0.248 NA
ATOM     50  C   UNL A   1      43.683  32.694  29.245  1.00  0.00     0.031 C 
ATOM     51  C   UNL A   1      43.297  37.702  29.490  1.00  0.00     0.029 A 
ATOM     52  N   UNL A   1      45.159  36.857  28.581  1.00  0.00    -0.354 N 
ATOM     53  C   UNL A   1      45.764  32.589  28.298  1.00  0.00     0.074 A 
ATOM     54  C   UNL A   1      44.639  31.865  28.850  1.00  0.00     0.031 C 
ATOM     55  C   UNL A   1      44.086  38.735  29.149  1.00  0.00     0.029 A 
ATOM     56  C   UNL A   1      45.335  38.221  28.593  1.00  0.00     0.049 A 
ATOM     57  H   UNL A   1      45.818  36.232  28.201  1.00  0.00     0.167 HD
ATOM     58  C   UNL A   1      46.859  32.001  27.760  1.00  0.00     0.034 A 
ATOM     59  C   UNL A   1      46.394  38.966  28.222  1.00  0.00     0.034 A 
ATOM     60  C   UNL A   1      47.966  32.723  27.193  1.00  0.00     0.049 A 
ATOM     61  C   UNL A   1      47.610  38.286  27.649  1.00  0.00     0.074 A 
ATOM     62  C   UNL A   1      49.096  32.217  26.576  1.00  0.00     0.029 A 
ATOM     63  N   UNL A   1      48.092  34.104  27.187  1.00  0.00    -0.354 N 
ATOM     64  N   UNL A   1      47.818  37.010  27.433  1.00  0.00    -0.248 NA
ATOM     65  C   UNL A   1      48.724  39.152  27.235  1.00  0.00     0.031 C 
ATOM     66  C   UNL A   1      49.926  33.291  26.235  1.00  0.00     0.029 A 
ATOM     67  C   UNL A   1      49.289  34.467  26.595  1.00  0.00     0.049 A 
ATOM     68  H   UNL A   1      47.428  34.733  27.552  1.00  0.00     0.167 HD
ATOM     69  C   UNL A   1      49.065  36.923  26.822  1.00  0.00     0.074 A 
ATOM     70  C   UNL A   1      49.557  38.279  26.686  1.00  0.00     0.031 C 
ATOM     71  C   UNL A   1      49.746  35.823  26.419  1.00  0.00     0.034 A 
BRANCH  58  72
ATOM     72  C   UNL A   1      46.913  30.495  27.744  1.00  0.00     0.023 A 
ATOM     73  C   UNL A   1      47.341  29.794  28.890  1.00  0.00     0.012 A 
ATOM     74  C   UNL A   1      46.474  29.773  26.616  1.00  0.00     0.148 A 
ATOM     75  C   UNL A   1      47.361  28.400  28.903  1.00  0.00     0.002 A 
ATOM     76  C   UNL A   1      46.453  28.384  26.653  1.00  0.00     0.091 A 
ATOM     77  F   UNL A   1      46.090  30.457  25.529  1.00  0.00    -0.205 F 
ATOM     78  C   UNL A   1      46.906  27.696  27.790  1.00  0.00     0.022 A 
BRANCH  76  79
ATOM     79  S   UNL A   1      45.811  27.388  25.304  1.00  0.00     0.127 S 
ATOM     80  O   UNL A   1      44.435  27.872  25.209  1.00  0.00    -0.237 OA
ATOM     81  O   UNL A   1      46.676  27.783  24.192  1.00  0.00    -0.237 OA
ATOM     82  O   UNL A   1      45.953  26.000  25.723  1.00  0.00    -0.744 OA
ENDBRANCH  76  79
ENDBRANCH  58  72
BRANCH  59  83
ATOM     83  C   UNL A   1      46.351  40.449  28.365  1.00  0.00     0.023 A 
ATOM     84  C   UNL A   1      46.681  41.044  29.598  1.00  0.00     0.012 A 
ATOM     85  C   UNL A   1      45.984  41.271  27.282  1.00  0.00     0.148 A 
ATOM     86  C   UNL A   1      46.609  42.427  29.761  1.00  0.00     0.002 A 
ATOM     87  C   UNL A   1      45.970  42.652  27.435  1.00  0.00     0.091 A 
ATOM     88  F   UNL A   1      45.659  40.684  26.122  1.00  0.00    -0.205 F 
ATOM     89  C   UNL A   1      46.263  43.232  28.679  1.00  0.00     0.022 A 
BRANCH  87  90
ATOM     90  S   UNL A   1      45.653  43.770  26.066  1.00  0.00     0.127 S 
ATOM     91  O   UNL A   1      46.719  43.412  25.134  1.00  0.00    -0.237 OA
ATOM     92  O   UNL A   1      44.309  43.363  25.652  1.00  0.00    -0.237 OA
ATOM     93  O   UNL A   1      45.730  45.112  26.627  1.00  0.00    -0.744 OA
ENDBRANCH  87  90
ENDBRANCH  59  83
BRANCH  71  94
ATOM     94  C   UNL A   1      51.075  36.028  25.738  1.00  0.00     0.023 A 
ATOM     95  C   UNL A   1      51.140  36.171  24.337  1.00  0.00     0.012 A 
ATOM     96  C   UNL A   1      52.255  36.150  26.499  1.00  0.00     0.148 A 
ATOM     97  C   UNL A   1      52.363  36.391  23.703  1.00  0.00     0.002 A 
ATOM     98  C   UNL A   1      53.461  36.424  25.866  1.00  0.00     0.091 A 
ATOM     99  F   UNL A   1      52.176  35.996  27.829  1.00  0.00    -0.205 F 
ATOM    100  C   UNL A   1      53.520  36.530  24.467  1.00  0.00     0.022 A 
BRANCH  98 101
ATOM    101  S   UNL A   1      54.982  36.720  26.774  1.00  0.00     0.127 S 
ATOM    102  O   UNL A   1      55.930  36.978  25.690  1.00  0.00    -0.237 OA
ATOM    103  O   UNL A   1      54.639  37.895  27.577  1.00  0.00    -0.237 OA
ATOM    104  O   UNL A   1      55.234  35.512  27.545  1.00  0.00    -0.744 OA
ENDBRANCH  98 101
ENDBRANCH  71  94
ENDBRANCH  45  46
ENDBRANCH  38  40
ENDBRANCH  37  38
ENDBRANCH  36  37
ENDBRANCH  35  36
ENDBRANCH  34  35
ENDBRANCH  33  34
ENDBRANCH   1  33
TORSDOF 23
ENDMDL
MODEL 2
REMARK VINA RESULT:      -9.5      6.380     13.536
REMARK SMILES O=C(CCCN1C(=O)/C(=C/c2ccccc2Cl)SC1=S)Nc1cccc(C(=O)OCCOCCOC(=O)c2ccc(-c3c4nc(c(-c5cccc(S(=O)(=O)[O-])c5F)c5ccc([nH]5)c(-c5cccc(S(=O)(=O)[O-])c5F)c5nc(c(-c6cccc(S(=O)(=O)[O-])c6F)c6ccc3[nH]6)C=C5)C=C4)cc2)c1
REMARK SMILES IDX 30 1 29 2 27 3 28 4 26 5 22 6 23 7 101 8 24 9 25 10 21 11
REMARK SMILES IDX 1 12 2 13 3 15 4 16 5 17 6 18 7 19 19 20 8 21 9 22 18 23
REMARK SMILES IDX 20 24 10 25 11 26 12 27 16 28 13 29 15 30 17 31 14 32 31 33
REMARK SMILES IDX 32 34 33 35 34 36 35 37 36 38 37 39 38 40 39 41 100 42 40 43
REMARK SMILES IDX 99 44 41 45 42 46 43 47 93 48 44 49 98 50 92 51 94 52 45 53
REMARK SMILES IDX 97 54 91 55 90 56 46 58 78 59 58 60 77 61 59 62 62 63 76 64
REMARK SMILES IDX 95 65 60 66 61 67 75 69 96 70 63 71 47 72 48 73 56 74 49 75
REMARK SMILES IDX 51 76 57 77 50 78 52 79 53 80 54 81 55 82 79 83 80 84 88 85
REMARK SMILES IDX 81 86 83 87 89 88 82 89 84 90 85 91 86 92 87 93 64 94 65 95
REMARK SMILES IDX 73 96 66 97 68 98 74 99 67 100 69 101 70 102 71 103 72 104
REMARK H PARENT 21 14 94 57 62 68
REMARK Flexibility Score: inf
ROOT
ATOM      1  C   UNL A   1      44.220  23.549  27.062  1.00  0.00     0.261 C 
ENDROOT
BRANCH   1   2
ATOM      2  O   UNL A   1      45.275  24.504  26.884  1.00  0.00    -0.460 OA
BRANCH   2   3
ATOM      3  C   UNL A   1      45.529  24.887  25.609  1.00  0.00     0.338 C 
ATOM      4  O   UNL A   1      44.725  25.005  24.698  1.00  0.00    -0.246 OA
BRANCH   3   5
ATOM      5  C   UNL A   1      46.926  25.374  25.532  1.00  0.00     0.062 A 
ATOM      6  C   UNL A   1      48.811  26.206  24.265  1.00  0.00     0.042 A 
ATOM      7  C   UNL A   1      49.631  26.055  25.385  1.00  0.00     0.026 A 
ATOM      8  C   UNL A   1      47.469  25.827  24.330  1.00  0.00     0.041 A 
ATOM      9  C   UNL A   1      49.084  25.624  26.597  1.00  0.00     0.003 A 
ATOM     10  C   UNL A   1      47.729  25.297  26.675  1.00  0.00     0.016 A 
BRANCH   6  11
ATOM     11  N   UNL A   1      49.360  26.746  23.088  1.00  0.00    -0.326 N 
ATOM     12  O   UNL A   1      47.585  28.131  22.538  1.00  0.00    -0.275 OA
ATOM     13  C   UNL A   1      48.671  27.626  22.270  1.00  0.00     0.224 C 
ATOM     14  H   UNL A   1      50.276  26.488  22.835  1.00  0.00     0.169 HD
BRANCH  13  15
ATOM     15  C   UNL A   1      49.388  27.983  20.993  1.00  0.00     0.102 C 
BRANCH  15  16
ATOM     16  C   UNL A   1      50.516  28.993  21.195  1.00  0.00     0.032 C 
BRANCH  16  17
ATOM     17  C   UNL A   1      51.485  29.176  20.016  1.00  0.00     0.128 C 
BRANCH  17  18
ATOM     18  N   UNL A   1      52.084  27.961  19.452  1.00  0.00    -0.293 N 
ATOM     19  C   UNL A   1      51.414  27.241  18.476  1.00  0.00     0.266 C 
ATOM     20  C   UNL A   1      53.380  27.548  19.703  1.00  0.00     0.148 C 
ATOM     21  O   UNL A   1      50.383  27.568  17.908  1.00  0.00    -0.268 OA
ATOM     22  C   UNL A   1      52.148  25.990  18.171  1.00  0.00     0.081 C 
ATOM     23  S   UNL A   1      53.753  26.111  18.760  1.00  0.00    -0.054 SA
ATOM     24  S   UNL A   1      54.497  28.235  20.735  1.00  0.00    -0.052 S 
ATOM     25  C   UNL A   1      51.551  24.962  17.555  1.00  0.00     0.031 C 
BRANCH  25  26
ATOM     26  C   UNL A   1      52.211  23.713  17.154  1.00  0.00    -0.006 A 
ATOM     27  C   UNL A   1      53.193  23.825  16.159  1.00  0.00     0.010 A 
ATOM     28  C   UNL A   1      51.938  22.447  17.699  1.00  0.00     0.048 A 
ATOM     29  C   UNL A   1      53.924  22.710  15.750  1.00  0.00     0.001 A 
ATOM     30  C   UNL A   1      52.681  21.334  17.296  1.00  0.00     0.021 A 
ATOM     31  Cl  UNL A   1      50.674  22.193  18.856  1.00  0.00    -0.084 Cl
ATOM     32  C   UNL A   1      53.679  21.468  16.328  1.00  0.00     0.002 A 
ENDBRANCH  25  26
ENDBRANCH  17  18
ENDBRANCH  16  17
ENDBRANCH  15  16
ENDBRANCH  13  15
ENDBRANCH   6  11
ENDBRANCH   3   5
ENDBRANCH   2   3
ENDBRANCH   1   2
BRANCH   1  33
ATOM     33  C   UNL A   1      43.545  23.717  28.429  1.00  0.00     0.202 C 
BRANCH  33  34
ATOM     34  O   UNL A   1      42.526  22.772  28.763  1.00  0.00    -0.374 OA
BRANCH  34  35
ATOM     35  C   UNL A   1      42.498  21.558  28.011  1.00  0.00     0.202 C 
BRANCH  35  36
ATOM     36  C   UNL A   1      41.193  21.212  27.284  1.00  0.00     0.261 C 
BRANCH  36  37
ATOM     37  O   UNL A   1      40.876  22.151  26.243  1.00  0.00    -0.460 OA
BRANCH  37  38
ATOM     38  C   UNL A   1      39.629  22.674  26.322  1.00  0.00     0.338 C 
ATOM     39  O   UNL A   1      38.572  22.082  26.176  1.00  0.00    -0.246 OA
BRANCH  38  40
ATOM     40  C   UNL A   1      39.699  24.070  26.789  1.00  0.00     0.060 A 
ATOM     41  C   UNL A   1      40.198  25.024  25.894  1.00  0.00     0.016 A 
ATOM     42  C   UNL A   1      39.361  24.427  28.097  1.00  0.00     0.016 A 
ATOM     43  C   UNL A   1      40.416  26.331  26.319  1.00  0.00     0.010 A 
ATOM     44  C   UNL A   1      39.585  25.740  28.522  1.00  0.00     0.010 A 
ATOM     45  C   UNL A   1      40.151  26.687  27.648  1.00  0.00    -0.014 A 
BRANCH  45  46
ATOM     46  C   UNL A   1      40.587  28.014  28.150  1.00  0.00     0.031 A 
ATOM     47  C   UNL A   1      42.054  28.346  28.174  1.00  0.00     0.074 A 
ATOM     48  C   UNL A   1      39.682  28.917  28.568  1.00  0.00     0.049 A 
ATOM     49  N   UNL A   1      42.649  29.433  28.592  1.00  0.00    -0.248 NA
ATOM     50  C   UNL A   1      42.974  27.316  27.663  1.00  0.00     0.031 C 
ATOM     51  C   UNL A   1      38.233  28.713  28.589  1.00  0.00     0.029 A 
ATOM     52  N   UNL A   1      39.852  30.179  29.079  1.00  0.00    -0.354 N 
ATOM     53  C   UNL A   1      44.011  29.207  28.428  1.00  0.00     0.074 A 
ATOM     54  C   UNL A   1      44.156  27.875  27.882  1.00  0.00     0.031 C 
ATOM     55  C   UNL A   1      37.648  29.804  29.112  1.00  0.00     0.029 A 
ATOM     56  C   UNL A   1      38.678  30.768  29.488  1.00  0.00     0.049 A 
ATOM     57  H   UNL A   1      40.729  30.621  29.145  1.00  0.00     0.167 HD
ATOM     58  C   UNL A   1      45.046  30.039  28.694  1.00  0.00     0.034 A 
ATOM     59  C   UNL A   1      38.465  31.939  30.119  1.00  0.00     0.034 A 
ATOM     60  C   UNL A   1      44.897  31.370  29.218  1.00  0.00     0.049 A 
ATOM     61  C   UNL A   1      39.637  32.835  30.426  1.00  0.00     0.074 A 
ATOM     62  C   UNL A   1      45.883  32.308  29.471  1.00  0.00     0.029 A 
ATOM     63  N   UNL A   1      43.691  31.947  29.584  1.00  0.00    -0.354 N 
ATOM     64  N   UNL A   1      40.908  32.655  30.160  1.00  0.00    -0.248 NA
ATOM     65  C   UNL A   1      39.340  34.114  31.089  1.00  0.00     0.031 C 
ATOM     66  C   UNL A   1      45.275  33.438  30.030  1.00  0.00     0.029 A 
ATOM     67  C   UNL A   1      43.908  33.222  30.079  1.00  0.00     0.049 A 
ATOM     68  H   UNL A   1      42.810  31.514  29.505  1.00  0.00     0.167 HD
ATOM     69  C   UNL A   1      41.556  33.810  30.584  1.00  0.00     0.074 A 
ATOM     70  C   UNL A   1      40.533  34.693  31.108  1.00  0.00     0.031 C 
ATOM     71  C   UNL A   1      42.877  34.111  30.551  1.00  0.00     0.034 A 
BRANCH  58  72
ATOM     72  C   UNL A   1      46.440  29.540  28.413  1.00  0.00     0.023 A 
ATOM     73  C   UNL A   1      47.032  29.776  27.156  1.00  0.00     0.012 A 
ATOM     74  C   UNL A   1      47.188  28.897  29.419  1.00  0.00     0.148 A 
ATOM     75  C   UNL A   1      48.335  29.354  26.894  1.00  0.00     0.002 A 
ATOM     76  C   UNL A   1      48.502  28.520  29.167  1.00  0.00     0.091 A 
ATOM     77  F   UNL A   1      46.601  28.662  30.602  1.00  0.00    -0.205 F 
ATOM     78  C   UNL A   1      49.073  28.737  27.903  1.00  0.00     0.022 A 
BRANCH  76  79
ATOM     79  S   UNL A   1      49.561  27.792  30.422  1.00  0.00     0.127 S 
ATOM     80  O   UNL A   1      49.570  28.839  31.443  1.00  0.00    -0.237 OA
ATOM     81  O   UNL A   1      48.817  26.587  30.789  1.00  0.00    -0.237 OA
ATOM     82  O   UNL A   1      50.842  27.544  29.775  1.00  0.00    -0.744 OA
ENDBRANCH  76  79
ENDBRANCH  58  72
BRANCH  59  83
ATOM     83  C   UNL A   1      37.081  32.346  30.490  1.00  0.00     0.023 A 
ATOM     84  C   UNL A   1      36.611  32.114  31.798  1.00  0.00     0.012 A 
ATOM     85  C   UNL A   1      36.229  32.961  29.553  1.00  0.00     0.148 A 
ATOM     86  C   UNL A   1      35.305  32.453  32.153  1.00  0.00     0.002 A 
ATOM     87  C   UNL A   1      34.950  33.349  29.930  1.00  0.00     0.091 A 
ATOM     88  F   UNL A   1      36.691  33.159  28.311  1.00  0.00    -0.205 F 
ATOM     89  C   UNL A   1      34.478  33.079  31.225  1.00  0.00     0.022 A 
BRANCH  87  90
ATOM     90  S   UNL A   1      33.859  34.266  28.837  1.00  0.00     0.127 S 
ATOM     91  O   UNL A   1      32.787  34.661  29.747  1.00  0.00    -0.237 OA
ATOM     92  O   UNL A   1      34.727  35.357  28.395  1.00  0.00    -0.237 OA
ATOM     93  O   UNL A   1      33.480  33.332  27.785  1.00  0.00    -0.744 OA
ENDBRANCH  87  90
ENDBRANCH  59  83
BRANCH  71  94
ATOM     94  C   UNL A   1      43.301  35.471  31.044  1.00  0.00     0.023 A 
ATOM     95  C   UNL A   1      43.566  36.508  30.126  1.00  0.00     0.012 A 
ATOM     96  C   UNL A   1      43.368  35.741  32.426  1.00  0.00     0.148 A 
ATOM     97  C   UNL A   1      43.929  37.777  30.576  1.00  0.00     0.002 A 
ATOM     98  C   UNL A   1      43.677  37.021  32.867  1.00  0.00     0.091 A 
ATOM     99  F   UNL A   1      43.128  34.738  33.284  1.00  0.00    -0.205 F 
ATOM    100  C   UNL A   1      43.973  38.037  31.943  1.00  0.00     0.022 A 
BRANCH  98 101
ATOM    101  S   UNL A   1      43.657  37.475  34.604  1.00  0.00     0.127 S 
ATOM    102  O   UNL A   1      42.420  36.844  35.062  1.00  0.00    -0.237 OA
ATOM    103  O   UNL A   1      44.883  36.848  35.101  1.00  0.00    -0.237 OA
ATOM    104  O   UNL A   1      43.664  38.930  34.642  1.00  0.00    -0.744 OA
ENDBRANCH  98 101
ENDBRANCH  71  94
ENDBRANCH  45  46
ENDBRANCH  38  40
ENDBRANCH  37  38
ENDBRANCH  36  37
ENDBRANCH  35  36
ENDBRANCH  34  35
ENDBRANCH  33  34
ENDBRANCH   1  33
TORSDOF 23
ENDMDL
MODEL 3
REMARK VINA RESULT:      -9.5      1.589      7.185
REMARK SMILES O=C(CCCN1C(=O)/C(=C/c2ccccc2Cl)SC1=S)Nc1cccc(C(=O)OCCOCCOC(=O)c2ccc(-c3c4nc(c(-c5cccc(S(=O)(=O)[O-])c5F)c5ccc([nH]5)c(-c5cccc(S(=O)(=O)[O-])c5F)c5nc(c(-c6cccc(S(=O)(=O)[O-])c6F)c6ccc3[nH]6)C=C5)C=C4)cc2)c1
REMARK SMILES IDX 30 1 29 2 27 3 28 4 26 5 22 6 23 7 101 8 24 9 25 10 21 11
REMARK SMILES IDX 1 12 2 13 3 15 4 16 5 17 6 18 7 19 19 20 8 21 9 22 18 23
REMARK SMILES IDX 20 24 10 25 11 26 12 27 16 28 13 29 15 30 17 31 14 32 31 33
REMARK SMILES IDX 32 34 33 35 34 36 35 37 36 38 37 39 38 40 39 41 100 42 40 43
REMARK SMILES IDX 99 44 41 45 42 46 43 47 93 48 44 49 98 50 92 51 94 52 45 53
REMARK SMILES IDX 97 54 91 55 90 56 46 58 78 59 58 60 77 61 59 62 62 63 76 64
REMARK SMILES IDX 95 65 60 66 61 67 75 69 96 70 63 71 47 72 48 73 56 74 49 75
REMARK SMILES IDX 51 76 57 77 50 78 52 79 53 80 54 81 55 82 79 83 80 84 88 85
REMARK SMILES IDX 81 86 83 87 89 88 82 89 84 90 85 91 86 92 87 93 64 94 65 95
REMARK SMILES IDX 73 96 66 97 68 98 74 99 67 100 69 101 70 102 71 103 72 104
REMARK H PARENT 21 14 94 57 62 68
REMARK Flexibility Score: inf
ROOT
ATOM      1  C   UNL A   1      33.226  35.708  31.106  1.00  0.00     0.261 C 
ENDROOT
BRANCH   1   2
ATOM      2  O   UNL A   1      33.204  34.558  30.250  1.00  0.00    -0.460 OA
BRANCH   2   3
ATOM      3  C   UNL A   1      34.006  34.607  29.158  1.00  0.00     0.338 C 
ATOM      4  O   UNL A   1      34.326  35.598  28.520  1.00  0.00    -0.246 OA
BRANCH   3   5
ATOM      5  C   UNL A   1      34.638  33.280  28.976  1.00  0.00     0.062 A 
ATOM      6  C   UNL A   1      34.858  31.186  27.787  1.00  0.00     0.042 A 
ATOM      7  C   UNL A   1      35.675  30.692  28.807  1.00  0.00     0.026 A 
ATOM      8  C   UNL A   1      34.308  32.464  27.894  1.00  0.00     0.041 A 
ATOM      9  C   UNL A   1      36.026  31.517  29.879  1.00  0.00     0.003 A 
ATOM     10  C   UNL A   1      35.519  32.815  29.958  1.00  0.00     0.016 A 
BRANCH   6  11
ATOM     11  N   UNL A   1      34.609  30.377  26.663  1.00  0.00    -0.326 N 
ATOM     12  O   UNL A   1      33.182  28.868  27.691  1.00  0.00    -0.275 OA
ATOM     13  C   UNL A   1      33.837  29.229  26.717  1.00  0.00     0.224 C 
ATOM     14  H   UNL A   1      35.002  30.638  25.799  1.00  0.00     0.169 HD
BRANCH  13  15
ATOM     15  C   UNL A   1      33.803  28.437  25.435  1.00  0.00     0.102 C 
BRANCH  15  16
ATOM     16  C   UNL A   1      33.697  26.929  25.657  1.00  0.00     0.032 C 
BRANCH  16  17
ATOM     17  C   UNL A   1      32.485  26.231  25.021  1.00  0.00     0.128 C 
BRANCH  17  18
ATOM     18  N   UNL A   1      32.658  24.830  24.618  1.00  0.00    -0.293 N 
ATOM     19  C   UNL A   1      32.518  23.815  25.550  1.00  0.00     0.266 C 
ATOM     20  C   UNL A   1      32.794  24.413  23.307  1.00  0.00     0.148 C 
ATOM     21  O   UNL A   1      32.131  23.932  26.703  1.00  0.00    -0.268 OA
ATOM     22  C   UNL A   1      32.876  22.512  24.942  1.00  0.00     0.081 C 
ATOM     23  S   UNL A   1      32.870  22.657  23.233  1.00  0.00    -0.054 SA
ATOM     24  S   UNL A   1      32.892  25.354  21.932  1.00  0.00    -0.052 S 
ATOM     25  C   UNL A   1      33.178  21.448  25.696  1.00  0.00     0.031 C 
BRANCH  25  26
ATOM     26  C   UNL A   1      33.481  20.104  25.186  1.00  0.00    -0.006 A 
ATOM     27  C   UNL A   1      32.381  19.261  24.975  1.00  0.00     0.010 A 
ATOM     28  C   UNL A   1      34.770  19.627  24.891  1.00  0.00     0.048 A 
ATOM     29  C   UNL A   1      32.553  17.987  24.435  1.00  0.00     0.001 A 
ATOM     30  C   UNL A   1      34.937  18.354  24.338  1.00  0.00     0.021 A 
ATOM     31  Cl  UNL A   1      36.195  20.555  25.216  1.00  0.00    -0.084 Cl
ATOM     32  C   UNL A   1      33.828  17.538  24.103  1.00  0.00     0.002 A 
ENDBRANCH  25  26
ENDBRANCH  17  18
ENDBRANCH  16  17
ENDBRANCH  15  16
ENDBRANCH  13  15
ENDBRANCH   6  11
ENDBRANCH   3   5
ENDBRANCH   2   3
ENDBRANCH   1   2
BRANCH   1  33
ATOM     33  C   UNL A   1      33.609  35.323  32.541  1.00  0.00     0.202 C 
BRANCH  33  34
ATOM     34  O   UNL A   1      34.994  35.416  32.883  1.00  0.00    -0.374 OA
BRANCH  34  35
ATOM     35  C   UNL A   1      35.468  34.533  33.900  1.00  0.00     0.202 C 
BRANCH  35  36
ATOM     36  C   UNL A   1      36.985  34.463  34.118  1.00  0.00     0.261 C 
BRANCH  36  37
ATOM     37  O   UNL A   1      37.724  34.625  32.897  1.00  0.00    -0.460 OA
BRANCH  37  38
ATOM     38  C   UNL A   1      38.426  33.530  32.517  1.00  0.00     0.338 C 
ATOM     39  O   UNL A   1      38.028  32.376  32.483  1.00  0.00    -0.246 OA
BRANCH  38  40
ATOM     40  C   UNL A   1      39.731  33.935  31.969  1.00  0.00     0.060 A 
ATOM     41  C   UNL A   1      39.894  33.872  30.579  1.00  0.00     0.016 A 
ATOM     42  C   UNL A   1      40.800  34.292  32.795  1.00  0.00     0.016 A 
ATOM     43  C   UNL A   1      41.142  34.110  30.012  1.00  0.00     0.010 A 
ATOM     44  C   UNL A   1      42.054  34.527  32.223  1.00  0.00     0.010 A 
ATOM     45  C   UNL A   1      42.239  34.397  30.833  1.00  0.00    -0.014 A 
BRANCH  45  46
ATOM     46  C   UNL A   1      43.602  34.435  30.246  1.00  0.00     0.031 A 
ATOM     47  C   UNL A   1      44.154  35.745  29.752  1.00  0.00     0.074 A 
ATOM     48  C   UNL A   1      44.343  33.315  30.166  1.00  0.00     0.049 A 
ATOM     49  N   UNL A   1      45.306  35.996  29.187  1.00  0.00    -0.248 NA
ATOM     50  C   UNL A   1      43.292  36.928  29.912  1.00  0.00     0.031 C 
ATOM     51  C   UNL A   1      43.920  31.989  30.615  1.00  0.00     0.029 A 
ATOM     52  N   UNL A   1      45.601  33.113  29.656  1.00  0.00    -0.354 N 
ATOM     53  C   UNL A   1      45.296  37.354  28.892  1.00  0.00     0.074 A 
ATOM     54  C   UNL A   1      44.019  37.873  29.331  1.00  0.00     0.031 C 
ATOM     55  C   UNL A   1      44.892  31.104  30.336  1.00  0.00     0.029 A 
ATOM     56  C   UNL A   1      45.991  31.795  29.666  1.00  0.00     0.049 A 
ATOM     57  H   UNL A   1      46.170  33.842  29.317  1.00  0.00     0.167 HD
ATOM     58  C   UNL A   1      46.268  38.105  28.321  1.00  0.00     0.034 A 
ATOM     59  C   UNL A   1      47.097  31.210  29.165  1.00  0.00     0.034 A 
ATOM     60  C   UNL A   1      47.545  37.591  27.904  1.00  0.00     0.049 A 
ATOM     61  C   UNL A   1      48.152  32.065  28.512  1.00  0.00     0.074 A 
ATOM     62  C   UNL A   1      48.615  38.282  27.364  1.00  0.00     0.029 A 
ATOM     63  N   UNL A   1      47.920  36.257  27.965  1.00  0.00    -0.354 N 
ATOM     64  N   UNL A   1      48.176  33.365  28.345  1.00  0.00    -0.248 NA
ATOM     65  C   UNL A   1      49.350  31.375  28.011  1.00  0.00     0.031 C 
ATOM     66  C   UNL A   1      49.621  37.360  27.059  1.00  0.00     0.029 A 
ATOM     67  C   UNL A   1      49.197  36.102  27.455  1.00  0.00     0.049 A 
ATOM     68  H   UNL A   1      47.359  35.528  28.317  1.00  0.00     0.167 HD
ATOM     69  C   UNL A   1      49.404  33.653  27.758  1.00  0.00     0.074 A 
ATOM     70  C   UNL A   1      50.103  32.392  27.617  1.00  0.00     0.031 C 
ATOM     71  C   UNL A   1      49.904  34.849  27.365  1.00  0.00     0.034 A 
BRANCH  58  72
ATOM     72  C   UNL A   1      45.996  39.574  28.121  1.00  0.00     0.023 A 
ATOM     73  C   UNL A   1      46.491  40.514  29.048  1.00  0.00     0.012 A 
ATOM     74  C   UNL A   1      45.310  40.027  26.977  1.00  0.00     0.148 A 
ATOM     75  C   UNL A   1      46.280  41.879  28.855  1.00  0.00     0.002 A 
ATOM     76  C   UNL A   1      45.144  41.390  26.767  1.00  0.00     0.091 A 
ATOM     77  F   UNL A   1      44.830  39.117  26.117  1.00  0.00    -0.205 F 
ATOM     78  C   UNL A   1      45.618  42.317  27.710  1.00  0.00     0.022 A 
BRANCH  76  79
ATOM     79  S   UNL A   1      44.377  42.059  25.287  1.00  0.00     0.127 S 
ATOM     80  O   UNL A   1      44.426  43.496  25.553  1.00  0.00    -0.237 OA
ATOM     81  O   UNL A   1      45.287  41.601  24.237  1.00  0.00    -0.237 OA
ATOM     82  O   UNL A   1      43.040  41.483  25.230  1.00  0.00    -0.744 OA
ENDBRANCH  76  79
ENDBRANCH  58  72
BRANCH  59  83
ATOM     83  C   UNL A   1      47.276  29.734  29.275  1.00  0.00     0.023 A 
ATOM     84  C   UNL A   1      47.942  29.192  30.391  1.00  0.00     0.012 A 
ATOM     85  C   UNL A   1      46.789  28.868  28.278  1.00  0.00     0.148 A 
ATOM     86  C   UNL A   1      48.153  27.816  30.493  1.00  0.00     0.002 A 
ATOM     87  C   UNL A   1      46.951  27.495  28.413  1.00  0.00     0.091 A 
ATOM     88  F   UNL A   1      46.171  29.406  27.217  1.00  0.00    -0.205 F 
ATOM     89  C   UNL A   1      47.650  26.968  29.511  1.00  0.00     0.022 A 
BRANCH  87  90
ATOM     90  S   UNL A   1      46.234  26.321  27.260  1.00  0.00     0.127 S 
ATOM     91  O   UNL A   1      44.804  26.544  27.456  1.00  0.00    -0.237 OA
ATOM     92  O   UNL A   1      46.762  26.797  25.981  1.00  0.00    -0.237 OA
ATOM     93  O   UNL A   1      46.731  25.014  27.668  1.00  0.00    -0.744 OA
ENDBRANCH  87  90
ENDBRANCH  59  83
BRANCH  71  94
ATOM     94  C   UNL A   1      51.298  34.875  26.791  1.00  0.00     0.023 A 
ATOM     95  C   UNL A   1      52.394  35.222  27.606  1.00  0.00     0.012 A 
ATOM     96  C   UNL A   1      51.528  34.483  25.456  1.00  0.00     0.148 A 
ATOM     97  C   UNL A   1      53.690  35.218  27.089  1.00  0.00     0.002 A 
ATOM     98  C   UNL A   1      52.826  34.429  24.965  1.00  0.00     0.091 A 
ATOM     99  F   UNL A   1      50.471  34.171  24.692  1.00  0.00    -0.205 F 
ATOM    100  C   UNL A   1      53.907  34.810  25.775  1.00  0.00     0.022 A 
BRANCH  98 101
ATOM    101  S   UNL A   1      53.210  33.819  23.320  1.00  0.00     0.127 S 
ATOM    102  O   UNL A   1      54.532  33.227  23.524  1.00  0.00    -0.237 OA
ATOM    103  O   UNL A   1      52.136  32.852  23.090  1.00  0.00    -0.237 OA
ATOM    104  O   UNL A   1      53.178  34.980  22.442  1.00  0.00    -0.744 OA
ENDBRANCH  98 101
ENDBRANCH  71  94
ENDBRANCH  45  46
ENDBRANCH  38  40
ENDBRANCH  37  38
ENDBRANCH  36  37
ENDBRANCH  35  36
ENDBRANCH  34  35
ENDBRANCH  33  34
ENDBRANCH   1  33
TORSDOF 23
ENDMDL
