MODEL 1
REMARK VINA RESULT:     -11.6      0.000      0.000
REMARK SMILES C[C@@H](c1cccc(O)c1)[N@H+]1[C@@H]2CC[C@H]1C[C@H](CC(=O)OCCOCCOC(=O)c1ccc(-c3c4nc(c(-c5cccc(S(=O)(=O)[O-])c5F)c5ccc([nH]5)c(-c5cccc(S(=O)(=O)[O-])c5F)c5nc(c(-c6cccc(S(=O)(=O)[O-])c6F)c6ccc3[nH]6)C=C5)C=C4)cc1)C2
REMARK SMILES IDX 22 1 21 2 20 3 18 4 19 5 17 6 16 7 10 8 11 9 14 10 12 12
REMARK SMILES IDX 92 13 13 14 15 15 2 16 1 17 3 18 4 19 9 20 5 21 7 22 6 23
REMARK SMILES IDX 8 24 23 26 24 27 25 28 26 29 27 30 28 31 29 32 30 33 91 34
REMARK SMILES IDX 31 35 90 36 32 37 33 38 34 39 84 40 35 41 89 42 83 43 85 44
REMARK SMILES IDX 36 45 88 46 82 47 81 48 37 50 69 51 49 52 68 53 50 54 53 55
REMARK SMILES IDX 67 56 86 57 51 58 52 59 66 61 87 62 54 63 38 64 39 65 47 66
REMARK SMILES IDX 40 67 42 68 48 69 41 70 43 71 44 72 45 73 46 74 70 75 71 76
REMARK SMILES IDX 79 77 72 78 74 79 80 80 73 81 75 82 76 83 77 84 78 85 55 86
REMARK SMILES IDX 56 87 64 88 57 89 59 90 65 91 58 92 60 93 61 94 62 95 63 96
REMARK H PARENT 10 11 8 25 85 49 53 60
REMARK Flexibility Score: inf
ROOT
ATOM      1  C   UNL A   1      32.391  28.714  26.637  1.00  0.00     0.202 C 
ENDROOT
BRANCH   1   2
ATOM      2  C   UNL A   1      31.736  27.356  26.904  1.00  0.00     0.261 C 
BRANCH   2   3
ATOM      3  O   UNL A   1      32.032  26.453  25.826  1.00  0.00    -0.463 OA
BRANCH   3   4
ATOM      4  C   UNL A   1      31.580  25.185  25.959  1.00  0.00     0.306 C 
ATOM      5  O   UNL A   1      30.555  24.745  25.452  1.00  0.00    -0.252 OA
BRANCH   4   6
ATOM      6  C   UNL A   1      32.469  24.340  26.843  1.00  0.00     0.126 C 
BRANCH   6   7
ATOM      7  C   UNL A   1      33.792  23.740  26.301  1.00  0.00     0.012 C 
ATOM      8  N   UNL A   1      34.123  21.514  24.387  1.00  0.00    -0.324 N 
ATOM      9  C   UNL A   1      34.499  22.851  23.939  1.00  0.00     0.185 C 
ATOM     10  C   UNL A   1      34.728  21.395  25.705  1.00  0.00     0.185 C 
ATOM     11  H   UNL A   1      34.480  20.803  23.748  1.00  0.00     0.349 HD
ATOM     12  C   UNL A   1      36.005  22.816  24.205  1.00  0.00     0.071 C 
ATOM     13  C   UNL A   1      33.848  23.973  24.769  1.00  0.00     0.069 C 
ATOM     14  C   UNL A   1      36.149  21.921  25.432  1.00  0.00     0.071 C 
ATOM     15  C   UNL A   1      33.991  22.269  26.724  1.00  0.00     0.069 C 
BRANCH   8  16
ATOM     16  C   UNL A   1      32.815  20.907  24.065  1.00  0.00     0.212 C 
ATOM     17  C   UNL A   1      32.096  21.560  22.867  1.00  0.00     0.081 C 
BRANCH  16  18
ATOM     18  C   UNL A   1      32.782  19.377  24.026  1.00  0.00     0.013 A 
ATOM     19  C   UNL A   1      32.778  18.634  22.837  1.00  0.00     0.010 A 
ATOM     20  C   UNL A   1      32.865  18.670  25.241  1.00  0.00     0.056 A 
ATOM     21  C   UNL A   1      32.989  17.249  22.857  1.00  0.00     0.004 A 
ATOM     22  C   UNL A   1      33.132  17.305  25.250  1.00  0.00     0.116 A 
ATOM     23  C   UNL A   1      33.208  16.588  24.063  1.00  0.00     0.046 A 
BRANCH  22  24
ATOM     24  O   UNL A   1      33.397  16.720  26.453  1.00  0.00    -0.508 OA
ATOM     25  H   UNL A   1      33.439  15.786  26.521  1.00  0.00     0.293 HD
ENDBRANCH  22  24
ENDBRANCH  16  18
ENDBRANCH   8  16
ENDBRANCH   6   7
ENDBRANCH   4   6
ENDBRANCH   3   4
ENDBRANCH   2   3
ENDBRANCH   1   2
BRANCH   1  26
ATOM     26  O   UNL A   1      31.694  29.862  27.133  1.00  0.00    -0.374 OA
BRANCH  26  27
ATOM     27  C   UNL A   1      31.567  30.976  26.253  1.00  0.00     0.202 C 
BRANCH  27  28
ATOM     28  C   UNL A   1      31.405  32.360  26.892  1.00  0.00     0.261 C 
BRANCH  28  29
ATOM     29  O   UNL A   1      32.588  33.164  26.758  1.00  0.00    -0.460 OA
BRANCH  29  30
ATOM     30  C   UNL A   1      33.135  33.537  27.938  1.00  0.00     0.338 C 
ATOM     31  O   UNL A   1      32.591  34.192  28.822  1.00  0.00    -0.246 OA
BRANCH  30  32
ATOM     32  C   UNL A   1      34.446  32.896  28.139  1.00  0.00     0.060 A 
ATOM     33  C   UNL A   1      34.434  31.548  28.517  1.00  0.00     0.016 A 
ATOM     34  C   UNL A   1      35.652  33.597  28.053  1.00  0.00     0.016 A 
ATOM     35  C   UNL A   1      35.612  30.920  28.904  1.00  0.00     0.010 A 
ATOM     36  C   UNL A   1      36.838  32.963  28.443  1.00  0.00     0.010 A 
ATOM     37  C   UNL A   1      36.813  31.641  28.925  1.00  0.00    -0.014 A 
BRANCH  37  38
ATOM     38  C   UNL A   1      37.980  31.052  29.627  1.00  0.00     0.031 A 
ATOM     39  C   UNL A   1      38.247  31.444  31.057  1.00  0.00     0.074 A 
ATOM     40  C   UNL A   1      38.754  30.128  29.027  1.00  0.00     0.049 A 
ATOM     41  N   UNL A   1      39.177  31.021  31.873  1.00  0.00    -0.248 NA
ATOM     42  C   UNL A   1      37.343  32.447  31.647  1.00  0.00     0.031 C 
ATOM     43  C   UNL A   1      38.589  29.651  27.656  1.00  0.00     0.029 A 
ATOM     44  N   UNL A   1      39.839  29.432  29.499  1.00  0.00    -0.354 N 
ATOM     45  C   UNL A   1      38.990  31.722  33.059  1.00  0.00     0.074 A 
ATOM     46  C   UNL A   1      37.869  32.612  32.852  1.00  0.00     0.031 C 
ATOM     47  C   UNL A   1      39.552  28.752  27.389  1.00  0.00     0.029 A 
ATOM     48  C   UNL A   1      40.412  28.607  28.562  1.00  0.00     0.049 A 
ATOM     49  H   UNL A   1      40.174  29.517  30.421  1.00  0.00     0.167 HD
ATOM     50  C   UNL A   1      39.676  31.623  34.222  1.00  0.00     0.034 A 
ATOM     51  C   UNL A   1      41.515  27.835  28.636  1.00  0.00     0.034 A 
ATOM     52  C   UNL A   1      40.774  30.719  34.436  1.00  0.00     0.049 A 
ATOM     53  C   UNL A   1      42.276  27.760  29.936  1.00  0.00     0.074 A 
ATOM     54  C   UNL A   1      41.502  30.512  35.594  1.00  0.00     0.029 A 
ATOM     55  N   UNL A   1      41.309  29.881  33.472  1.00  0.00    -0.354 N 
ATOM     56  N   UNL A   1      42.017  28.344  31.080  1.00  0.00    -0.248 NA
ATOM     57  C   UNL A   1      43.458  26.886  29.964  1.00  0.00     0.031 C 
ATOM     58  C   UNL A   1      42.500  29.571  35.319  1.00  0.00     0.029 A 
ATOM     59  C   UNL A   1      42.367  29.164  34.002  1.00  0.00     0.049 A 
ATOM     60  H   UNL A   1      40.983  29.805  32.545  1.00  0.00     0.167 HD
ATOM     61  C   UNL A   1      42.978  27.880  31.973  1.00  0.00     0.074 A 
ATOM     62  C   UNL A   1      43.813  26.952  31.240  1.00  0.00     0.031 C 
ATOM     63  C   UNL A   1      43.157  28.200  33.278  1.00  0.00     0.034 A 
BRANCH  50  64
ATOM     64  C   UNL A   1      39.247  32.503  35.367  1.00  0.00     0.023 A 
ATOM     65  C   UNL A   1      38.312  32.025  36.307  1.00  0.00     0.012 A 
ATOM     66  C   UNL A   1      39.813  33.781  35.543  1.00  0.00     0.148 A 
ATOM     67  C   UNL A   1      37.923  32.816  37.387  1.00  0.00     0.002 A 
ATOM     68  C   UNL A   1      39.455  34.545  36.647  1.00  0.00     0.091 A 
ATOM     69  F   UNL A   1      40.683  34.227  34.626  1.00  0.00    -0.205 F 
ATOM     70  C   UNL A   1      38.502  34.070  37.563  1.00  0.00     0.022 A 
BRANCH  68  71
ATOM     71  S   UNL A   1      40.205  36.138  37.005  1.00  0.00     0.127 S 
ATOM     72  O   UNL A   1      41.598  35.762  37.240  1.00  0.00    -0.237 OA
ATOM     73  O   UNL A   1      39.974  36.873  35.761  1.00  0.00    -0.237 OA
ATOM     74  O   UNL A   1      39.496  36.665  38.162  1.00  0.00    -0.744 OA
ENDBRANCH  68  71
ENDBRANCH  50  64
BRANCH  51  75
ATOM     75  C   UNL A   1      41.952  27.046  27.450  1.00  0.00     0.023 A 
ATOM     76  C   UNL A   1      42.586  27.693  26.373  1.00  0.00     0.012 A 
ATOM     77  C   UNL A   1      41.751  25.652  27.393  1.00  0.00     0.148 A 
ATOM     78  C   UNL A   1      42.985  26.972  25.246  1.00  0.00     0.002 A 
ATOM     79  C   UNL A   1      42.203  24.932  26.294  1.00  0.00     0.091 A 
ATOM     80  F   UNL A   1      41.129  25.058  28.421  1.00  0.00    -0.205 F 
ATOM     81  C   UNL A   1      42.803  25.592  25.211  1.00  0.00     0.022 A 
BRANCH  79  82
ATOM     82  S   UNL A   1      42.129  23.139  26.224  1.00  0.00     0.127 S 
ATOM     83  O   UNL A   1      42.741  22.865  24.927  1.00  0.00    -0.237 OA
ATOM     84  O   UNL A   1      42.939  22.760  27.382  1.00  0.00    -0.237 OA
ATOM     85  O   UNL A   1      40.717  22.798  26.342  1.00  0.00    -0.744 OA
ENDBRANCH  79  82
ENDBRANCH  51  75
BRANCH  63  86
ATOM     86  C   UNL A   1      44.270  27.511  34.026  1.00  0.00     0.023 A 
ATOM     87  C   UNL A   1      45.574  28.042  33.999  1.00  0.00     0.012 A 
ATOM     88  C   UNL A   1      44.002  26.377  34.820  1.00  0.00     0.148 A 
ATOM     89  C   UNL A   1      46.601  27.436  34.723  1.00  0.00     0.002 A 
ATOM     90  C   UNL A   1      45.019  25.810  35.578  1.00  0.00     0.091 A 
ATOM     91  F   UNL A   1      42.758  25.876  34.819  1.00  0.00    -0.205 F 
ATOM     92  C   UNL A   1      46.322  26.329  35.521  1.00  0.00     0.022 A 
BRANCH  90  93
ATOM     93  S   UNL A   1      44.728  24.445  36.711  1.00  0.00     0.127 S 
ATOM     94  O   UNL A   1      44.537  23.328  35.787  1.00  0.00    -0.237 OA
ATOM     95  O   UNL A   1      45.978  24.401  37.470  1.00  0.00    -0.237 OA
ATOM     96  O   UNL A   1      43.559  24.815  37.495  1.00  0.00    -0.744 OA
ENDBRANCH  90  93
ENDBRANCH  63  86
ENDBRANCH  37  38
ENDBRANCH  30  32
ENDBRANCH  29  30
ENDBRANCH  28  29
ENDBRANCH  27  28
ENDBRANCH  26  27
ENDBRANCH   1  26
TORSDOF 21
ENDMDL
MODEL 2
REMARK VINA RESULT:     -11.3      2.327      4.197
REMARK SMILES C[C@@H](c1cccc(O)c1)[N@H+]1[C@@H]2CC[C@H]1C[C@H](CC(=O)OCCOCCOC(=O)c1ccc(-c3c4nc(c(-c5cccc(S(=O)(=O)[O-])c5F)c5ccc([nH]5)c(-c5cccc(S(=O)(=O)[O-])c5F)c5nc(c(-c6cccc(S(=O)(=O)[O-])c6F)c6ccc3[nH]6)C=C5)C=C4)cc1)C2
REMARK SMILES IDX 22 1 21 2 20 3 18 4 19 5 17 6 16 7 10 8 11 9 14 10 12 12
REMARK SMILES IDX 92 13 13 14 15 15 2 16 1 17 3 18 4 19 9 20 5 21 7 22 6 23
REMARK SMILES IDX 8 24 23 26 24 27 25 28 26 29 27 30 28 31 29 32 30 33 91 34
REMARK SMILES IDX 31 35 90 36 32 37 33 38 34 39 84 40 35 41 89 42 83 43 85 44
REMARK SMILES IDX 36 45 88 46 82 47 81 48 37 50 69 51 49 52 68 53 50 54 53 55
REMARK SMILES IDX 67 56 86 57 51 58 52 59 66 61 87 62 54 63 38 64 39 65 47 66
REMARK SMILES IDX 40 67 42 68 48 69 41 70 43 71 44 72 45 73 46 74 70 75 71 76
REMARK SMILES IDX 79 77 72 78 74 79 80 80 73 81 75 82 76 83 77 84 78 85 55 86
REMARK SMILES IDX 56 87 64 88 57 89 59 90 65 91 58 92 60 93 61 94 62 95 63 96
REMARK H PARENT 10 11 8 25 85 49 53 60
REMARK Flexibility Score: inf
ROOT
ATOM      1  C   UNL A   1      32.618  29.059  26.971  1.00  0.00     0.202 C 
ENDROOT
BRANCH   1   2
ATOM      2  C   UNL A   1      32.022  27.667  27.196  1.00  0.00     0.261 C 
BRANCH   2   3
ATOM      3  O   UNL A   1      32.450  26.780  26.150  1.00  0.00    -0.463 OA
BRANCH   3   4
ATOM      4  C   UNL A   1      31.983  25.512  26.205  1.00  0.00     0.306 C 
ATOM      5  O   UNL A   1      31.053  25.132  26.907  1.00  0.00    -0.252 OA
BRANCH   4   6
ATOM      6  C   UNL A   1      32.756  24.569  25.312  1.00  0.00     0.126 C 
BRANCH   6   7
ATOM      7  C   UNL A   1      32.709  24.713  23.769  1.00  0.00     0.012 C 
ATOM      8  N   UNL A   1      31.925  27.087  22.194  1.00  0.00    -0.324 N 
ATOM      9  C   UNL A   1      33.327  26.683  22.153  1.00  0.00     0.185 C 
ATOM     10  C   UNL A   1      31.189  25.847  21.997  1.00  0.00     0.185 C 
ATOM     11  H   UNL A   1      31.720  27.762  21.456  1.00  0.00     0.349 HD
ATOM     12  C   UNL A   1      33.338  25.859  20.864  1.00  0.00     0.071 C 
ATOM     13  C   UNL A   1      33.735  25.796  23.344  1.00  0.00     0.069 C 
ATOM     14  C   UNL A   1      31.948  25.233  20.807  1.00  0.00     0.071 C 
ATOM     15  C   UNL A   1      31.279  24.957  23.241  1.00  0.00     0.069 C 
BRANCH   8  16
ATOM     16  C   UNL A   1      31.432  28.160  23.082  1.00  0.00     0.212 C 
ATOM     17  C   UNL A   1      32.493  29.224  23.432  1.00  0.00     0.081 C 
BRANCH  16  18
ATOM     18  C   UNL A   1      30.076  28.763  22.710  1.00  0.00     0.013 A 
ATOM     19  C   UNL A   1      28.853  28.267  23.184  1.00  0.00     0.010 A 
ATOM     20  C   UNL A   1      30.050  29.940  21.937  1.00  0.00     0.056 A 
ATOM     21  C   UNL A   1      27.668  28.994  23.009  1.00  0.00     0.004 A 
ATOM     22  C   UNL A   1      28.882  30.685  21.818  1.00  0.00     0.116 A 
ATOM     23  C   UNL A   1      27.688  30.227  22.361  1.00  0.00     0.046 A 
BRANCH  22  24
ATOM     24  O   UNL A   1      28.970  31.911  21.227  1.00  0.00    -0.508 OA
ATOM     25  H   UNL A   1      29.628  32.073  20.579  1.00  0.00     0.293 HD
ENDBRANCH  22  24
ENDBRANCH  16  18
ENDBRANCH   8  16
ENDBRANCH   6   7
ENDBRANCH   4   6
ENDBRANCH   3   4
ENDBRANCH   2   3
ENDBRANCH   1   2
BRANCH   1  26
ATOM     26  O   UNL A   1      31.781  30.169  27.312  1.00  0.00    -0.374 OA
BRANCH  26  27
ATOM     27  C   UNL A   1      31.668  31.218  26.352  1.00  0.00     0.202 C 
BRANCH  27  28
ATOM     28  C   UNL A   1      31.513  32.645  26.888  1.00  0.00     0.261 C 
BRANCH  28  29
ATOM     29  O   UNL A   1      32.746  33.383  26.838  1.00  0.00    -0.460 OA
BRANCH  29  30
ATOM     30  C   UNL A   1      33.268  33.661  28.055  1.00  0.00     0.338 C 
ATOM     31  O   UNL A   1      32.718  34.278  28.963  1.00  0.00    -0.246 OA
BRANCH  30  32
ATOM     32  C   UNL A   1      34.551  32.964  28.252  1.00  0.00     0.060 A 
ATOM     33  C   UNL A   1      34.482  31.643  28.712  1.00  0.00     0.016 A 
ATOM     34  C   UNL A   1      35.787  33.594  28.085  1.00  0.00     0.016 A 
ATOM     35  C   UNL A   1      35.639  30.977  29.098  1.00  0.00     0.010 A 
ATOM     36  C   UNL A   1      36.952  32.920  28.475  1.00  0.00     0.010 A 
ATOM     37  C   UNL A   1      36.876  31.632  29.037  1.00  0.00    -0.014 A 
BRANCH  37  38
ATOM     38  C   UNL A   1      38.035  31.024  29.735  1.00  0.00     0.031 A 
ATOM     39  C   UNL A   1      38.299  31.395  31.172  1.00  0.00     0.074 A 
ATOM     40  C   UNL A   1      38.803  30.101  29.126  1.00  0.00     0.049 A 
ATOM     41  N   UNL A   1      39.221  30.953  31.985  1.00  0.00    -0.248 NA
ATOM     42  C   UNL A   1      37.402  32.397  31.771  1.00  0.00     0.031 C 
ATOM     43  C   UNL A   1      38.640  29.645  27.748  1.00  0.00     0.029 A 
ATOM     44  N   UNL A   1      39.880  29.390  29.593  1.00  0.00    -0.354 N 
ATOM     45  C   UNL A   1      39.036  31.639  33.180  1.00  0.00     0.074 A 
ATOM     46  C   UNL A   1      37.923  32.541  32.981  1.00  0.00     0.031 C 
ATOM     47  C   UNL A   1      39.597  28.741  27.472  1.00  0.00     0.029 A 
ATOM     48  C   UNL A   1      40.450  28.573  28.647  1.00  0.00     0.049 A 
ATOM     49  H   UNL A   1      40.213  29.460  30.517  1.00  0.00     0.167 HD
ATOM     50  C   UNL A   1      39.716  31.518  34.344  1.00  0.00     0.034 A 
ATOM     51  C   UNL A   1      41.547  27.791  28.715  1.00  0.00     0.034 A 
ATOM     52  C   UNL A   1      40.805  30.603  34.551  1.00  0.00     0.049 A 
ATOM     53  C   UNL A   1      42.301  27.691  30.017  1.00  0.00     0.074 A 
ATOM     54  C   UNL A   1      41.528  30.374  35.708  1.00  0.00     0.029 A 
ATOM     55  N   UNL A   1      41.337  29.773  33.577  1.00  0.00    -0.354 N 
ATOM     56  N   UNL A   1      42.043  28.262  31.167  1.00  0.00    -0.248 NA
ATOM     57  C   UNL A   1      43.476  26.807  30.037  1.00  0.00     0.031 C 
ATOM     58  C   UNL A   1      42.519  29.428  35.425  1.00  0.00     0.029 A 
ATOM     59  C   UNL A   1      42.387  29.039  34.102  1.00  0.00     0.049 A 
ATOM     60  H   UNL A   1      41.015  29.712  32.649  1.00  0.00     0.167 HD
ATOM     61  C   UNL A   1      42.996  27.778  32.058  1.00  0.00     0.074 A 
ATOM     62  C   UNL A   1      43.826  26.854  31.316  1.00  0.00     0.031 C 
ATOM     63  C   UNL A   1      43.172  28.079  33.369  1.00  0.00     0.034 A 
BRANCH  50  64
ATOM     64  C   UNL A   1      39.290  32.387  35.499  1.00  0.00     0.023 A 
ATOM     65  C   UNL A   1      38.430  31.867  36.488  1.00  0.00     0.012 A 
ATOM     66  C   UNL A   1      39.787  33.697  35.635  1.00  0.00     0.148 A 
ATOM     67  C   UNL A   1      38.046  32.648  37.577  1.00  0.00     0.002 A 
ATOM     68  C   UNL A   1      39.436  34.454  36.747  1.00  0.00     0.091 A 
ATOM     69  F   UNL A   1      40.585  34.182  34.674  1.00  0.00    -0.205 F 
ATOM     70  C   UNL A   1      38.557  33.935  37.712  1.00  0.00     0.022 A 
BRANCH  68  71
ATOM     71  S   UNL A   1      40.106  36.093  37.052  1.00  0.00     0.127 S 
ATOM     72  O   UNL A   1      39.244  36.566  38.135  1.00  0.00    -0.237 OA
ATOM     73  O   UNL A   1      41.480  35.793  37.455  1.00  0.00    -0.237 OA
ATOM     74  O   UNL A   1      39.984  36.817  35.795  1.00  0.00    -0.744 OA
ENDBRANCH  68  71
ENDBRANCH  50  64
BRANCH  51  75
ATOM     75  C   UNL A   1      41.981  27.014  27.520  1.00  0.00     0.023 A 
ATOM     76  C   UNL A   1      42.628  27.670  26.456  1.00  0.00     0.012 A 
ATOM     77  C   UNL A   1      41.767  25.624  27.443  1.00  0.00     0.148 A 
ATOM     78  C   UNL A   1      43.025  26.960  25.321  1.00  0.00     0.002 A 
ATOM     79  C   UNL A   1      42.217  24.915  26.336  1.00  0.00     0.091 A 
ATOM     80  F   UNL A   1      41.134  25.021  28.459  1.00  0.00    -0.205 F 
ATOM     81  C   UNL A   1      42.830  25.583  25.266  1.00  0.00     0.022 A 
BRANCH  79  82
ATOM     82  S   UNL A   1      42.126  23.124  26.240  1.00  0.00     0.127 S 
ATOM     83  O   UNL A   1      42.862  22.722  27.435  1.00  0.00    -0.237 OA
ATOM     84  O   UNL A   1      40.682  22.893  26.295  1.00  0.00    -0.237 OA
ATOM     85  O   UNL A   1      42.742  22.766  24.968  1.00  0.00    -0.744 OA
ENDBRANCH  79  82
ENDBRANCH  51  75
BRANCH  63  86
ATOM     86  C   UNL A   1      44.276  27.371  34.111  1.00  0.00     0.023 A 
ATOM     87  C   UNL A   1      45.532  27.989  34.269  1.00  0.00     0.012 A 
ATOM     88  C   UNL A   1      44.040  26.121  34.721  1.00  0.00     0.148 A 
ATOM     89  C   UNL A   1      46.546  27.360  34.992  1.00  0.00     0.002 A 
ATOM     90  C   UNL A   1      45.037  25.525  35.482  1.00  0.00     0.091 A 
ATOM     91  F   UNL A   1      42.843  25.540  34.545  1.00  0.00    -0.205 F 
ATOM     92  C   UNL A   1      46.295  26.136  35.608  1.00  0.00     0.022 A 
BRANCH  90  93
ATOM     93  S   UNL A   1      44.771  23.998  36.392  1.00  0.00     0.127 S 
ATOM     94  O   UNL A   1      46.123  23.442  36.442  1.00  0.00    -0.237 OA
ATOM     95  O   UNL A   1      44.265  24.487  37.675  1.00  0.00    -0.237 OA
ATOM     96  O   UNL A   1      43.807  23.230  35.616  1.00  0.00    -0.744 OA
ENDBRANCH  90  93
ENDBRANCH  63  86
ENDBRANCH  37  38
ENDBRANCH  30  32
ENDBRANCH  29  30
ENDBRANCH  28  29
ENDBRANCH  27  28
ENDBRANCH  26  27
ENDBRANCH   1  26
TORSDOF 21
ENDMDL
MODEL 3
REMARK VINA RESULT:     -11.2      5.055     10.805
REMARK SMILES C[C@@H](c1cccc(O)c1)[N@H+]1[C@@H]2CC[C@H]1C[C@H](CC(=O)OCCOCCOC(=O)c1ccc(-c3c4nc(c(-c5cccc(S(=O)(=O)[O-])c5F)c5ccc([nH]5)c(-c5cccc(S(=O)(=O)[O-])c5F)c5nc(c(-c6cccc(S(=O)(=O)[O-])c6F)c6ccc3[nH]6)C=C5)C=C4)cc1)C2
REMARK SMILES IDX 22 1 21 2 20 3 18 4 19 5 17 6 16 7 10 8 11 9 14 10 12 12
REMARK SMILES IDX 92 13 13 14 15 15 2 16 1 17 3 18 4 19 9 20 5 21 7 22 6 23
REMARK SMILES IDX 8 24 23 26 24 27 25 28 26 29 27 30 28 31 29 32 30 33 91 34
REMARK SMILES IDX 31 35 90 36 32 37 33 38 34 39 84 40 35 41 89 42 83 43 85 44
REMARK SMILES IDX 36 45 88 46 82 47 81 48 37 50 69 51 49 52 68 53 50 54 53 55
REMARK SMILES IDX 67 56 86 57 51 58 52 59 66 61 87 62 54 63 38 64 39 65 47 66
REMARK SMILES IDX 40 67 42 68 48 69 41 70 43 71 44 72 45 73 46 74 70 75 71 76
REMARK SMILES IDX 79 77 72 78 74 79 80 80 73 81 75 82 76 83 77 84 78 85 55 86
REMARK SMILES IDX 56 87 64 88 57 89 59 90 65 91 58 92 60 93 61 94 62 95 63 96
REMARK H PARENT 10 11 8 25 85 49 53 60
REMARK Flexibility Score: inf
ROOT
ATOM      1  C   UNL A   1      35.958  22.495  24.402  1.00  0.00     0.202 C 
ENDROOT
BRANCH   1   2
ATOM      2  C   UNL A   1      35.339  22.945  23.076  1.00  0.00     0.261 C 
BRANCH   2   3
ATOM      3  O   UNL A   1      35.018  24.344  23.140  1.00  0.00    -0.463 OA
BRANCH   3   4
ATOM      4  C   UNL A   1      33.855  24.669  23.750  1.00  0.00     0.306 C 
ATOM      5  O   UNL A   1      32.761  24.722  23.201  1.00  0.00    -0.252 OA
BRANCH   4   6
ATOM      6  C   UNL A   1      34.039  24.998  25.214  1.00  0.00     0.126 C 
BRANCH   6   7
ATOM      7  C   UNL A   1      33.631  26.384  25.776  1.00  0.00     0.012 C 
ATOM      8  N   UNL A   1      31.270  28.009  25.058  1.00  0.00    -0.324 N 
ATOM      9  C   UNL A   1      31.310  27.432  26.398  1.00  0.00     0.185 C 
ATOM     10  C   UNL A   1      32.593  28.586  24.877  1.00  0.00     0.185 C 
ATOM     11  H   UNL A   1      30.541  28.720  24.991  1.00  0.00     0.349 HD
ATOM     12  C   UNL A   1      31.858  28.620  27.192  1.00  0.00     0.071 C 
ATOM     13  C   UNL A   1      32.275  26.237  26.514  1.00  0.00     0.069 C 
ATOM     14  C   UNL A   1      32.779  29.335  26.209  1.00  0.00     0.071 C 
ATOM     15  C   UNL A   1      33.646  27.488  24.697  1.00  0.00     0.069 C 
BRANCH   8  16
ATOM     16  C   UNL A   1      30.527  27.382  23.945  1.00  0.00     0.212 C 
ATOM     17  C   UNL A   1      30.001  25.966  24.259  1.00  0.00     0.081 C 
BRANCH  16  18
ATOM     18  C   UNL A   1      29.490  28.269  23.253  1.00  0.00     0.013 A 
ATOM     19  C   UNL A   1      28.105  28.094  23.392  1.00  0.00     0.010 A 
ATOM     20  C   UNL A   1      29.939  29.385  22.520  1.00  0.00     0.056 A 
ATOM     21  C   UNL A   1      27.210  29.070  22.937  1.00  0.00     0.004 A 
ATOM     22  C   UNL A   1      29.049  30.377  22.123  1.00  0.00     0.116 A 
ATOM     23  C   UNL A   1      27.684  30.235  22.337  1.00  0.00     0.046 A 
BRANCH  22  24
ATOM     24  O   UNL A   1      29.571  31.521  21.595  1.00  0.00    -0.508 OA
ATOM     25  H   UNL A   1      30.368  31.874  21.938  1.00  0.00     0.293 HD
ENDBRANCH  22  24
ENDBRANCH  16  18
ENDBRANCH   8  16
ENDBRANCH   6   7
ENDBRANCH   4   6
ENDBRANCH   3   4
ENDBRANCH   2   3
ENDBRANCH   1   2
BRANCH   1  26
ATOM     26  O   UNL A   1      37.163  21.728  24.311  1.00  0.00    -0.374 OA
BRANCH  26  27
ATOM     27  C   UNL A   1      37.156  20.432  24.906  1.00  0.00     0.202 C 
BRANCH  27  28
ATOM     28  C   UNL A   1      38.507  19.851  25.338  1.00  0.00     0.261 C 
BRANCH  28  29
ATOM     29  O   UNL A   1      39.546  20.845  25.356  1.00  0.00    -0.460 OA
BRANCH  29  30
ATOM     30  C   UNL A   1      40.405  20.721  26.394  1.00  0.00     0.338 C 
ATOM     31  O   UNL A   1      41.087  19.737  26.665  1.00  0.00    -0.246 OA
BRANCH  30  32
ATOM     32  C   UNL A   1      40.582  22.007  27.091  1.00  0.00     0.060 A 
ATOM     33  C   UNL A   1      39.918  23.113  26.545  1.00  0.00     0.016 A 
ATOM     34  C   UNL A   1      41.435  22.163  28.186  1.00  0.00     0.016 A 
ATOM     35  C   UNL A   1      40.175  24.390  27.027  1.00  0.00     0.010 A 
ATOM     36  C   UNL A   1      41.693  23.451  28.672  1.00  0.00     0.010 A 
ATOM     37  C   UNL A   1      41.108  24.574  28.055  1.00  0.00    -0.014 A 
BRANCH  37  38
ATOM     38  C   UNL A   1      41.592  25.949  28.336  1.00  0.00     0.031 A 
ATOM     39  C   UNL A   1      42.963  26.352  27.861  1.00  0.00     0.074 A 
ATOM     40  C   UNL A   1      40.797  26.850  28.944  1.00  0.00     0.049 A 
ATOM     41  N   UNL A   1      43.565  27.508  27.955  1.00  0.00    -0.248 NA
ATOM     42  C   UNL A   1      43.761  25.314  27.188  1.00  0.00     0.031 C 
ATOM     43  C   UNL A   1      39.446  26.588  29.434  1.00  0.00     0.029 A 
ATOM     44  N   UNL A   1      41.022  28.167  29.257  1.00  0.00    -0.354 N 
ATOM     45  C   UNL A   1      44.820  27.332  27.381  1.00  0.00     0.074 A 
ATOM     46  C   UNL A   1      44.900  25.952  26.956  1.00  0.00     0.031 C 
ATOM     47  C   UNL A   1      38.966  27.707  30.005  1.00  0.00     0.029 A 
ATOM     48  C   UNL A   1      39.984  28.754  29.939  1.00  0.00     0.049 A 
ATOM     49  H   UNL A   1      41.848  28.645  29.017  1.00  0.00     0.167 HD
ATOM     50  C   UNL A   1      45.809  28.240  27.206  1.00  0.00     0.034 A 
ATOM     51  C   UNL A   1      39.873  29.991  30.465  1.00  0.00     0.034 A 
ATOM     52  C   UNL A   1      45.719  29.618  27.604  1.00  0.00     0.049 A 
ATOM     53  C   UNL A   1      40.999  30.976  30.276  1.00  0.00     0.074 A 
ATOM     54  C   UNL A   1      46.651  30.625  27.427  1.00  0.00     0.029 A 
ATOM     55  N   UNL A   1      44.642  30.182  28.267  1.00  0.00    -0.354 N 
ATOM     56  N   UNL A   1      42.130  30.824  29.633  1.00  0.00    -0.248 NA
ATOM     57  C   UNL A   1      40.813  32.315  30.854  1.00  0.00     0.031 C 
ATOM     58  C   UNL A   1      46.149  31.792  28.014  1.00  0.00     0.029 A 
ATOM     59  C   UNL A   1      44.889  31.520  28.521  1.00  0.00     0.049 A 
ATOM     60  H   UNL A   1      43.821  29.701  28.521  1.00  0.00     0.167 HD
ATOM     61  C   UNL A   1      42.773  32.056  29.692  1.00  0.00     0.074 A 
ATOM     62  C   UNL A   1      41.896  32.948  30.421  1.00  0.00     0.031 C 
ATOM     63  C   UNL A   1      43.984  32.414  29.197  1.00  0.00     0.034 A 
BRANCH  50  64
ATOM     64  C   UNL A   1      47.075  27.775  26.534  1.00  0.00     0.023 A 
ATOM     65  C   UNL A   1      48.081  27.143  27.293  1.00  0.00     0.012 A 
ATOM     66  C   UNL A   1      47.243  27.911  25.142  1.00  0.00     0.148 A 
ATOM     67  C   UNL A   1      49.248  26.683  26.683  1.00  0.00     0.002 A 
ATOM     68  C   UNL A   1      48.387  27.409  24.534  1.00  0.00     0.091 A 
ATOM     69  F   UNL A   1      46.285  28.534  24.440  1.00  0.00    -0.205 F 
ATOM     70  C   UNL A   1      49.396  26.807  25.305  1.00  0.00     0.022 A 
BRANCH  68  71
ATOM     71  S   UNL A   1      48.635  27.447  22.755  1.00  0.00     0.127 S 
ATOM     72  O   UNL A   1      49.939  28.101  22.653  1.00  0.00    -0.237 OA
ATOM     73  O   UNL A   1      48.639  26.024  22.416  1.00  0.00    -0.237 OA
ATOM     74  O   UNL A   1      47.513  28.198  22.210  1.00  0.00    -0.744 OA
ENDBRANCH  68  71
ENDBRANCH  50  64
BRANCH  51  75
ATOM     75  C   UNL A   1      38.634  30.379  31.197  1.00  0.00     0.023 A 
ATOM     76  C   UNL A   1      38.481  30.027  32.551  1.00  0.00     0.012 A 
ATOM     77  C   UNL A   1      37.613  31.109  30.556  1.00  0.00     0.148 A 
ATOM     78  C   UNL A   1      37.320  30.368  33.246  1.00  0.00     0.002 A 
ATOM     79  C   UNL A   1      36.486  31.495  31.271  1.00  0.00     0.091 A 
ATOM     80  F   UNL A   1      37.771  31.419  29.262  1.00  0.00    -0.205 F 
ATOM     81  C   UNL A   1      36.328  31.110  32.610  1.00  0.00     0.022 A 
BRANCH  79  82
ATOM     82  S   UNL A   1      35.222  32.562  30.570  1.00  0.00     0.127 S 
ATOM     83  O   UNL A   1      34.760  31.771  29.433  1.00  0.00    -0.237 OA
ATOM     84  O   UNL A   1      34.271  32.668  31.677  1.00  0.00    -0.237 OA
ATOM     85  O   UNL A   1      35.899  33.810  30.240  1.00  0.00    -0.744 OA
ENDBRANCH  79  82
ENDBRANCH  51  75
BRANCH  63  86
ATOM     86  C   UNL A   1      44.424  33.844  29.377  1.00  0.00     0.023 A 
ATOM     87  C   UNL A   1      45.521  34.146  30.208  1.00  0.00     0.012 A 
ATOM     88  C   UNL A   1      43.795  34.881  28.659  1.00  0.00     0.148 A 
ATOM     89  C   UNL A   1      45.963  35.462  30.347  1.00  0.00     0.002 A 
ATOM     90  C   UNL A   1      44.273  36.181  28.763  1.00  0.00     0.091 A 
ATOM     91  F   UNL A   1      42.741  34.576  27.887  1.00  0.00    -0.205 F 
ATOM     92  C   UNL A   1      45.348  36.476  29.616  1.00  0.00     0.022 A 
BRANCH  90  93
ATOM     93  S   UNL A   1      43.607  37.534  27.784  1.00  0.00     0.127 S 
ATOM     94  O   UNL A   1      42.223  37.587  28.254  1.00  0.00    -0.237 OA
ATOM     95  O   UNL A   1      44.439  38.661  28.206  1.00  0.00    -0.237 OA
ATOM     96  O   UNL A   1      43.780  37.144  26.392  1.00  0.00    -0.744 OA
ENDBRANCH  90  93
ENDBRANCH  63  86
ENDBRANCH  37  38
ENDBRANCH  30  32
ENDBRANCH  29  30
ENDBRANCH  28  29
ENDBRANCH  27  28
ENDBRANCH  26  27
ENDBRANCH   1  26
TORSDOF 21
ENDMDL
