MODEL 1
REMARK VINA RESULT:     -11.4      0.000      0.000
REMARK SMILES CC/C(C(=O)OCCOCCOC(=O)c1ccc(-c2c3nc(c(-c4cccc(S(=O)(=O)[O-])c4F)c4ccc([nH]4)c(-c4cccc(S(=O)(=O)[O-])c4F)c4nc(c(-c5cccc(S(=O)(=O)[O-])c5F)c5ccc2[nH]5)C=C4)C=C3)cc1)=C1\CCc2ccccc21
REMARK SMILES IDX 10 1 9 2 8 3 7 4 6 5 4 6 5 7 3 8 78 9 79 10 86 11 80 12
REMARK SMILES IDX 81 13 85 14 82 15 84 16 83 17 2 18 1 19 11 20 12 21 13 22
REMARK SMILES IDX 14 23 15 24 16 25 77 26 17 27 76 28 18 29 19 30 20 31 70 32
REMARK SMILES IDX 21 33 75 34 69 35 71 36 22 37 74 38 68 39 67 40 23 42 55 43
REMARK SMILES IDX 35 44 54 45 36 46 39 47 53 48 72 49 37 50 38 51 52 53 73 54
REMARK SMILES IDX 40 55 24 56 25 57 33 58 26 59 28 60 34 61 27 62 29 63 30 64
REMARK SMILES IDX 31 65 32 66 56 67 57 68 65 69 58 70 60 71 66 72 59 73 61 74
REMARK SMILES IDX 62 75 63 76 64 77 41 78 42 79 50 80 43 81 45 82 51 83 44 84
REMARK SMILES IDX 46 85 47 86 48 87 49 88
REMARK H PARENT 71 41 39 52
REMARK Flexibility Score: inf
ROOT
ATOM      1  C   UNL A   1      31.682  29.282  25.433  1.00  0.00     0.202 C 
ENDROOT
BRANCH   1   2
ATOM      2  O   UNL A   1      31.283  29.159  24.067  1.00  0.00    -0.374 OA
BRANCH   2   3
ATOM      3  C   UNL A   1      32.327  28.957  23.110  1.00  0.00     0.202 C 
BRANCH   3   4
ATOM      4  C   UNL A   1      33.671  28.508  23.697  1.00  0.00     0.261 C 
BRANCH   4   5
ATOM      5  O   UNL A   1      33.994  27.193  23.216  1.00  0.00    -0.460 OA
BRANCH   5   6
ATOM      6  C   UNL A   1      33.662  26.162  24.012  1.00  0.00     0.334 C 
ATOM      7  O   UNL A   1      33.657  26.196  25.236  1.00  0.00    -0.247 OA
BRANCH   6   8
ATOM      8  C   UNL A   1      33.144  24.976  23.245  1.00  0.00     0.041 C 
ATOM      9  C   UNL A   1      33.567  23.689  23.299  1.00  0.00    -0.030 C 
ATOM     10  C   UNL A   1      32.740  22.516  22.778  1.00  0.00     0.041 C 
ATOM     11  C   UNL A   1      34.687  23.018  23.985  1.00  0.00    -0.019 A 
ATOM     12  C   UNL A   1      32.908  21.430  23.850  1.00  0.00     0.041 C 
ATOM     13  C   UNL A   1      34.294  21.718  24.327  1.00  0.00    -0.040 A 
ATOM     14  C   UNL A   1      36.012  23.386  24.165  1.00  0.00     0.009 A 
ATOM     15  C   UNL A   1      35.140  20.847  25.000  1.00  0.00     0.004 A 
ATOM     16  C   UNL A   1      36.887  22.514  24.822  1.00  0.00     0.001 A 
ATOM     17  C   UNL A   1      36.445  21.261  25.262  1.00  0.00     0.000 A 
BRANCH   8  18
ATOM     18  C   UNL A   1      32.053  25.398  22.270  1.00  0.00     0.040 C 
ATOM     19  C   UNL A   1      32.521  25.556  20.833  1.00  0.00     0.009 C 
ENDBRANCH   8  18
ENDBRANCH   6   8
ENDBRANCH   5   6
ENDBRANCH   4   5
ENDBRANCH   3   4
ENDBRANCH   2   3
ENDBRANCH   1   2
BRANCH   1  20
ATOM     20  C   UNL A   1      31.721  30.707  25.992  1.00  0.00     0.261 C 
BRANCH  20  21
ATOM     21  O   UNL A   1      32.399  30.748  27.259  1.00  0.00    -0.460 OA
BRANCH  21  22
ATOM     22  C   UNL A   1      33.141  31.860  27.455  1.00  0.00     0.338 C 
ATOM     23  O   UNL A   1      32.733  33.013  27.525  1.00  0.00    -0.246 OA
BRANCH  22  24
ATOM     24  C   UNL A   1      34.538  31.497  27.755  1.00  0.00     0.060 A 
ATOM     25  C   UNL A   1      34.824  30.133  27.877  1.00  0.00     0.016 A 
ATOM     26  C   UNL A   1      35.531  32.453  27.985  1.00  0.00     0.016 A 
ATOM     27  C   UNL A   1      36.075  29.720  28.320  1.00  0.00     0.010 A 
ATOM     28  C   UNL A   1      36.794  32.035  28.425  1.00  0.00     0.010 A 
ATOM     29  C   UNL A   1      37.050  30.671  28.651  1.00  0.00    -0.014 A 
BRANCH  29  30
ATOM     30  C   UNL A   1      38.254  30.221  29.392  1.00  0.00     0.031 A 
ATOM     31  C   UNL A   1      38.457  30.679  30.812  1.00  0.00     0.074 A 
ATOM     32  C   UNL A   1      39.125  29.360  28.834  1.00  0.00     0.049 A 
ATOM     33  N   UNL A   1      39.382  30.333  31.670  1.00  0.00    -0.248 NA
ATOM     34  C   UNL A   1      37.491  31.658  31.337  1.00  0.00     0.031 C 
ATOM     35  C   UNL A   1      39.050  28.852  27.466  1.00  0.00     0.029 A 
ATOM     36  N   UNL A   1      40.247  28.769  29.355  1.00  0.00    -0.354 N 
ATOM     37  C   UNL A   1      39.131  31.072  32.819  1.00  0.00     0.074 A 
ATOM     38  C   UNL A   1      37.979  31.902  32.543  1.00  0.00     0.031 C 
ATOM     39  C   UNL A   1      40.093  28.032  27.250  1.00  0.00     0.029 A 
ATOM     40  C   UNL A   1      40.913  27.969  28.458  1.00  0.00     0.049 A 
ATOM     41  H   UNL A   1      40.548  28.905  30.283  1.00  0.00     0.167 HD
ATOM     42  C   UNL A   1      39.783  31.050  34.007  1.00  0.00     0.034 A 
ATOM     43  C   UNL A   1      42.057  27.269  28.595  1.00  0.00     0.034 A 
ATOM     44  C   UNL A   1      40.913  30.209  34.293  1.00  0.00     0.049 A 
ATOM     45  C   UNL A   1      42.756  27.246  29.928  1.00  0.00     0.074 A 
ATOM     46  C   UNL A   1      41.603  30.068  35.483  1.00  0.00     0.029 A 
ATOM     47  N   UNL A   1      41.533  29.376  33.373  1.00  0.00    -0.354 N 
ATOM     48  N   UNL A   1      42.426  27.844  31.047  1.00  0.00    -0.248 NA
ATOM     49  C   UNL A   1      43.962  26.411  30.030  1.00  0.00     0.031 C 
ATOM     50  C   UNL A   1      42.662  29.178  35.274  1.00  0.00     0.029 A 
ATOM     51  C   UNL A   1      42.605  28.730  33.964  1.00  0.00     0.049 A 
ATOM     52  H   UNL A   1      41.251  29.262  32.436  1.00  0.00     0.167 HD
ATOM     53  C   UNL A   1      43.358  27.432  31.994  1.00  0.00     0.074 A 
ATOM     54  C   UNL A   1      44.253  26.513  31.320  1.00  0.00     0.031 C 
ATOM     55  C   UNL A   1      43.469  27.787  33.298  1.00  0.00     0.034 A 
BRANCH  42  56
ATOM     56  C   UNL A   1      39.277  31.964  35.094  1.00  0.00     0.023 A 
ATOM     57  C   UNL A   1      38.260  31.525  35.968  1.00  0.00     0.012 A 
ATOM     58  C   UNL A   1      39.830  33.247  35.269  1.00  0.00     0.148 A 
ATOM     59  C   UNL A   1      37.774  32.364  36.970  1.00  0.00     0.002 A 
ATOM     60  C   UNL A   1      39.375  34.058  36.302  1.00  0.00     0.091 A 
ATOM     61  F   UNL A   1      40.778  33.657  34.415  1.00  0.00    -0.205 F 
ATOM     62  C   UNL A   1      38.338  33.624  37.144  1.00  0.00     0.022 A 
BRANCH  60  63
ATOM     63  S   UNL A   1      40.096  35.664  36.656  1.00  0.00     0.127 S 
ATOM     64  O   UNL A   1      39.651  36.448  35.506  1.00  0.00    -0.237 OA
ATOM     65  O   UNL A   1      39.453  36.018  37.922  1.00  0.00    -0.237 OA
ATOM     66  O   UNL A   1      41.533  35.446  36.748  1.00  0.00    -0.744 OA
ENDBRANCH  60  63
ENDBRANCH  42  56
BRANCH  43  67
ATOM     67  C   UNL A   1      42.588  26.495  27.439  1.00  0.00     0.023 A 
ATOM     68  C   UNL A   1      43.478  27.104  26.534  1.00  0.00     0.012 A 
ATOM     69  C   UNL A   1      42.235  25.144  27.254  1.00  0.00     0.148 A 
ATOM     70  C   UNL A   1      43.984  26.389  25.448  1.00  0.00     0.002 A 
ATOM     71  C   UNL A   1      42.789  24.422  26.205  1.00  0.00     0.091 A 
ATOM     72  F   UNL A   1      41.376  24.589  28.121  1.00  0.00    -0.205 F 
ATOM     73  C   UNL A   1      43.649  25.046  25.290  1.00  0.00     0.022 A 
BRANCH  71  74
ATOM     74  S   UNL A   1      42.517  22.658  26.002  1.00  0.00     0.127 S 
ATOM     75  O   UNL A   1      41.063  22.567  26.093  1.00  0.00    -0.237 OA
ATOM     76  O   UNL A   1      43.068  22.425  24.665  1.00  0.00    -0.237 OA
ATOM     77  O   UNL A   1      43.258  22.016  27.079  1.00  0.00    -0.744 OA
ENDBRANCH  71  74
ENDBRANCH  43  67
BRANCH  55  78
ATOM     78  C   UNL A   1      44.574  27.150  34.104  1.00  0.00     0.023 A 
ATOM     79  C   UNL A   1      45.868  27.708  34.096  1.00  0.00     0.012 A 
ATOM     80  C   UNL A   1      44.317  26.021  34.908  1.00  0.00     0.148 A 
ATOM     81  C   UNL A   1      46.899  27.123  34.833  1.00  0.00     0.002 A 
ATOM     82  C   UNL A   1      45.336  25.477  35.682  1.00  0.00     0.091 A 
ATOM     83  F   UNL A   1      43.086  25.490  34.893  1.00  0.00    -0.205 F 
ATOM     84  C   UNL A   1      46.632  26.016  35.633  1.00  0.00     0.022 A 
BRANCH  82  85
ATOM     85  S   UNL A   1      45.051  24.112  36.815  1.00  0.00     0.127 S 
ATOM     86  O   UNL A   1      46.357  23.978  37.456  1.00  0.00    -0.237 OA
ATOM     87  O   UNL A   1      43.998  24.642  37.683  1.00  0.00    -0.237 OA
ATOM     88  O   UNL A   1      44.636  22.987  35.987  1.00  0.00    -0.744 OA
ENDBRANCH  82  85
ENDBRANCH  55  78
ENDBRANCH  29  30
ENDBRANCH  22  24
ENDBRANCH  21  22
ENDBRANCH  20  21
ENDBRANCH   1  20
TORSDOF 18
ENDMDL
MODEL 2
REMARK VINA RESULT:     -11.2      4.620     10.217
REMARK SMILES CC/C(C(=O)OCCOCCOC(=O)c1ccc(-c2c3nc(c(-c4cccc(S(=O)(=O)[O-])c4F)c4ccc([nH]4)c(-c4cccc(S(=O)(=O)[O-])c4F)c4nc(c(-c5cccc(S(=O)(=O)[O-])c5F)c5ccc2[nH]5)C=C4)C=C3)cc1)=C1\CCc2ccccc21
REMARK SMILES IDX 10 1 9 2 8 3 7 4 6 5 4 6 5 7 3 8 78 9 79 10 86 11 80 12
REMARK SMILES IDX 81 13 85 14 82 15 84 16 83 17 2 18 1 19 11 20 12 21 13 22
REMARK SMILES IDX 14 23 15 24 16 25 77 26 17 27 76 28 18 29 19 30 20 31 70 32
REMARK SMILES IDX 21 33 75 34 69 35 71 36 22 37 74 38 68 39 67 40 23 42 55 43
REMARK SMILES IDX 35 44 54 45 36 46 39 47 53 48 72 49 37 50 38 51 52 53 73 54
REMARK SMILES IDX 40 55 24 56 25 57 33 58 26 59 28 60 34 61 27 62 29 63 30 64
REMARK SMILES IDX 31 65 32 66 56 67 57 68 65 69 58 70 60 71 66 72 59 73 61 74
REMARK SMILES IDX 62 75 63 76 64 77 41 78 42 79 50 80 43 81 45 82 51 83 44 84
REMARK SMILES IDX 46 85 47 86 48 87 49 88
REMARK H PARENT 71 41 39 52
REMARK Flexibility Score: inf
ROOT
ATOM      1  C   UNL A   1      35.361  21.273  24.646  1.00  0.00     0.202 C 
ENDROOT
BRANCH   1   2
ATOM      2  O   UNL A   1      34.328  20.894  25.557  1.00  0.00    -0.374 OA
BRANCH   2   3
ATOM      3  C   UNL A   1      34.393  21.458  26.871  1.00  0.00     0.202 C 
BRANCH   3   4
ATOM      4  C   UNL A   1      34.405  22.990  26.922  1.00  0.00     0.261 C 
BRANCH   4   5
ATOM      5  O   UNL A   1      33.129  23.499  26.499  1.00  0.00    -0.460 OA
BRANCH   5   6
ATOM      6  C   UNL A   1      33.147  24.511  25.614  1.00  0.00     0.334 C 
ATOM      7  O   UNL A   1      34.162  25.037  25.175  1.00  0.00    -0.247 OA
BRANCH   6   8
ATOM      8  C   UNL A   1      31.779  24.852  25.090  1.00  0.00     0.041 C 
ATOM      9  C   UNL A   1      31.172  26.064  25.050  1.00  0.00    -0.030 C 
ATOM     10  C   UNL A   1      29.964  26.363  24.167  1.00  0.00     0.041 C 
ATOM     11  C   UNL A   1      31.534  27.397  25.569  1.00  0.00    -0.019 A 
ATOM     12  C   UNL A   1      30.258  27.751  23.580  1.00  0.00     0.041 C 
ATOM     13  C   UNL A   1      31.025  28.371  24.702  1.00  0.00    -0.040 A 
ATOM     14  C   UNL A   1      32.094  27.798  26.773  1.00  0.00     0.009 A 
ATOM     15  C   UNL A   1      31.221  29.728  24.925  1.00  0.00     0.004 A 
ATOM     16  C   UNL A   1      32.280  29.161  27.027  1.00  0.00     0.001 A 
ATOM     17  C   UNL A   1      31.871  30.121  26.094  1.00  0.00     0.000 A 
BRANCH   8  18
ATOM     18  C   UNL A   1      31.048  23.598  24.630  1.00  0.00     0.040 C 
ATOM     19  C   UNL A   1      31.645  22.940  23.397  1.00  0.00     0.009 C 
ENDBRANCH   8  18
ENDBRANCH   6   8
ENDBRANCH   5   6
ENDBRANCH   4   5
ENDBRANCH   3   4
ENDBRANCH   2   3
ENDBRANCH   1   2
BRANCH   1  20
ATOM     20  C   UNL A   1      36.759  20.730  24.958  1.00  0.00     0.261 C 
BRANCH  20  21
ATOM     21  O   UNL A   1      37.719  21.795  25.050  1.00  0.00    -0.460 OA
BRANCH  21  22
ATOM     22  C   UNL A   1      38.823  21.486  25.766  1.00  0.00     0.338 C 
ATOM     23  O   UNL A   1      39.478  20.453  25.697  1.00  0.00    -0.246 OA
BRANCH  22  24
ATOM     24  C   UNL A   1      39.267  22.651  26.551  1.00  0.00     0.060 A 
ATOM     25  C   UNL A   1      38.613  23.864  26.308  1.00  0.00     0.016 A 
ATOM     26  C   UNL A   1      40.337  22.590  27.448  1.00  0.00     0.016 A 
ATOM     27  C   UNL A   1      39.083  25.037  26.886  1.00  0.00     0.010 A 
ATOM     28  C   UNL A   1      40.806  23.773  28.035  1.00  0.00     0.010 A 
ATOM     29  C   UNL A   1      40.217  25.008  27.708  1.00  0.00    -0.014 A 
BRANCH  29  30
ATOM     30  C   UNL A   1      40.865  26.294  28.067  1.00  0.00     0.031 A 
ATOM     31  C   UNL A   1      42.233  26.605  27.520  1.00  0.00     0.074 A 
ATOM     32  C   UNL A   1      40.218  27.207  28.815  1.00  0.00     0.049 A 
ATOM     33  N   UNL A   1      42.938  27.702  27.627  1.00  0.00    -0.248 NA
ATOM     34  C   UNL A   1      42.898  25.539  26.752  1.00  0.00     0.031 C 
ATOM     35  C   UNL A   1      38.898  27.024  29.414  1.00  0.00     0.029 A 
ATOM     36  N   UNL A   1      40.594  28.468  29.199  1.00  0.00    -0.354 N 
ATOM     37  C   UNL A   1      44.137  27.449  26.971  1.00  0.00     0.074 A 
ATOM     38  C   UNL A   1      44.073  26.087  26.488  1.00  0.00     0.031 C 
ATOM     39  C   UNL A   1      38.579  28.132  30.105  1.00  0.00     0.029 A 
ATOM     40  C   UNL A   1      39.675  29.094  30.006  1.00  0.00     0.049 A 
ATOM     41  H   UNL A   1      41.443  28.886  28.924  1.00  0.00     0.167 HD
ATOM     42  C   UNL A   1      45.189  28.278  26.768  1.00  0.00     0.034 A 
ATOM     43  C   UNL A   1      39.715  30.302  30.601  1.00  0.00     0.034 A 
ATOM     44  C   UNL A   1      45.245  29.640  27.226  1.00  0.00     0.049 A 
ATOM     45  C   UNL A   1      40.887  31.214  30.348  1.00  0.00     0.074 A 
ATOM     46  C   UNL A   1      46.239  30.579  27.016  1.00  0.00     0.029 A 
ATOM     47  N   UNL A   1      44.274  30.255  28.002  1.00  0.00    -0.354 N 
ATOM     48  N   UNL A   1      41.951  31.008  29.611  1.00  0.00    -0.248 NA
ATOM     49  C   UNL A   1      40.839  32.544  30.973  1.00  0.00     0.031 C 
ATOM     50  C   UNL A   1      45.886  31.750  27.696  1.00  0.00     0.029 A 
ATOM     51  C   UNL A   1      44.651  31.555  28.292  1.00  0.00     0.049 A 
ATOM     52  H   UNL A   1      43.439  29.828  28.302  1.00  0.00     0.167 HD
ATOM     53  C   UNL A   1      42.681  32.192  29.652  1.00  0.00     0.074 A 
ATOM     54  C   UNL A   1      41.923  33.117  30.469  1.00  0.00     0.031 C 
ATOM     55  C   UNL A   1      43.873  32.483  29.074  1.00  0.00     0.034 A 
BRANCH  42  56
ATOM     56  C   UNL A   1      46.368  27.730  26.004  1.00  0.00     0.023 A 
ATOM     57  C   UNL A   1      46.466  27.941  24.613  1.00  0.00     0.012 A 
ATOM     58  C   UNL A   1      47.394  27.032  26.670  1.00  0.00     0.148 A 
ATOM     59  C   UNL A   1      47.544  27.429  23.891  1.00  0.00     0.002 A 
ATOM     60  C   UNL A   1      48.490  26.569  25.952  1.00  0.00     0.091 A 
ATOM     61  F   UNL A   1      47.273  26.820  27.987  1.00  0.00    -0.205 F 
ATOM     62  C   UNL A   1      48.560  26.754  24.561  1.00  0.00     0.022 A 
BRANCH  60  63
ATOM     63  S   UNL A   1      49.887  25.761  26.739  1.00  0.00     0.127 S 
ATOM     64  O   UNL A   1      49.269  24.543  27.259  1.00  0.00    -0.237 OA
ATOM     65  O   UNL A   1      50.797  25.550  25.612  1.00  0.00    -0.237 OA
ATOM     66  O   UNL A   1      50.375  26.694  27.744  1.00  0.00    -0.744 OA
ENDBRANCH  60  63
ENDBRANCH  42  56
BRANCH  43  67
ATOM     67  C   UNL A   1      38.581  30.735  31.463  1.00  0.00     0.023 A 
ATOM     68  C   UNL A   1      38.637  30.530  32.855  1.00  0.00     0.012 A 
ATOM     69  C   UNL A   1      37.459  31.380  30.908  1.00  0.00     0.148 A 
ATOM     70  C   UNL A   1      37.582  30.933  33.674  1.00  0.00     0.002 A 
ATOM     71  C   UNL A   1      36.440  31.830  31.736  1.00  0.00     0.091 A 
ATOM     72  F   UNL A   1      37.421  31.553  29.578  1.00  0.00    -0.205 F 
ATOM     73  C   UNL A   1      36.490  31.593  33.117  1.00  0.00     0.022 A 
BRANCH  71  74
ATOM     74  S   UNL A   1      35.060  32.803  31.122  1.00  0.00     0.127 S 
ATOM     75  O   UNL A   1      35.673  34.118  30.953  1.00  0.00    -0.237 OA
ATOM     76  O   UNL A   1      34.736  32.107  29.875  1.00  0.00    -0.237 OA
ATOM     77  O   UNL A   1      34.028  32.717  32.146  1.00  0.00    -0.744 OA
ENDBRANCH  71  74
ENDBRANCH  43  67
BRANCH  55  78
ATOM     78  C   UNL A   1      44.421  33.877  29.266  1.00  0.00     0.023 A 
ATOM     79  C   UNL A   1      45.568  34.083  30.060  1.00  0.00     0.012 A 
ATOM     80  C   UNL A   1      43.824  34.978  28.621  1.00  0.00     0.148 A 
ATOM     81  C   UNL A   1      46.078  35.368  30.249  1.00  0.00     0.002 A 
ATOM     82  C   UNL A   1      44.371  36.247  28.771  1.00  0.00     0.091 A 
ATOM     83  F   UNL A   1      42.723  34.770  27.884  1.00  0.00    -0.205 F 
ATOM     84  C   UNL A   1      45.488  36.447  29.598  1.00  0.00     0.022 A 
BRANCH  82  85
ATOM     85  S   UNL A   1      43.730  37.675  27.887  1.00  0.00     0.127 S 
ATOM     86  O   UNL A   1      44.739  38.689  28.187  1.00  0.00    -0.237 OA
ATOM     87  O   UNL A   1      43.730  37.208  26.500  1.00  0.00    -0.237 OA
ATOM     88  O   UNL A   1      42.404  37.921  28.438  1.00  0.00    -0.744 OA
ENDBRANCH  82  85
ENDBRANCH  55  78
ENDBRANCH  29  30
ENDBRANCH  22  24
ENDBRANCH  21  22
ENDBRANCH  20  21
ENDBRANCH   1  20
TORSDOF 18
ENDMDL
MODEL 3
REMARK VINA RESULT:     -11.1      2.021      3.485
REMARK SMILES CC/C(C(=O)OCCOCCOC(=O)c1ccc(-c2c3nc(c(-c4cccc(S(=O)(=O)[O-])c4F)c4ccc([nH]4)c(-c4cccc(S(=O)(=O)[O-])c4F)c4nc(c(-c5cccc(S(=O)(=O)[O-])c5F)c5ccc2[nH]5)C=C4)C=C3)cc1)=C1\CCc2ccccc21
REMARK SMILES IDX 10 1 9 2 8 3 7 4 6 5 4 6 5 7 3 8 78 9 79 10 86 11 80 12
REMARK SMILES IDX 81 13 85 14 82 15 84 16 83 17 2 18 1 19 11 20 12 21 13 22
REMARK SMILES IDX 14 23 15 24 16 25 77 26 17 27 76 28 18 29 19 30 20 31 70 32
REMARK SMILES IDX 21 33 75 34 69 35 71 36 22 37 74 38 68 39 67 40 23 42 55 43
REMARK SMILES IDX 35 44 54 45 36 46 39 47 53 48 72 49 37 50 38 51 52 53 73 54
REMARK SMILES IDX 40 55 24 56 25 57 33 58 26 59 28 60 34 61 27 62 29 63 30 64
REMARK SMILES IDX 31 65 32 66 56 67 57 68 65 69 58 70 60 71 66 72 59 73 61 74
REMARK SMILES IDX 62 75 63 76 64 77 41 78 42 79 50 80 43 81 45 82 51 83 44 84
REMARK SMILES IDX 46 85 47 86 48 87 49 88
REMARK H PARENT 71 41 39 52
REMARK Flexibility Score: inf
ROOT
ATOM      1  C   UNL A   1      32.156  29.286  25.590  1.00  0.00     0.202 C 
ENDROOT
BRANCH   1   2
ATOM      2  O   UNL A   1      32.636  29.341  24.245  1.00  0.00    -0.374 OA
BRANCH   2   3
ATOM      3  C   UNL A   1      33.662  28.408  23.893  1.00  0.00     0.202 C 
BRANCH   3   4
ATOM      4  C   UNL A   1      33.714  28.026  22.409  1.00  0.00     0.261 C 
BRANCH   4   5
ATOM      5  O   UNL A   1      33.444  26.623  22.260  1.00  0.00    -0.460 OA
BRANCH   5   6
ATOM      6  C   UNL A   1      32.183  26.282  21.940  1.00  0.00     0.334 C 
ATOM      7  O   UNL A   1      31.794  26.029  20.807  1.00  0.00    -0.247 OA
BRANCH   6   8
ATOM      8  C   UNL A   1      31.305  26.095  23.147  1.00  0.00     0.041 C 
ATOM      9  C   UNL A   1      30.217  26.816  23.515  1.00  0.00    -0.030 C 
ATOM     10  C   UNL A   1      29.191  26.317  24.529  1.00  0.00     0.041 C 
ATOM     11  C   UNL A   1      29.585  28.039  22.987  1.00  0.00    -0.019 A 
ATOM     12  C   UNL A   1      27.836  26.703  23.918  1.00  0.00     0.041 C 
ATOM     13  C   UNL A   1      28.203  27.960  23.198  1.00  0.00    -0.040 A 
ATOM     14  C   UNL A   1      30.124  29.228  22.520  1.00  0.00     0.009 A 
ATOM     15  C   UNL A   1      27.338  28.968  22.790  1.00  0.00     0.004 A 
ATOM     16  C   UNL A   1      29.271  30.264  22.124  1.00  0.00     0.001 A 
ATOM     17  C   UNL A   1      27.883  30.123  22.232  1.00  0.00     0.000 A 
BRANCH   8  18
ATOM     18  C   UNL A   1      31.831  24.970  24.029  1.00  0.00     0.040 C 
ATOM     19  C   UNL A   1      31.427  23.576  23.578  1.00  0.00     0.009 C 
ENDBRANCH   8  18
ENDBRANCH   6   8
ENDBRANCH   5   6
ENDBRANCH   4   5
ENDBRANCH   3   4
ENDBRANCH   2   3
ENDBRANCH   1   2
BRANCH   1  20
ATOM     20  C   UNL A   1      32.044  30.630  26.315  1.00  0.00     0.261 C 
BRANCH  20  21
ATOM     21  O   UNL A   1      32.861  30.651  27.496  1.00  0.00    -0.460 OA
BRANCH  21  22
ATOM     22  C   UNL A   1      33.629  31.756  27.621  1.00  0.00     0.338 C 
ATOM     23  O   UNL A   1      33.250  32.921  27.595  1.00  0.00    -0.246 OA
BRANCH  22  24
ATOM     24  C   UNL A   1      35.010  31.384  27.974  1.00  0.00     0.060 A 
ATOM     25  C   UNL A   1      35.255  30.028  28.223  1.00  0.00     0.016 A 
ATOM     26  C   UNL A   1      36.028  32.329  28.132  1.00  0.00     0.016 A 
ATOM     27  C   UNL A   1      36.488  29.624  28.721  1.00  0.00     0.010 A 
ATOM     28  C   UNL A   1      37.272  31.918  28.627  1.00  0.00     0.010 A 
ATOM     29  C   UNL A   1      37.485  30.573  28.980  1.00  0.00    -0.014 A 
BRANCH  29  30
ATOM     30  C   UNL A   1      38.667  30.158  29.777  1.00  0.00     0.031 A 
ATOM     31  C   UNL A   1      38.800  30.640  31.198  1.00  0.00     0.074 A 
ATOM     32  C   UNL A   1      39.578  29.309  29.268  1.00  0.00     0.049 A 
ATOM     33  N   UNL A   1      39.696  30.326  32.098  1.00  0.00    -0.248 NA
ATOM     34  C   UNL A   1      37.793  31.606  31.666  1.00  0.00     0.031 C 
ATOM     35  C   UNL A   1      39.571  28.781  27.906  1.00  0.00     0.029 A 
ATOM     36  N   UNL A   1      40.689  28.749  29.845  1.00  0.00    -0.354 N 
ATOM     37  C   UNL A   1      39.381  31.076  33.225  1.00  0.00     0.074 A 
ATOM     38  C   UNL A   1      38.225  31.877  32.888  1.00  0.00     0.031 C 
ATOM     39  C   UNL A   1      40.639  27.980  27.746  1.00  0.00     0.029 A 
ATOM     40  C   UNL A   1      41.409  27.950  28.989  1.00  0.00     0.049 A 
ATOM     41  H   UNL A   1      40.948  28.905  30.783  1.00  0.00     0.167 HD
ATOM     42  C   UNL A   1      39.983  31.084  34.439  1.00  0.00     0.034 A 
ATOM     43  C   UNL A   1      42.560  27.277  29.183  1.00  0.00     0.034 A 
ATOM     44  C   UNL A   1      41.117  30.271  34.784  1.00  0.00     0.049 A 
ATOM     45  C   UNL A   1      43.202  27.287  30.545  1.00  0.00     0.074 A 
ATOM     46  C   UNL A   1      41.759  30.161  36.004  1.00  0.00     0.029 A 
ATOM     47  N   UNL A   1      41.792  29.439  33.903  1.00  0.00    -0.354 N 
ATOM     48  N   UNL A   1      42.813  27.894  31.640  1.00  0.00    -0.248 NA
ATOM     49  C   UNL A   1      44.420  26.480  30.709  1.00  0.00     0.031 C 
ATOM     50  C   UNL A   1      42.844  29.291  35.853  1.00  0.00     0.029 A 
ATOM     51  C   UNL A   1      42.852  28.824  34.548  1.00  0.00     0.049 A 
ATOM     52  H   UNL A   1      41.552  29.306  32.957  1.00  0.00     0.167 HD
ATOM     53  C   UNL A   1      43.713  27.515  32.631  1.00  0.00     0.074 A 
ATOM     54  C   UNL A   1      44.654  26.605  32.008  1.00  0.00     0.031 C 
ATOM     55  C   UNL A   1      43.761  27.890  33.933  1.00  0.00     0.034 A 
BRANCH  42  56
ATOM     56  C   UNL A   1      39.413  32.002  35.490  1.00  0.00     0.023 A 
ATOM     57  C   UNL A   1      38.404  31.539  36.360  1.00  0.00     0.012 A 
ATOM     58  C   UNL A   1      39.899  33.316  35.637  1.00  0.00     0.148 A 
ATOM     59  C   UNL A   1      37.859  32.380  37.329  1.00  0.00     0.002 A 
ATOM     60  C   UNL A   1      39.386  34.132  36.638  1.00  0.00     0.091 A 
ATOM     61  F   UNL A   1      40.840  33.749  34.786  1.00  0.00    -0.205 F 
ATOM     62  C   UNL A   1      38.357  33.672  37.475  1.00  0.00     0.022 A 
BRANCH  60  63
ATOM     63  S   UNL A   1      40.020  35.782  36.956  1.00  0.00     0.127 S 
ATOM     64  O   UNL A   1      39.311  36.139  38.183  1.00  0.00    -0.237 OA
ATOM     65  O   UNL A   1      41.452  35.533  37.130  1.00  0.00    -0.237 OA
ATOM     66  O   UNL A   1      39.682  36.574  35.783  1.00  0.00    -0.744 OA
ENDBRANCH  60  63
ENDBRANCH  42  56
BRANCH  43  67
ATOM     67  C   UNL A   1      43.154  26.498  28.062  1.00  0.00     0.023 A 
ATOM     68  C   UNL A   1      42.568  25.283  27.660  1.00  0.00     0.012 A 
ATOM     69  C   UNL A   1      44.284  26.979  27.371  1.00  0.00     0.148 A 
ATOM     70  C   UNL A   1      43.114  24.545  26.610  1.00  0.00     0.002 A 
ATOM     71  C   UNL A   1      44.787  26.269  26.289  1.00  0.00     0.091 A 
ATOM     72  F   UNL A   1      44.833  28.132  27.779  1.00  0.00    -0.205 F 
ATOM     73  C   UNL A   1      44.215  25.043  25.917  1.00  0.00     0.022 A 
BRANCH  71  74
ATOM     74  S   UNL A   1      46.117  26.897  25.260  1.00  0.00     0.127 S 
ATOM     75  O   UNL A   1      45.500  28.077  24.660  1.00  0.00    -0.237 OA
ATOM     76  O   UNL A   1      47.154  27.181  26.254  1.00  0.00    -0.237 OA
ATOM     77  O   UNL A   1      46.447  25.820  24.336  1.00  0.00    -0.744 OA
ENDBRANCH  71  74
ENDBRANCH  43  67
BRANCH  55  78
ATOM     78  C   UNL A   1      44.844  27.288  34.794  1.00  0.00     0.023 A 
ATOM     79  C   UNL A   1      46.068  27.966  34.969  1.00  0.00     0.012 A 
ATOM     80  C   UNL A   1      44.631  26.069  35.467  1.00  0.00     0.148 A 
ATOM     81  C   UNL A   1      47.079  27.414  35.758  1.00  0.00     0.002 A 
ATOM     82  C   UNL A   1      45.622  25.553  36.295  1.00  0.00     0.091 A 
ATOM     83  F   UNL A   1      43.470  25.426  35.278  1.00  0.00    -0.205 F 
ATOM     84  C   UNL A   1      46.853  26.215  36.429  1.00  0.00     0.022 A 
BRANCH  82  85
ATOM     85  S   UNL A   1      45.374  24.065  37.272  1.00  0.00     0.127 S 
ATOM     86  O   UNL A   1      44.546  24.562  38.368  1.00  0.00    -0.237 OA
ATOM     87  O   UNL A   1      44.676  23.187  36.331  1.00  0.00    -0.237 OA
ATOM     88  O   UNL A   1      46.706  23.607  37.645  1.00  0.00    -0.744 OA
ENDBRANCH  82  85
ENDBRANCH  55  78
ENDBRANCH  29  30
ENDBRANCH  22  24
ENDBRANCH  21  22
ENDBRANCH  20  21
ENDBRANCH   1  20
TORSDOF 18
ENDMDL
