MODEL 1
REMARK VINA RESULT:     -11.3      0.000      0.000
REMARK SMILES CC(C)OC(=O)c1c(NC(=O)[C@H]2[C@@H](C(=O)OCCOCCOC(=O)c3ccc(-c4c5nc(c(-c6cccc(S(=O)(=O)[O-])c6F)c6ccc([nH]6)c(-c6cccc(S(=O)(=O)[O-])c6F)c6nc(c(-c7cccc(S(=O)(=O)[O-])c7F)c7ccc4[nH]7)C=C6)C=C5)cc3)[C@@H]3C=C[C@H]2CC3)sc2c1CCC2
REMARK SMILES IDX 18 1 17 2 16 3 14 4 15 5 13 6 12 7 91 8 88 9 90 10 92 11
REMARK SMILES IDX 89 12 93 13 10 14 9 15 11 17 8 18 7 19 96 20 94 21 95 22
REMARK SMILES IDX 97 23 99 24 98 25 5 26 6 27 4 28 2 29 1 30 3 31 19 32 20 33
REMARK SMILES IDX 21 34 22 35 23 36 24 37 25 38 26 39 87 40 27 41 86 42 28 43
REMARK SMILES IDX 29 44 30 45 80 46 31 47 85 48 79 49 81 50 32 51 84 52 78 53
REMARK SMILES IDX 77 54 33 56 65 57 45 58 64 59 46 60 49 61 63 62 82 63 47 64
REMARK SMILES IDX 48 65 62 67 83 68 50 69 34 70 35 71 43 72 36 73 38 74 44 75
REMARK SMILES IDX 37 76 39 77 40 78 41 79 42 80 66 81 67 82 75 83 68 84 70 85
REMARK SMILES IDX 76 86 69 87 71 88 72 89 73 90 74 91 51 92 52 93 60 94 53 95
REMARK SMILES IDX 55 96 61 97 54 98 56 99 57 100 58 101 59 102
REMARK H PARENT 9 16 81 55 49 66
REMARK Flexibility Score: inf
ROOT
ATOM      1  C   UNL A   1      34.504  29.330  27.048  1.00  0.00     0.202 C 
ENDROOT
BRANCH   1   2
ATOM      2  C   UNL A   1      33.574  28.118  26.968  1.00  0.00     0.261 C 
BRANCH   2   3
ATOM      3  O   UNL A   1      33.988  27.184  25.970  1.00  0.00    -0.463 OA
BRANCH   3   4
ATOM      4  C   UNL A   1      33.539  27.448  24.712  1.00  0.00     0.310 C 
ATOM      5  O   UNL A   1      34.169  28.047  23.852  1.00  0.00    -0.252 OA
BRANCH   4   6
ATOM      6  C   UNL A   1      32.145  26.883  24.535  1.00  0.00     0.119 C 
ATOM      7  C   UNL A   1      31.911  26.212  23.127  1.00  0.00     0.100 C 
ATOM      8  C   UNL A   1      30.907  27.100  22.379  1.00  0.00     0.025 C 
ATOM      9  C   UNL A   1      31.105  28.019  24.798  1.00  0.00     0.026 C 
ATOM     10  C   UNL A   1      29.612  27.075  23.171  1.00  0.00    -0.027 C 
ATOM     11  C   UNL A   1      31.400  28.574  22.394  1.00  0.00     0.009 C 
ATOM     12  C   UNL A   1      29.719  27.524  24.431  1.00  0.00    -0.027 C 
ATOM     13  C   UNL A   1      31.378  29.167  23.812  1.00  0.00     0.009 C 
BRANCH   7  14
ATOM     14  C   UNL A   1      33.158  25.566  22.454  1.00  0.00     0.229 C 
ATOM     15  N   UNL A   1      33.628  24.288  22.507  1.00  0.00    -0.317 N 
ATOM     16  H   UNL A   1      34.385  24.119  21.901  1.00  0.00     0.170 HD
ATOM     17  O   UNL A   1      33.779  26.299  21.658  1.00  0.00    -0.274 OA
BRANCH  15  18
ATOM     18  C   UNL A   1      33.249  23.190  23.240  1.00  0.00     0.110 A 
ATOM     19  C   UNL A   1      33.575  22.857  24.558  1.00  0.00     0.098 A 
ATOM     20  C   UNL A   1      33.316  21.463  24.715  1.00  0.00    -0.017 A 
ATOM     21  S   UNL A   1      31.981  22.173  22.689  1.00  0.00    -0.122 S 
ATOM     22  C   UNL A   1      32.571  20.966  23.680  1.00  0.00     0.011 A 
ATOM     23  C   UNL A   1      33.660  20.369  25.659  1.00  0.00     0.038 C 
ATOM     24  C   UNL A   1      32.443  19.496  23.645  1.00  0.00     0.047 C 
ATOM     25  C   UNL A   1      33.451  19.097  24.768  1.00  0.00     0.010 C 
BRANCH  19  26
ATOM     26  C   UNL A   1      34.178  23.802  25.490  1.00  0.00     0.341 C 
ATOM     27  O   UNL A   1      33.674  24.052  26.571  1.00  0.00    -0.246 OA
BRANCH  26  28
ATOM     28  O   UNL A   1      35.399  24.250  25.074  1.00  0.00    -0.459 OA
BRANCH  28  29
ATOM     29  C   UNL A   1      36.500  23.318  24.963  1.00  0.00     0.170 C 
ATOM     30  C   UNL A   1      36.934  22.983  23.539  1.00  0.00     0.052 C 
ATOM     31  C   UNL A   1      37.657  23.789  25.839  1.00  0.00     0.052 C 
ENDBRANCH  28  29
ENDBRANCH  26  28
ENDBRANCH  19  26
ENDBRANCH  15  18
ENDBRANCH   7  14
ENDBRANCH   4   6
ENDBRANCH   3   4
ENDBRANCH   2   3
ENDBRANCH   1   2
BRANCH   1  32
ATOM     32  O   UNL A   1      34.000  30.643  26.806  1.00  0.00    -0.374 OA
BRANCH  32  33
ATOM     33  C   UNL A   1      33.754  31.563  27.867  1.00  0.00     0.202 C 
BRANCH  33  34
ATOM     34  C   UNL A   1      34.904  32.094  28.717  1.00  0.00     0.261 C 
BRANCH  34  35
ATOM     35  O   UNL A   1      35.086  31.350  29.907  1.00  0.00    -0.460 OA
BRANCH  35  36
ATOM     36  C   UNL A   1      36.242  31.662  30.532  1.00  0.00     0.338 C 
ATOM     37  O   UNL A   1      36.374  32.303  31.562  1.00  0.00    -0.246 OA
BRANCH  36  38
ATOM     38  C   UNL A   1      37.370  31.224  29.710  1.00  0.00     0.060 A 
ATOM     39  C   UNL A   1      37.336  29.871  29.373  1.00  0.00     0.016 A 
ATOM     40  C   UNL A   1      38.555  31.968  29.765  1.00  0.00     0.016 A 
ATOM     41  C   UNL A   1      38.514  29.180  29.443  1.00  0.00     0.010 A 
ATOM     42  C   UNL A   1      39.731  31.274  29.847  1.00  0.00     0.010 A 
ATOM     43  C   UNL A   1      39.669  29.884  29.802  1.00  0.00    -0.014 A 
BRANCH  43  44
ATOM     44  C   UNL A   1      40.873  29.119  29.996  1.00  0.00     0.031 A 
ATOM     45  C   UNL A   1      41.203  29.048  31.433  1.00  0.00     0.074 A 
ATOM     46  C   UNL A   1      41.509  28.517  28.975  1.00  0.00     0.049 A 
ATOM     47  N   UNL A   1      42.125  29.700  32.059  1.00  0.00    -0.248 NA
ATOM     48  C   UNL A   1      40.205  28.418  32.317  1.00  0.00     0.031 C 
ATOM     49  C   UNL A   1      41.048  28.342  27.593  1.00  0.00     0.029 A 
ATOM     50  N   UNL A   1      42.659  27.799  29.000  1.00  0.00    -0.354 N 
ATOM     51  C   UNL A   1      41.979  29.311  33.386  1.00  0.00     0.074 A 
ATOM     52  C   UNL A   1      40.638  28.819  33.512  1.00  0.00     0.031 C 
ATOM     53  C   UNL A   1      41.762  27.346  27.016  1.00  0.00     0.029 A 
ATOM     54  C   UNL A   1      42.793  26.907  27.942  1.00  0.00     0.049 A 
ATOM     55  H   UNL A   1      43.339  27.901  29.706  1.00  0.00     0.167 HD
ATOM     56  C   UNL A   1      43.074  29.060  34.151  1.00  0.00     0.034 A 
ATOM     57  C   UNL A   1      43.615  25.825  27.910  1.00  0.00     0.034 A 
ATOM     58  C   UNL A   1      44.248  29.676  33.575  1.00  0.00     0.049 A 
ATOM     59  C   UNL A   1      44.631  26.016  28.975  1.00  0.00     0.074 A 
ATOM     60  C   UNL A   1      44.600  30.964  33.224  1.00  0.00     0.029 A 
ATOM     61  N   UNL A   1      45.101  28.845  32.888  1.00  0.00    -0.354 N 
ATOM     62  N   UNL A   1      45.524  26.967  28.952  1.00  0.00    -0.248 NA
ATOM     63  C   UNL A   1      44.337  25.465  30.291  1.00  0.00     0.031 C 
ATOM     64  C   UNL A   1      45.333  30.828  32.008  1.00  0.00     0.029 A 
ATOM     65  C   UNL A   1      45.463  29.467  31.724  1.00  0.00     0.049 A 
ATOM     66  H   UNL A   1      45.400  27.954  33.181  1.00  0.00     0.167 HD
ATOM     67  C   UNL A   1      45.547  27.448  30.255  1.00  0.00     0.074 A 
ATOM     68  C   UNL A   1      44.870  26.424  31.053  1.00  0.00     0.031 C 
ATOM     69  C   UNL A   1      45.822  28.760  30.515  1.00  0.00     0.034 A 
BRANCH  56  70
ATOM     70  C   UNL A   1      43.181  27.900  35.125  1.00  0.00     0.023 A 
ATOM     71  C   UNL A   1      43.511  28.231  36.457  1.00  0.00     0.012 A 
ATOM     72  C   UNL A   1      43.269  26.529  34.774  1.00  0.00     0.148 A 
ATOM     73  C   UNL A   1      43.988  27.272  37.357  1.00  0.00     0.002 A 
ATOM     74  C   UNL A   1      43.679  25.569  35.690  1.00  0.00     0.091 A 
ATOM     75  F   UNL A   1      43.072  26.127  33.521  1.00  0.00    -0.205 F 
ATOM     76  C   UNL A   1      44.076  25.940  36.972  1.00  0.00     0.022 A 
BRANCH  74  77
ATOM     77  S   UNL A   1      43.781  23.827  35.245  1.00  0.00     0.127 S 
ATOM     78  O   UNL A   1      44.457  23.270  36.413  1.00  0.00    -0.237 OA
ATOM     79  O   UNL A   1      42.369  23.474  35.115  1.00  0.00    -0.237 OA
ATOM     80  O   UNL A   1      44.527  23.775  33.993  1.00  0.00    -0.744 OA
ENDBRANCH  74  77
ENDBRANCH  56  70
BRANCH  57  81
ATOM     81  C   UNL A   1      43.382  24.496  27.287  1.00  0.00     0.023 A 
ATOM     82  C   UNL A   1      42.093  23.922  27.312  1.00  0.00     0.012 A 
ATOM     83  C   UNL A   1      44.344  23.918  26.429  1.00  0.00     0.148 A 
ATOM     84  C   UNL A   1      41.773  22.825  26.500  1.00  0.00     0.002 A 
ATOM     85  C   UNL A   1      44.026  22.821  25.633  1.00  0.00     0.091 A 
ATOM     86  F   UNL A   1      45.545  24.500  26.322  1.00  0.00    -0.205 F 
ATOM     87  C   UNL A   1      42.736  22.278  25.657  1.00  0.00     0.022 A 
BRANCH  85  88
ATOM     88  S   UNL A   1      45.215  22.081  24.505  1.00  0.00     0.127 S 
ATOM     89  O   UNL A   1      44.481  20.913  24.019  1.00  0.00    -0.237 OA
ATOM     90  O   UNL A   1      45.400  23.143  23.520  1.00  0.00    -0.237 OA
ATOM     91  O   UNL A   1      46.386  21.760  25.311  1.00  0.00    -0.744 OA
ENDBRANCH  85  88
ENDBRANCH  57  81
BRANCH  69  92
ATOM     92  C   UNL A   1      46.344  29.613  29.386  1.00  0.00     0.023 A 
ATOM     93  C   UNL A   1      47.656  29.495  28.879  1.00  0.00     0.012 A 
ATOM     94  C   UNL A   1      45.415  30.402  28.693  1.00  0.00     0.148 A 
ATOM     95  C   UNL A   1      48.031  30.163  27.708  1.00  0.00     0.002 A 
ATOM     96  C   UNL A   1      45.775  31.021  27.504  1.00  0.00     0.091 A 
ATOM     97  F   UNL A   1      44.173  30.497  29.191  1.00  0.00    -0.205 F 
ATOM     98  C   UNL A   1      47.084  30.912  27.011  1.00  0.00     0.022 A 
BRANCH  96  99
ATOM     99  S   UNL A   1      44.564  31.879  26.497  1.00  0.00     0.127 S 
ATOM    100  O   UNL A   1      45.367  32.307  25.354  1.00  0.00    -0.237 OA
ATOM    101  O   UNL A   1      43.595  30.822  26.205  1.00  0.00    -0.237 OA
ATOM    102  O   UNL A   1      44.037  32.954  27.328  1.00  0.00    -0.744 OA
ENDBRANCH  96  99
ENDBRANCH  69  92
ENDBRANCH  43  44
ENDBRANCH  36  38
ENDBRANCH  35  36
ENDBRANCH  34  35
ENDBRANCH  33  34
ENDBRANCH  32  33
ENDBRANCH   1  32
TORSDOF 22
ENDMDL
MODEL 2
REMARK VINA RESULT:     -11.2      3.359      6.853
REMARK SMILES CC(C)OC(=O)c1c(NC(=O)[C@H]2[C@@H](C(=O)OCCOCCOC(=O)c3ccc(-c4c5nc(c(-c6cccc(S(=O)(=O)[O-])c6F)c6ccc([nH]6)c(-c6cccc(S(=O)(=O)[O-])c6F)c6nc(c(-c7cccc(S(=O)(=O)[O-])c7F)c7ccc4[nH]7)C=C6)C=C5)cc3)[C@@H]3C=C[C@H]2CC3)sc2c1CCC2
REMARK SMILES IDX 18 1 17 2 16 3 14 4 15 5 13 6 12 7 91 8 88 9 90 10 92 11
REMARK SMILES IDX 89 12 93 13 10 14 9 15 11 17 8 18 7 19 96 20 94 21 95 22
REMARK SMILES IDX 97 23 99 24 98 25 5 26 6 27 4 28 2 29 1 30 3 31 19 32 20 33
REMARK SMILES IDX 21 34 22 35 23 36 24 37 25 38 26 39 87 40 27 41 86 42 28 43
REMARK SMILES IDX 29 44 30 45 80 46 31 47 85 48 79 49 81 50 32 51 84 52 78 53
REMARK SMILES IDX 77 54 33 56 65 57 45 58 64 59 46 60 49 61 63 62 82 63 47 64
REMARK SMILES IDX 48 65 62 67 83 68 50 69 34 70 35 71 43 72 36 73 38 74 44 75
REMARK SMILES IDX 37 76 39 77 40 78 41 79 42 80 66 81 67 82 75 83 68 84 70 85
REMARK SMILES IDX 76 86 69 87 71 88 72 89 73 90 74 91 51 92 52 93 60 94 53 95
REMARK SMILES IDX 55 96 61 97 54 98 56 99 57 100 58 101 59 102
REMARK H PARENT 9 16 81 55 49 66
REMARK Flexibility Score: inf
ROOT
ATOM      1  C   UNL A   1      33.577  28.197  27.093  1.00  0.00     0.202 C 
ENDROOT
BRANCH   1   2
ATOM      2  C   UNL A   1      34.374  27.299  26.145  1.00  0.00     0.261 C 
BRANCH   2   3
ATOM      3  O   UNL A   1      33.652  26.122  25.779  1.00  0.00    -0.463 OA
BRANCH   3   4
ATOM      4  C   UNL A   1      33.249  26.075  24.480  1.00  0.00     0.310 C 
ATOM      5  O   UNL A   1      33.965  26.292  23.513  1.00  0.00    -0.252 OA
BRANCH   4   6
ATOM      6  C   UNL A   1      31.782  25.705  24.410  1.00  0.00     0.119 C 
ATOM      7  C   UNL A   1      31.273  25.413  22.946  1.00  0.00     0.100 C 
ATOM      8  C   UNL A   1      30.302  26.546  22.585  1.00  0.00     0.025 C 
ATOM      9  C   UNL A   1      30.944  26.840  25.082  1.00  0.00     0.026 C 
ATOM     10  C   UNL A   1      29.134  26.458  23.551  1.00  0.00    -0.027 C 
ATOM     11  C   UNL A   1      30.982  27.920  22.845  1.00  0.00     0.009 C 
ATOM     12  C   UNL A   1      29.469  26.582  24.845  1.00  0.00    -0.027 C 
ATOM     13  C   UNL A   1      31.230  28.158  24.344  1.00  0.00     0.009 C 
BRANCH   7  14
ATOM     14  C   UNL A   1      32.322  24.830  21.954  1.00  0.00     0.229 C 
ATOM     15  N   UNL A   1      33.014  23.656  21.990  1.00  0.00    -0.317 N 
ATOM     16  H   UNL A   1      33.544  23.483  21.178  1.00  0.00     0.170 HD
ATOM     17  O   UNL A   1      32.493  25.484  20.906  1.00  0.00    -0.274 OA
BRANCH  15  18
ATOM     18  C   UNL A   1      33.115  22.667  22.938  1.00  0.00     0.110 A 
ATOM     19  C   UNL A   1      34.234  22.263  23.672  1.00  0.00     0.098 A 
ATOM     20  C   UNL A   1      33.952  20.961  24.184  1.00  0.00    -0.017 A 
ATOM     21  S   UNL A   1      31.702  21.963  23.612  1.00  0.00    -0.122 S 
ATOM     22  C   UNL A   1      32.624  20.650  24.073  1.00  0.00     0.011 A 
ATOM     23  C   UNL A   1      34.692  19.814  24.768  1.00  0.00     0.038 C 
ATOM     24  C   UNL A   1      32.280  19.245  24.372  1.00  0.00     0.047 C 
ATOM     25  C   UNL A   1      33.706  18.626  24.501  1.00  0.00     0.010 C 
BRANCH  19  26
ATOM     26  C   UNL A   1      35.463  23.044  23.741  1.00  0.00     0.341 C 
ATOM     27  O   UNL A   1      36.076  23.370  22.740  1.00  0.00    -0.246 OA
BRANCH  26  28
ATOM     28  O   UNL A   1      35.754  23.462  25.008  1.00  0.00    -0.459 OA
BRANCH  28  29
ATOM     29  C   UNL A   1      36.911  22.922  25.689  1.00  0.00     0.170 C 
ATOM     30  C   UNL A   1      37.611  21.768  24.977  1.00  0.00     0.052 C 
ATOM     31  C   UNL A   1      37.864  24.057  26.053  1.00  0.00     0.052 C 
ENDBRANCH  28  29
ENDBRANCH  26  28
ENDBRANCH  19  26
ENDBRANCH  15  18
ENDBRANCH   7  14
ENDBRANCH   4   6
ENDBRANCH   3   4
ENDBRANCH   2   3
ENDBRANCH   1   2
BRANCH   1  32
ATOM     32  O   UNL A   1      34.229  29.234  27.823  1.00  0.00    -0.374 OA
BRANCH  32  33
ATOM     33  C   UNL A   1      34.414  30.538  27.276  1.00  0.00     0.202 C 
BRANCH  33  34
ATOM     34  C   UNL A   1      33.383  31.635  27.517  1.00  0.00     0.261 C 
BRANCH  34  35
ATOM     35  O   UNL A   1      33.938  32.933  27.411  1.00  0.00    -0.460 OA
BRANCH  35  36
ATOM     36  C   UNL A   1      33.586  33.724  28.447  1.00  0.00     0.338 C 
ATOM     37  O   UNL A   1      32.533  34.322  28.594  1.00  0.00    -0.246 OA
BRANCH  36  38
ATOM     38  C   UNL A   1      34.729  33.881  29.347  1.00  0.00     0.060 A 
ATOM     39  C   UNL A   1      35.825  34.520  28.769  1.00  0.00     0.016 A 
ATOM     40  C   UNL A   1      34.841  33.000  30.431  1.00  0.00     0.016 A 
ATOM     41  C   UNL A   1      37.062  34.003  29.037  1.00  0.00     0.010 A 
ATOM     42  C   UNL A   1      36.078  32.476  30.688  1.00  0.00     0.010 A 
ATOM     43  C   UNL A   1      37.144  32.907  29.902  1.00  0.00    -0.014 A 
BRANCH  43  44
ATOM     44  C   UNL A   1      38.436  32.296  30.072  1.00  0.00     0.031 A 
ATOM     45  C   UNL A   1      38.405  30.900  29.593  1.00  0.00     0.074 A 
ATOM     46  C   UNL A   1      39.495  32.983  30.535  1.00  0.00     0.049 A 
ATOM     47  N   UNL A   1      38.370  29.825  30.308  1.00  0.00    -0.248 NA
ATOM     48  C   UNL A   1      38.068  30.690  28.173  1.00  0.00     0.031 C 
ATOM     49  C   UNL A   1      39.617  34.430  30.751  1.00  0.00     0.029 A 
ATOM     50  N   UNL A   1      40.753  32.538  30.777  1.00  0.00    -0.354 N 
ATOM     51  C   UNL A   1      38.300  28.796  29.375  1.00  0.00     0.074 A 
ATOM     52  C   UNL A   1      37.798  29.385  28.168  1.00  0.00     0.031 C 
ATOM     53  C   UNL A   1      40.930  34.755  30.811  1.00  0.00     0.029 A 
ATOM     54  C   UNL A   1      41.721  33.537  30.758  1.00  0.00     0.049 A 
ATOM     55  H   UNL A   1      40.962  31.592  30.952  1.00  0.00     0.167 HD
ATOM     56  C   UNL A   1      39.023  27.659  29.555  1.00  0.00     0.034 A 
ATOM     57  C   UNL A   1      43.056  33.349  30.586  1.00  0.00     0.034 A 
ATOM     58  C   UNL A   1      39.419  27.521  30.939  1.00  0.00     0.049 A 
ATOM     59  C   UNL A   1      43.336  31.919  30.867  1.00  0.00     0.074 A 
ATOM     60  C   UNL A   1      38.746  27.466  32.143  1.00  0.00     0.029 A 
ATOM     61  N   UNL A   1      40.718  27.853  31.240  1.00  0.00    -0.354 N 
ATOM     62  N   UNL A   1      43.192  31.378  32.046  1.00  0.00    -0.248 NA
ATOM     63  C   UNL A   1      43.297  30.993  29.744  1.00  0.00     0.031 C 
ATOM     64  C   UNL A   1      39.556  28.207  33.053  1.00  0.00     0.029 A 
ATOM     65  C   UNL A   1      40.717  28.604  32.384  1.00  0.00     0.049 A 
ATOM     66  H   UNL A   1      41.514  27.595  30.722  1.00  0.00     0.167 HD
ATOM     67  C   UNL A   1      42.581  30.157  31.789  1.00  0.00     0.074 A 
ATOM     68  C   UNL A   1      42.760  29.933  30.354  1.00  0.00     0.031 C 
ATOM     69  C   UNL A   1      41.718  29.601  32.690  1.00  0.00     0.034 A 
BRANCH  56  70
ATOM     70  C   UNL A   1      39.762  26.939  28.441  1.00  0.00     0.023 A 
ATOM     71  C   UNL A   1      39.702  25.528  28.462  1.00  0.00     0.012 A 
ATOM     72  C   UNL A   1      40.724  27.517  27.575  1.00  0.00     0.148 A 
ATOM     73  C   UNL A   1      40.604  24.743  27.737  1.00  0.00     0.002 A 
ATOM     74  C   UNL A   1      41.574  26.735  26.806  1.00  0.00     0.091 A 
ATOM     75  F   UNL A   1      40.925  28.833  27.554  1.00  0.00    -0.205 F 
ATOM     76  C   UNL A   1      41.544  25.346  26.911  1.00  0.00     0.022 A 
BRANCH  74  77
ATOM     77  S   UNL A   1      42.789  27.472  25.700  1.00  0.00     0.127 S 
ATOM     78  O   UNL A   1      41.951  28.361  24.902  1.00  0.00    -0.237 OA
ATOM     79  O   UNL A   1      43.681  28.140  26.646  1.00  0.00    -0.237 OA
ATOM     80  O   UNL A   1      43.404  26.362  24.982  1.00  0.00    -0.744 OA
ENDBRANCH  74  77
ENDBRANCH  56  70
BRANCH  57  81
ATOM     81  C   UNL A   1      44.031  34.205  29.862  1.00  0.00     0.023 A 
ATOM     82  C   UNL A   1      45.021  34.909  30.581  1.00  0.00     0.012 A 
ATOM     83  C   UNL A   1      44.173  34.117  28.459  1.00  0.00     0.148 A 
ATOM     84  C   UNL A   1      46.118  35.487  29.926  1.00  0.00     0.002 A 
ATOM     85  C   UNL A   1      45.258  34.702  27.812  1.00  0.00     0.091 A 
ATOM     86  F   UNL A   1      43.296  33.379  27.768  1.00  0.00    -0.205 F 
ATOM     87  C   UNL A   1      46.240  35.379  28.544  1.00  0.00     0.022 A 
BRANCH  85  88
ATOM     88  S   UNL A   1      45.489  34.580  26.032  1.00  0.00     0.127 S 
ATOM     89  O   UNL A   1      46.037  33.230  25.892  1.00  0.00    -0.237 OA
ATOM     90  O   UNL A   1      44.125  34.742  25.537  1.00  0.00    -0.237 OA
ATOM     91  O   UNL A   1      46.419  35.643  25.675  1.00  0.00    -0.744 OA
ENDBRANCH  85  88
ENDBRANCH  57  81
BRANCH  69  92
ATOM     92  C   UNL A   1      41.638  30.211  34.066  1.00  0.00     0.023 A 
ATOM     93  C   UNL A   1      42.581  29.943  35.082  1.00  0.00     0.012 A 
ATOM     94  C   UNL A   1      40.702  31.238  34.261  1.00  0.00     0.148 A 
ATOM     95  C   UNL A   1      42.580  30.681  36.270  1.00  0.00     0.002 A 
ATOM     96  C   UNL A   1      40.736  32.002  35.419  1.00  0.00     0.091 A 
ATOM     97  F   UNL A   1      39.817  31.478  33.282  1.00  0.00    -0.205 F 
ATOM     98  C   UNL A   1      41.667  31.722  36.432  1.00  0.00     0.022 A 
BRANCH  96  99
ATOM     99  S   UNL A   1      39.682  33.439  35.618  1.00  0.00     0.127 S 
ATOM    100  O   UNL A   1      38.353  32.834  35.682  1.00  0.00    -0.237 OA
ATOM    101  O   UNL A   1      40.160  34.005  36.879  1.00  0.00    -0.237 OA
ATOM    102  O   UNL A   1      39.928  34.284  34.456  1.00  0.00    -0.744 OA
ENDBRANCH  96  99
ENDBRANCH  69  92
ENDBRANCH  43  44
ENDBRANCH  36  38
ENDBRANCH  35  36
ENDBRANCH  34  35
ENDBRANCH  33  34
ENDBRANCH  32  33
ENDBRANCH   1  32
TORSDOF 22
ENDMDL
MODEL 3
REMARK VINA RESULT:     -11.1      1.233      1.532
REMARK SMILES CC(C)OC(=O)c1c(NC(=O)[C@H]2[C@@H](C(=O)OCCOCCOC(=O)c3ccc(-c4c5nc(c(-c6cccc(S(=O)(=O)[O-])c6F)c6ccc([nH]6)c(-c6cccc(S(=O)(=O)[O-])c6F)c6nc(c(-c7cccc(S(=O)(=O)[O-])c7F)c7ccc4[nH]7)C=C6)C=C5)cc3)[C@@H]3C=C[C@H]2CC3)sc2c1CCC2
REMARK SMILES IDX 18 1 17 2 16 3 14 4 15 5 13 6 12 7 91 8 88 9 90 10 92 11
REMARK SMILES IDX 89 12 93 13 10 14 9 15 11 17 8 18 7 19 96 20 94 21 95 22
REMARK SMILES IDX 97 23 99 24 98 25 5 26 6 27 4 28 2 29 1 30 3 31 19 32 20 33
REMARK SMILES IDX 21 34 22 35 23 36 24 37 25 38 26 39 87 40 27 41 86 42 28 43
REMARK SMILES IDX 29 44 30 45 80 46 31 47 85 48 79 49 81 50 32 51 84 52 78 53
REMARK SMILES IDX 77 54 33 56 65 57 45 58 64 59 46 60 49 61 63 62 82 63 47 64
REMARK SMILES IDX 48 65 62 67 83 68 50 69 34 70 35 71 43 72 36 73 38 74 44 75
REMARK SMILES IDX 37 76 39 77 40 78 41 79 42 80 66 81 67 82 75 83 68 84 70 85
REMARK SMILES IDX 76 86 69 87 71 88 72 89 73 90 74 91 51 92 52 93 60 94 53 95
REMARK SMILES IDX 55 96 61 97 54 98 56 99 57 100 58 101 59 102
REMARK H PARENT 9 16 81 55 49 66
REMARK Flexibility Score: inf
ROOT
ATOM      1  C   UNL A   1      33.269  29.049  27.306  1.00  0.00     0.202 C 
ENDROOT
BRANCH   1   2
ATOM      2  C   UNL A   1      34.416  28.206  26.745  1.00  0.00     0.261 C 
BRANCH   2   3
ATOM      3  O   UNL A   1      33.947  27.058  26.037  1.00  0.00    -0.463 OA
BRANCH   3   4
ATOM      4  C   UNL A   1      33.542  27.295  24.759  1.00  0.00     0.310 C 
ATOM      5  O   UNL A   1      34.203  27.872  23.907  1.00  0.00    -0.252 OA
BRANCH   4   6
ATOM      6  C   UNL A   1      32.152  26.731  24.547  1.00  0.00     0.119 C 
ATOM      7  C   UNL A   1      31.938  26.102  23.117  1.00  0.00     0.100 C 
ATOM      8  C   UNL A   1      30.940  27.008  22.383  1.00  0.00     0.025 C 
ATOM      9  C   UNL A   1      31.105  27.856  24.831  1.00  0.00     0.026 C 
ATOM     10  C   UNL A   1      29.635  26.956  23.158  1.00  0.00    -0.027 C 
ATOM     11  C   UNL A   1      31.428  28.484  22.449  1.00  0.00     0.009 C 
ATOM     12  C   UNL A   1      29.726  27.367  24.433  1.00  0.00    -0.027 C 
ATOM     13  C   UNL A   1      31.387  29.034  23.884  1.00  0.00     0.009 C 
BRANCH   7  14
ATOM     14  C   UNL A   1      33.195  25.480  22.440  1.00  0.00     0.229 C 
ATOM     15  N   UNL A   1      33.688  24.211  22.489  1.00  0.00    -0.317 N 
ATOM     16  H   UNL A   1      34.447  24.057  21.882  1.00  0.00     0.170 HD
ATOM     17  O   UNL A   1      33.802  26.227  21.646  1.00  0.00    -0.274 OA
BRANCH  15  18
ATOM     18  C   UNL A   1      33.330  23.104  23.219  1.00  0.00     0.110 A 
ATOM     19  C   UNL A   1      33.724  22.736  24.509  1.00  0.00     0.098 A 
ATOM     20  C   UNL A   1      33.447  21.343  24.651  1.00  0.00    -0.017 A 
ATOM     21  S   UNL A   1      32.012  22.123  22.721  1.00  0.00    -0.122 S 
ATOM     22  C   UNL A   1      32.634  20.884  23.651  1.00  0.00     0.011 A 
ATOM     23  C   UNL A   1      33.822  20.222  25.550  1.00  0.00     0.038 C 
ATOM     24  C   UNL A   1      32.474  19.417  23.592  1.00  0.00     0.047 C 
ATOM     25  C   UNL A   1      33.537  18.975  24.647  1.00  0.00     0.010 C 
BRANCH  19  26
ATOM     26  C   UNL A   1      34.399  23.648  25.425  1.00  0.00     0.341 C 
ATOM     27  O   UNL A   1      33.889  24.004  26.472  1.00  0.00    -0.246 OA
BRANCH  26  28
ATOM     28  O   UNL A   1      35.678  23.933  25.040  1.00  0.00    -0.459 OA
BRANCH  28  29
ATOM     29  C   UNL A   1      36.768  23.117  25.530  1.00  0.00     0.170 C 
ATOM     30  C   UNL A   1      37.308  22.084  24.544  1.00  0.00     0.052 C 
ATOM     31  C   UNL A   1      37.861  24.016  26.101  1.00  0.00     0.052 C 
ENDBRANCH  28  29
ENDBRANCH  26  28
ENDBRANCH  19  26
ENDBRANCH  15  18
ENDBRANCH   7  14
ENDBRANCH   4   6
ENDBRANCH   3   4
ENDBRANCH   2   3
ENDBRANCH   1   2
BRANCH   1  32
ATOM     32  O   UNL A   1      33.107  30.406  26.900  1.00  0.00    -0.374 OA
BRANCH  32  33
ATOM     33  C   UNL A   1      33.633  31.489  27.665  1.00  0.00     0.202 C 
BRANCH  33  34
ATOM     34  C   UNL A   1      35.139  31.698  27.783  1.00  0.00     0.261 C 
BRANCH  34  35
ATOM     35  O   UNL A   1      35.732  30.834  28.734  1.00  0.00    -0.460 OA
BRANCH  35  36
ATOM     36  C   UNL A   1      35.945  31.448  29.918  1.00  0.00     0.338 C 
ATOM     37  O   UNL A   1      35.576  32.563  30.247  1.00  0.00    -0.246 OA
BRANCH  36  38
ATOM     38  C   UNL A   1      36.823  30.618  30.744  1.00  0.00     0.060 A 
ATOM     39  C   UNL A   1      37.896  31.310  31.305  1.00  0.00     0.016 A 
ATOM     40  C   UNL A   1      36.843  29.238  30.506  1.00  0.00     0.016 A 
ATOM     41  C   UNL A   1      39.114  30.689  31.293  1.00  0.00     0.010 A 
ATOM     42  C   UNL A   1      38.065  28.623  30.482  1.00  0.00     0.010 A 
ATOM     43  C   UNL A   1      39.188  29.396  30.764  1.00  0.00    -0.014 A 
BRANCH  43  44
ATOM     44  C   UNL A   1      40.496  28.807  30.641  1.00  0.00     0.031 A 
ATOM     45  C   UNL A   1      41.181  28.814  31.949  1.00  0.00     0.074 A 
ATOM     46  C   UNL A   1      40.934  28.276  29.485  1.00  0.00     0.049 A 
ATOM     47  N   UNL A   1      42.131  29.600  32.333  1.00  0.00    -0.248 NA
ATOM     48  C   UNL A   1      40.531  28.073  33.046  1.00  0.00     0.031 C 
ATOM     49  C   UNL A   1      40.171  28.010  28.260  1.00  0.00     0.029 A 
ATOM     50  N   UNL A   1      42.141  27.723  29.212  1.00  0.00    -0.354 N 
ATOM     51  C   UNL A   1      42.375  29.222  33.649  1.00  0.00     0.074 A 
ATOM     52  C   UNL A   1      41.189  28.554  34.100  1.00  0.00     0.031 C 
ATOM     53  C   UNL A   1      40.849  27.109  27.510  1.00  0.00     0.029 A 
ATOM     54  C   UNL A   1      42.129  26.835  28.142  1.00  0.00     0.049 A 
ATOM     55  H   UNL A   1      42.955  27.932  29.726  1.00  0.00     0.167 HD
ATOM     56  C   UNL A   1      43.651  29.141  34.111  1.00  0.00     0.034 A 
ATOM     57  C   UNL A   1      43.058  25.876  27.891  1.00  0.00     0.034 A 
ATOM     58  C   UNL A   1      44.548  29.899  33.269  1.00  0.00     0.049 A 
ATOM     59  C   UNL A   1      44.270  26.227  28.671  1.00  0.00     0.074 A 
ATOM     60  C   UNL A   1      44.619  31.215  32.858  1.00  0.00     0.029 A 
ATOM     61  N   UNL A   1      45.308  29.177  32.379  1.00  0.00    -0.354 N 
ATOM     62  N   UNL A   1      44.990  27.290  28.438  1.00  0.00    -0.248 NA
ATOM     63  C   UNL A   1      44.393  25.669  30.011  1.00  0.00     0.031 C 
ATOM     64  C   UNL A   1      45.037  31.154  31.496  1.00  0.00     0.029 A 
ATOM     65  C   UNL A   1      45.279  29.818  31.170  1.00  0.00     0.049 A 
ATOM     66  H   UNL A   1      45.791  28.343  32.576  1.00  0.00     0.167 HD
ATOM     67  C   UNL A   1      45.271  27.798  29.700  1.00  0.00     0.074 A 
ATOM     68  C   UNL A   1      44.963  26.708  30.628  1.00  0.00     0.031 C 
ATOM     69  C   UNL A   1      45.418  29.141  29.900  1.00  0.00     0.034 A 
BRANCH  56  70
ATOM     70  C   UNL A   1      44.157  28.027  35.012  1.00  0.00     0.023 A 
ATOM     71  C   UNL A   1      44.949  28.424  36.111  1.00  0.00     0.012 A 
ATOM     72  C   UNL A   1      44.156  26.644  34.701  1.00  0.00     0.148 A 
ATOM     73  C   UNL A   1      45.762  27.517  36.797  1.00  0.00     0.002 A 
ATOM     74  C   UNL A   1      44.914  25.735  35.426  1.00  0.00     0.091 A 
ATOM     75  F   UNL A   1      43.519  26.183  33.627  1.00  0.00    -0.205 F 
ATOM     76  C   UNL A   1      45.748  26.171  36.453  1.00  0.00     0.022 A 
BRANCH  74  77
ATOM     77  S   UNL A   1      44.904  23.978  35.034  1.00  0.00     0.127 S 
ATOM     78  O   UNL A   1      43.505  23.636  35.269  1.00  0.00    -0.237 OA
ATOM     79  O   UNL A   1      45.316  23.987  33.632  1.00  0.00    -0.237 OA
ATOM     80  O   UNL A   1      45.870  23.360  35.935  1.00  0.00    -0.744 OA
ENDBRANCH  74  77
ENDBRANCH  56  70
BRANCH  57  81
ATOM     81  C   UNL A   1      42.862  24.514  27.329  1.00  0.00     0.023 A 
ATOM     82  C   UNL A   1      41.582  23.921  27.346  1.00  0.00     0.012 A 
ATOM     83  C   UNL A   1      43.857  23.909  26.528  1.00  0.00     0.148 A 
ATOM     84  C   UNL A   1      41.301  22.781  26.581  1.00  0.00     0.002 A 
ATOM     85  C   UNL A   1      43.578  22.770  25.779  1.00  0.00     0.091 A 
ATOM     86  F   UNL A   1      45.051  24.505  26.426  1.00  0.00    -0.205 F 
ATOM     87  C   UNL A   1      42.296  22.208  25.793  1.00  0.00     0.022 A 
BRANCH  85  88
ATOM     88  S   UNL A   1      44.810  21.994  24.723  1.00  0.00     0.127 S 
ATOM     89  O   UNL A   1      44.112  20.785  24.285  1.00  0.00    -0.237 OA
ATOM     90  O   UNL A   1      44.997  23.004  23.684  1.00  0.00    -0.237 OA
ATOM     91  O   UNL A   1      45.966  21.744  25.573  1.00  0.00    -0.744 OA
ENDBRANCH  85  88
ENDBRANCH  57  81
BRANCH  69  92
ATOM     92  C   UNL A   1      45.519  30.032  28.688  1.00  0.00     0.023 A 
ATOM     93  C   UNL A   1      44.390  30.572  28.036  1.00  0.00     0.012 A 
ATOM     94  C   UNL A   1      46.796  30.494  28.333  1.00  0.00     0.148 A 
ATOM     95  C   UNL A   1      44.537  31.547  27.044  1.00  0.00     0.002 A 
ATOM     96  C   UNL A   1      46.935  31.499  27.386  1.00  0.00     0.091 A 
ATOM     97  F   UNL A   1      47.854  29.969  28.968  1.00  0.00    -0.205 F 
ATOM     98  C   UNL A   1      45.810  32.023  26.731  1.00  0.00     0.022 A 
BRANCH  96  99
ATOM     99  S   UNL A   1      48.530  32.244  27.047  1.00  0.00     0.127 S 
ATOM    100  O   UNL A   1      49.325  31.088  26.635  1.00  0.00    -0.237 OA
ATOM    101  O   UNL A   1      48.214  33.186  25.973  1.00  0.00    -0.237 OA
ATOM    102  O   UNL A   1      48.951  32.879  28.290  1.00  0.00    -0.744 OA
ENDBRANCH  96  99
ENDBRANCH  69  92
ENDBRANCH  43  44
ENDBRANCH  36  38
ENDBRANCH  35  36
ENDBRANCH  34  35
ENDBRANCH  33  34
ENDBRANCH  32  33
ENDBRANCH   1  32
TORSDOF 22
ENDMDL
