MODEL 1
REMARK VINA RESULT:     -11.0      0.000      0.000
REMARK SMILES C[C@@H](C(=O)OCCOCCOC(=O)c1ccc(-c2c3nc(c(-c4cccc(S(=O)(=O)[O-])c4F)c4ccc([nH]4)c(-c4cccc(S(=O)(=O)[O-])c4F)c4nc(c(-c5cccc(S(=O)(=O)[O-])c5F)c5ccc2[nH]5)C=C4)C=C3)cc1)n1ccc(C(=O)N2CC[NH+](Cc3cccc(F)c3)CC2)n1
REMARK SMILES IDX 7 1 6 2 5 3 3 4 4 5 2 6 1 7 77 8 78 9 97 10 79 11 80 12
REMARK SMILES IDX 81 13 82 14 83 15 84 16 96 17 85 18 95 19 86 20 87 22 88 23
REMARK SMILES IDX 89 24 94 25 90 26 92 27 91 28 93 29 8 30 9 31 10 32 11 33
REMARK SMILES IDX 12 34 13 35 14 36 15 37 76 38 16 39 75 40 17 41 18 42 19 43
REMARK SMILES IDX 69 44 20 45 74 46 68 47 70 48 21 49 73 50 67 51 66 52 22 54
REMARK SMILES IDX 54 55 34 56 53 57 35 58 38 59 52 60 71 61 36 62 37 63 51 65
REMARK SMILES IDX 72 66 39 67 23 68 24 69 32 70 25 71 27 72 33 73 26 74 28 75
REMARK SMILES IDX 29 76 30 77 31 78 55 79 56 80 64 81 57 82 59 83 65 84 58 85
REMARK SMILES IDX 60 86 61 87 62 88 63 89 40 90 41 91 49 92 42 93 44 94 50 95
REMARK SMILES IDX 43 96 45 97 46 98 47 99 48 100
REMARK H PARENT 86 21 70 53 38 64
REMARK Flexibility Score: inf
ROOT
ATOM      1  C   UNL A   1      36.084  22.093  26.047  1.00  0.00     0.202 C 
ENDROOT
BRANCH   1   2
ATOM      2  C   UNL A   1      34.659  21.812  25.564  1.00  0.00     0.261 C 
BRANCH   2   3
ATOM      3  O   UNL A   1      33.969  23.032  25.245  1.00  0.00    -0.462 OA
BRANCH   3   4
ATOM      4  C   UNL A   1      32.614  22.942  25.159  1.00  0.00     0.330 C 
ATOM      5  O   UNL A   1      31.885  22.625  26.095  1.00  0.00    -0.250 OA
BRANCH   4   6
ATOM      6  C   UNL A   1      32.075  23.306  23.782  1.00  0.00     0.213 C 
ATOM      7  C   UNL A   1      32.381  22.301  22.668  1.00  0.00     0.046 C 
BRANCH   6   8
ATOM      8  N   UNL A   1      32.486  24.674  23.463  1.00  0.00    -0.258 N 
ATOM      9  C   UNL A   1      33.299  25.049  22.430  1.00  0.00     0.110 A 
ATOM     10  N   UNL A   1      32.030  25.725  24.180  1.00  0.00    -0.167 NA
ATOM     11  C   UNL A   1      33.307  26.422  22.430  1.00  0.00     0.056 A 
ATOM     12  C   UNL A   1      32.513  26.811  23.542  1.00  0.00     0.150 A 
BRANCH  12  13
ATOM     13  C   UNL A   1      32.153  28.200  23.888  1.00  0.00     0.274 C 
ATOM     14  O   UNL A   1      31.587  28.912  23.052  1.00  0.00    -0.267 OA
ATOM     15  N   UNL A   1      32.457  28.698  25.167  1.00  0.00    -0.326 N 
ATOM     16  C   UNL A   1      31.919  30.018  25.477  1.00  0.00     0.181 C 
ATOM     17  C   UNL A   1      33.666  28.287  25.886  1.00  0.00     0.181 C 
ATOM     18  C   UNL A   1      32.051  30.447  26.948  1.00  0.00     0.284 C 
ATOM     19  C   UNL A   1      33.739  28.772  27.346  1.00  0.00     0.284 C 
ATOM     20  N   UNL A   1      33.333  30.158  27.595  1.00  0.00    -0.328 N 
ATOM     21  H   UNL A   1      33.166  30.231  28.598  1.00  0.00     0.348 HD
BRANCH  20  22
ATOM     22  C   UNL A   1      34.375  31.180  27.483  1.00  0.00     0.299 C 
BRANCH  22  23
ATOM     23  C   UNL A   1      34.336  32.333  28.457  1.00  0.00     0.009 A 
ATOM     24  C   UNL A   1      33.707  33.542  28.115  1.00  0.00     0.010 A 
ATOM     25  C   UNL A   1      34.909  32.214  29.730  1.00  0.00     0.048 A 
ATOM     26  C   UNL A   1      33.582  34.572  29.051  1.00  0.00     0.004 A 
ATOM     27  C   UNL A   1      34.768  33.239  30.659  1.00  0.00     0.123 A 
ATOM     28  C   UNL A   1      34.098  34.412  30.336  1.00  0.00     0.039 A 
ATOM     29  F   UNL A   1      35.268  33.083  31.892  1.00  0.00    -0.207 F 
ENDBRANCH  22  23
ENDBRANCH  20  22
ENDBRANCH  12  13
ENDBRANCH   6   8
ENDBRANCH   4   6
ENDBRANCH   3   4
ENDBRANCH   2   3
ENDBRANCH   1   2
BRANCH   1  30
ATOM     30  O   UNL A   1      37.133  21.822  25.117  1.00  0.00    -0.374 OA
BRANCH  30  31
ATOM     31  C   UNL A   1      38.459  21.699  25.638  1.00  0.00     0.202 C 
BRANCH  31  32
ATOM     32  C   UNL A   1      39.073  20.291  25.639  1.00  0.00     0.261 C 
BRANCH  32  33
ATOM     33  O   UNL A   1      40.025  20.101  26.703  1.00  0.00    -0.460 OA
BRANCH  33  34
ATOM     34  C   UNL A   1      41.289  19.830  26.296  1.00  0.00     0.338 C 
ATOM     35  O   UNL A   1      41.682  18.812  25.736  1.00  0.00    -0.246 OA
BRANCH  34  36
ATOM     36  C   UNL A   1      42.147  21.021  26.443  1.00  0.00     0.060 A 
ATOM     37  C   UNL A   1      42.460  21.437  27.743  1.00  0.00     0.016 A 
ATOM     38  C   UNL A   1      42.567  21.770  25.341  1.00  0.00     0.016 A 
ATOM     39  C   UNL A   1      43.151  22.629  27.951  1.00  0.00     0.010 A 
ATOM     40  C   UNL A   1      43.253  22.973  25.553  1.00  0.00     0.010 A 
ATOM     41  C   UNL A   1      43.515  23.427  26.858  1.00  0.00    -0.014 A 
BRANCH  41  42
ATOM     42  C   UNL A   1      44.042  24.794  27.095  1.00  0.00     0.031 A 
ATOM     43  C   UNL A   1      43.105  25.867  27.582  1.00  0.00     0.074 A 
ATOM     44  C   UNL A   1      45.342  25.077  26.894  1.00  0.00     0.049 A 
ATOM     45  N   UNL A   1      43.353  27.124  27.848  1.00  0.00    -0.248 NA
ATOM     46  C   UNL A   1      41.702  25.472  27.794  1.00  0.00     0.031 C 
ATOM     47  C   UNL A   1      46.349  24.127  26.427  1.00  0.00     0.029 A 
ATOM     48  N   UNL A   1      46.030  26.255  27.039  1.00  0.00    -0.354 N 
ATOM     49  C   UNL A   1      42.138  27.675  28.239  1.00  0.00     0.074 A 
ATOM     50  C   UNL A   1      41.150  26.620  28.159  1.00  0.00     0.031 C 
ATOM     51  C   UNL A   1      47.523  24.768  26.292  1.00  0.00     0.029 A 
ATOM     52  C   UNL A   1      47.346  26.175  26.648  1.00  0.00     0.049 A 
ATOM     53  H   UNL A   1      45.622  27.079  27.389  1.00  0.00     0.167 HD
ATOM     54  C   UNL A   1      41.871  28.938  28.648  1.00  0.00     0.034 A 
ATOM     55  C   UNL A   1      48.294  27.130  26.570  1.00  0.00     0.034 A 
ATOM     56  C   UNL A   1      42.855  29.981  28.749  1.00  0.00     0.049 A 
ATOM     57  C   UNL A   1      47.969  28.534  27.013  1.00  0.00     0.074 A 
ATOM     58  C   UNL A   1      42.688  31.281  29.195  1.00  0.00     0.029 A 
ATOM     59  N   UNL A   1      44.187  29.850  28.391  1.00  0.00    -0.354 N 
ATOM     60  N   UNL A   1      46.846  29.006  27.499  1.00  0.00    -0.248 NA
ATOM     61  C   UNL A   1      49.050  29.527  26.932  1.00  0.00     0.031 C 
ATOM     62  C   UNL A   1      43.917  31.941  29.087  1.00  0.00     0.029 A 
ATOM     63  C   UNL A   1      44.853  31.047  28.594  1.00  0.00     0.049 A 
ATOM     64  H   UNL A   1      44.599  29.026  28.041  1.00  0.00     0.167 HD
ATOM     65  C   UNL A   1      47.095  30.339  27.810  1.00  0.00     0.074 A 
ATOM     66  C   UNL A   1      48.481  30.594  27.479  1.00  0.00     0.031 C 
ATOM     67  C   UNL A   1      46.247  31.273  28.311  1.00  0.00     0.034 A 
BRANCH  54  68
ATOM     68  C   UNL A   1      40.457  29.253  29.056  1.00  0.00     0.023 A 
ATOM     69  C   UNL A   1      39.502  29.565  28.066  1.00  0.00     0.012 A 
ATOM     70  C   UNL A   1      40.058  29.191  30.405  1.00  0.00     0.148 A 
ATOM     71  C   UNL A   1      38.180  29.838  28.414  1.00  0.00     0.002 A 
ATOM     72  C   UNL A   1      38.729  29.425  30.741  1.00  0.00     0.091 A 
ATOM     73  F   UNL A   1      40.985  28.918  31.334  1.00  0.00    -0.205 F 
ATOM     74  C   UNL A   1      37.792  29.757  29.749  1.00  0.00     0.022 A 
BRANCH  72  75
ATOM     75  S   UNL A   1      38.119  29.275  32.423  1.00  0.00     0.127 S 
ATOM     76  O   UNL A   1      36.672  29.311  32.216  1.00  0.00    -0.237 OA
ATOM     77  O   UNL A   1      38.645  27.971  32.829  1.00  0.00    -0.237 OA
ATOM     78  O   UNL A   1      38.675  30.406  33.153  1.00  0.00    -0.744 OA
ENDBRANCH  72  75
ENDBRANCH  54  68
BRANCH  55  79
ATOM     79  C   UNL A   1      49.659  26.781  26.083  1.00  0.00     0.023 A 
ATOM     80  C   UNL A   1      50.530  26.051  26.913  1.00  0.00     0.012 A 
ATOM     81  C   UNL A   1      50.085  27.147  24.791  1.00  0.00     0.148 A 
ATOM     82  C   UNL A   1      51.812  25.715  26.476  1.00  0.00     0.002 A 
ATOM     83  C   UNL A   1      51.343  26.760  24.342  1.00  0.00     0.091 A 
ATOM     84  F   UNL A   1      49.249  27.861  24.024  1.00  0.00    -0.205 F 
ATOM     85  C   UNL A   1      52.214  26.058  25.188  1.00  0.00     0.022 A 
BRANCH  83  86
ATOM     86  S   UNL A   1      51.886  27.045  22.653  1.00  0.00     0.127 S 
ATOM     87  O   UNL A   1      50.719  26.617  21.887  1.00  0.00    -0.237 OA
ATOM     88  O   UNL A   1      52.130  28.487  22.652  1.00  0.00    -0.237 OA
ATOM     89  O   UNL A   1      53.087  26.237  22.486  1.00  0.00    -0.744 OA
ENDBRANCH  83  86
ENDBRANCH  55  79
BRANCH  67  90
ATOM     90  C   UNL A   1      46.794  32.654  28.563  1.00  0.00     0.023 A 
ATOM     91  C   UNL A   1      47.261  32.997  29.847  1.00  0.00     0.012 A 
ATOM     92  C   UNL A   1      46.922  33.583  27.510  1.00  0.00     0.148 A 
ATOM     93  C   UNL A   1      47.820  34.252  30.087  1.00  0.00     0.002 A 
ATOM     94  C   UNL A   1      47.520  34.816  27.747  1.00  0.00     0.091 A 
ATOM     95  F   UNL A   1      46.454  33.246  26.300  1.00  0.00    -0.205 F 
ATOM     96  C   UNL A   1      47.960  35.156  29.036  1.00  0.00     0.022 A 
BRANCH  94  97
ATOM     97  S   UNL A   1      47.826  36.003  26.433  1.00  0.00     0.127 S 
ATOM     98  O   UNL A   1      46.470  36.286  25.966  1.00  0.00    -0.237 OA
ATOM     99  O   UNL A   1      48.465  37.106  27.151  1.00  0.00    -0.237 OA
ATOM    100  O   UNL A   1      48.691  35.326  25.476  1.00  0.00    -0.744 OA
ENDBRANCH  94  97
ENDBRANCH  67  90
ENDBRANCH  41  42
ENDBRANCH  34  36
ENDBRANCH  33  34
ENDBRANCH  32  33
ENDBRANCH  31  32
ENDBRANCH  30  31
ENDBRANCH   1  30
TORSDOF 21
ENDMDL
MODEL 2
REMARK VINA RESULT:     -11.0      2.141      3.231
REMARK SMILES C[C@@H](C(=O)OCCOCCOC(=O)c1ccc(-c2c3nc(c(-c4cccc(S(=O)(=O)[O-])c4F)c4ccc([nH]4)c(-c4cccc(S(=O)(=O)[O-])c4F)c4nc(c(-c5cccc(S(=O)(=O)[O-])c5F)c5ccc2[nH]5)C=C4)C=C3)cc1)n1ccc(C(=O)N2CC[NH+](Cc3cccc(F)c3)CC2)n1
REMARK SMILES IDX 7 1 6 2 5 3 3 4 4 5 2 6 1 7 77 8 78 9 97 10 79 11 80 12
REMARK SMILES IDX 81 13 82 14 83 15 84 16 96 17 85 18 95 19 86 20 87 22 88 23
REMARK SMILES IDX 89 24 94 25 90 26 92 27 91 28 93 29 8 30 9 31 10 32 11 33
REMARK SMILES IDX 12 34 13 35 14 36 15 37 76 38 16 39 75 40 17 41 18 42 19 43
REMARK SMILES IDX 69 44 20 45 74 46 68 47 70 48 21 49 73 50 67 51 66 52 22 54
REMARK SMILES IDX 54 55 34 56 53 57 35 58 38 59 52 60 71 61 36 62 37 63 51 65
REMARK SMILES IDX 72 66 39 67 23 68 24 69 32 70 25 71 27 72 33 73 26 74 28 75
REMARK SMILES IDX 29 76 30 77 31 78 55 79 56 80 64 81 57 82 59 83 65 84 58 85
REMARK SMILES IDX 60 86 61 87 62 88 63 89 40 90 41 91 49 92 42 93 44 94 50 95
REMARK SMILES IDX 43 96 45 97 46 98 47 99 48 100
REMARK H PARENT 86 21 70 53 38 64
REMARK Flexibility Score: inf
ROOT
ATOM      1  C   UNL A   1      35.884  21.611  25.532  1.00  0.00     0.202 C 
ENDROOT
BRANCH   1   2
ATOM      2  C   UNL A   1      35.048  20.417  25.061  1.00  0.00     0.261 C 
BRANCH   2   3
ATOM      3  O   UNL A   1      33.642  20.683  25.194  1.00  0.00    -0.462 OA
BRANCH   3   4
ATOM      4  C   UNL A   1      32.841  20.128  24.245  1.00  0.00     0.330 C 
ATOM      5  O   UNL A   1      32.661  18.920  24.119  1.00  0.00    -0.250 OA
BRANCH   4   6
ATOM      6  C   UNL A   1      32.154  21.159  23.361  1.00  0.00     0.213 C 
ATOM      7  C   UNL A   1      31.945  20.743  21.902  1.00  0.00     0.046 C 
BRANCH   6   8
ATOM      8  N   UNL A   1      32.846  22.440  23.508  1.00  0.00    -0.258 N 
ATOM      9  C   UNL A   1      33.824  22.926  22.685  1.00  0.00     0.110 A 
ATOM     10  N   UNL A   1      32.520  23.301  24.498  1.00  0.00    -0.167 NA
ATOM     11  C   UNL A   1      34.089  24.201  23.118  1.00  0.00     0.056 A 
ATOM     12  C   UNL A   1      33.264  24.399  24.257  1.00  0.00     0.150 A 
BRANCH  12  13
ATOM     13  C   UNL A   1      33.135  25.664  25.007  1.00  0.00     0.274 C 
ATOM     14  O   UNL A   1      33.423  25.696  26.207  1.00  0.00    -0.267 OA
ATOM     15  N   UNL A   1      32.686  26.821  24.345  1.00  0.00    -0.326 N 
ATOM     16  C   UNL A   1      32.749  28.057  25.118  1.00  0.00     0.181 C 
ATOM     17  C   UNL A   1      31.691  26.757  23.271  1.00  0.00     0.181 C 
ATOM     18  C   UNL A   1      32.487  29.341  24.315  1.00  0.00     0.284 C 
ATOM     19  C   UNL A   1      31.466  28.086  22.527  1.00  0.00     0.284 C 
ATOM     20  N   UNL A   1      31.381  29.292  23.355  1.00  0.00    -0.328 N 
ATOM     21  H   UNL A   1      31.518  30.082  22.724  1.00  0.00     0.348 HD
BRANCH  20  22
ATOM     22  C   UNL A   1      30.055  29.656  23.857  1.00  0.00     0.299 C 
BRANCH  22  23
ATOM     23  C   UNL A   1      29.288  30.721  23.110  1.00  0.00     0.009 A 
ATOM     24  C   UNL A   1      29.148  32.013  23.642  1.00  0.00     0.010 A 
ATOM     25  C   UNL A   1      28.717  30.446  21.859  1.00  0.00     0.048 A 
ATOM     26  C   UNL A   1      28.527  33.025  22.906  1.00  0.00     0.004 A 
ATOM     27  C   UNL A   1      28.112  31.464  21.129  1.00  0.00     0.123 A 
ATOM     28  C   UNL A   1      28.024  32.754  21.635  1.00  0.00     0.039 A 
ATOM     29  F   UNL A   1      27.628  31.199  19.908  1.00  0.00    -0.207 F 
ENDBRANCH  22  23
ENDBRANCH  20  22
ENDBRANCH  12  13
ENDBRANCH   6   8
ENDBRANCH   4   6
ENDBRANCH   3   4
ENDBRANCH   2   3
ENDBRANCH   1   2
BRANCH   1  30
ATOM     30  O   UNL A   1      37.223  21.677  25.042  1.00  0.00    -0.374 OA
BRANCH  30  31
ATOM     31  C   UNL A   1      38.280  21.532  25.995  1.00  0.00     0.202 C 
BRANCH  31  32
ATOM     32  C   UNL A   1      39.591  20.918  25.484  1.00  0.00     0.261 C 
BRANCH  32  33
ATOM     33  O   UNL A   1      40.130  19.931  26.384  1.00  0.00    -0.460 OA
BRANCH  33  34
ATOM     34  C   UNL A   1      41.438  19.634  26.189  1.00  0.00     0.338 C 
ATOM     35  O   UNL A   1      41.899  18.585  25.752  1.00  0.00    -0.246 OA
BRANCH  34  36
ATOM     36  C   UNL A   1      42.277  20.829  26.397  1.00  0.00     0.060 A 
ATOM     37  C   UNL A   1      42.414  21.303  27.708  1.00  0.00     0.016 A 
ATOM     38  C   UNL A   1      42.849  21.526  25.330  1.00  0.00     0.016 A 
ATOM     39  C   UNL A   1      43.079  22.503  27.954  1.00  0.00     0.010 A 
ATOM     40  C   UNL A   1      43.509  22.737  25.579  1.00  0.00     0.010 A 
ATOM     41  C   UNL A   1      43.595  23.249  26.887  1.00  0.00    -0.014 A 
BRANCH  41  42
ATOM     42  C   UNL A   1      44.095  24.625  27.132  1.00  0.00     0.031 A 
ATOM     43  C   UNL A   1      43.140  25.674  27.635  1.00  0.00     0.074 A 
ATOM     44  C   UNL A   1      45.387  24.936  26.923  1.00  0.00     0.049 A 
ATOM     45  N   UNL A   1      43.364  26.933  27.911  1.00  0.00    -0.248 NA
ATOM     46  C   UNL A   1      41.747  25.248  27.855  1.00  0.00     0.031 C 
ATOM     47  C   UNL A   1      46.409  24.012  26.439  1.00  0.00     0.029 A 
ATOM     48  N   UNL A   1      46.052  26.127  27.073  1.00  0.00    -0.354 N 
ATOM     49  C   UNL A   1      42.141  27.455  28.317  1.00  0.00     0.074 A 
ATOM     50  C   UNL A   1      41.174  26.381  28.235  1.00  0.00     0.031 C 
ATOM     51  C   UNL A   1      47.569  24.678  26.301  1.00  0.00     0.029 A 
ATOM     52  C   UNL A   1      47.366  26.078  26.671  1.00  0.00     0.049 A 
ATOM     53  H   UNL A   1      45.629  26.940  27.433  1.00  0.00     0.167 HD
ATOM     54  C   UNL A   1      41.851  28.709  28.739  1.00  0.00     0.034 A 
ATOM     55  C   UNL A   1      48.293  27.053  26.594  1.00  0.00     0.034 A 
ATOM     56  C   UNL A   1      42.814  29.771  28.841  1.00  0.00     0.049 A 
ATOM     57  C   UNL A   1      47.943  28.446  27.051  1.00  0.00     0.074 A 
ATOM     58  C   UNL A   1      42.624  31.063  29.300  1.00  0.00     0.029 A 
ATOM     59  N   UNL A   1      44.146  29.671  28.471  1.00  0.00    -0.354 N 
ATOM     60  N   UNL A   1      46.815  28.891  27.550  1.00  0.00    -0.248 NA
ATOM     61  C   UNL A   1      49.002  29.462  26.970  1.00  0.00     0.031 C 
ATOM     62  C   UNL A   1      43.838  31.750  29.188  1.00  0.00     0.029 A 
ATOM     63  C   UNL A   1      44.788  30.880  28.680  1.00  0.00     0.049 A 
ATOM     64  H   UNL A   1      44.572  28.859  28.111  1.00  0.00     0.167 HD
ATOM     65  C   UNL A   1      47.038  30.226  27.872  1.00  0.00     0.074 A 
ATOM     66  C   UNL A   1      48.416  30.512  27.531  1.00  0.00     0.031 C 
ATOM     67  C   UNL A   1      46.175  31.137  28.388  1.00  0.00     0.034 A 
BRANCH  54  68
ATOM     68  C   UNL A   1      40.434  28.991  29.160  1.00  0.00     0.023 A 
ATOM     69  C   UNL A   1      39.473  29.324  28.184  1.00  0.00     0.012 A 
ATOM     70  C   UNL A   1      40.040  28.877  30.508  1.00  0.00     0.148 A 
ATOM     71  C   UNL A   1      38.148  29.567  28.545  1.00  0.00     0.002 A 
ATOM     72  C   UNL A   1      38.710  29.082  30.855  1.00  0.00     0.091 A 
ATOM     73  F   UNL A   1      40.974  28.584  31.425  1.00  0.00    -0.205 F 
ATOM     74  C   UNL A   1      37.765  29.436  29.878  1.00  0.00     0.022 A 
BRANCH  72  75
ATOM     75  S   UNL A   1      38.106  28.866  32.533  1.00  0.00     0.127 S 
ATOM     76  O   UNL A   1      39.014  29.729  33.286  1.00  0.00    -0.237 OA
ATOM     77  O   UNL A   1      36.733  29.364  32.435  1.00  0.00    -0.237 OA
ATOM     78  O   UNL A   1      38.214  27.442  32.817  1.00  0.00    -0.744 OA
ENDBRANCH  72  75
ENDBRANCH  54  68
BRANCH  55  79
ATOM     79  C   UNL A   1      49.660  26.737  26.092  1.00  0.00     0.023 A 
ATOM     80  C   UNL A   1      50.552  26.014  26.906  1.00  0.00     0.012 A 
ATOM     81  C   UNL A   1      50.070  27.126  24.802  1.00  0.00     0.148 A 
ATOM     82  C   UNL A   1      51.837  25.708  26.456  1.00  0.00     0.002 A 
ATOM     83  C   UNL A   1      51.332  26.770  24.339  1.00  0.00     0.091 A 
ATOM     84  F   UNL A   1      49.214  27.833  24.049  1.00  0.00    -0.205 F 
ATOM     85  C   UNL A   1      52.223  26.074  25.170  1.00  0.00     0.022 A 
BRANCH  83  86
ATOM     86  S   UNL A   1      51.856  27.086  22.650  1.00  0.00     0.127 S 
ATOM     87  O   UNL A   1      52.184  28.507  22.698  1.00  0.00    -0.237 OA
ATOM     88  O   UNL A   1      53.006  26.191  22.517  1.00  0.00    -0.237 OA
ATOM     89  O   UNL A   1      50.720  26.724  21.812  1.00  0.00    -0.744 OA
ENDBRANCH  83  86
ENDBRANCH  55  79
BRANCH  67  90
ATOM     90  C   UNL A   1      46.695  32.527  28.647  1.00  0.00     0.023 A 
ATOM     91  C   UNL A   1      47.240  32.845  29.907  1.00  0.00     0.012 A 
ATOM     92  C   UNL A   1      46.721  33.492  27.620  1.00  0.00     0.148 A 
ATOM     93  C   UNL A   1      47.774  34.110  30.149  1.00  0.00     0.002 A 
ATOM     94  C   UNL A   1      47.296  34.736  27.856  1.00  0.00     0.091 A 
ATOM     95  F   UNL A   1      46.182  33.177  26.433  1.00  0.00    -0.205 F 
ATOM     96  C   UNL A   1      47.814  35.050  29.122  1.00  0.00     0.022 A 
BRANCH  94  97
ATOM     97  S   UNL A   1      47.474  35.973  26.564  1.00  0.00     0.127 S 
ATOM     98  O   UNL A   1      48.220  37.022  27.258  1.00  0.00    -0.237 OA
ATOM     99  O   UNL A   1      48.240  35.253  25.546  1.00  0.00    -0.237 OA
ATOM    100  O   UNL A   1      46.120  36.327  26.161  1.00  0.00    -0.744 OA
ENDBRANCH  94  97
ENDBRANCH  67  90
ENDBRANCH  41  42
ENDBRANCH  34  36
ENDBRANCH  33  34
ENDBRANCH  32  33
ENDBRANCH  31  32
ENDBRANCH  30  31
ENDBRANCH   1  30
TORSDOF 21
ENDMDL
MODEL 3
REMARK VINA RESULT:     -10.3      5.369      9.637
REMARK SMILES C[C@@H](C(=O)OCCOCCOC(=O)c1ccc(-c2c3nc(c(-c4cccc(S(=O)(=O)[O-])c4F)c4ccc([nH]4)c(-c4cccc(S(=O)(=O)[O-])c4F)c4nc(c(-c5cccc(S(=O)(=O)[O-])c5F)c5ccc2[nH]5)C=C4)C=C3)cc1)n1ccc(C(=O)N2CC[NH+](Cc3cccc(F)c3)CC2)n1
REMARK SMILES IDX 7 1 6 2 5 3 3 4 4 5 2 6 1 7 77 8 78 9 97 10 79 11 80 12
REMARK SMILES IDX 81 13 82 14 83 15 84 16 96 17 85 18 95 19 86 20 87 22 88 23
REMARK SMILES IDX 89 24 94 25 90 26 92 27 91 28 93 29 8 30 9 31 10 32 11 33
REMARK SMILES IDX 12 34 13 35 14 36 15 37 76 38 16 39 75 40 17 41 18 42 19 43
REMARK SMILES IDX 69 44 20 45 74 46 68 47 70 48 21 49 73 50 67 51 66 52 22 54
REMARK SMILES IDX 54 55 34 56 53 57 35 58 38 59 52 60 71 61 36 62 37 63 51 65
REMARK SMILES IDX 72 66 39 67 23 68 24 69 32 70 25 71 27 72 33 73 26 74 28 75
REMARK SMILES IDX 29 76 30 77 31 78 55 79 56 80 64 81 57 82 59 83 65 84 58 85
REMARK SMILES IDX 60 86 61 87 62 88 63 89 40 90 41 91 49 92 42 93 44 94 50 95
REMARK SMILES IDX 43 96 45 97 46 98 47 99 48 100
REMARK H PARENT 86 21 70 53 38 64
REMARK Flexibility Score: inf
ROOT
ATOM      1  C   UNL A   1      40.877  21.028  27.271  1.00  0.00     0.202 C 
ENDROOT
BRANCH   1   2
ATOM      2  C   UNL A   1      39.872  21.295  26.146  1.00  0.00     0.261 C 
BRANCH   2   3
ATOM      3  O   UNL A   1      38.904  22.282  26.538  1.00  0.00    -0.462 OA
BRANCH   3   4
ATOM      4  C   UNL A   1      37.841  22.434  25.704  1.00  0.00     0.330 C 
ATOM      5  O   UNL A   1      37.726  23.351  24.896  1.00  0.00    -0.250 OA
BRANCH   4   6
ATOM      6  C   UNL A   1      36.804  21.327  25.846  1.00  0.00     0.213 C 
ATOM      7  C   UNL A   1      36.843  20.243  24.765  1.00  0.00     0.046 C 
BRANCH   6   8
ATOM      8  N   UNL A   1      35.485  21.937  26.012  1.00  0.00    -0.258 N 
ATOM      9  C   UNL A   1      34.967  22.431  27.177  1.00  0.00     0.110 A 
ATOM     10  N   UNL A   1      34.655  22.105  24.958  1.00  0.00    -0.167 NA
ATOM     11  C   UNL A   1      33.773  23.020  26.845  1.00  0.00     0.056 A 
ATOM     12  C   UNL A   1      33.604  22.789  25.454  1.00  0.00     0.150 A 
BRANCH  12  13
ATOM     13  C   UNL A   1      32.503  23.324  24.628  1.00  0.00     0.274 C 
ATOM     14  O   UNL A   1      32.198  22.757  23.575  1.00  0.00    -0.267 OA
ATOM     15  N   UNL A   1      31.813  24.474  25.051  1.00  0.00    -0.326 N 
ATOM     16  C   UNL A   1      30.639  24.833  24.264  1.00  0.00     0.181 C 
ATOM     17  C   UNL A   1      32.490  25.558  25.769  1.00  0.00     0.181 C 
ATOM     18  C   UNL A   1      29.760  25.939  24.871  1.00  0.00     0.284 C 
ATOM     19  C   UNL A   1      31.548  26.640  26.329  1.00  0.00     0.284 C 
ATOM     20  N   UNL A   1      30.467  27.086  25.446  1.00  0.00    -0.328 N 
ATOM     21  H   UNL A   1      29.792  27.566  26.041  1.00  0.00     0.348 HD
BRANCH  20  22
ATOM     22  C   UNL A   1      30.771  28.196  24.540  1.00  0.00     0.299 C 
BRANCH  22  23
ATOM     23  C   UNL A   1      31.997  28.075  23.667  1.00  0.00     0.009 A 
ATOM     24  C   UNL A   1      33.151  28.827  23.940  1.00  0.00     0.010 A 
ATOM     25  C   UNL A   1      32.014  27.195  22.576  1.00  0.00     0.048 A 
ATOM     26  C   UNL A   1      34.318  28.641  23.194  1.00  0.00     0.004 A 
ATOM     27  C   UNL A   1      33.184  27.007  21.848  1.00  0.00     0.123 A 
ATOM     28  C   UNL A   1      34.340  27.712  22.155  1.00  0.00     0.039 A 
ATOM     29  F   UNL A   1      33.200  26.115  20.849  1.00  0.00    -0.207 F 
ENDBRANCH  22  23
ENDBRANCH  20  22
ENDBRANCH  12  13
ENDBRANCH   6   8
ENDBRANCH   4   6
ENDBRANCH   3   4
ENDBRANCH   2   3
ENDBRANCH   1   2
BRANCH   1  30
ATOM     30  O   UNL A   1      42.047  20.293  26.912  1.00  0.00    -0.374 OA
BRANCH  30  31
ATOM     31  C   UNL A   1      42.597  20.527  25.613  1.00  0.00     0.202 C 
BRANCH  31  32
ATOM     32  C   UNL A   1      43.685  21.605  25.507  1.00  0.00     0.261 C 
BRANCH  32  33
ATOM     33  O   UNL A   1      43.289  22.715  24.678  1.00  0.00    -0.460 OA
BRANCH  33  34
ATOM     34  C   UNL A   1      44.004  23.850  24.864  1.00  0.00     0.338 C 
ATOM     35  O   UNL A   1      45.042  24.170  24.294  1.00  0.00    -0.246 OA
BRANCH  34  36
ATOM     36  C   UNL A   1      43.271  24.788  25.735  1.00  0.00     0.060 A 
ATOM     37  C   UNL A   1      43.900  25.997  26.060  1.00  0.00     0.016 A 
ATOM     38  C   UNL A   1      42.033  24.463  26.296  1.00  0.00     0.016 A 
ATOM     39  C   UNL A   1      43.321  26.862  26.985  1.00  0.00     0.010 A 
ATOM     40  C   UNL A   1      41.457  25.331  27.233  1.00  0.00     0.010 A 
ATOM     41  C   UNL A   1      42.116  26.516  27.610  1.00  0.00    -0.014 A 
BRANCH  41  42
ATOM     42  C   UNL A   1      41.625  27.326  28.752  1.00  0.00     0.031 A 
ATOM     43  C   UNL A   1      42.411  27.335  30.036  1.00  0.00     0.074 A 
ATOM     44  C   UNL A   1      40.501  28.057  28.646  1.00  0.00     0.049 A 
ATOM     45  N   UNL A   1      42.163  27.967  31.154  1.00  0.00    -0.248 NA
ATOM     46  C   UNL A   1      43.638  26.522  30.064  1.00  0.00     0.031 C 
ATOM     47  C   UNL A   1      39.653  28.134  27.459  1.00  0.00     0.029 A 
ATOM     48  N   UNL A   1      39.870  28.860  29.564  1.00  0.00    -0.354 N 
ATOM     49  C   UNL A   1      43.188  27.615  32.024  1.00  0.00     0.074 A 
ATOM     50  C   UNL A   1      44.052  26.699  31.311  1.00  0.00     0.031 C 
ATOM     51  C   UNL A   1      38.593  28.915  27.730  1.00  0.00     0.029 A 
ATOM     52  C   UNL A   1      38.680  29.380  29.114  1.00  0.00     0.049 A 
ATOM     53  H   UNL A   1      40.235  29.045  30.460  1.00  0.00     0.167 HD
ATOM     54  C   UNL A   1      43.402  28.030  33.296  1.00  0.00     0.034 A 
ATOM     55  C   UNL A   1      37.758  30.130  29.750  1.00  0.00     0.034 A 
ATOM     56  C   UNL A   1      42.557  28.955  33.999  1.00  0.00     0.049 A 
ATOM     57  C   UNL A   1      38.010  30.565  31.171  1.00  0.00     0.074 A 
ATOM     58  C   UNL A   1      42.717  29.469  35.273  1.00  0.00     0.029 A 
ATOM     59  N   UNL A   1      41.386  29.499  33.493  1.00  0.00    -0.354 N 
ATOM     60  N   UNL A   1      39.047  30.324  31.936  1.00  0.00    -0.248 NA
ATOM     61  C   UNL A   1      36.983  31.405  31.804  1.00  0.00     0.031 C 
ATOM     62  C   UNL A   1      41.632  30.309  35.547  1.00  0.00     0.029 A 
ATOM     63  C   UNL A   1      40.807  30.334  34.434  1.00  0.00     0.049 A 
ATOM     64  H   UNL A   1      41.020  29.316  32.598  1.00  0.00     0.167 HD
ATOM     65  C   UNL A   1      38.813  31.007  33.125  1.00  0.00     0.074 A 
ATOM     66  C   UNL A   1      37.546  31.689  32.972  1.00  0.00     0.031 C 
ATOM     67  C   UNL A   1      39.572  31.052  34.249  1.00  0.00     0.034 A 
BRANCH  54  68
ATOM     68  C   UNL A   1      44.628  27.512  33.999  1.00  0.00     0.023 A 
ATOM     69  C   UNL A   1      45.862  28.170  33.819  1.00  0.00     0.012 A 
ATOM     70  C   UNL A   1      44.553  26.411  34.874  1.00  0.00     0.148 A 
ATOM     71  C   UNL A   1      47.008  27.724  34.477  1.00  0.00     0.002 A 
ATOM     72  C   UNL A   1      45.691  25.997  35.558  1.00  0.00     0.091 A 
ATOM     73  F   UNL A   1      43.376  25.783  35.013  1.00  0.00    -0.205 F 
ATOM     74  C   UNL A   1      46.920  26.645  35.353  1.00  0.00     0.022 A 
BRANCH  72  75
ATOM     75  S   UNL A   1      45.662  24.663  36.761  1.00  0.00     0.127 S 
ATOM     76  O   UNL A   1      46.968  24.816  37.400  1.00  0.00    -0.237 OA
ATOM     77  O   UNL A   1      44.523  25.031  37.604  1.00  0.00    -0.237 OA
ATOM     78  O   UNL A   1      45.478  23.438  35.995  1.00  0.00    -0.744 OA
ENDBRANCH  72  75
ENDBRANCH  54  68
BRANCH  55  79
ATOM     79  C   UNL A   1      36.522  30.550  29.032  1.00  0.00     0.023 A 
ATOM     80  C   UNL A   1      35.661  29.573  28.495  1.00  0.00     0.012 A 
ATOM     81  C   UNL A   1      36.181  31.911  28.903  1.00  0.00     0.148 A 
ATOM     82  C   UNL A   1      34.499  29.945  27.819  1.00  0.00     0.002 A 
ATOM     83  C   UNL A   1      34.994  32.271  28.277  1.00  0.00     0.091 A 
ATOM     84  F   UNL A   1      37.024  32.826  29.402  1.00  0.00    -0.205 F 
ATOM     85  C   UNL A   1      34.159  31.291  27.720  1.00  0.00     0.022 A 
BRANCH  83  86
ATOM     86  S   UNL A   1      34.416  33.972  28.226  1.00  0.00     0.127 S 
ATOM     87  O   UNL A   1      35.290  34.555  27.213  1.00  0.00    -0.237 OA
ATOM     88  O   UNL A   1      33.021  33.806  27.816  1.00  0.00    -0.237 OA
ATOM     89  O   UNL A   1      34.582  34.483  29.580  1.00  0.00    -0.744 OA
ENDBRANCH  83  86
ENDBRANCH  55  79
BRANCH  67  90
ATOM     90  C   UNL A   1      39.074  31.889  35.399  1.00  0.00     0.023 A 
ATOM     91  C   UNL A   1      38.191  31.325  36.341  1.00  0.00     0.012 A 
ATOM     92  C   UNL A   1      39.544  33.203  35.592  1.00  0.00     0.148 A 
ATOM     93  C   UNL A   1      37.761  32.066  37.442  1.00  0.00     0.002 A 
ATOM     94  C   UNL A   1      39.145  33.920  36.716  1.00  0.00     0.091 A 
ATOM     95  F   UNL A   1      40.368  33.729  34.675  1.00  0.00    -0.205 F 
ATOM     96  C   UNL A   1      38.247  33.357  37.635  1.00  0.00     0.022 A 
BRANCH  94  97
ATOM     97  S   UNL A   1      39.794  35.553  37.093  1.00  0.00     0.127 S 
ATOM     98  O   UNL A   1      39.106  35.864  38.345  1.00  0.00    -0.237 OA
ATOM     99  O   UNL A   1      41.227  35.295  37.234  1.00  0.00    -0.237 OA
ATOM    100  O   UNL A   1      39.442  36.395  35.957  1.00  0.00    -0.744 OA
ENDBRANCH  94  97
ENDBRANCH  67  90
ENDBRANCH  41  42
ENDBRANCH  34  36
ENDBRANCH  33  34
ENDBRANCH  32  33
ENDBRANCH  31  32
ENDBRANCH  30  31
ENDBRANCH   1  30
TORSDOF 21
ENDMDL
