MODEL 1
REMARK VINA RESULT:     -11.2      0.000      0.000
REMARK SMILES CC1(C)CCC[C@@H]1NC(=O)CC1(C(=O)OCCOCCOC(=O)c2ccc(-c3c4nc(c(-c5cccc(S(=O)(=O)[O-])c5F)c5ccc([nH]5)c(-c5cccc(S(=O)(=O)[O-])c5F)c5nc(c(-c6cccc(S(=O)(=O)[O-])c6F)c6ccc3[nH]6)C=C5)C=C4)cc2)CCCCC1
REMARK SMILES IDX 18 1 17 2 16 3 15 4 13 5 14 6 12 7 87 8 91 9 88 10 90 11
REMARK SMILES IDX 89 12 11 13 9 14 8 15 10 17 7 18 1 19 2 20 3 21 4 22 5 23
REMARK SMILES IDX 6 24 19 25 20 26 21 27 22 28 23 29 24 30 25 31 86 32 26 33
REMARK SMILES IDX 85 34 27 35 28 36 29 37 79 38 30 39 84 40 78 41 80 42 31 43
REMARK SMILES IDX 83 44 77 45 76 46 32 48 64 49 44 50 63 51 45 52 48 53 62 54
REMARK SMILES IDX 81 55 46 56 47 57 61 59 82 60 49 61 33 62 34 63 42 64 35 65
REMARK SMILES IDX 37 66 43 67 36 68 38 69 39 70 40 71 41 72 65 73 66 74 74 75
REMARK SMILES IDX 67 76 69 77 75 78 68 79 70 80 71 81 72 82 73 83 50 84 51 85
REMARK SMILES IDX 59 86 52 87 54 88 60 89 53 90 55 91 56 92 57 93 58 94
REMARK H PARENT 8 16 80 47 48 58
REMARK Flexibility Score: inf
ROOT
ATOM      1  O   UNL A   1      36.448  21.684  24.953  1.00  0.00    -0.374 OA
ENDROOT
BRANCH   1   2
ATOM      2  C   UNL A   1      36.535  22.396  23.717  1.00  0.00     0.202 C 
BRANCH   2   3
ATOM      3  C   UNL A   1      35.290  23.200  23.332  1.00  0.00     0.261 C 
BRANCH   3   4
ATOM      4  O   UNL A   1      34.098  22.685  23.949  1.00  0.00    -0.463 OA
BRANCH   4   5
ATOM      5  C   UNL A   1      33.080  23.562  24.147  1.00  0.00     0.312 C 
ATOM      6  O   UNL A   1      32.851  24.528  23.425  1.00  0.00    -0.252 OA
BRANCH   5   7
ATOM      7  C   UNL A   1      32.194  23.199  25.353  1.00  0.00     0.077 C 
ATOM      8  C   UNL A   1      32.891  23.776  26.607  1.00  0.00     0.019 C 
ATOM      9  C   UNL A   1      31.973  21.684  25.525  1.00  0.00     0.019 C 
ATOM     10  C   UNL A   1      34.141  22.977  26.995  1.00  0.00     0.001 C 
ATOM     11  C   UNL A   1      33.159  20.876  26.042  1.00  0.00     0.001 C 
ATOM     12  C   UNL A   1      33.798  21.517  27.262  1.00  0.00     0.000 C 
BRANCH   7  13
ATOM     13  C   UNL A   1      30.836  23.909  25.059  1.00  0.00     0.118 C 
BRANCH  13  14
ATOM     14  C   UNL A   1      30.303  24.841  26.133  1.00  0.00     0.221 C 
ATOM     15  N   UNL A   1      30.630  26.166  26.163  1.00  0.00    -0.353 N 
ATOM     16  H   UNL A   1      30.304  26.637  26.964  1.00  0.00     0.163 HD
ATOM     17  O   UNL A   1      29.571  24.413  27.029  1.00  0.00    -0.275 OA
BRANCH  15  18
ATOM     18  C   UNL A   1      31.370  27.021  25.238  1.00  0.00     0.087 C 
ATOM     19  C   UNL A   1      33.629  27.377  26.403  1.00  0.00     0.013 C 
ATOM     20  C   UNL A   1      32.330  28.031  25.929  1.00  0.00    -0.015 C 
ATOM     21  C   UNL A   1      31.689  28.785  27.112  1.00  0.00     0.013 C 
ATOM     22  C   UNL A   1      32.608  29.022  24.783  1.00  0.00     0.008 C 
ATOM     23  C   UNL A   1      31.290  29.152  24.027  1.00  0.00     0.003 C 
ATOM     24  C   UNL A   1      30.444  27.950  24.435  1.00  0.00     0.025 C 
ENDBRANCH  15  18
ENDBRANCH  13  14
ENDBRANCH   7  13
ENDBRANCH   5   7
ENDBRANCH   4   5
ENDBRANCH   3   4
ENDBRANCH   2   3
ENDBRANCH   1   2
BRANCH   1  25
ATOM     25  C   UNL A   1      36.524  20.258  24.887  1.00  0.00     0.202 C 
BRANCH  25  26
ATOM     26  C   UNL A   1      37.914  19.676  25.135  1.00  0.00     0.261 C 
BRANCH  26  27
ATOM     27  O   UNL A   1      38.886  20.727  25.225  1.00  0.00    -0.460 OA
BRANCH  27  28
ATOM     28  C   UNL A   1      39.745  20.578  26.258  1.00  0.00     0.338 C 
ATOM     29  O   UNL A   1      40.275  19.541  26.625  1.00  0.00    -0.246 OA
BRANCH  28  30
ATOM     30  C   UNL A   1      40.063  21.901  26.814  1.00  0.00     0.060 A 
ATOM     31  C   UNL A   1      39.454  23.028  26.251  1.00  0.00     0.016 A 
ATOM     32  C   UNL A   1      41.045  22.033  27.796  1.00  0.00     0.016 A 
ATOM     33  C   UNL A   1      39.867  24.303  26.640  1.00  0.00     0.010 A 
ATOM     34  C   UNL A   1      41.446  23.313  28.192  1.00  0.00     0.010 A 
ATOM     35  C   UNL A   1      40.889  24.454  27.587  1.00  0.00    -0.014 A 
BRANCH  35  36
ATOM     36  C   UNL A   1      41.447  25.801  27.870  1.00  0.00     0.031 A 
ATOM     37  C   UNL A   1      42.852  26.130  27.441  1.00  0.00     0.074 A 
ATOM     38  C   UNL A   1      40.709  26.723  28.516  1.00  0.00     0.049 A 
ATOM     39  N   UNL A   1      43.515  27.250  27.572  1.00  0.00    -0.248 NA
ATOM     40  C   UNL A   1      43.613  25.056  26.781  1.00  0.00     0.031 C 
ATOM     41  C   UNL A   1      39.349  26.518  29.010  1.00  0.00     0.029 A 
ATOM     42  N   UNL A   1      41.013  28.009  28.889  1.00  0.00    -0.354 N 
ATOM     43  C   UNL A   1      44.773  27.013  27.032  1.00  0.00     0.074 A 
ATOM     44  C   UNL A   1      44.789  25.637  26.585  1.00  0.00     0.031 C 
ATOM     45  C   UNL A   1      38.944  27.631  29.646  1.00  0.00     0.029 A 
ATOM     46  C   UNL A   1      40.018  28.622  29.612  1.00  0.00     0.049 A 
ATOM     47  H   UNL A   1      41.863  28.450  28.660  1.00  0.00     0.167 HD
ATOM     48  C   UNL A   1      45.814  27.869  26.899  1.00  0.00     0.034 A 
ATOM     49  C   UNL A   1      39.980  29.840  30.190  1.00  0.00     0.034 A 
ATOM     50  C   UNL A   1      45.792  29.245  27.315  1.00  0.00     0.049 A 
ATOM     51  C   UNL A   1      41.151  30.773  30.025  1.00  0.00     0.074 A 
ATOM     52  C   UNL A   1      46.769  30.210  27.149  1.00  0.00     0.029 A 
ATOM     53  N   UNL A   1      44.745  29.848  27.994  1.00  0.00    -0.354 N 
ATOM     54  N   UNL A   1      42.267  30.588  29.363  1.00  0.00    -0.248 NA
ATOM     55  C   UNL A   1      41.043  32.098  30.656  1.00  0.00     0.031 C 
ATOM     56  C   UNL A   1      46.320  31.395  27.743  1.00  0.00     0.029 A 
ATOM     57  C   UNL A   1      45.057  31.169  28.269  1.00  0.00     0.049 A 
ATOM     58  H   UNL A   1      43.903  29.404  28.243  1.00  0.00     0.167 HD
ATOM     59  C   UNL A   1      42.981  31.776  29.474  1.00  0.00     0.074 A 
ATOM     60  C   UNL A   1      42.160  32.685  30.248  1.00  0.00     0.031 C 
ATOM     61  C   UNL A   1      44.212  32.081  28.995  1.00  0.00     0.034 A 
BRANCH  48  62
ATOM     62  C   UNL A   1      47.061  27.356  26.228  1.00  0.00     0.023 A 
ATOM     63  C   UNL A   1      47.253  27.600  24.853  1.00  0.00     0.012 A 
ATOM     64  C   UNL A   1      48.066  26.698  26.963  1.00  0.00     0.148 A 
ATOM     65  C   UNL A   1      48.418  27.179  24.214  1.00  0.00     0.002 A 
ATOM     66  C   UNL A   1      49.239  26.311  26.326  1.00  0.00     0.091 A 
ATOM     67  F   UNL A   1      47.852  26.453  28.263  1.00  0.00    -0.205 F 
ATOM     68  C   UNL A   1      49.415  26.544  24.951  1.00  0.00     0.022 A 
BRANCH  66  69
ATOM     69  S   UNL A   1      50.606  25.544  27.205  1.00  0.00     0.127 S 
ATOM     70  O   UNL A   1      49.983  24.319  27.706  1.00  0.00    -0.237 OA
ATOM     71  O   UNL A   1      51.585  25.336  26.137  1.00  0.00    -0.237 OA
ATOM     72  O   UNL A   1      51.014  26.503  28.221  1.00  0.00    -0.744 OA
ENDBRANCH  66  69
ENDBRANCH  48  62
BRANCH  49  73
ATOM     73  C   UNL A   1      38.764  30.264  30.937  1.00  0.00     0.023 A 
ATOM     74  C   UNL A   1      38.664  29.993  32.315  1.00  0.00     0.012 A 
ATOM     75  C   UNL A   1      37.722  30.966  30.299  1.00  0.00     0.148 A 
ATOM     76  C   UNL A   1      37.542  30.396  33.040  1.00  0.00     0.002 A 
ATOM     77  C   UNL A   1      36.632  31.411  31.037  1.00  0.00     0.091 A 
ATOM     78  F   UNL A   1      37.821  31.191  28.981  1.00  0.00    -0.205 F 
ATOM     79  C   UNL A   1      36.532  31.115  32.405  1.00  0.00     0.022 A 
BRANCH  77  80
ATOM     80  S   UNL A   1      35.363  32.461  30.319  1.00  0.00     0.127 S 
ATOM     81  O   UNL A   1      34.427  32.603  31.430  1.00  0.00    -0.237 OA
ATOM     82  O   UNL A   1      36.117  33.671  29.988  1.00  0.00    -0.237 OA
ATOM     83  O   UNL A   1      34.873  31.731  29.156  1.00  0.00    -0.744 OA
ENDBRANCH  77  80
ENDBRANCH  49  73
BRANCH  61  84
ATOM     84  C   UNL A   1      44.754  33.457  29.277  1.00  0.00     0.023 A 
ATOM     85  C   UNL A   1      45.433  33.698  30.488  1.00  0.00     0.012 A 
ATOM     86  C   UNL A   1      44.670  34.483  28.316  1.00  0.00     0.148 A 
ATOM     87  C   UNL A   1      45.998  34.946  30.748  1.00  0.00     0.002 A 
ATOM     88  C   UNL A   1      45.272  35.711  28.564  1.00  0.00     0.091 A 
ATOM     89  F   UNL A   1      44.002  34.242  27.177  1.00  0.00    -0.205 F 
ATOM     90  C   UNL A   1      45.929  35.948  29.783  1.00  0.00     0.022 A 
BRANCH  88  91
ATOM     91  S   UNL A   1      45.307  37.026  27.339  1.00  0.00     0.127 S 
ATOM     92  O   UNL A   1      43.883  37.249  27.099  1.00  0.00    -0.237 OA
ATOM     93  O   UNL A   1      45.981  38.109  28.059  1.00  0.00    -0.237 OA
ATOM     94  O   UNL A   1      46.061  36.497  26.211  1.00  0.00    -0.744 OA
ENDBRANCH  88  91
ENDBRANCH  61  84
ENDBRANCH  35  36
ENDBRANCH  28  30
ENDBRANCH  27  28
ENDBRANCH  26  27
ENDBRANCH  25  26
ENDBRANCH   1  25
TORSDOF 20
ENDMDL
MODEL 2
REMARK VINA RESULT:     -10.9      4.954     10.148
REMARK SMILES CC1(C)CCC[C@@H]1NC(=O)CC1(C(=O)OCCOCCOC(=O)c2ccc(-c3c4nc(c(-c5cccc(S(=O)(=O)[O-])c5F)c5ccc([nH]5)c(-c5cccc(S(=O)(=O)[O-])c5F)c5nc(c(-c6cccc(S(=O)(=O)[O-])c6F)c6ccc3[nH]6)C=C5)C=C4)cc2)CCCCC1
REMARK SMILES IDX 18 1 17 2 16 3 15 4 13 5 14 6 12 7 87 8 91 9 88 10 90 11
REMARK SMILES IDX 89 12 11 13 9 14 8 15 10 17 7 18 1 19 2 20 3 21 4 22 5 23
REMARK SMILES IDX 6 24 19 25 20 26 21 27 22 28 23 29 24 30 25 31 86 32 26 33
REMARK SMILES IDX 85 34 27 35 28 36 29 37 79 38 30 39 84 40 78 41 80 42 31 43
REMARK SMILES IDX 83 44 77 45 76 46 32 48 64 49 44 50 63 51 45 52 48 53 62 54
REMARK SMILES IDX 81 55 46 56 47 57 61 59 82 60 49 61 33 62 34 63 42 64 35 65
REMARK SMILES IDX 37 66 43 67 36 68 38 69 39 70 40 71 41 72 65 73 66 74 74 75
REMARK SMILES IDX 67 76 69 77 75 78 68 79 70 80 71 81 72 82 73 83 50 84 51 85
REMARK SMILES IDX 59 86 52 87 54 88 60 89 53 90 55 91 56 92 57 93 58 94
REMARK H PARENT 8 16 80 47 48 58
REMARK Flexibility Score: inf
ROOT
ATOM      1  O   UNL A   1      31.532  30.072  24.562  1.00  0.00    -0.374 OA
ENDROOT
BRANCH   1   2
ATOM      2  C   UNL A   1      30.558  29.303  23.853  1.00  0.00     0.202 C 
BRANCH   2   3
ATOM      3  C   UNL A   1      31.043  28.671  22.545  1.00  0.00     0.261 C 
BRANCH   3   4
ATOM      4  O   UNL A   1      30.803  27.254  22.505  1.00  0.00    -0.463 OA
BRANCH   4   5
ATOM      5  C   UNL A   1      30.785  26.600  23.695  1.00  0.00     0.312 C 
ATOM      6  O   UNL A   1      29.852  26.638  24.490  1.00  0.00    -0.252 OA
BRANCH   5   7
ATOM      7  C   UNL A   1      32.047  25.750  23.938  1.00  0.00     0.077 C 
ATOM      8  C   UNL A   1      32.074  25.414  25.447  1.00  0.00     0.019 C 
ATOM      9  C   UNL A   1      33.356  26.456  23.534  1.00  0.00     0.019 C 
ATOM     10  C   UNL A   1      32.448  26.628  26.306  1.00  0.00     0.001 C 
ATOM     11  C   UNL A   1      33.832  27.584  24.446  1.00  0.00     0.001 C 
ATOM     12  C   UNL A   1      33.812  27.180  25.911  1.00  0.00     0.000 C 
BRANCH   7  13
ATOM     13  C   UNL A   1      31.830  24.480  23.058  1.00  0.00     0.118 C 
BRANCH  13  14
ATOM     14  C   UNL A   1      33.028  23.979  22.271  1.00  0.00     0.221 C 
ATOM     15  N   UNL A   1      34.001  23.216  22.849  1.00  0.00    -0.353 N 
ATOM     16  H   UNL A   1      34.771  23.044  22.260  1.00  0.00     0.163 HD
ATOM     17  O   UNL A   1      33.163  24.271  21.080  1.00  0.00    -0.275 OA
BRANCH  15  18
ATOM     18  C   UNL A   1      34.123  22.608  24.172  1.00  0.00     0.087 C 
ATOM     19  C   UNL A   1      35.788  24.130  25.397  1.00  0.00     0.013 C 
ATOM     20  C   UNL A   1      35.536  22.740  24.809  1.00  0.00    -0.015 C 
ATOM     21  C   UNL A   1      36.686  22.389  23.843  1.00  0.00     0.013 C 
ATOM     22  C   UNL A   1      35.467  21.682  25.927  1.00  0.00     0.008 C 
ATOM     23  C   UNL A   1      34.666  20.524  25.343  1.00  0.00     0.003 C 
ATOM     24  C   UNL A   1      33.924  21.084  24.133  1.00  0.00     0.025 C 
ENDBRANCH  15  18
ENDBRANCH  13  14
ENDBRANCH   7  13
ENDBRANCH   5   7
ENDBRANCH   4   5
ENDBRANCH   3   4
ENDBRANCH   2   3
ENDBRANCH   1   2
BRANCH   1  25
ATOM     25  C   UNL A   1      31.309  30.275  25.958  1.00  0.00     0.202 C 
BRANCH  25  26
ATOM     26  C   UNL A   1      32.044  31.470  26.560  1.00  0.00     0.261 C 
BRANCH  26  27
ATOM     27  O   UNL A   1      33.098  31.024  27.425  1.00  0.00    -0.460 OA
BRANCH  27  28
ATOM     28  C   UNL A   1      33.927  32.016  27.819  1.00  0.00     0.338 C 
ATOM     29  O   UNL A   1      33.634  33.188  27.995  1.00  0.00    -0.246 OA
BRANCH  28  30
ATOM     30  C   UNL A   1      35.242  31.445  28.140  1.00  0.00     0.060 A 
ATOM     31  C   UNL A   1      35.350  30.058  28.296  1.00  0.00     0.016 A 
ATOM     32  C   UNL A   1      36.326  32.282  28.405  1.00  0.00     0.016 A 
ATOM     33  C   UNL A   1      36.542  29.507  28.770  1.00  0.00     0.010 A 
ATOM     34  C   UNL A   1      37.523  31.723  28.867  1.00  0.00     0.010 A 
ATOM     35  C   UNL A   1      37.624  30.338  29.091  1.00  0.00    -0.014 A 
BRANCH  35  36
ATOM     36  C   UNL A   1      38.824  29.772  29.758  1.00  0.00     0.031 A 
ATOM     37  C   UNL A   1      39.233  30.284  31.113  1.00  0.00     0.074 A 
ATOM     38  C   UNL A   1      39.551  28.814  29.154  1.00  0.00     0.049 A 
ATOM     39  N   UNL A   1      40.231  29.907  31.871  1.00  0.00    -0.248 NA
ATOM     40  C   UNL A   1      38.416  31.364  31.690  1.00  0.00     0.031 C 
ATOM     41  C   UNL A   1      39.277  28.257  27.831  1.00  0.00     0.029 A 
ATOM     42  N   UNL A   1      40.685  28.160  29.567  1.00  0.00    -0.354 N 
ATOM     43  C   UNL A   1      40.175  30.714  33.002  1.00  0.00     0.074 A 
ATOM     44  C   UNL A   1      39.056  31.612  32.825  1.00  0.00     0.031 C 
ATOM     45  C   UNL A   1      40.234  27.362  27.529  1.00  0.00     0.029 A 
ATOM     46  C   UNL A   1      41.192  27.290  28.631  1.00  0.00     0.049 A 
ATOM     47  H   UNL A   1      41.097  28.300  30.451  1.00  0.00     0.167 HD
ATOM     48  C   UNL A   1      40.970  30.694  34.098  1.00  0.00     0.034 A 
ATOM     49  C   UNL A   1      42.305  26.531  28.654  1.00  0.00     0.034 A 
ATOM     50  C   UNL A   1      42.066  29.783  34.290  1.00  0.00     0.049 A 
ATOM     51  C   UNL A   1      43.170  26.525  29.887  1.00  0.00     0.074 A 
ATOM     52  C   UNL A   1      42.876  29.633  35.401  1.00  0.00     0.029 A 
ATOM     53  N   UNL A   1      42.514  28.876  33.342  1.00  0.00    -0.354 N 
ATOM     54  N   UNL A   1      43.004  27.172  31.015  1.00  0.00    -0.248 NA
ATOM     55  C   UNL A   1      44.358  25.657  29.865  1.00  0.00     0.031 C 
ATOM     56  C   UNL A   1      43.828  28.647  35.119  1.00  0.00     0.029 A 
ATOM     57  C   UNL A   1      43.602  28.175  33.836  1.00  0.00     0.049 A 
ATOM     58  H   UNL A   1      42.119  28.749  32.450  1.00  0.00     0.167 HD
ATOM     59  C   UNL A   1      44.046  26.771  31.844  1.00  0.00     0.074 A 
ATOM     60  C   UNL A   1      44.826  25.806  31.097  1.00  0.00     0.031 C 
ATOM     61  C   UNL A   1      44.341  27.179  33.103  1.00  0.00     0.034 A 
BRANCH  48  62
ATOM     62  C   UNL A   1      40.654  31.660  35.209  1.00  0.00     0.023 A 
ATOM     63  C   UNL A   1      41.531  32.734  35.458  1.00  0.00     0.012 A 
ATOM     64  C   UNL A   1      39.466  31.547  35.956  1.00  0.00     0.148 A 
ATOM     65  C   UNL A   1      41.242  33.671  36.449  1.00  0.00     0.002 A 
ATOM     66  C   UNL A   1      39.168  32.504  36.920  1.00  0.00     0.091 A 
ATOM     67  F   UNL A   1      38.658  30.504  35.721  1.00  0.00    -0.205 F 
ATOM     68  C   UNL A   1      40.057  33.562  37.172  1.00  0.00     0.022 A 
BRANCH  66  69
ATOM     69  S   UNL A   1      37.635  32.483  37.857  1.00  0.00     0.127 S 
ATOM     70  O   UNL A   1      37.513  31.064  38.191  1.00  0.00    -0.237 OA
ATOM     71  O   UNL A   1      37.953  33.351  38.992  1.00  0.00    -0.237 OA
ATOM     72  O   UNL A   1      36.614  33.009  36.962  1.00  0.00    -0.744 OA
ENDBRANCH  66  69
ENDBRANCH  48  62
BRANCH  49  73
ATOM     73  C   UNL A   1      42.634  25.669  27.485  1.00  0.00     0.023 A 
ATOM     74  C   UNL A   1      43.463  26.171  26.463  1.00  0.00     0.012 A 
ATOM     75  C   UNL A   1      42.163  24.345  27.397  1.00  0.00     0.148 A 
ATOM     76  C   UNL A   1      43.800  25.377  25.366  1.00  0.00     0.002 A 
ATOM     77  C   UNL A   1      42.545  23.542  26.328  1.00  0.00     0.091 A 
ATOM     78  F   UNL A   1      41.352  23.892  28.364  1.00  0.00    -0.205 F 
ATOM     79  C   UNL A   1      43.352  24.060  25.304  1.00  0.00     0.022 A 
BRANCH  77  80
ATOM     80  S   UNL A   1      42.123  21.797  26.252  1.00  0.00     0.127 S 
ATOM     81  O   UNL A   1      42.397  21.363  27.618  1.00  0.00    -0.237 OA
ATOM     82  O   UNL A   1      40.705  21.839  25.891  1.00  0.00    -0.237 OA
ATOM     83  O   UNL A   1      42.983  21.239  25.216  1.00  0.00    -0.744 OA
ENDBRANCH  77  80
ENDBRANCH  49  73
BRANCH  61  84
ATOM     84  C   UNL A   1      45.552  26.581  33.770  1.00  0.00     0.023 A 
ATOM     85  C   UNL A   1      46.797  27.228  33.649  1.00  0.00     0.012 A 
ATOM     86  C   UNL A   1      45.443  25.435  34.581  1.00  0.00     0.148 A 
ATOM     87  C   UNL A   1      47.921  26.730  34.306  1.00  0.00     0.002 A 
ATOM     88  C   UNL A   1      46.559  24.968  35.267  1.00  0.00     0.091 A 
ATOM     89  F   UNL A   1      44.254  24.821  34.668  1.00  0.00    -0.205 F 
ATOM     90  C   UNL A   1      47.801  25.609  35.124  1.00  0.00     0.022 A 
BRANCH  88  91
ATOM     91  S   UNL A   1      46.471  23.584  36.410  1.00  0.00     0.127 S 
ATOM     92  O   UNL A   1      45.882  22.542  35.573  1.00  0.00    -0.237 OA
ATOM     93  O   UNL A   1      47.879  23.369  36.752  1.00  0.00    -0.237 OA
ATOM     94  O   UNL A   1      45.647  24.041  37.521  1.00  0.00    -0.744 OA
ENDBRANCH  88  91
ENDBRANCH  61  84
ENDBRANCH  35  36
ENDBRANCH  28  30
ENDBRANCH  27  28
ENDBRANCH  26  27
ENDBRANCH  25  26
ENDBRANCH   1  25
TORSDOF 20
ENDMDL
MODEL 3
REMARK VINA RESULT:     -10.8      5.253     10.527
REMARK SMILES CC1(C)CCC[C@@H]1NC(=O)CC1(C(=O)OCCOCCOC(=O)c2ccc(-c3c4nc(c(-c5cccc(S(=O)(=O)[O-])c5F)c5ccc([nH]5)c(-c5cccc(S(=O)(=O)[O-])c5F)c5nc(c(-c6cccc(S(=O)(=O)[O-])c6F)c6ccc3[nH]6)C=C5)C=C4)cc2)CCCCC1
REMARK SMILES IDX 18 1 17 2 16 3 15 4 13 5 14 6 12 7 87 8 91 9 88 10 90 11
REMARK SMILES IDX 89 12 11 13 9 14 8 15 10 17 7 18 1 19 2 20 3 21 4 22 5 23
REMARK SMILES IDX 6 24 19 25 20 26 21 27 22 28 23 29 24 30 25 31 86 32 26 33
REMARK SMILES IDX 85 34 27 35 28 36 29 37 79 38 30 39 84 40 78 41 80 42 31 43
REMARK SMILES IDX 83 44 77 45 76 46 32 48 64 49 44 50 63 51 45 52 48 53 62 54
REMARK SMILES IDX 81 55 46 56 47 57 61 59 82 60 49 61 33 62 34 63 42 64 35 65
REMARK SMILES IDX 37 66 43 67 36 68 38 69 39 70 40 71 41 72 65 73 66 74 74 75
REMARK SMILES IDX 67 76 69 77 75 78 68 79 70 80 71 81 72 82 73 83 50 84 51 85
REMARK SMILES IDX 59 86 52 87 54 88 60 89 53 90 55 91 56 92 57 93 58 94
REMARK H PARENT 8 16 80 47 48 58
REMARK Flexibility Score: inf
ROOT
ATOM      1  O   UNL A   1      31.920  30.782  26.659  1.00  0.00    -0.374 OA
ENDROOT
BRANCH   1   2
ATOM      2  C   UNL A   1      33.255  30.308  26.846  1.00  0.00     0.202 C 
BRANCH   2   3
ATOM      3  C   UNL A   1      33.385  29.002  27.634  1.00  0.00     0.261 C 
BRANCH   3   4
ATOM      4  O   UNL A   1      33.310  27.845  26.784  1.00  0.00    -0.463 OA
BRANCH   4   5
ATOM      5  C   UNL A   1      32.083  27.292  26.606  1.00  0.00     0.312 C 
ATOM      6  O   UNL A   1      31.118  27.501  27.336  1.00  0.00    -0.252 OA
BRANCH   5   7
ATOM      7  C   UNL A   1      31.996  26.400  25.353  1.00  0.00     0.077 C 
ATOM      8  C   UNL A   1      31.215  25.130  25.764  1.00  0.00     0.019 C 
ATOM      9  C   UNL A   1      33.370  26.008  24.777  1.00  0.00     0.019 C 
ATOM     10  C   UNL A   1      32.049  24.197  26.651  1.00  0.00     0.001 C 
ATOM     11  C   UNL A   1      34.171  24.975  25.565  1.00  0.00     0.001 C 
ATOM     12  C   UNL A   1      33.329  23.769  25.945  1.00  0.00     0.000 C 
BRANCH   7  13
ATOM     13  C   UNL A   1      31.208  27.264  24.320  1.00  0.00     0.118 C 
BRANCH  13  14
ATOM     14  C   UNL A   1      31.854  28.567  23.884  1.00  0.00     0.221 C 
ATOM     15  N   UNL A   1      31.125  29.708  23.707  1.00  0.00    -0.353 N 
ATOM     16  H   UNL A   1      31.642  30.454  23.326  1.00  0.00     0.163 HD
ATOM     17  O   UNL A   1      33.064  28.622  23.654  1.00  0.00    -0.275 OA
BRANCH  15  18
ATOM     18  C   UNL A   1      29.726  30.036  23.974  1.00  0.00     0.087 C 
ATOM     19  C   UNL A   1      28.422  28.157  22.807  1.00  0.00     0.013 C 
ATOM     20  C   UNL A   1      28.750  29.652  22.825  1.00  0.00    -0.015 C 
ATOM     21  C   UNL A   1      29.242  30.073  21.425  1.00  0.00     0.013 C 
ATOM     22  C   UNL A   1      27.502  30.476  23.197  1.00  0.00     0.008 C 
ATOM     23  C   UNL A   1      28.034  31.795  23.746  1.00  0.00     0.003 C 
ATOM     24  C   UNL A   1      29.497  31.551  24.103  1.00  0.00     0.025 C 
ENDBRANCH  15  18
ENDBRANCH  13  14
ENDBRANCH   7  13
ENDBRANCH   5   7
ENDBRANCH   4   5
ENDBRANCH   3   4
ENDBRANCH   2   3
ENDBRANCH   1   2
BRANCH   1  25
ATOM     25  C   UNL A   1      31.688  32.174  26.882  1.00  0.00     0.202 C 
BRANCH  25  26
ATOM     26  C   UNL A   1      32.902  32.958  27.377  1.00  0.00     0.261 C 
BRANCH  26  27
ATOM     27  O   UNL A   1      32.517  34.287  27.756  1.00  0.00    -0.460 OA
BRANCH  27  28
ATOM     28  C   UNL A   1      33.129  34.724  28.879  1.00  0.00     0.338 C 
ATOM     29  O   UNL A   1      32.752  35.620  29.617  1.00  0.00    -0.246 OA
BRANCH  28  30
ATOM     30  C   UNL A   1      34.281  33.857  29.167  1.00  0.00     0.060 A 
ATOM     31  C   UNL A   1      34.076  32.705  29.936  1.00  0.00     0.016 A 
ATOM     32  C   UNL A   1      35.565  34.245  28.787  1.00  0.00     0.016 A 
ATOM     33  C   UNL A   1      35.173  31.960  30.371  1.00  0.00     0.010 A 
ATOM     34  C   UNL A   1      36.661  33.487  29.214  1.00  0.00     0.010 A 
ATOM     35  C   UNL A   1      36.474  32.366  30.042  1.00  0.00    -0.014 A 
BRANCH  35  36
ATOM     36  C   UNL A   1      37.642  31.678  30.648  1.00  0.00     0.031 A 
ATOM     37  C   UNL A   1      38.043  31.998  32.063  1.00  0.00     0.074 A 
ATOM     38  C   UNL A   1      38.349  30.779  29.937  1.00  0.00     0.049 A 
ATOM     39  N   UNL A   1      39.013  31.493  32.781  1.00  0.00    -0.248 NA
ATOM     40  C   UNL A   1      37.251  33.024  32.762  1.00  0.00     0.031 C 
ATOM     41  C   UNL A   1      38.082  30.405  28.550  1.00  0.00     0.029 A 
ATOM     42  N   UNL A   1      39.453  30.039  30.279  1.00  0.00    -0.354 N 
ATOM     43  C   UNL A   1      38.963  32.150  34.005  1.00  0.00     0.074 A 
ATOM     44  C   UNL A   1      37.877  33.103  33.928  1.00  0.00     0.031 C 
ATOM     45  C   UNL A   1      39.014  29.524  28.149  1.00  0.00     0.029 A 
ATOM     46  C   UNL A   1      39.948  29.279  29.247  1.00  0.00     0.049 A 
ATOM     47  H   UNL A   1      39.853  30.051  31.179  1.00  0.00     0.167 HD
ATOM     48  C   UNL A   1      39.736  31.963  35.101  1.00  0.00     0.034 A 
ATOM     49  C   UNL A   1      41.035  28.483  29.189  1.00  0.00     0.034 A 
ATOM     50  C   UNL A   1      40.797  30.997  35.190  1.00  0.00     0.049 A 
ATOM     51  C   UNL A   1      41.877  28.291  30.423  1.00  0.00     0.074 A 
ATOM     52  C   UNL A   1      41.582  30.679  36.284  1.00  0.00     0.029 A 
ATOM     53  N   UNL A   1      41.234  30.203  34.141  1.00  0.00    -0.354 N 
ATOM     54  N   UNL A   1      41.710  28.794  31.622  1.00  0.00    -0.248 NA
ATOM     55  C   UNL A   1      43.036  27.392  30.307  1.00  0.00     0.031 C 
ATOM     56  C   UNL A   1      42.506  29.704  35.893  1.00  0.00     0.029 A 
ATOM     57  C   UNL A   1      42.288  29.408  34.556  1.00  0.00     0.049 A 
ATOM     58  H   UNL A   1      40.851  30.205  33.234  1.00  0.00     0.167 HD
ATOM     59  C   UNL A   1      42.723  28.254  32.408  1.00  0.00     0.074 A 
ATOM     60  C   UNL A   1      43.485  27.366  31.555  1.00  0.00     0.031 C 
ATOM     61  C   UNL A   1      43.008  28.488  33.713  1.00  0.00     0.034 A 
BRANCH  48  62
ATOM     62  C   UNL A   1      39.431  32.790  36.322  1.00  0.00     0.023 A 
ATOM     63  C   UNL A   1      39.979  34.084  36.432  1.00  0.00     0.012 A 
ATOM     64  C   UNL A   1      38.556  32.320  37.319  1.00  0.00     0.148 A 
ATOM     65  C   UNL A   1      39.677  34.891  37.528  1.00  0.00     0.002 A 
ATOM     66  C   UNL A   1      38.233  33.143  38.392  1.00  0.00     0.091 A 
ATOM     67  F   UNL A   1      38.065  31.078  37.208  1.00  0.00    -0.205 F 
ATOM     68  C   UNL A   1      38.798  34.425  38.502  1.00  0.00     0.022 A 
BRANCH  66  69
ATOM     69  S   UNL A   1      37.060  32.656  39.663  1.00  0.00     0.127 S 
ATOM     70  O   UNL A   1      35.812  32.594  38.903  1.00  0.00    -0.237 OA
ATOM     71  O   UNL A   1      37.581  31.356  40.085  1.00  0.00    -0.237 OA
ATOM     72  O   UNL A   1      37.124  33.693  40.683  1.00  0.00    -0.744 OA
ENDBRANCH  66  69
ENDBRANCH  48  62
BRANCH  49  73
ATOM     73  C   UNL A   1      41.358  27.767  27.923  1.00  0.00     0.023 A 
ATOM     74  C   UNL A   1      41.862  28.489  26.825  1.00  0.00     0.012 A 
ATOM     75  C   UNL A   1      41.205  26.371  27.814  1.00  0.00     0.148 A 
ATOM     76  C   UNL A   1      42.188  27.838  25.634  1.00  0.00     0.002 A 
ATOM     77  C   UNL A   1      41.582  25.721  26.644  1.00  0.00     0.091 A 
ATOM     78  F   UNL A   1      40.698  25.703  28.861  1.00  0.00    -0.205 F 
ATOM     79  C   UNL A   1      42.060  26.454  25.548  1.00  0.00     0.022 A 
BRANCH  77  80
ATOM     80  S   UNL A   1      41.577  23.930  26.510  1.00  0.00     0.127 S 
ATOM     81  O   UNL A   1      40.159  23.647  26.316  1.00  0.00    -0.237 OA
ATOM     82  O   UNL A   1      42.418  23.708  25.332  1.00  0.00    -0.237 OA
ATOM     83  O   UNL A   1      42.163  23.450  27.755  1.00  0.00    -0.744 OA
ENDBRANCH  77  80
ENDBRANCH  49  73
BRANCH  61  84
ATOM     84  C   UNL A   1      44.185  27.768  34.315  1.00  0.00     0.023 A 
ATOM     85  C   UNL A   1      45.461  28.364  34.262  1.00  0.00     0.012 A 
ATOM     86  C   UNL A   1      44.018  26.551  35.004  1.00  0.00     0.148 A 
ATOM     87  C   UNL A   1      46.557  27.749  34.864  1.00  0.00     0.002 A 
ATOM     88  C   UNL A   1      45.108  25.964  35.638  1.00  0.00     0.091 A 
ATOM     89  F   UNL A   1      42.801  25.989  35.027  1.00  0.00    -0.205 F 
ATOM     90  C   UNL A   1      46.379  26.557  35.562  1.00  0.00     0.022 A 
BRANCH  88  91
ATOM     91  S   UNL A   1      44.949  24.476  36.633  1.00  0.00     0.127 S 
ATOM     92  O   UNL A   1      46.323  24.270  37.085  1.00  0.00    -0.237 OA
ATOM     93  O   UNL A   1      44.018  24.897  37.683  1.00  0.00    -0.237 OA
ATOM     94  O   UNL A   1      44.421  23.456  35.738  1.00  0.00    -0.744 OA
ENDBRANCH  88  91
ENDBRANCH  61  84
ENDBRANCH  35  36
ENDBRANCH  28  30
ENDBRANCH  27  28
ENDBRANCH  26  27
ENDBRANCH  25  26
ENDBRANCH   1  25
TORSDOF 20
ENDMDL
