MODEL 1
REMARK VINA RESULT:     -11.4      0.000      0.000
REMARK SMILES O=C(OCCOCCOC(=O)[C@H]1C=C[C@H](NC(=O)[C@]23C[C@H]4C[C@H](C[C@H](C4)C2)C3)C1)c1ccc(-c2c3nc(c(-c4cccc(S(=O)(=O)[O-])c4F)c4ccc([nH]4)c(-c4cccc(S(=O)(=O)[O-])c4F)c4nc(c(-c5cccc(S(=O)(=O)[O-])c5F)c5ccc2[nH]5)C=C4)C=C3)cc1
REMARK SMILES IDX 5 1 4 2 3 3 2 4 1 5 30 6 31 7 92 8 32 9 91 10 33 11 34 12
REMARK SMILES IDX 35 13 85 14 36 15 90 16 84 17 86 18 37 19 89 20 83 21 82 22
REMARK SMILES IDX 38 24 70 25 50 26 69 27 51 28 54 29 68 30 87 31 52 32 53 33
REMARK SMILES IDX 67 35 88 36 55 37 39 38 40 39 48 40 41 41 43 42 49 43 42 44
REMARK SMILES IDX 44 45 45 46 46 47 47 48 71 49 72 50 80 51 73 52 75 53 81 54
REMARK SMILES IDX 74 55 76 56 77 57 78 58 79 59 56 60 57 61 65 62 58 63 60 64
REMARK SMILES IDX 66 65 59 66 61 67 62 68 63 69 64 70 6 71 7 72 8 73 9 74
REMARK SMILES IDX 10 75 11 76 12 77 13 78 29 79 14 80 15 81 16 82 17 83 18 85
REMARK SMILES IDX 19 86 20 87 27 88 28 89 21 90 25 91 23 92 22 93 26 94 24 95
REMARK H PARENT 86 23 54 34 16 84
REMARK Flexibility Score: inf
ROOT
ATOM      1  C   UNL A   1      32.773  28.587  24.250  1.00  0.00     0.202 C 
ENDROOT
BRANCH   1   2
ATOM      2  C   UNL A   1      32.564  29.125  25.660  1.00  0.00     0.261 C 
BRANCH   2   3
ATOM      3  O   UNL A   1      33.157  30.430  25.757  1.00  0.00    -0.460 OA
BRANCH   3   4
ATOM      4  C   UNL A   1      33.376  31.144  26.885  1.00  0.00     0.338 C 
ATOM      5  O   UNL A   1      32.561  31.999  27.220  1.00  0.00    -0.246 OA
BRANCH   4   6
ATOM      6  C   UNL A   1      34.570  30.917  27.747  1.00  0.00     0.060 A 
ATOM      7  C   UNL A   1      34.845  29.699  28.366  1.00  0.00     0.016 A 
ATOM      8  C   UNL A   1      35.517  31.942  27.847  1.00  0.00     0.016 A 
ATOM      9  C   UNL A   1      35.985  29.495  29.110  1.00  0.00     0.010 A 
ATOM     10  C   UNL A   1      36.710  31.728  28.542  1.00  0.00     0.010 A 
ATOM     11  C   UNL A   1      36.943  30.493  29.162  1.00  0.00    -0.014 A 
BRANCH  11  12
ATOM     12  C   UNL A   1      38.180  30.185  29.886  1.00  0.00     0.031 A 
ATOM     13  C   UNL A   1      39.184  29.302  29.231  1.00  0.00     0.074 A 
ATOM     14  C   UNL A   1      38.401  30.792  31.066  1.00  0.00     0.049 A 
ATOM     15  N   UNL A   1      40.292  28.826  29.720  1.00  0.00    -0.248 NA
ATOM     16  C   UNL A   1      38.915  28.912  27.835  1.00  0.00     0.031 C 
ATOM     17  C   UNL A   1      37.502  31.767  31.695  1.00  0.00     0.029 A 
ATOM     18  N   UNL A   1      39.441  30.687  31.947  1.00  0.00    -0.354 N 
ATOM     19  C   UNL A   1      40.812  28.012  28.726  1.00  0.00     0.074 A 
ATOM     20  C   UNL A   1      39.932  28.101  27.584  1.00  0.00     0.031 C 
ATOM     21  C   UNL A   1      38.022  32.155  32.869  1.00  0.00     0.029 A 
ATOM     22  C   UNL A   1      39.237  31.391  33.112  1.00  0.00     0.049 A 
ATOM     23  H   UNL A   1      40.254  30.161  31.766  1.00  0.00     0.167 HD
ATOM     24  C   UNL A   1      41.916  27.238  28.795  1.00  0.00     0.034 A 
ATOM     25  C   UNL A   1      39.920  31.350  34.269  1.00  0.00     0.034 A 
ATOM     26  C   UNL A   1      42.764  27.197  29.952  1.00  0.00     0.049 A 
ATOM     27  C   UNL A   1      41.110  30.433  34.331  1.00  0.00     0.074 A 
ATOM     28  C   UNL A   1      43.913  26.457  30.150  1.00  0.00     0.029 A 
ATOM     29  N   UNL A   1      42.533  27.916  31.117  1.00  0.00    -0.354 N 
ATOM     30  N   UNL A   1      41.629  29.696  33.377  1.00  0.00    -0.248 NA
ATOM     31  C   UNL A   1      41.809  30.335  35.617  1.00  0.00     0.031 C 
ATOM     32  C   UNL A   1      44.352  26.696  31.456  1.00  0.00     0.029 A 
ATOM     33  C   UNL A   1      43.499  27.613  32.056  1.00  0.00     0.049 A 
ATOM     34  H   UNL A   1      41.791  28.547  31.255  1.00  0.00     0.167 HD
ATOM     35  C   UNL A   1      42.721  29.054  33.941  1.00  0.00     0.074 A 
ATOM     36  C   UNL A   1      42.809  29.520  35.313  1.00  0.00     0.031 C 
ATOM     37  C   UNL A   1      43.564  28.144  33.394  1.00  0.00     0.034 A 
BRANCH  24  38
ATOM     38  C   UNL A   1      42.206  26.333  27.635  1.00  0.00     0.023 A 
ATOM     39  C   UNL A   1      42.940  26.796  26.526  1.00  0.00     0.012 A 
ATOM     40  C   UNL A   1      41.752  25.000  27.663  1.00  0.00     0.148 A 
ATOM     41  C   UNL A   1      43.199  25.946  25.449  1.00  0.00     0.002 A 
ATOM     42  C   UNL A   1      42.050  24.150  26.608  1.00  0.00     0.091 A 
ATOM     43  F   UNL A   1      41.027  24.596  28.715  1.00  0.00    -0.205 F 
ATOM     44  C   UNL A   1      42.763  24.623  25.495  1.00  0.00     0.022 A 
BRANCH  42  45
ATOM     45  S   UNL A   1      41.585  22.416  26.601  1.00  0.00     0.127 S 
ATOM     46  O   UNL A   1      40.125  22.502  26.544  1.00  0.00    -0.237 OA
ATOM     47  O   UNL A   1      42.216  21.940  25.370  1.00  0.00    -0.237 OA
ATOM     48  O   UNL A   1      42.121  21.846  27.828  1.00  0.00    -0.744 OA
ENDBRANCH  42  45
ENDBRANCH  24  38
BRANCH  25  49
ATOM     49  C   UNL A   1      39.461  32.128  35.457  1.00  0.00     0.023 A 
ATOM     50  C   UNL A   1      38.623  31.525  36.412  1.00  0.00     0.012 A 
ATOM     51  C   UNL A   1      39.850  33.473  35.642  1.00  0.00     0.148 A 
ATOM     52  C   UNL A   1      38.150  32.255  37.506  1.00  0.00     0.002 A 
ATOM     53  C   UNL A   1      39.426  34.173  36.765  1.00  0.00     0.091 A 
ATOM     54  F   UNL A   1      40.630  34.045  34.715  1.00  0.00    -0.205 F 
ATOM     55  C   UNL A   1      38.558  33.573  37.688  1.00  0.00     0.022 A 
BRANCH  53  56
ATOM     56  S   UNL A   1      40.015  35.830  37.137  1.00  0.00     0.127 S 
ATOM     57  O   UNL A   1      39.274  36.146  38.355  1.00  0.00    -0.237 OA
ATOM     58  O   UNL A   1      41.450  35.608  37.328  1.00  0.00    -0.237 OA
ATOM     59  O   UNL A   1      39.689  36.630  35.964  1.00  0.00    -0.744 OA
ENDBRANCH  53  56
ENDBRANCH  25  49
BRANCH  37  60
ATOM     60  C   UNL A   1      44.659  27.614  34.273  1.00  0.00     0.023 A 
ATOM     61  C   UNL A   1      45.870  28.324  34.384  1.00  0.00     0.012 A 
ATOM     62  C   UNL A   1      44.437  26.475  35.070  1.00  0.00     0.148 A 
ATOM     63  C   UNL A   1      46.855  27.896  35.268  1.00  0.00     0.002 A 
ATOM     64  C   UNL A   1      45.400  26.090  35.990  1.00  0.00     0.091 A 
ATOM     65  F   UNL A   1      43.280  25.812  34.929  1.00  0.00    -0.205 F 
ATOM     66  C   UNL A   1      46.615  26.791  36.082  1.00  0.00     0.022 A 
BRANCH  64  67
ATOM     67  S   UNL A   1      45.132  24.753  37.157  1.00  0.00     0.127 S 
ATOM     68  O   UNL A   1      43.941  25.214  37.868  1.00  0.00    -0.237 OA
ATOM     69  O   UNL A   1      44.911  23.611  36.270  1.00  0.00    -0.237 OA
ATOM     70  O   UNL A   1      46.342  24.670  37.963  1.00  0.00    -0.744 OA
ENDBRANCH  64  67
ENDBRANCH  37  60
ENDBRANCH  11  12
ENDBRANCH   4   6
ENDBRANCH   3   4
ENDBRANCH   2   3
ENDBRANCH   1   2
BRANCH   1  71
ATOM     71  O   UNL A   1      31.774  28.965  23.316  1.00  0.00    -0.374 OA
BRANCH  71  72
ATOM     72  C   UNL A   1      30.658  29.723  23.775  1.00  0.00     0.202 C 
BRANCH  72  73
ATOM     73  C   UNL A   1      29.479  29.412  22.835  1.00  0.00     0.261 C 
BRANCH  73  74
ATOM     74  O   UNL A   1      29.309  27.984  22.693  1.00  0.00    -0.463 OA
BRANCH  74  75
ATOM     75  C   UNL A   1      28.393  27.379  23.521  1.00  0.00     0.312 C 
ATOM     76  O   UNL A   1      27.293  27.822  23.789  1.00  0.00    -0.252 OA
BRANCH  75  77
ATOM     77  C   UNL A   1      28.973  26.065  24.082  1.00  0.00     0.124 C 
ATOM     78  C   UNL A   1      29.885  25.248  23.214  1.00  0.00    -0.014 C 
ATOM     79  C   UNL A   1      29.896  26.359  25.256  1.00  0.00     0.048 C 
ATOM     80  C   UNL A   1      31.014  24.882  23.847  1.00  0.00    -0.006 C 
ATOM     81  C   UNL A   1      31.110  25.447  25.229  1.00  0.00     0.106 C 
BRANCH  81  82
ATOM     82  N   UNL A   1      31.023  24.414  26.227  1.00  0.00    -0.349 N 
ATOM     83  C   UNL A   1      31.942  23.509  26.664  1.00  0.00     0.226 C 
ATOM     84  H   UNL A   1      30.147  24.352  26.671  1.00  0.00     0.164 HD
ATOM     85  O   UNL A   1      31.567  22.819  27.621  1.00  0.00    -0.274 OA
BRANCH  83  86
ATOM     86  C   UNL A   1      33.338  23.246  26.007  1.00  0.00     0.050 C 
ATOM     87  C   UNL A   1      34.191  22.435  27.031  1.00  0.00     0.020 C 
ATOM     88  C   UNL A   1      34.180  24.480  25.626  1.00  0.00     0.020 C 
ATOM     89  C   UNL A   1      33.175  22.381  24.736  1.00  0.00     0.020 C 
ATOM     90  C   UNL A   1      35.569  22.063  26.456  1.00  0.00    -0.010 C 
ATOM     91  C   UNL A   1      35.554  24.127  25.050  1.00  0.00    -0.010 C 
ATOM     92  C   UNL A   1      34.554  22.008  24.147  1.00  0.00    -0.010 C 
ATOM     93  C   UNL A   1      35.366  21.219  25.189  1.00  0.00     0.007 C 
ATOM     94  C   UNL A   1      36.339  23.340  26.099  1.00  0.00     0.007 C 
ATOM     95  C   UNL A   1      35.336  23.283  23.788  1.00  0.00     0.007 C 
ENDBRANCH  83  86
ENDBRANCH  81  82
ENDBRANCH  75  77
ENDBRANCH  74  75
ENDBRANCH  73  74
ENDBRANCH  72  73
ENDBRANCH  71  72
ENDBRANCH   1  71
TORSDOF 19
ENDMDL
MODEL 2
REMARK VINA RESULT:     -11.3      4.886      8.283
REMARK SMILES O=C(OCCOCCOC(=O)[C@H]1C=C[C@H](NC(=O)[C@]23C[C@H]4C[C@H](C[C@H](C4)C2)C3)C1)c1ccc(-c2c3nc(c(-c4cccc(S(=O)(=O)[O-])c4F)c4ccc([nH]4)c(-c4cccc(S(=O)(=O)[O-])c4F)c4nc(c(-c5cccc(S(=O)(=O)[O-])c5F)c5ccc2[nH]5)C=C4)C=C3)cc1
REMARK SMILES IDX 5 1 4 2 3 3 2 4 1 5 30 6 31 7 92 8 32 9 91 10 33 11 34 12
REMARK SMILES IDX 35 13 85 14 36 15 90 16 84 17 86 18 37 19 89 20 83 21 82 22
REMARK SMILES IDX 38 24 70 25 50 26 69 27 51 28 54 29 68 30 87 31 52 32 53 33
REMARK SMILES IDX 67 35 88 36 55 37 39 38 40 39 48 40 41 41 43 42 49 43 42 44
REMARK SMILES IDX 44 45 45 46 46 47 47 48 71 49 72 50 80 51 73 52 75 53 81 54
REMARK SMILES IDX 74 55 76 56 77 57 78 58 79 59 56 60 57 61 65 62 58 63 60 64
REMARK SMILES IDX 66 65 59 66 61 67 62 68 63 69 64 70 6 71 7 72 8 73 9 74
REMARK SMILES IDX 10 75 11 76 12 77 13 78 29 79 14 80 15 81 16 82 17 83 18 85
REMARK SMILES IDX 19 86 20 87 27 88 28 89 21 90 25 91 23 92 22 93 26 94 24 95
REMARK H PARENT 86 23 54 34 16 84
REMARK Flexibility Score: inf
ROOT
ATOM      1  C   UNL A   1      38.374  20.650  25.027  1.00  0.00     0.202 C 
ENDROOT
BRANCH   1   2
ATOM      2  C   UNL A   1      39.094  19.446  25.621  1.00  0.00     0.261 C 
BRANCH   2   3
ATOM      3  O   UNL A   1      40.418  19.839  26.015  1.00  0.00    -0.460 OA
BRANCH   3   4
ATOM      4  C   UNL A   1      40.799  20.329  27.218  1.00  0.00     0.338 C 
ATOM      5  O   UNL A   1      40.949  19.555  28.159  1.00  0.00    -0.246 OA
BRANCH   4   6
ATOM      6  C   UNL A   1      41.058  21.779  27.437  1.00  0.00     0.060 A 
ATOM      7  C   UNL A   1      41.924  22.262  28.417  1.00  0.00     0.016 A 
ATOM      8  C   UNL A   1      40.491  22.694  26.543  1.00  0.00     0.016 A 
ATOM      9  C   UNL A   1      42.194  23.604  28.561  1.00  0.00     0.010 A 
ATOM     10  C   UNL A   1      40.808  24.052  26.635  1.00  0.00     0.010 A 
ATOM     11  C   UNL A   1      41.673  24.499  27.643  1.00  0.00    -0.014 A 
BRANCH  11  12
ATOM     12  C   UNL A   1      42.073  25.901  27.786  1.00  0.00     0.031 A 
ATOM     13  C   UNL A   1      43.398  26.321  27.252  1.00  0.00     0.074 A 
ATOM     14  C   UNL A   1      41.186  26.771  28.303  1.00  0.00     0.049 A 
ATOM     15  N   UNL A   1      43.989  27.475  27.353  1.00  0.00    -0.248 NA
ATOM     16  C   UNL A   1      44.155  25.312  26.490  1.00  0.00     0.031 C 
ATOM     17  C   UNL A   1      39.822  26.434  28.728  1.00  0.00     0.029 A 
ATOM     18  N   UNL A   1      41.289  28.110  28.560  1.00  0.00    -0.354 N 
ATOM     19  C   UNL A   1      45.223  27.311  26.744  1.00  0.00     0.074 A 
ATOM     20  C   UNL A   1      45.277  25.964  26.224  1.00  0.00     0.031 C 
ATOM     21  C   UNL A   1      39.224  27.533  29.209  1.00  0.00     0.029 A 
ATOM     22  C   UNL A   1      40.190  28.623  29.210  1.00  0.00     0.049 A 
ATOM     23  H   UNL A   1      42.071  28.653  28.305  1.00  0.00     0.167 HD
ATOM     24  C   UNL A   1      46.224  28.213  26.666  1.00  0.00     0.034 A 
ATOM     25  C   UNL A   1      40.026  29.816  29.807  1.00  0.00     0.034 A 
ATOM     26  C   UNL A   1      46.113  29.544  27.188  1.00  0.00     0.049 A 
ATOM     27  C   UNL A   1      41.183  30.775  29.751  1.00  0.00     0.074 A 
ATOM     28  C   UNL A   1      47.052  30.556  27.173  1.00  0.00     0.029 A 
ATOM     29  N   UNL A   1      44.992  30.036  27.844  1.00  0.00    -0.354 N 
ATOM     30  N   UNL A   1      42.335  30.638  29.137  1.00  0.00    -0.248 NA
ATOM     31  C   UNL A   1      41.029  32.047  30.467  1.00  0.00     0.031 C 
ATOM     32  C   UNL A   1      46.513  31.647  27.861  1.00  0.00     0.029 A 
ATOM     33  C   UNL A   1      45.225  31.329  28.270  1.00  0.00     0.049 A 
ATOM     34  H   UNL A   1      44.155  29.538  27.984  1.00  0.00     0.167 HD
ATOM     35  C   UNL A   1      43.040  31.807  29.381  1.00  0.00     0.074 A 
ATOM     36  C   UNL A   1      42.168  32.657  30.169  1.00  0.00     0.031 C 
ATOM     37  C   UNL A   1      44.300  32.147  29.013  1.00  0.00     0.034 A 
BRANCH  24  38
ATOM     38  C   UNL A   1      47.526  27.759  26.075  1.00  0.00     0.023 A 
ATOM     39  C   UNL A   1      48.556  27.263  26.896  1.00  0.00     0.012 A 
ATOM     40  C   UNL A   1      47.713  27.816  24.680  1.00  0.00     0.148 A 
ATOM     41  C   UNL A   1      49.766  26.849  26.335  1.00  0.00     0.002 A 
ATOM     42  C   UNL A   1      48.902  27.363  24.126  1.00  0.00     0.091 A 
ATOM     43  F   UNL A   1      46.728  28.324  23.925  1.00  0.00    -0.205 F 
ATOM     44  C   UNL A   1      49.934  26.889  24.952  1.00  0.00     0.022 A 
BRANCH  42  45
ATOM     45  S   UNL A   1      49.191  27.320  22.355  1.00  0.00     0.127 S 
ATOM     46  O   UNL A   1      50.644  27.160  22.297  1.00  0.00    -0.237 OA
ATOM     47  O   UNL A   1      48.430  26.137  21.954  1.00  0.00    -0.237 OA
ATOM     48  O   UNL A   1      48.688  28.582  21.830  1.00  0.00    -0.744 OA
ENDBRANCH  42  45
ENDBRANCH  24  38
BRANCH  25  49
ATOM     49  C   UNL A   1      38.774  30.134  30.553  1.00  0.00     0.023 A 
ATOM     50  C   UNL A   1      38.594  29.654  31.864  1.00  0.00     0.012 A 
ATOM     51  C   UNL A   1      37.751  30.910  29.965  1.00  0.00     0.148 A 
ATOM     52  C   UNL A   1      37.408  29.906  32.558  1.00  0.00     0.002 A 
ATOM     53  C   UNL A   1      36.600  31.209  30.685  1.00  0.00     0.091 A 
ATOM     54  F   UNL A   1      37.922  31.343  28.708  1.00  0.00    -0.205 F 
ATOM     55  C   UNL A   1      36.417  30.691  31.974  1.00  0.00     0.022 A 
BRANCH  53  56
ATOM     56  S   UNL A   1      35.338  32.320  30.050  1.00  0.00     0.127 S 
ATOM     57  O   UNL A   1      34.432  32.426  31.190  1.00  0.00    -0.237 OA
ATOM     58  O   UNL A   1      36.112  33.530  29.764  1.00  0.00    -0.237 OA
ATOM     59  O   UNL A   1      34.802  31.664  28.866  1.00  0.00    -0.744 OA
ENDBRANCH  53  56
ENDBRANCH  25  49
BRANCH  37  60
ATOM     60  C   UNL A   1      44.795  33.496  29.443  1.00  0.00     0.023 A 
ATOM     61  C   UNL A   1      45.457  33.635  30.678  1.00  0.00     0.012 A 
ATOM     62  C   UNL A   1      44.703  34.595  28.569  1.00  0.00     0.148 A 
ATOM     63  C   UNL A   1      46.006  34.860  31.046  1.00  0.00     0.002 A 
ATOM     64  C   UNL A   1      45.304  35.795  28.916  1.00  0.00     0.091 A 
ATOM     65  F   UNL A   1      44.052  34.434  27.407  1.00  0.00    -0.205 F 
ATOM     66  C   UNL A   1      45.945  35.934  30.159  1.00  0.00     0.022 A 
BRANCH  64  67
ATOM     67  S   UNL A   1      45.375  37.193  27.794  1.00  0.00     0.127 S 
ATOM     68  O   UNL A   1      46.295  38.088  28.492  1.00  0.00    -0.237 OA
ATOM     69  O   UNL A   1      45.916  36.584  26.579  1.00  0.00    -0.237 OA
ATOM     70  O   UNL A   1      44.008  37.682  27.669  1.00  0.00    -0.744 OA
ENDBRANCH  64  67
ENDBRANCH  37  60
ENDBRANCH  11  12
ENDBRANCH   4   6
ENDBRANCH   3   4
ENDBRANCH   2   3
ENDBRANCH   1   2
BRANCH   1  71
ATOM     71  O   UNL A   1      37.057  20.854  25.513  1.00  0.00    -0.374 OA
BRANCH  71  72
ATOM     72  C   UNL A   1      35.992  20.094  24.948  1.00  0.00     0.202 C 
BRANCH  72  73
ATOM     73  C   UNL A   1      34.774  21.030  24.838  1.00  0.00     0.261 C 
BRANCH  73  74
ATOM     74  O   UNL A   1      33.755  20.648  25.789  1.00  0.00    -0.463 OA
BRANCH  74  75
ATOM     75  C   UNL A   1      32.482  20.468  25.302  1.00  0.00     0.312 C 
ATOM     76  O   UNL A   1      32.095  19.482  24.704  1.00  0.00    -0.252 OA
BRANCH  75  77
ATOM     77  C   UNL A   1      31.620  21.710  25.601  1.00  0.00     0.124 C 
ATOM     78  C   UNL A   1      31.983  22.578  26.771  1.00  0.00    -0.014 C 
ATOM     79  C   UNL A   1      31.734  22.714  24.463  1.00  0.00     0.048 C 
ATOM     80  C   UNL A   1      32.026  23.884  26.453  1.00  0.00    -0.006 C 
ATOM     81  C   UNL A   1      31.777  24.134  25.000  1.00  0.00     0.106 C 
BRANCH  81  82
ATOM     82  N   UNL A   1      30.532  24.822  24.789  1.00  0.00    -0.349 N 
ATOM     83  C   UNL A   1      30.233  26.150  24.767  1.00  0.00     0.226 C 
ATOM     84  H   UNL A   1      29.762  24.229  24.633  1.00  0.00     0.164 HD
ATOM     85  O   UNL A   1      29.063  26.408  24.452  1.00  0.00    -0.274 OA
BRANCH  83  86
ATOM     86  C   UNL A   1      31.207  27.305  25.177  1.00  0.00     0.050 C 
ATOM     87  C   UNL A   1      31.277  27.325  26.736  1.00  0.00     0.020 C 
ATOM     88  C   UNL A   1      30.825  28.735  24.745  1.00  0.00     0.020 C 
ATOM     89  C   UNL A   1      32.629  27.019  24.642  1.00  0.00     0.020 C 
ATOM     90  C   UNL A   1      32.266  28.387  27.248  1.00  0.00    -0.010 C 
ATOM     91  C   UNL A   1      31.800  29.804  25.245  1.00  0.00    -0.010 C 
ATOM     92  C   UNL A   1      33.628  28.085  25.145  1.00  0.00    -0.010 C 
ATOM     93  C   UNL A   1      33.662  28.078  26.684  1.00  0.00     0.007 C 
ATOM     94  C   UNL A   1      31.821  29.775  26.772  1.00  0.00     0.007 C 
ATOM     95  C   UNL A   1      33.188  29.482  24.676  1.00  0.00     0.007 C 
ENDBRANCH  83  86
ENDBRANCH  81  82
ENDBRANCH  75  77
ENDBRANCH  74  75
ENDBRANCH  73  74
ENDBRANCH  72  73
ENDBRANCH  71  72
ENDBRANCH   1  71
TORSDOF 19
ENDMDL
MODEL 3
REMARK VINA RESULT:     -10.8      1.833      2.070
REMARK SMILES O=C(OCCOCCOC(=O)[C@H]1C=C[C@H](NC(=O)[C@]23C[C@H]4C[C@H](C[C@H](C4)C2)C3)C1)c1ccc(-c2c3nc(c(-c4cccc(S(=O)(=O)[O-])c4F)c4ccc([nH]4)c(-c4cccc(S(=O)(=O)[O-])c4F)c4nc(c(-c5cccc(S(=O)(=O)[O-])c5F)c5ccc2[nH]5)C=C4)C=C3)cc1
REMARK SMILES IDX 5 1 4 2 3 3 2 4 1 5 30 6 31 7 92 8 32 9 91 10 33 11 34 12
REMARK SMILES IDX 35 13 85 14 36 15 90 16 84 17 86 18 37 19 89 20 83 21 82 22
REMARK SMILES IDX 38 24 70 25 50 26 69 27 51 28 54 29 68 30 87 31 52 32 53 33
REMARK SMILES IDX 67 35 88 36 55 37 39 38 40 39 48 40 41 41 43 42 49 43 42 44
REMARK SMILES IDX 44 45 45 46 46 47 47 48 71 49 72 50 80 51 73 52 75 53 81 54
REMARK SMILES IDX 74 55 76 56 77 57 78 58 79 59 56 60 57 61 65 62 58 63 60 64
REMARK SMILES IDX 66 65 59 66 61 67 62 68 63 69 64 70 6 71 7 72 8 73 9 74
REMARK SMILES IDX 10 75 11 76 12 77 13 78 29 79 14 80 15 81 16 82 17 83 18 85
REMARK SMILES IDX 19 86 20 87 27 88 28 89 21 90 25 91 23 92 22 93 26 94 24 95
REMARK H PARENT 86 23 54 34 16 84
REMARK Flexibility Score: inf
ROOT
ATOM      1  C   UNL A   1      32.891  28.691  24.719  1.00  0.00     0.202 C 
ENDROOT
BRANCH   1   2
ATOM      2  C   UNL A   1      32.772  29.306  26.108  1.00  0.00     0.261 C 
BRANCH   2   3
ATOM      3  O   UNL A   1      33.541  30.518  26.152  1.00  0.00    -0.460 OA
BRANCH   3   4
ATOM      4  C   UNL A   1      33.863  31.240  27.251  1.00  0.00     0.338 C 
ATOM      5  O   UNL A   1      33.121  32.150  27.608  1.00  0.00    -0.246 OA
BRANCH   4   6
ATOM      6  C   UNL A   1      35.084  30.956  28.055  1.00  0.00     0.060 A 
ATOM      7  C   UNL A   1      35.314  29.738  28.692  1.00  0.00     0.016 A 
ATOM      8  C   UNL A   1      36.099  31.920  28.077  1.00  0.00     0.016 A 
ATOM      9  C   UNL A   1      36.479  29.478  29.379  1.00  0.00     0.010 A 
ATOM     10  C   UNL A   1      37.312  31.645  28.714  1.00  0.00     0.010 A 
ATOM     11  C   UNL A   1      37.499  30.412  29.354  1.00  0.00    -0.014 A 
BRANCH  11  12
ATOM     12  C   UNL A   1      38.751  30.041  30.020  1.00  0.00     0.031 A 
ATOM     13  C   UNL A   1      39.672  29.099  29.327  1.00  0.00     0.074 A 
ATOM     14  C   UNL A   1      39.064  30.645  31.181  1.00  0.00     0.049 A 
ATOM     15  N   UNL A   1      40.775  28.565  29.765  1.00  0.00    -0.248 NA
ATOM     16  C   UNL A   1      39.313  28.713  27.950  1.00  0.00     0.031 C 
ATOM     17  C   UNL A   1      38.252  31.674  31.843  1.00  0.00     0.029 A 
ATOM     18  N   UNL A   1      40.139  30.489  32.011  1.00  0.00    -0.354 N 
ATOM     19  C   UNL A   1      41.199  27.716  28.756  1.00  0.00     0.074 A 
ATOM     20  C   UNL A   1      40.270  27.845  27.658  1.00  0.00     0.031 C 
ATOM     21  C   UNL A   1      38.850  32.042  32.985  1.00  0.00     0.029 A 
ATOM     22  C   UNL A   1      40.031  31.212  33.177  1.00  0.00     0.049 A 
ATOM     23  H   UNL A   1      40.912  29.917  31.797  1.00  0.00     0.167 HD
ATOM     24  C   UNL A   1      42.261  26.883  28.780  1.00  0.00     0.034 A 
ATOM     25  C   UNL A   1      40.767  31.143  34.300  1.00  0.00     0.034 A 
ATOM     26  C   UNL A   1      43.161  26.803  29.894  1.00  0.00     0.049 A 
ATOM     27  C   UNL A   1      41.906  30.162  34.313  1.00  0.00     0.074 A 
ATOM     28  C   UNL A   1      44.276  26.003  30.044  1.00  0.00     0.029 A 
ATOM     29  N   UNL A   1      43.028  27.543  31.062  1.00  0.00    -0.354 N 
ATOM     30  N   UNL A   1      42.337  29.389  33.343  1.00  0.00    -0.248 NA
ATOM     31  C   UNL A   1      42.662  30.035  35.565  1.00  0.00     0.031 C 
ATOM     32  C   UNL A   1      44.791  26.227  31.324  1.00  0.00     0.029 A 
ATOM     33  C   UNL A   1      44.021  27.195  31.955  1.00  0.00     0.049 A 
ATOM     34  H   UNL A   1      42.330  28.216  31.228  1.00  0.00     0.167 HD
ATOM     35  C   UNL A   1      43.418  28.692  33.861  1.00  0.00     0.074 A 
ATOM     36  C   UNL A   1      43.599  29.163  35.221  1.00  0.00     0.031 C 
ATOM     37  C   UNL A   1      44.181  27.732  33.283  1.00  0.00     0.034 A 
BRANCH  24  38
ATOM     38  C   UNL A   1      42.443  25.954  27.616  1.00  0.00     0.023 A 
ATOM     39  C   UNL A   1      43.173  26.354  26.481  1.00  0.00     0.012 A 
ATOM     40  C   UNL A   1      41.889  24.659  27.667  1.00  0.00     0.148 A 
ATOM     41  C   UNL A   1      43.331  25.483  25.402  1.00  0.00     0.002 A 
ATOM     42  C   UNL A   1      42.086  23.784  26.609  1.00  0.00     0.091 A 
ATOM     43  F   UNL A   1      41.170  24.316  28.745  1.00  0.00    -0.205 F 
ATOM     44  C   UNL A   1      42.797  24.197  25.470  1.00  0.00     0.022 A 
BRANCH  42  45
ATOM     45  S   UNL A   1      41.490  22.091  26.628  1.00  0.00     0.127 S 
ATOM     46  O   UNL A   1      40.040  22.289  26.622  1.00  0.00    -0.237 OA
ATOM     47  O   UNL A   1      42.038  21.565  25.379  1.00  0.00    -0.237 OA
ATOM     48  O   UNL A   1      42.024  21.486  27.839  1.00  0.00    -0.744 OA
ENDBRANCH  42  45
ENDBRANCH  24  38
BRANCH  25  49
ATOM     49  C   UNL A   1      40.412  31.955  35.500  1.00  0.00     0.023 A 
ATOM     50  C   UNL A   1      41.226  33.036  35.885  1.00  0.00     0.012 A 
ATOM     51  C   UNL A   1      39.266  31.657  36.270  1.00  0.00     0.148 A 
ATOM     52  C   UNL A   1      40.930  33.777  37.032  1.00  0.00     0.002 A 
ATOM     53  C   UNL A   1      38.943  32.438  37.373  1.00  0.00     0.091 A 
ATOM     54  F   UNL A   1      38.509  30.611  35.907  1.00  0.00    -0.205 F 
ATOM     55  C   UNL A   1      39.786  33.486  37.769  1.00  0.00     0.022 A 
BRANCH  53  56
ATOM     56  S   UNL A   1      37.417  32.206  38.294  1.00  0.00     0.127 S 
ATOM     57  O   UNL A   1      37.204  30.767  38.163  1.00  0.00    -0.237 OA
ATOM     58  O   UNL A   1      37.799  32.653  39.635  1.00  0.00    -0.237 OA
ATOM     59  O   UNL A   1      36.436  33.060  37.640  1.00  0.00    -0.744 OA
ENDBRANCH  53  56
ENDBRANCH  25  49
BRANCH  37  60
ATOM     60  C   UNL A   1      45.287  27.149  34.113  1.00  0.00     0.023 A 
ATOM     61  C   UNL A   1      45.047  25.993  34.881  1.00  0.00     0.012 A 
ATOM     62  C   UNL A   1      46.587  27.683  34.036  1.00  0.00     0.148 A 
ATOM     63  C   UNL A   1      46.087  25.385  35.578  1.00  0.00     0.002 A 
ATOM     64  C   UNL A   1      47.628  27.038  34.686  1.00  0.00     0.091 A 
ATOM     65  F   UNL A   1      46.779  28.793  33.310  1.00  0.00    -0.205 F 
ATOM     66  C   UNL A   1      47.379  25.897  35.468  1.00  0.00     0.022 A 
BRANCH  64  67
ATOM     67  S   UNL A   1      49.337  27.556  34.509  1.00  0.00     0.127 S 
ATOM     68  O   UNL A   1      49.391  27.924  33.096  1.00  0.00    -0.237 OA
ATOM     69  O   UNL A   1      49.414  28.684  35.438  1.00  0.00    -0.237 OA
ATOM     70  O   UNL A   1      50.149  26.406  34.883  1.00  0.00    -0.744 OA
ENDBRANCH  64  67
ENDBRANCH  37  60
ENDBRANCH  11  12
ENDBRANCH   4   6
ENDBRANCH   3   4
ENDBRANCH   2   3
ENDBRANCH   1   2
BRANCH   1  71
ATOM     71  O   UNL A   1      31.922  29.140  23.786  1.00  0.00    -0.374 OA
BRANCH  71  72
ATOM     72  C   UNL A   1      30.801  29.879  24.263  1.00  0.00     0.202 C 
BRANCH  72  73
ATOM     73  C   UNL A   1      29.628  29.594  23.308  1.00  0.00     0.261 C 
BRANCH  73  74
ATOM     74  O   UNL A   1      29.583  28.191  22.966  1.00  0.00    -0.463 OA
BRANCH  74  75
ATOM     75  C   UNL A   1      28.553  27.450  23.494  1.00  0.00     0.312 C 
ATOM     76  O   UNL A   1      27.385  27.791  23.512  1.00  0.00    -0.252 OA
BRANCH  75  77
ATOM     77  C   UNL A   1      29.095  26.135  24.087  1.00  0.00     0.124 C 
ATOM     78  C   UNL A   1      29.909  25.228  23.210  1.00  0.00    -0.014 C 
ATOM     79  C   UNL A   1      30.100  26.431  25.191  1.00  0.00     0.048 C 
ATOM     80  C   UNL A   1      31.052  24.830  23.797  1.00  0.00    -0.006 C 
ATOM     81  C   UNL A   1      31.260  25.452  25.141  1.00  0.00     0.106 C 
BRANCH  81  82
ATOM     82  N   UNL A   1      31.178  24.474  26.192  1.00  0.00    -0.349 N 
ATOM     83  C   UNL A   1      32.094  23.584  26.664  1.00  0.00     0.226 C 
ATOM     84  H   UNL A   1      30.307  24.443  26.651  1.00  0.00     0.164 HD
ATOM     85  O   UNL A   1      31.726  22.948  27.661  1.00  0.00    -0.274 OA
BRANCH  83  86
ATOM     86  C   UNL A   1      33.479  23.274  26.003  1.00  0.00     0.050 C 
ATOM     87  C   UNL A   1      34.326  22.477  27.043  1.00  0.00     0.020 C 
ATOM     88  C   UNL A   1      34.341  24.480  25.578  1.00  0.00     0.020 C 
ATOM     89  C   UNL A   1      33.287  22.375  24.760  1.00  0.00     0.020 C 
ATOM     90  C   UNL A   1      35.690  22.061  26.468  1.00  0.00    -0.010 C 
ATOM     91  C   UNL A   1      35.703  24.082  25.001  1.00  0.00    -0.010 C 
ATOM     92  C   UNL A   1      34.654  21.958  24.170  1.00  0.00    -0.010 C 
ATOM     93  C   UNL A   1      35.459  21.183  25.228  1.00  0.00     0.007 C 
ATOM     94  C   UNL A   1      36.482  23.311  26.066  1.00  0.00     0.007 C 
ATOM     95  C   UNL A   1      35.457  23.206  23.766  1.00  0.00     0.007 C 
ENDBRANCH  83  86
ENDBRANCH  81  82
ENDBRANCH  75  77
ENDBRANCH  74  75
ENDBRANCH  73  74
ENDBRANCH  72  73
ENDBRANCH  71  72
ENDBRANCH   1  71
TORSDOF 19
ENDMDL
