MODEL 1
REMARK VINA RESULT:     -11.2      0.000      0.000
REMARK SMILES CC(=O)Nc1nc(C[N@@H+]2CCO[C@@H](CC(=O)OCCOCCOC(=O)c3ccc(-c4c5nc(c(-c6cccc(S(=O)(=O)[O-])c6F)c6ccc([nH]6)c(-c6cccc(S(=O)(=O)[O-])c6F)c6nc(c(-c7cccc(S(=O)(=O)[O-])c7F)c7ccc4[nH]7)C=C6)C=C5)cc3)C2)cs1
REMARK SMILES IDX 19 1 18 2 17 3 15 4 16 5 14 6 13 7 9 8 10 9 89 10 11 12
REMARK SMILES IDX 12 13 8 14 7 15 5 16 6 17 91 18 90 19 4 20 1 21 2 22 3 23
REMARK SMILES IDX 20 25 21 26 22 27 23 28 24 29 25 30 26 31 27 32 88 33 28 34
REMARK SMILES IDX 87 35 29 36 30 37 31 38 81 39 32 40 86 41 80 42 82 43 33 44
REMARK SMILES IDX 85 45 79 46 78 47 34 49 66 50 46 51 65 52 47 53 50 54 64 55
REMARK SMILES IDX 83 56 48 57 49 58 63 60 84 61 51 62 35 63 36 64 44 65 37 66
REMARK SMILES IDX 39 67 45 68 38 69 40 70 41 71 42 72 43 73 67 74 68 75 76 76
REMARK SMILES IDX 69 77 71 78 77 79 70 80 72 81 73 82 74 83 75 84 52 85 53 86
REMARK SMILES IDX 61 87 54 88 56 89 62 90 55 91 57 92 58 93 59 94 60 95
REMARK H PARENT 9 11 4 24 82 48 50 59
REMARK Flexibility Score: inf
ROOT
ATOM      1  C   UNL A   1      35.052  22.400  25.547  1.00  0.00     0.202 C 
ENDROOT
BRANCH   1   2
ATOM      2  C   UNL A   1      33.603  22.588  25.085  1.00  0.00     0.261 C 
BRANCH   2   3
ATOM      3  O   UNL A   1      32.609  22.379  26.112  1.00  0.00    -0.463 OA
BRANCH   3   4
ATOM      4  C   UNL A   1      31.653  23.341  26.204  1.00  0.00     0.308 C 
ATOM      5  O   UNL A   1      30.452  23.152  26.036  1.00  0.00    -0.252 OA
BRANCH   4   6
ATOM      6  C   UNL A   1      32.219  24.715  26.428  1.00  0.00     0.160 C 
BRANCH   6   7
ATOM      7  C   UNL A   1      32.393  25.665  25.242  1.00  0.00     0.184 C 
ATOM      8  N   UNL A   1      31.499  27.827  24.226  1.00  0.00    -0.326 N 
ATOM      9  C   UNL A   1      32.781  28.438  24.557  1.00  0.00     0.291 C 
ATOM     10  C   UNL A   1      31.208  26.645  25.046  1.00  0.00     0.295 C 
ATOM     11  H   UNL A   1      30.798  28.500  24.537  1.00  0.00     0.348 HD
ATOM     12  C   UNL A   1      33.921  27.421  24.667  1.00  0.00     0.222 C 
ATOM     13  O   UNL A   1      33.608  26.379  25.584  1.00  0.00    -0.366 OA
BRANCH   8  14
ATOM     14  C   UNL A   1      31.043  27.874  22.839  1.00  0.00     0.320 C 
BRANCH  14  15
ATOM     15  C   UNL A   1      29.778  28.642  22.577  1.00  0.00     0.108 A 
ATOM     16  C   UNL A   1      28.638  30.283  21.630  1.00  0.00     0.189 A 
ATOM     17  N   UNL A   1      29.794  29.674  21.642  1.00  0.00    -0.219 NA
ATOM     18  S   UNL A   1      27.432  29.638  22.643  1.00  0.00    -0.105 S 
ATOM     19  C   UNL A   1      28.512  28.377  23.075  1.00  0.00     0.098 A 
BRANCH  16  20
ATOM     20  N   UNL A   1      28.277  31.418  20.970  1.00  0.00    -0.302 N 
ATOM     21  C   UNL A   1      28.805  32.982  22.821  1.00  0.00     0.114 C 
ATOM     22  C   UNL A   1      28.111  32.649  21.526  1.00  0.00     0.223 C 
ATOM     23  O   UNL A   1      27.491  33.509  20.893  1.00  0.00    -0.275 OA
ATOM     24  H   UNL A   1      28.123  31.342  20.001  1.00  0.00     0.172 HD
ENDBRANCH  16  20
ENDBRANCH  14  15
ENDBRANCH   8  14
ENDBRANCH   6   7
ENDBRANCH   4   6
ENDBRANCH   3   4
ENDBRANCH   2   3
ENDBRANCH   1   2
BRANCH   1  25
ATOM     25  O   UNL A   1      35.483  21.070  25.823  1.00  0.00    -0.374 OA
BRANCH  25  26
ATOM     26  C   UNL A   1      36.373  20.467  24.895  1.00  0.00     0.202 C 
BRANCH  26  27
ATOM     27  C   UNL A   1      37.831  20.920  24.935  1.00  0.00     0.261 C 
BRANCH  27  28
ATOM     28  O   UNL A   1      38.270  21.418  26.210  1.00  0.00    -0.460 OA
BRANCH  28  29
ATOM     29  C   UNL A   1      39.613  21.518  26.349  1.00  0.00     0.338 C 
ATOM     30  O   UNL A   1      40.463  20.727  25.963  1.00  0.00    -0.246 OA
BRANCH  29  31
ATOM     31  C   UNL A   1      39.971  22.814  26.944  1.00  0.00     0.060 A 
ATOM     32  C   UNL A   1      39.376  23.968  26.422  1.00  0.00     0.016 A 
ATOM     33  C   UNL A   1      40.977  22.908  27.908  1.00  0.00     0.016 A 
ATOM     34  C   UNL A   1      39.809  25.224  26.849  1.00  0.00     0.010 A 
ATOM     35  C   UNL A   1      41.401  24.168  28.340  1.00  0.00     0.010 A 
ATOM     36  C   UNL A   1      40.843  25.333  27.791  1.00  0.00    -0.014 A 
BRANCH  36  37
ATOM     37  C   UNL A   1      41.388  26.668  28.144  1.00  0.00     0.031 A 
ATOM     38  C   UNL A   1      42.825  26.996  27.840  1.00  0.00     0.074 A 
ATOM     39  C   UNL A   1      40.600  27.579  28.744  1.00  0.00     0.049 A 
ATOM     40  N   UNL A   1      43.475  28.113  28.040  1.00  0.00    -0.248 NA
ATOM     41  C   UNL A   1      43.637  25.927  27.237  1.00  0.00     0.031 C 
ATOM     42  C   UNL A   1      39.205  27.365  29.125  1.00  0.00     0.029 A 
ATOM     43  N   UNL A   1      40.871  28.859  29.159  1.00  0.00    -0.354 N 
ATOM     44  C   UNL A   1      44.775  27.879  27.608  1.00  0.00     0.074 A 
ATOM     45  C   UNL A   1      44.827  26.506  27.151  1.00  0.00     0.031 C 
ATOM     46  C   UNL A   1      38.744  28.471  29.732  1.00  0.00     0.029 A 
ATOM     47  C   UNL A   1      39.813  29.466  29.792  1.00  0.00     0.049 A 
ATOM     48  H   UNL A   1      41.739  29.301  29.016  1.00  0.00     0.167 HD
ATOM     49  C   UNL A   1      45.824  28.736  27.569  1.00  0.00     0.034 A 
ATOM     50  C   UNL A   1      39.717  30.686  30.360  1.00  0.00     0.034 A 
ATOM     51  C   UNL A   1      45.764  30.108  27.995  1.00  0.00     0.049 A 
ATOM     52  C   UNL A   1      40.892  31.624  30.289  1.00  0.00     0.074 A 
ATOM     53  C   UNL A   1      46.753  31.074  27.932  1.00  0.00     0.029 A 
ATOM     54  N   UNL A   1      44.657  30.708  28.573  1.00  0.00    -0.354 N 
ATOM     55  N   UNL A   1      42.064  31.437  29.731  1.00  0.00    -0.248 NA
ATOM     56  C   UNL A   1      40.720  32.954  30.891  1.00  0.00     0.031 C 
ATOM     57  C   UNL A   1      46.247  32.255  28.484  1.00  0.00     0.029 A 
ATOM     58  C   UNL A   1      44.939  32.029  28.880  1.00  0.00     0.049 A 
ATOM     59  H   UNL A   1      43.795  30.262  28.739  1.00  0.00     0.167 HD
ATOM     60  C   UNL A   1      42.757  32.634  29.887  1.00  0.00     0.074 A 
ATOM     61  C   UNL A   1      41.865  33.546  30.573  1.00  0.00     0.031 C 
ATOM     62  C   UNL A   1      44.023  32.943  29.512  1.00  0.00     0.034 A 
BRANCH  49  63
ATOM     63  C   UNL A   1      47.119  28.228  26.993  1.00  0.00     0.023 A 
ATOM     64  C   UNL A   1      48.175  27.891  27.864  1.00  0.00     0.012 A 
ATOM     65  C   UNL A   1      47.274  28.027  25.608  1.00  0.00     0.148 A 
ATOM     66  C   UNL A   1      49.375  27.387  27.363  1.00  0.00     0.002 A 
ATOM     67  C   UNL A   1      48.461  27.490  25.119  1.00  0.00     0.091 A 
ATOM     68  F   UNL A   1      46.267  28.375  24.793  1.00  0.00    -0.205 F 
ATOM     69  C   UNL A   1      49.514  27.177  25.995  1.00  0.00     0.022 A 
BRANCH  67  70
ATOM     70  S   UNL A   1      48.708  27.124  23.377  1.00  0.00     0.127 S 
ATOM     71  O   UNL A   1      47.968  25.872  23.232  1.00  0.00    -0.237 OA
ATOM     72  O   UNL A   1      48.088  28.278  22.726  1.00  0.00    -0.237 OA
ATOM     73  O   UNL A   1      50.150  27.028  23.192  1.00  0.00    -0.744 OA
ENDBRANCH  67  70
ENDBRANCH  49  63
BRANCH  50  74
ATOM     74  C   UNL A   1      38.434  31.110  30.985  1.00  0.00     0.023 A 
ATOM     75  C   UNL A   1      38.259  30.969  32.375  1.00  0.00     0.012 A 
ATOM     76  C   UNL A   1      37.403  31.687  30.218  1.00  0.00     0.148 A 
ATOM     77  C   UNL A   1      37.072  31.373  32.987  1.00  0.00     0.002 A 
ATOM     78  C   UNL A   1      36.244  32.136  30.842  1.00  0.00     0.091 A 
ATOM     79  F   UNL A   1      37.579  31.794  28.893  1.00  0.00    -0.205 F 
ATOM     80  C   UNL A   1      36.071  31.967  32.224  1.00  0.00     0.022 A 
BRANCH  78  81
ATOM     81  S   UNL A   1      34.966  33.031  29.951  1.00  0.00     0.127 S 
ATOM     82  O   UNL A   1      34.425  31.993  29.079  1.00  0.00    -0.237 OA
ATOM     83  O   UNL A   1      34.075  33.453  31.034  1.00  0.00    -0.237 OA
ATOM     84  O   UNL A   1      35.655  34.129  29.286  1.00  0.00    -0.744 OA
ENDBRANCH  78  81
ENDBRANCH  50  74
BRANCH  62  85
ATOM     85  C   UNL A   1      44.523  34.330  29.815  1.00  0.00     0.023 A 
ATOM     86  C   UNL A   1      45.165  34.583  31.043  1.00  0.00     0.012 A 
ATOM     87  C   UNL A   1      44.433  35.359  28.856  1.00  0.00     0.148 A 
ATOM     88  C   UNL A   1      45.687  35.846  31.323  1.00  0.00     0.002 A 
ATOM     89  C   UNL A   1      44.993  36.603  29.125  1.00  0.00     0.091 A 
ATOM     90  F   UNL A   1      43.799  35.105  27.702  1.00  0.00    -0.205 F 
ATOM     91  C   UNL A   1      45.613  36.850  30.361  1.00  0.00     0.022 A 
BRANCH  89  92
ATOM     92  S   UNL A   1      45.020  37.924  27.907  1.00  0.00     0.127 S 
ATOM     93  O   UNL A   1      45.550  37.235  26.733  1.00  0.00    -0.237 OA
ATOM     94  O   UNL A   1      43.607  38.293  27.811  1.00  0.00    -0.237 OA
ATOM     95  O   UNL A   1      45.875  38.962  28.469  1.00  0.00    -0.744 OA
ENDBRANCH  89  92
ENDBRANCH  62  85
ENDBRANCH  36  37
ENDBRANCH  29  31
ENDBRANCH  28  29
ENDBRANCH  27  28
ENDBRANCH  26  27
ENDBRANCH  25  26
ENDBRANCH   1  25
TORSDOF 21
ENDMDL
MODEL 2
REMARK VINA RESULT:     -10.4      2.274      7.725
REMARK SMILES CC(=O)Nc1nc(C[N@@H+]2CCO[C@@H](CC(=O)OCCOCCOC(=O)c3ccc(-c4c5nc(c(-c6cccc(S(=O)(=O)[O-])c6F)c6ccc([nH]6)c(-c6cccc(S(=O)(=O)[O-])c6F)c6nc(c(-c7cccc(S(=O)(=O)[O-])c7F)c7ccc4[nH]7)C=C6)C=C5)cc3)C2)cs1
REMARK SMILES IDX 19 1 18 2 17 3 15 4 16 5 14 6 13 7 9 8 10 9 89 10 11 12
REMARK SMILES IDX 12 13 8 14 7 15 5 16 6 17 91 18 90 19 4 20 1 21 2 22 3 23
REMARK SMILES IDX 20 25 21 26 22 27 23 28 24 29 25 30 26 31 27 32 88 33 28 34
REMARK SMILES IDX 87 35 29 36 30 37 31 38 81 39 32 40 86 41 80 42 82 43 33 44
REMARK SMILES IDX 85 45 79 46 78 47 34 49 66 50 46 51 65 52 47 53 50 54 64 55
REMARK SMILES IDX 83 56 48 57 49 58 63 60 84 61 51 62 35 63 36 64 44 65 37 66
REMARK SMILES IDX 39 67 45 68 38 69 40 70 41 71 42 72 43 73 67 74 68 75 76 76
REMARK SMILES IDX 69 77 71 78 77 79 70 80 72 81 73 82 74 83 75 84 52 85 53 86
REMARK SMILES IDX 61 87 54 88 56 89 62 90 55 91 57 92 58 93 59 94 60 95
REMARK H PARENT 9 11 4 24 82 48 50 59
REMARK Flexibility Score: inf
ROOT
ATOM      1  C   UNL A   1      35.126  22.408  25.704  1.00  0.00     0.202 C 
ENDROOT
BRANCH   1   2
ATOM      2  C   UNL A   1      33.695  22.717  25.252  1.00  0.00     0.261 C 
BRANCH   2   3
ATOM      3  O   UNL A   1      32.663  22.272  26.160  1.00  0.00    -0.463 OA
BRANCH   3   4
ATOM      4  C   UNL A   1      31.568  23.073  26.236  1.00  0.00     0.308 C 
ATOM      5  O   UNL A   1      30.428  22.728  25.939  1.00  0.00    -0.252 OA
BRANCH   4   6
ATOM      6  C   UNL A   1      31.896  24.487  26.623  1.00  0.00     0.160 C 
BRANCH   6   7
ATOM      7  C   UNL A   1      32.204  25.518  25.536  1.00  0.00     0.184 C 
ATOM      8  N   UNL A   1      31.397  27.727  24.549  1.00  0.00    -0.326 N 
ATOM      9  C   UNL A   1      32.605  28.338  25.092  1.00  0.00     0.291 C 
ATOM     10  C   UNL A   1      31.030  26.487  25.244  1.00  0.00     0.295 C 
ATOM     11  H   UNL A   1      30.642  28.364  24.804  1.00  0.00     0.348 HD
ATOM     12  C   UNL A   1      33.747  27.336  25.291  1.00  0.00     0.222 C 
ATOM     13  O   UNL A   1      33.341  26.229  26.088  1.00  0.00    -0.366 OA
BRANCH   8  14
ATOM     14  C   UNL A   1      31.132  27.860  23.119  1.00  0.00     0.320 C 
BRANCH  14  15
ATOM     15  C   UNL A   1      29.883  28.603  22.737  1.00  0.00     0.108 A 
ATOM     16  C   UNL A   1      28.807  30.229  21.695  1.00  0.00     0.189 A 
ATOM     17  N   UNL A   1      29.970  29.646  21.818  1.00  0.00    -0.219 NA
ATOM     18  S   UNL A   1      27.520  29.546  22.573  1.00  0.00    -0.105 S 
ATOM     19  C   UNL A   1      28.579  28.304  23.100  1.00  0.00     0.098 A 
BRANCH  16  20
ATOM     20  N   UNL A   1      28.489  31.365  21.013  1.00  0.00    -0.302 N 
ATOM     21  C   UNL A   1      28.758  32.913  22.931  1.00  0.00     0.114 C 
ATOM     22  C   UNL A   1      28.225  32.581  21.561  1.00  0.00     0.223 C 
ATOM     23  O   UNL A   1      27.655  33.433  20.874  1.00  0.00    -0.275 OA
ATOM     24  H   UNL A   1      28.448  31.299  20.031  1.00  0.00     0.172 HD
ENDBRANCH  16  20
ENDBRANCH  14  15
ENDBRANCH   8  14
ENDBRANCH   6   7
ENDBRANCH   4   6
ENDBRANCH   3   4
ENDBRANCH   2   3
ENDBRANCH   1   2
BRANCH   1  25
ATOM     25  O   UNL A   1      35.461  21.040  25.925  1.00  0.00    -0.374 OA
BRANCH  25  26
ATOM     26  C   UNL A   1      36.305  20.414  24.971  1.00  0.00     0.202 C 
BRANCH  26  27
ATOM     27  C   UNL A   1      37.751  20.901  24.896  1.00  0.00     0.261 C 
BRANCH  27  28
ATOM     28  O   UNL A   1      38.141  21.785  25.960  1.00  0.00    -0.460 OA
BRANCH  28  29
ATOM     29  C   UNL A   1      39.387  21.571  26.448  1.00  0.00     0.338 C 
ATOM     30  O   UNL A   1      40.016  20.521  26.451  1.00  0.00    -0.246 OA
BRANCH  29  31
ATOM     31  C   UNL A   1      39.986  22.837  26.896  1.00  0.00     0.060 A 
ATOM     32  C   UNL A   1      39.523  24.027  26.322  1.00  0.00     0.016 A 
ATOM     33  C   UNL A   1      41.080  22.847  27.764  1.00  0.00     0.016 A 
ATOM     34  C   UNL A   1      40.175  25.229  26.599  1.00  0.00     0.010 A 
ATOM     35  C   UNL A   1      41.724  24.054  28.046  1.00  0.00     0.010 A 
ATOM     36  C   UNL A   1      41.296  25.247  27.443  1.00  0.00    -0.014 A 
BRANCH  36  37
ATOM     37  C   UNL A   1      42.063  26.504  27.630  1.00  0.00     0.031 A 
ATOM     38  C   UNL A   1      41.452  27.650  28.390  1.00  0.00     0.074 A 
ATOM     39  C   UNL A   1      43.299  26.621  27.111  1.00  0.00     0.049 A 
ATOM     40  N   UNL A   1      41.973  28.812  28.688  1.00  0.00    -0.248 NA
ATOM     41  C   UNL A   1      40.075  27.466  28.875  1.00  0.00     0.031 C 
ATOM     42  C   UNL A   1      43.982  25.597  26.323  1.00  0.00     0.029 A 
ATOM     43  N   UNL A   1      44.190  27.665  27.152  1.00  0.00    -0.354 N 
ATOM     44  C   UNL A   1      40.985  29.506  29.376  1.00  0.00     0.074 A 
ATOM     45  C   UNL A   1      39.826  28.641  29.436  1.00  0.00     0.031 C 
ATOM     46  C   UNL A   1      45.180  26.067  25.939  1.00  0.00     0.029 A 
ATOM     47  C   UNL A   1      45.345  27.428  26.446  1.00  0.00     0.049 A 
ATOM     48  H   UNL A   1      44.018  28.502  27.640  1.00  0.00     0.167 HD
ATOM     49  C   UNL A   1      41.045  30.741  29.931  1.00  0.00     0.034 A 
ATOM     50  C   UNL A   1      46.415  28.220  26.230  1.00  0.00     0.034 A 
ATOM     51  C   UNL A   1      42.207  31.588  29.897  1.00  0.00     0.049 A 
ATOM     52  C   UNL A   1      46.463  29.582  26.871  1.00  0.00     0.074 A 
ATOM     53  C   UNL A   1      42.389  32.826  30.488  1.00  0.00     0.029 A 
ATOM     54  N   UNL A   1      43.383  31.289  29.227  1.00  0.00    -0.354 N 
ATOM     55  N   UNL A   1      45.582  30.157  27.653  1.00  0.00    -0.248 NA
ATOM     56  C   UNL A   1      47.669  30.388  26.633  1.00  0.00     0.031 C 
ATOM     57  C   UNL A   1      43.671  33.282  30.164  1.00  0.00     0.029 A 
ATOM     58  C   UNL A   1      44.292  32.322  29.382  1.00  0.00     0.049 A 
ATOM     59  H   UNL A   1      43.549  30.463  28.717  1.00  0.00     0.167 HD
ATOM     60  C   UNL A   1      46.138  31.376  28.025  1.00  0.00     0.074 A 
ATOM     61  C   UNL A   1      47.443  31.448  27.399  1.00  0.00     0.031 C 
ATOM     62  C   UNL A   1      45.609  32.356  28.800  1.00  0.00     0.034 A 
BRANCH  49  63
ATOM     63  C   UNL A   1      39.832  31.231  30.676  1.00  0.00     0.023 A 
ATOM     64  C   UNL A   1      38.738  31.742  29.949  1.00  0.00     0.012 A 
ATOM     65  C   UNL A   1      39.746  31.133  32.078  1.00  0.00     0.148 A 
ATOM     66  C   UNL A   1      37.586  32.173  30.607  1.00  0.00     0.002 A 
ATOM     67  C   UNL A   1      38.580  31.532  32.725  1.00  0.00     0.091 A 
ATOM     68  F   UNL A   1      40.805  30.666  32.754  1.00  0.00    -0.205 F 
ATOM     69  C   UNL A   1      37.504  32.059  31.992  1.00  0.00     0.022 A 
BRANCH  67  70
ATOM     70  S   UNL A   1      38.357  31.362  34.500  1.00  0.00     0.127 S 
ATOM     71  O   UNL A   1      39.452  32.182  35.014  1.00  0.00    -0.237 OA
ATOM     72  O   UNL A   1      37.023  31.931  34.701  1.00  0.00    -0.237 OA
ATOM     73  O   UNL A   1      38.454  29.936  34.778  1.00  0.00    -0.744 OA
ENDBRANCH  67  70
ENDBRANCH  49  63
BRANCH  50  74
ATOM     74  C   UNL A   1      47.557  27.713  25.421  1.00  0.00     0.023 A 
ATOM     75  C   UNL A   1      48.596  27.004  26.056  1.00  0.00     0.012 A 
ATOM     76  C   UNL A   1      47.603  27.895  24.025  1.00  0.00     0.148 A 
ATOM     77  C   UNL A   1      49.670  26.506  25.318  1.00  0.00     0.002 A 
ATOM     78  C   UNL A   1      48.650  27.350  23.289  1.00  0.00     0.091 A 
ATOM     79  F   UNL A   1      46.616  28.590  23.442  1.00  0.00    -0.205 F 
ATOM     80  C   UNL A   1      49.691  26.667  23.935  1.00  0.00     0.022 A 
BRANCH  78  81
ATOM     81  S   UNL A   1      48.680  27.400  21.494  1.00  0.00     0.127 S 
ATOM     82  O   UNL A   1      47.353  27.922  21.185  1.00  0.00    -0.237 OA
ATOM     83  O   UNL A   1      49.784  28.326  21.232  1.00  0.00    -0.237 OA
ATOM     84  O   UNL A   1      48.942  26.029  21.073  1.00  0.00    -0.744 OA
ENDBRANCH  78  81
ENDBRANCH  50  74
BRANCH  62  85
ATOM     85  C   UNL A   1      46.443  33.587  29.036  1.00  0.00     0.023 A 
ATOM     86  C   UNL A   1      46.307  34.692  28.172  1.00  0.00     0.012 A 
ATOM     87  C   UNL A   1      47.294  33.684  30.155  1.00  0.00     0.148 A 
ATOM     88  C   UNL A   1      47.027  35.864  28.403  1.00  0.00     0.002 A 
ATOM     89  C   UNL A   1      47.975  34.870  30.402  1.00  0.00     0.091 A 
ATOM     90  F   UNL A   1      47.425  32.615  30.953  1.00  0.00    -0.205 F 
ATOM     91  C   UNL A   1      47.849  35.958  29.523  1.00  0.00     0.022 A 
BRANCH  89  92
ATOM     92  S   UNL A   1      48.983  35.106  31.870  1.00  0.00     0.127 S 
ATOM     93  O   UNL A   1      50.016  34.088  31.689  1.00  0.00    -0.237 OA
ATOM     94  O   UNL A   1      49.452  36.484  31.714  1.00  0.00    -0.237 OA
ATOM     95  O   UNL A   1      48.088  34.902  33.002  1.00  0.00    -0.744 OA
ENDBRANCH  89  92
ENDBRANCH  62  85
ENDBRANCH  36  37
ENDBRANCH  29  31
ENDBRANCH  28  29
ENDBRANCH  27  28
ENDBRANCH  26  27
ENDBRANCH  25  26
ENDBRANCH   1  25
TORSDOF 21
ENDMDL
MODEL 3
REMARK VINA RESULT:     -10.2      2.637      4.217
REMARK SMILES CC(=O)Nc1nc(C[N@@H+]2CCO[C@@H](CC(=O)OCCOCCOC(=O)c3ccc(-c4c5nc(c(-c6cccc(S(=O)(=O)[O-])c6F)c6ccc([nH]6)c(-c6cccc(S(=O)(=O)[O-])c6F)c6nc(c(-c7cccc(S(=O)(=O)[O-])c7F)c7ccc4[nH]7)C=C6)C=C5)cc3)C2)cs1
REMARK SMILES IDX 19 1 18 2 17 3 15 4 16 5 14 6 13 7 9 8 10 9 89 10 11 12
REMARK SMILES IDX 12 13 8 14 7 15 5 16 6 17 91 18 90 19 4 20 1 21 2 22 3 23
REMARK SMILES IDX 20 25 21 26 22 27 23 28 24 29 25 30 26 31 27 32 88 33 28 34
REMARK SMILES IDX 87 35 29 36 30 37 31 38 81 39 32 40 86 41 80 42 82 43 33 44
REMARK SMILES IDX 85 45 79 46 78 47 34 49 66 50 46 51 65 52 47 53 50 54 64 55
REMARK SMILES IDX 83 56 48 57 49 58 63 60 84 61 51 62 35 63 36 64 44 65 37 66
REMARK SMILES IDX 39 67 45 68 38 69 40 70 41 71 42 72 43 73 67 74 68 75 76 76
REMARK SMILES IDX 69 77 71 78 77 79 70 80 72 81 73 82 74 83 75 84 52 85 53 86
REMARK SMILES IDX 61 87 54 88 56 89 62 90 55 91 57 92 58 93 59 94 60 95
REMARK H PARENT 9 11 4 24 82 48 50 59
REMARK Flexibility Score: inf
ROOT
ATOM      1  C   UNL A   1      33.843  26.346  25.570  1.00  0.00     0.202 C 
ENDROOT
BRANCH   1   2
ATOM      2  C   UNL A   1      34.042  27.559  26.485  1.00  0.00     0.261 C 
BRANCH   2   3
ATOM      3  O   UNL A   1      32.824  28.237  26.865  1.00  0.00    -0.463 OA
BRANCH   3   4
ATOM      4  C   UNL A   1      32.795  29.572  26.610  1.00  0.00     0.308 C 
ATOM      5  O   UNL A   1      33.671  30.366  26.941  1.00  0.00    -0.252 OA
BRANCH   4   6
ATOM      6  C   UNL A   1      31.515  30.022  25.967  1.00  0.00     0.160 C 
BRANCH   6   7
ATOM      7  C   UNL A   1      31.200  29.600  24.531  1.00  0.00     0.184 C 
ATOM      8  N   UNL A   1      30.220  27.697  23.144  1.00  0.00    -0.326 N 
ATOM      9  C   UNL A   1      29.097  28.576  22.846  1.00  0.00     0.291 C 
ATOM     10  C   UNL A   1      30.930  28.082  24.370  1.00  0.00     0.295 C 
ATOM     11  H   UNL A   1      29.796  26.804  23.396  1.00  0.00     0.348 HD
ATOM     12  C   UNL A   1      29.451  30.063  22.958  1.00  0.00     0.222 C 
ATOM     13  O   UNL A   1      30.012  30.375  24.228  1.00  0.00    -0.366 OA
BRANCH   8  14
ATOM     14  C   UNL A   1      30.965  27.118  22.029  1.00  0.00     0.320 C 
BRANCH  14  15
ATOM     15  C   UNL A   1      31.602  25.778  22.274  1.00  0.00     0.108 A 
ATOM     16  C   UNL A   1      31.625  23.746  23.145  1.00  0.00     0.189 A 
ATOM     17  N   UNL A   1      30.873  24.794  22.938  1.00  0.00    -0.219 NA
ATOM     18  S   UNL A   1      33.200  23.806  22.505  1.00  0.00    -0.105 S 
ATOM     19  C   UNL A   1      32.827  25.328  21.807  1.00  0.00     0.098 A 
BRANCH  16  20
ATOM     20  N   UNL A   1      31.351  22.629  23.874  1.00  0.00    -0.302 N 
ATOM     21  C   UNL A   1      30.987  23.798  26.030  1.00  0.00     0.114 C 
ATOM     22  C   UNL A   1      31.278  22.554  25.230  1.00  0.00     0.223 C 
ATOM     23  O   UNL A   1      31.332  21.445  25.769  1.00  0.00    -0.275 OA
ATOM     24  H   UNL A   1      31.189  21.797  23.372  1.00  0.00     0.172 HD
ENDBRANCH  16  20
ENDBRANCH  14  15
ENDBRANCH   8  14
ENDBRANCH   6   7
ENDBRANCH   4   6
ENDBRANCH   3   4
ENDBRANCH   2   3
ENDBRANCH   1   2
BRANCH   1  25
ATOM     25  O   UNL A   1      34.297  25.083  26.050  1.00  0.00    -0.374 OA
BRANCH  25  26
ATOM     26  C   UNL A   1      35.264  24.398  25.269  1.00  0.00     0.202 C 
BRANCH  26  27
ATOM     27  C   UNL A   1      36.283  23.541  26.017  1.00  0.00     0.261 C 
BRANCH  27  28
ATOM     28  O   UNL A   1      37.562  23.429  25.369  1.00  0.00    -0.460 OA
BRANCH  28  29
ATOM     29  C   UNL A   1      38.577  23.045  26.180  1.00  0.00     0.338 C 
ATOM     30  O   UNL A   1      38.971  21.906  26.392  1.00  0.00    -0.246 OA
BRANCH  29  31
ATOM     31  C   UNL A   1      39.274  24.222  26.720  1.00  0.00     0.060 A 
ATOM     32  C   UNL A   1      39.102  24.529  28.074  1.00  0.00     0.016 A 
ATOM     33  C   UNL A   1      39.975  25.090  25.879  1.00  0.00     0.016 A 
ATOM     34  C   UNL A   1      39.613  25.723  28.584  1.00  0.00     0.010 A 
ATOM     35  C   UNL A   1      40.493  26.280  26.396  1.00  0.00     0.010 A 
ATOM     36  C   UNL A   1      40.289  26.619  27.743  1.00  0.00    -0.014 A 
BRANCH  36  37
ATOM     37  C   UNL A   1      40.715  27.944  28.259  1.00  0.00     0.031 A 
ATOM     38  C   UNL A   1      42.178  28.295  28.310  1.00  0.00     0.074 A 
ATOM     39  C   UNL A   1      39.795  28.826  28.690  1.00  0.00     0.049 A 
ATOM     40  N   UNL A   1      42.745  29.408  28.695  1.00  0.00    -0.248 NA
ATOM     41  C   UNL A   1      43.125  27.255  27.877  1.00  0.00     0.031 C 
ATOM     42  C   UNL A   1      38.353  28.587  28.727  1.00  0.00     0.029 A 
ATOM     43  N   UNL A   1      39.940  30.092  29.201  1.00  0.00    -0.354 N 
ATOM     44  C   UNL A   1      44.114  29.201  28.569  1.00  0.00     0.074 A 
ATOM     45  C   UNL A   1      44.293  27.847  28.090  1.00  0.00     0.031 C 
ATOM     46  C   UNL A   1      37.745  29.665  29.248  1.00  0.00     0.029 A 
ATOM     47  C   UNL A   1      38.754  30.666  29.590  1.00  0.00     0.049 A 
ATOM     48  H   UNL A   1      40.810  30.545  29.279  1.00  0.00     0.167 HD
ATOM     49  C   UNL A   1      45.128  30.067  28.805  1.00  0.00     0.034 A 
ATOM     50  C   UNL A   1      38.508  31.862  30.162  1.00  0.00     0.034 A 
ATOM     51  C   UNL A   1      44.949  31.422  29.253  1.00  0.00     0.049 A 
ATOM     52  C   UNL A   1      39.653  32.812  30.399  1.00  0.00     0.074 A 
ATOM     53  C   UNL A   1      45.909  32.397  29.455  1.00  0.00     0.029 A 
ATOM     54  N   UNL A   1      43.727  31.991  29.577  1.00  0.00    -0.354 N 
ATOM     55  N   UNL A   1      40.925  32.656  30.124  1.00  0.00    -0.248 NA
ATOM     56  C   UNL A   1      39.323  34.117  30.990  1.00  0.00     0.031 C 
ATOM     57  C   UNL A   1      45.269  33.553  29.915  1.00  0.00     0.029 A 
ATOM     58  C   UNL A   1      43.909  33.301  29.987  1.00  0.00     0.049 A 
ATOM     59  H   UNL A   1      42.858  31.532  29.523  1.00  0.00     0.167 HD
ATOM     60  C   UNL A   1      41.543  33.851  30.478  1.00  0.00     0.074 A 
ATOM     61  C   UNL A   1      40.500  34.730  30.968  1.00  0.00     0.031 C 
ATOM     62  C   UNL A   1      42.856  34.184  30.419  1.00  0.00     0.034 A 
BRANCH  49  63
ATOM     63  C   UNL A   1      46.530  29.591  28.530  1.00  0.00     0.023 A 
ATOM     64  C   UNL A   1      47.093  29.808  27.256  1.00  0.00     0.012 A 
ATOM     65  C   UNL A   1      47.309  28.990  29.537  1.00  0.00     0.148 A 
ATOM     66  C   UNL A   1      48.401  29.410  26.979  1.00  0.00     0.002 A 
ATOM     67  C   UNL A   1      48.624  28.627  29.264  1.00  0.00     0.091 A 
ATOM     68  F   UNL A   1      46.750  28.771  30.735  1.00  0.00    -0.205 F 
ATOM     69  C   UNL A   1      49.168  28.830  27.985  1.00  0.00     0.022 A 
BRANCH  67  70
ATOM     70  S   UNL A   1      49.712  27.932  30.515  1.00  0.00     0.127 S 
ATOM     71  O   UNL A   1      49.347  28.719  31.692  1.00  0.00    -0.237 OA
ATOM     72  O   UNL A   1      49.282  26.534  30.559  1.00  0.00    -0.237 OA
ATOM     73  O   UNL A   1      51.067  28.132  30.019  1.00  0.00    -0.744 OA
ENDBRANCH  67  70
ENDBRANCH  49  63
BRANCH  50  74
ATOM     74  C   UNL A   1      37.109  32.253  30.484  1.00  0.00     0.023 A 
ATOM     75  C   UNL A   1      36.596  31.995  31.771  1.00  0.00     0.012 A 
ATOM     76  C   UNL A   1      36.297  32.911  29.540  1.00  0.00     0.148 A 
ATOM     77  C   UNL A   1      35.292  32.365  32.103  1.00  0.00     0.002 A 
ATOM     78  C   UNL A   1      35.017  33.324  29.895  1.00  0.00     0.091 A 
ATOM     79  F   UNL A   1      36.795  33.129  28.315  1.00  0.00    -0.205 F 
ATOM     80  C   UNL A   1      34.508  33.040  31.171  1.00  0.00     0.022 A 
BRANCH  78  81
ATOM     81  S   UNL A   1      33.996  34.314  28.798  1.00  0.00     0.127 S 
ATOM     82  O   UNL A   1      33.637  33.346  27.766  1.00  0.00    -0.237 OA
ATOM     83  O   UNL A   1      32.896  34.713  29.679  1.00  0.00    -0.237 OA
ATOM     84  O   UNL A   1      34.845  35.418  28.370  1.00  0.00    -0.744 OA
ENDBRANCH  78  81
ENDBRANCH  50  74
BRANCH  62  85
ATOM     85  C   UNL A   1      43.249  35.563  30.878  1.00  0.00     0.023 A 
ATOM     86  C   UNL A   1      43.612  35.769  32.224  1.00  0.00     0.012 A 
ATOM     87  C   UNL A   1      43.339  36.633  29.965  1.00  0.00     0.148 A 
ATOM     88  C   UNL A   1      44.034  37.025  32.659  1.00  0.00     0.002 A 
ATOM     89  C   UNL A   1      43.801  37.871  30.398  1.00  0.00     0.091 A 
ATOM     90  F   UNL A   1      42.969  36.423  28.694  1.00  0.00    -0.205 F 
ATOM     91  C   UNL A   1      44.141  38.070  31.746  1.00  0.00     0.022 A 
BRANCH  89  92
ATOM     92  S   UNL A   1      44.054  39.245  29.269  1.00  0.00     0.127 S 
ATOM     93  O   UNL A   1      42.690  39.515  28.817  1.00  0.00    -0.237 OA
ATOM     94  O   UNL A   1      44.621  40.272  30.144  1.00  0.00    -0.237 OA
ATOM     95  O   UNL A   1      44.971  38.754  28.247  1.00  0.00    -0.744 OA
ENDBRANCH  89  92
ENDBRANCH  62  85
ENDBRANCH  36  37
ENDBRANCH  29  31
ENDBRANCH  28  29
ENDBRANCH  27  28
ENDBRANCH  26  27
ENDBRANCH  25  26
ENDBRANCH   1  25
TORSDOF 21
ENDMDL
