MODEL 1
REMARK VINA RESULT:     -11.5      0.000      0.000
REMARK SMILES Cc1cscc1-c1ncc(C(=O)OCCOCCOC(=O)c2ccc(-c3c4nc(c(-c5cccc(S(=O)(=O)[O-])c5F)c5ccc([nH]5)c(-c5cccc(S(=O)(=O)[O-])c5F)c5nc(c(-c6cccc(S(=O)(=O)[O-])c6F)c6ccc3[nH]6)C=C5)C=C4)cc2)c(=O)[nH]1
REMARK SMILES IDX 17 1 16 2 15 3 14 4 13 5 11 6 12 7 10 8 7 9 8 10 87 11 9 12
REMARK SMILES IDX 85 13 86 15 6 16 1 17 2 18 3 19 4 20 5 21 18 22 19 23 20 24
REMARK SMILES IDX 21 25 22 26 23 27 84 28 24 29 83 30 25 31 26 32 27 33 77 34
REMARK SMILES IDX 28 35 82 36 76 37 78 38 29 39 81 40 75 41 74 42 30 44 62 45
REMARK SMILES IDX 42 46 61 47 43 48 46 49 60 50 79 51 44 52 45 53 59 55 80 56
REMARK SMILES IDX 47 57 31 58 32 59 40 60 33 61 35 62 41 63 34 64 36 65 37 66
REMARK SMILES IDX 38 67 39 68 63 69 64 70 72 71 65 72 67 73 73 74 66 75 68 76
REMARK SMILES IDX 69 77 70 78 71 79 48 80 49 81 57 82 50 83 52 84 58 85 51 86
REMARK SMILES IDX 53 87 54 88 55 89 56 90
REMARK H PARENT 87 14 78 43 46 54
REMARK Flexibility Score: inf
ROOT
ATOM      1  C   UNL A   1      35.599  21.566  25.016  1.00  0.00     0.202 C 
ENDROOT
BRANCH   1   2
ATOM      2  O   UNL A   1      35.312  22.239  26.242  1.00  0.00    -0.374 OA
BRANCH   2   3
ATOM      3  C   UNL A   1      34.301  23.252  26.199  1.00  0.00     0.202 C 
BRANCH   3   4
ATOM      4  C   UNL A   1      33.085  23.005  27.096  1.00  0.00     0.261 C 
BRANCH   4   5
ATOM      5  O   UNL A   1      31.949  22.609  26.312  1.00  0.00    -0.459 OA
BRANCH   5   6
ATOM      6  C   UNL A   1      30.818  23.324  26.508  1.00  0.00     0.345 C 
ATOM      7  O   UNL A   1      30.021  23.169  27.425  1.00  0.00    -0.246 OA
BRANCH   6   8
ATOM      8  C   UNL A   1      30.718  24.439  25.554  1.00  0.00     0.143 A 
ATOM      9  C   UNL A   1      30.340  26.697  24.070  1.00  0.00     0.141 A 
ATOM     10  N   UNL A   1      30.496  26.836  25.345  1.00  0.00    -0.237 NA
ATOM     11  N   UNL A   1      30.444  25.499  23.420  1.00  0.00    -0.306 N 
ATOM     12  C   UNL A   1      30.665  25.679  26.065  1.00  0.00     0.135 A 
ATOM     13  C   UNL A   1      30.678  24.324  24.086  1.00  0.00     0.265 A 
ATOM     14  H   UNL A   1      30.345  25.478  22.441  1.00  0.00     0.171 HD
ATOM     15  O   UNL A   1      30.814  23.272  23.478  1.00  0.00    -0.269 OA
BRANCH   9  16
ATOM     16  C   UNL A   1      29.972  27.856  23.276  1.00  0.00     0.031 A 
ATOM     17  C   UNL A   1      32.353  28.726  22.661  1.00  0.00     0.046 C 
ATOM     18  C   UNL A   1      30.861  28.819  22.666  1.00  0.00    -0.029 A 
ATOM     19  C   UNL A   1      30.152  29.851  22.079  1.00  0.00     0.069 A 
ATOM     20  S   UNL A   1      28.463  29.668  22.225  1.00  0.00    -0.151 S 
ATOM     21  C   UNL A   1      28.647  28.207  23.083  1.00  0.00     0.077 A 
ENDBRANCH   9  16
ENDBRANCH   6   8
ENDBRANCH   5   6
ENDBRANCH   4   5
ENDBRANCH   3   4
ENDBRANCH   2   3
ENDBRANCH   1   2
BRANCH   1  22
ATOM     22  C   UNL A   1      36.850  20.681  25.001  1.00  0.00     0.261 C 
BRANCH  22  23
ATOM     23  O   UNL A   1      38.055  21.458  24.901  1.00  0.00    -0.460 OA
BRANCH  23  24
ATOM     24  C   UNL A   1      39.019  21.114  25.785  1.00  0.00     0.338 C 
ATOM     25  O   UNL A   1      39.566  20.021  25.884  1.00  0.00    -0.246 OA
BRANCH  24  26
ATOM     26  C   UNL A   1      39.476  22.293  26.544  1.00  0.00     0.060 A 
ATOM     27  C   UNL A   1      38.887  23.522  26.222  1.00  0.00     0.016 A 
ATOM     28  C   UNL A   1      40.504  22.227  27.488  1.00  0.00     0.016 A 
ATOM     29  C   UNL A   1      39.377  24.698  26.781  1.00  0.00     0.010 A 
ATOM     30  C   UNL A   1      40.996  23.412  28.049  1.00  0.00     0.010 A 
ATOM     31  C   UNL A   1      40.468  24.655  27.659  1.00  0.00    -0.014 A 
BRANCH  31  32
ATOM     32  C   UNL A   1      41.135  25.927  28.031  1.00  0.00     0.031 A 
ATOM     33  C   UNL A   1      42.554  26.168  27.587  1.00  0.00     0.074 A 
ATOM     34  C   UNL A   1      40.468  26.880  28.707  1.00  0.00     0.049 A 
ATOM     35  N   UNL A   1      43.293  27.238  27.725  1.00  0.00    -0.248 NA
ATOM     36  C   UNL A   1      43.228  25.058  26.893  1.00  0.00     0.031 C 
ATOM     37  C   UNL A   1      39.097  26.763  29.198  1.00  0.00     0.029 A 
ATOM     38  N   UNL A   1      40.863  28.134  29.103  1.00  0.00    -0.354 N 
ATOM     39  C   UNL A   1      44.521  26.928  27.154  1.00  0.00     0.074 A 
ATOM     40  C   UNL A   1      44.437  25.561  26.687  1.00  0.00     0.031 C 
ATOM     41  C   UNL A   1      38.766  27.896  29.839  1.00  0.00     0.029 A 
ATOM     42  C   UNL A   1      39.903  28.815  29.812  1.00  0.00     0.049 A 
ATOM     43  H   UNL A   1      41.749  28.510  28.896  1.00  0.00     0.167 HD
ATOM     44  C   UNL A   1      45.613  27.714  27.006  1.00  0.00     0.034 A 
ATOM     45  C   UNL A   1      39.940  30.039  30.374  1.00  0.00     0.034 A 
ATOM     46  C   UNL A   1      45.690  29.080  27.449  1.00  0.00     0.049 A 
ATOM     47  C   UNL A   1      41.166  30.895  30.198  1.00  0.00     0.074 A 
ATOM     48  C   UNL A   1      46.737  29.973  27.309  1.00  0.00     0.029 A 
ATOM     49  N   UNL A   1      44.682  29.748  28.127  1.00  0.00    -0.354 N 
ATOM     50  N   UNL A   1      42.269  30.632  29.539  1.00  0.00    -0.248 NA
ATOM     51  C   UNL A   1      41.136  32.235  30.803  1.00  0.00     0.031 C 
ATOM     52  C   UNL A   1      46.368  31.178  27.918  1.00  0.00     0.029 A 
ATOM     53  C   UNL A   1      45.083  31.042  28.416  1.00  0.00     0.049 A 
ATOM     54  H   UNL A   1      43.809  29.360  28.366  1.00  0.00     0.167 HD
ATOM     55  C   UNL A   1      43.046  31.784  29.616  1.00  0.00     0.074 A 
ATOM     56  C   UNL A   1      42.279  32.753  30.371  1.00  0.00     0.031 C 
ATOM     57  C   UNL A   1      44.285  32.016  29.117  1.00  0.00     0.034 A 
BRANCH  44  58
ATOM     58  C   UNL A   1      46.807  27.126  26.300  1.00  0.00     0.023 A 
ATOM     59  C   UNL A   1      46.898  27.221  24.896  1.00  0.00     0.012 A 
ATOM     60  C   UNL A   1      47.857  26.526  27.021  1.00  0.00     0.148 A 
ATOM     61  C   UNL A   1      48.001  26.700  24.218  1.00  0.00     0.002 A 
ATOM     62  C   UNL A   1      48.971  26.046  26.343  1.00  0.00     0.091 A 
ATOM     63  F   UNL A   1      47.741  26.422  28.353  1.00  0.00    -0.205 F 
ATOM     64  C   UNL A   1      49.041  26.124  24.942  1.00  0.00     0.022 A 
BRANCH  62  65
ATOM     65  S   UNL A   1      50.394  25.354  27.193  1.00  0.00     0.127 S 
ATOM     66  O   UNL A   1      50.793  26.467  28.054  1.00  0.00    -0.237 OA
ATOM     67  O   UNL A   1      49.810  24.216  27.902  1.00  0.00    -0.237 OA
ATOM     68  O   UNL A   1      51.346  24.995  26.152  1.00  0.00    -0.744 OA
ENDBRANCH  62  65
ENDBRANCH  44  58
BRANCH  45  69
ATOM     69  C   UNL A   1      38.746  30.556  31.103  1.00  0.00     0.023 A 
ATOM     70  C   UNL A   1      38.678  30.429  32.504  1.00  0.00     0.012 A 
ATOM     71  C   UNL A   1      37.692  31.193  30.418  1.00  0.00     0.148 A 
ATOM     72  C   UNL A   1      37.570  30.902  33.208  1.00  0.00     0.002 A 
ATOM     73  C   UNL A   1      36.616  31.708  31.131  1.00  0.00     0.091 A 
ATOM     74  F   UNL A   1      37.767  31.286  29.083  1.00  0.00    -0.205 F 
ATOM     75  C   UNL A   1      36.545  31.550  32.523  1.00  0.00     0.022 A 
BRANCH  73  76
ATOM     76  S   UNL A   1      35.315  32.667  30.346  1.00  0.00     0.127 S 
ATOM     77  O   UNL A   1      36.041  33.858  29.913  1.00  0.00    -0.237 OA
ATOM     78  O   UNL A   1      34.892  31.775  29.265  1.00  0.00    -0.237 OA
ATOM     79  O   UNL A   1      34.308  32.879  31.377  1.00  0.00    -0.744 OA
ENDBRANCH  73  76
ENDBRANCH  45  69
BRANCH  57  80
ATOM     80  C   UNL A   1      44.883  33.382  29.329  1.00  0.00     0.023 A 
ATOM     81  C   UNL A   1      45.576  33.667  30.522  1.00  0.00     0.012 A 
ATOM     82  C   UNL A   1      44.825  34.358  28.314  1.00  0.00     0.148 A 
ATOM     83  C   UNL A   1      46.172  34.914  30.716  1.00  0.00     0.002 A 
ATOM     84  C   UNL A   1      45.461  35.580  28.496  1.00  0.00     0.091 A 
ATOM     85  F   UNL A   1      44.145  34.077  27.193  1.00  0.00    -0.205 F 
ATOM     86  C   UNL A   1      46.125  35.864  29.699  1.00  0.00     0.022 A 
BRANCH  84  87
ATOM     87  S   UNL A   1      45.531  36.825  27.201  1.00  0.00     0.127 S 
ATOM     88  O   UNL A   1      44.142  37.274  27.142  1.00  0.00    -0.237 OA
ATOM     89  O   UNL A   1      46.465  37.805  27.758  1.00  0.00    -0.237 OA
ATOM     90  O   UNL A   1      46.020  36.136  26.014  1.00  0.00    -0.744 OA
ENDBRANCH  84  87
ENDBRANCH  57  80
ENDBRANCH  31  32
ENDBRANCH  24  26
ENDBRANCH  23  24
ENDBRANCH  22  23
ENDBRANCH   1  22
TORSDOF 18
ENDMDL
MODEL 2
REMARK VINA RESULT:     -11.5      4.976     10.200
REMARK SMILES Cc1cscc1-c1ncc(C(=O)OCCOCCOC(=O)c2ccc(-c3c4nc(c(-c5cccc(S(=O)(=O)[O-])c5F)c5ccc([nH]5)c(-c5cccc(S(=O)(=O)[O-])c5F)c5nc(c(-c6cccc(S(=O)(=O)[O-])c6F)c6ccc3[nH]6)C=C5)C=C4)cc2)c(=O)[nH]1
REMARK SMILES IDX 17 1 16 2 15 3 14 4 13 5 11 6 12 7 10 8 7 9 8 10 87 11 9 12
REMARK SMILES IDX 85 13 86 15 6 16 1 17 2 18 3 19 4 20 5 21 18 22 19 23 20 24
REMARK SMILES IDX 21 25 22 26 23 27 84 28 24 29 83 30 25 31 26 32 27 33 77 34
REMARK SMILES IDX 28 35 82 36 76 37 78 38 29 39 81 40 75 41 74 42 30 44 62 45
REMARK SMILES IDX 42 46 61 47 43 48 46 49 60 50 79 51 44 52 45 53 59 55 80 56
REMARK SMILES IDX 47 57 31 58 32 59 40 60 33 61 35 62 41 63 34 64 36 65 37 66
REMARK SMILES IDX 38 67 39 68 63 69 64 70 72 71 65 72 67 73 73 74 66 75 68 76
REMARK SMILES IDX 69 77 70 78 71 79 48 80 49 81 57 82 50 83 52 84 58 85 51 86
REMARK SMILES IDX 53 87 54 88 55 89 56 90
REMARK H PARENT 87 14 78 43 46 54
REMARK Flexibility Score: inf
ROOT
ATOM      1  C   UNL A   1      32.559  28.872  25.059  1.00  0.00     0.202 C 
ENDROOT
BRANCH   1   2
ATOM      2  O   UNL A   1      31.825  28.591  23.866  1.00  0.00    -0.374 OA
BRANCH   2   3
ATOM      3  C   UNL A   1      30.490  28.103  24.031  1.00  0.00     0.202 C 
BRANCH   3   4
ATOM      4  C   UNL A   1      30.339  26.580  24.003  1.00  0.00     0.261 C 
BRANCH   4   5
ATOM      5  O   UNL A   1      29.924  26.087  25.288  1.00  0.00    -0.459 OA
BRANCH   5   6
ATOM      6  C   UNL A   1      30.917  25.723  26.130  1.00  0.00     0.345 C 
ATOM      7  O   UNL A   1      31.386  26.414  27.027  1.00  0.00    -0.246 OA
BRANCH   6   8
ATOM      8  C   UNL A   1      31.286  24.312  25.944  1.00  0.00     0.143 A 
ATOM      9  C   UNL A   1      32.109  21.806  25.246  1.00  0.00     0.141 A 
ATOM     10  N   UNL A   1      32.801  22.807  24.812  1.00  0.00    -0.237 NA
ATOM     11  N   UNL A   1      31.050  21.930  26.102  1.00  0.00    -0.306 N 
ATOM     12  C   UNL A   1      32.349  24.055  25.166  1.00  0.00     0.135 A 
ATOM     13  C   UNL A   1      30.602  23.150  26.537  1.00  0.00     0.265 A 
ATOM     14  H   UNL A   1      30.593  21.117  26.415  1.00  0.00     0.171 HD
ATOM     15  O   UNL A   1      29.682  23.234  27.339  1.00  0.00    -0.269 OA
BRANCH   9  16
ATOM     16  C   UNL A   1      32.419  20.473  24.760  1.00  0.00     0.031 A 
ATOM     17  C   UNL A   1      31.941  20.823  22.220  1.00  0.00     0.046 C 
ATOM     18  C   UNL A   1      32.306  19.986  23.404  1.00  0.00    -0.029 A 
ATOM     19  C   UNL A   1      32.583  18.633  23.334  1.00  0.00     0.069 A 
ATOM     20  S   UNL A   1      32.993  17.957  24.845  1.00  0.00    -0.151 S 
ATOM     21  C   UNL A   1      32.802  19.461  25.624  1.00  0.00     0.077 A 
ENDBRANCH   9  16
ENDBRANCH   6   8
ENDBRANCH   5   6
ENDBRANCH   4   5
ENDBRANCH   3   4
ENDBRANCH   2   3
ENDBRANCH   1   2
BRANCH   1  22
ATOM     22  C   UNL A   1      32.370  30.269  25.660  1.00  0.00     0.261 C 
BRANCH  22  23
ATOM     23  O   UNL A   1      32.766  30.315  27.041  1.00  0.00    -0.460 OA
BRANCH  23  24
ATOM     24  C   UNL A   1      33.445  31.431  27.393  1.00  0.00     0.338 C 
ATOM     25  O   UNL A   1      32.980  32.555  27.542  1.00  0.00    -0.246 OA
BRANCH  24  26
ATOM     26  C   UNL A   1      34.839  31.104  27.749  1.00  0.00     0.060 A 
ATOM     27  C   UNL A   1      35.150  29.748  27.917  1.00  0.00     0.016 A 
ATOM     28  C   UNL A   1      35.802  32.086  27.993  1.00  0.00     0.016 A 
ATOM     29  C   UNL A   1      36.397  29.374  28.406  1.00  0.00     0.010 A 
ATOM     30  C   UNL A   1      37.058  31.707  28.485  1.00  0.00     0.010 A 
ATOM     31  C   UNL A   1      37.341  30.354  28.741  1.00  0.00    -0.014 A 
BRANCH  31  32
ATOM     32  C   UNL A   1      38.550  29.950  29.501  1.00  0.00     0.031 A 
ATOM     33  C   UNL A   1      38.725  30.438  30.914  1.00  0.00     0.074 A 
ATOM     34  C   UNL A   1      39.452  29.112  28.959  1.00  0.00     0.049 A 
ATOM     35  N   UNL A   1      39.655  30.139  31.783  1.00  0.00    -0.248 NA
ATOM     36  C   UNL A   1      37.718  31.388  31.416  1.00  0.00     0.031 C 
ATOM     37  C   UNL A   1      39.398  28.576  27.601  1.00  0.00     0.029 A 
ATOM     38  N   UNL A   1      40.597  28.571  29.490  1.00  0.00    -0.354 N 
ATOM     39  C   UNL A   1      39.359  30.873  32.925  1.00  0.00     0.074 A 
ATOM     40  C   UNL A   1      38.174  31.651  32.632  1.00  0.00     0.031 C 
ATOM     41  C   UNL A   1      40.469  27.790  27.400  1.00  0.00     0.029 A 
ATOM     42  C   UNL A   1      41.288  27.772  28.610  1.00  0.00     0.049 A 
ATOM     43  H   UNL A   1      40.893  28.737  30.414  1.00  0.00     0.167 HD
ATOM     44  C   UNL A   1      39.995  30.882  34.120  1.00  0.00     0.034 A 
ATOM     45  C   UNL A   1      42.448  27.105  28.766  1.00  0.00     0.034 A 
ATOM     46  C   UNL A   1      41.159  30.092  34.420  1.00  0.00     0.049 A 
ATOM     47  C   UNL A   1      43.139  27.131  30.104  1.00  0.00     0.074 A 
ATOM     48  C   UNL A   1      41.853  29.999  35.613  1.00  0.00     0.029 A 
ATOM     49  N   UNL A   1      41.805  29.263  33.516  1.00  0.00    -0.354 N 
ATOM     50  N   UNL A   1      42.771  27.726  31.213  1.00  0.00    -0.248 NA
ATOM     51  C   UNL A   1      44.383  26.356  30.226  1.00  0.00     0.031 C 
ATOM     52  C   UNL A   1      42.931  29.127  35.425  1.00  0.00     0.029 A 
ATOM     53  C   UNL A   1      42.894  28.659  34.122  1.00  0.00     0.049 A 
ATOM     54  H   UNL A   1      41.530  29.125  32.580  1.00  0.00     0.167 HD
ATOM     55  C   UNL A   1      43.712  27.366  32.172  1.00  0.00     0.074 A 
ATOM     56  C   UNL A   1      44.659  26.487  31.517  1.00  0.00     0.031 C 
ATOM     57  C   UNL A   1      43.793  27.738  33.474  1.00  0.00     0.034 A 
BRANCH  44  58
ATOM     58  C   UNL A   1      39.423  31.750  35.210  1.00  0.00     0.023 A 
ATOM     59  C   UNL A   1      38.462  31.213  36.091  1.00  0.00     0.012 A 
ATOM     60  C   UNL A   1      39.867  33.073  35.395  1.00  0.00     0.148 A 
ATOM     61  C   UNL A   1      37.929  31.989  37.120  1.00  0.00     0.002 A 
ATOM     62  C   UNL A   1      39.361  33.827  36.448  1.00  0.00     0.091 A 
ATOM     63  F   UNL A   1      40.762  33.575  34.533  1.00  0.00    -0.205 F 
ATOM     64  C   UNL A   1      38.386  33.290  37.305  1.00  0.00     0.022 A 
BRANCH  62  65
ATOM     65  S   UNL A   1      39.942  35.487  36.813  1.00  0.00     0.127 S 
ATOM     66  O   UNL A   1      41.385  35.277  36.922  1.00  0.00    -0.237 OA
ATOM     67  O   UNL A   1      39.524  36.231  35.624  1.00  0.00    -0.237 OA
ATOM     68  O   UNL A   1      39.271  35.884  38.042  1.00  0.00    -0.744 OA
ENDBRANCH  62  65
ENDBRANCH  44  58
BRANCH  45  69
ATOM     69  C   UNL A   1      42.995  26.297  27.639  1.00  0.00     0.023 A 
ATOM     70  C   UNL A   1      43.791  26.922  26.658  1.00  0.00     0.012 A 
ATOM     71  C   UNL A   1      42.753  24.912  27.548  1.00  0.00     0.148 A 
ATOM     72  C   UNL A   1      44.311  26.188  25.592  1.00  0.00     0.002 A 
ATOM     73  C   UNL A   1      43.318  24.178  26.513  1.00  0.00     0.091 A 
ATOM     74  F   UNL A   1      41.978  24.341  28.481  1.00  0.00    -0.205 F 
ATOM     75  C   UNL A   1      44.084  24.816  25.525  1.00  0.00     0.022 A 
BRANCH  73  76
ATOM     76  S   UNL A   1      43.184  22.389  26.419  1.00  0.00     0.127 S 
ATOM     77  O   UNL A   1      42.236  22.217  25.321  1.00  0.00    -0.237 OA
ATOM     78  O   UNL A   1      44.561  21.998  26.112  1.00  0.00    -0.237 OA
ATOM     79  O   UNL A   1      42.717  21.961  27.731  1.00  0.00    -0.744 OA
ENDBRANCH  73  76
ENDBRANCH  45  69
BRANCH  57  80
ATOM     80  C   UNL A   1      44.917  27.167  34.299  1.00  0.00     0.023 A 
ATOM     81  C   UNL A   1      46.161  27.826  34.341  1.00  0.00     0.012 A 
ATOM     82  C   UNL A   1      44.716  26.020  35.092  1.00  0.00     0.148 A 
ATOM     83  C   UNL A   1      47.199  27.334  35.133  1.00  0.00     0.002 A 
ATOM     84  C   UNL A   1      45.739  25.563  35.915  1.00  0.00     0.091 A 
ATOM     85  F   UNL A   1      43.532  25.394  35.026  1.00  0.00    -0.205 F 
ATOM     86  C   UNL A   1      46.984  26.211  35.928  1.00  0.00     0.022 A 
BRANCH  84  87
ATOM     87  S   UNL A   1      45.515  24.180  37.042  1.00  0.00     0.127 S 
ATOM     88  O   UNL A   1      46.846  24.056  37.630  1.00  0.00    -0.237 OA
ATOM     89  O   UNL A   1      44.489  24.685  37.957  1.00  0.00    -0.237 OA
ATOM     90  O   UNL A   1      45.084  23.060  36.215  1.00  0.00    -0.744 OA
ENDBRANCH  84  87
ENDBRANCH  57  80
ENDBRANCH  31  32
ENDBRANCH  24  26
ENDBRANCH  23  24
ENDBRANCH  22  23
ENDBRANCH   1  22
TORSDOF 18
ENDMDL
MODEL 3
REMARK VINA RESULT:     -11.1      1.993      2.411
REMARK SMILES Cc1cscc1-c1ncc(C(=O)OCCOCCOC(=O)c2ccc(-c3c4nc(c(-c5cccc(S(=O)(=O)[O-])c5F)c5ccc([nH]5)c(-c5cccc(S(=O)(=O)[O-])c5F)c5nc(c(-c6cccc(S(=O)(=O)[O-])c6F)c6ccc3[nH]6)C=C5)C=C4)cc2)c(=O)[nH]1
REMARK SMILES IDX 17 1 16 2 15 3 14 4 13 5 11 6 12 7 10 8 7 9 8 10 87 11 9 12
REMARK SMILES IDX 85 13 86 15 6 16 1 17 2 18 3 19 4 20 5 21 18 22 19 23 20 24
REMARK SMILES IDX 21 25 22 26 23 27 84 28 24 29 83 30 25 31 26 32 27 33 77 34
REMARK SMILES IDX 28 35 82 36 76 37 78 38 29 39 81 40 75 41 74 42 30 44 62 45
REMARK SMILES IDX 42 46 61 47 43 48 46 49 60 50 79 51 44 52 45 53 59 55 80 56
REMARK SMILES IDX 47 57 31 58 32 59 40 60 33 61 35 62 41 63 34 64 36 65 37 66
REMARK SMILES IDX 38 67 39 68 63 69 64 70 72 71 65 72 67 73 73 74 66 75 68 76
REMARK SMILES IDX 69 77 70 78 71 79 48 80 49 81 57 82 50 83 52 84 58 85 51 86
REMARK SMILES IDX 53 87 54 88 55 89 56 90
REMARK H PARENT 87 14 78 43 46 54
REMARK Flexibility Score: inf
ROOT
ATOM      1  C   UNL A   1      35.985  20.761  25.002  1.00  0.00     0.202 C 
ENDROOT
BRANCH   1   2
ATOM      2  O   UNL A   1      35.019  19.713  24.921  1.00  0.00    -0.374 OA
BRANCH   2   3
ATOM      3  C   UNL A   1      33.684  20.093  24.571  1.00  0.00     0.202 C 
BRANCH   3   4
ATOM      4  C   UNL A   1      32.851  20.688  25.709  1.00  0.00     0.261 C 
BRANCH   4   5
ATOM      5  O   UNL A   1      33.332  21.996  26.060  1.00  0.00    -0.459 OA
BRANCH   5   6
ATOM      6  C   UNL A   1      32.546  22.710  26.897  1.00  0.00     0.345 C 
ATOM      7  O   UNL A   1      32.461  22.553  28.109  1.00  0.00    -0.246 OA
BRANCH   6   8
ATOM      8  C   UNL A   1      31.894  23.826  26.197  1.00  0.00     0.143 A 
ATOM      9  C   UNL A   1      31.046  26.044  24.853  1.00  0.00     0.141 A 
ATOM     10  N   UNL A   1      32.199  25.553  24.534  1.00  0.00    -0.237 NA
ATOM     11  N   UNL A   1      30.198  25.464  25.754  1.00  0.00    -0.306 N 
ATOM     12  C   UNL A   1      32.604  24.449  25.243  1.00  0.00     0.135 A 
ATOM     13  C   UNL A   1      30.529  24.323  26.439  1.00  0.00     0.265 A 
ATOM     14  H   UNL A   1      29.322  25.880  25.919  1.00  0.00     0.171 HD
ATOM     15  O   UNL A   1      29.735  23.797  27.205  1.00  0.00    -0.269 OA
BRANCH   9  16
ATOM     16  C   UNL A   1      30.640  27.313  24.277  1.00  0.00     0.031 A 
ATOM     17  C   UNL A   1      32.204  28.912  25.620  1.00  0.00     0.046 C 
ATOM     18  C   UNL A   1      31.111  28.631  24.639  1.00  0.00    -0.029 A 
ATOM     19  C   UNL A   1      30.419  29.614  23.955  1.00  0.00     0.069 A 
ATOM     20  S   UNL A   1      29.249  28.986  22.885  1.00  0.00    -0.151 S 
ATOM     21  C   UNL A   1      29.641  27.385  23.320  1.00  0.00     0.077 A 
ENDBRANCH   9  16
ENDBRANCH   6   8
ENDBRANCH   5   6
ENDBRANCH   4   5
ENDBRANCH   3   4
ENDBRANCH   2   3
ENDBRANCH   1   2
BRANCH   1  22
ATOM     22  C   UNL A   1      37.457  20.335  24.978  1.00  0.00     0.261 C 
BRANCH  22  23
ATOM     23  O   UNL A   1      38.340  21.445  25.209  1.00  0.00    -0.460 OA
BRANCH  23  24
ATOM     24  C   UNL A   1      39.376  21.174  26.036  1.00  0.00     0.338 C 
ATOM     25  O   UNL A   1      40.004  20.124  26.103  1.00  0.00    -0.246 OA
BRANCH  24  26
ATOM     26  C   UNL A   1      39.792  22.386  26.766  1.00  0.00     0.060 A 
ATOM     27  C   UNL A   1      39.128  23.579  26.447  1.00  0.00     0.016 A 
ATOM     28  C   UNL A   1      40.849  22.388  27.680  1.00  0.00     0.016 A 
ATOM     29  C   UNL A   1      39.571  24.786  26.976  1.00  0.00     0.010 A 
ATOM     30  C   UNL A   1      41.293  23.605  28.212  1.00  0.00     0.010 A 
ATOM     31  C   UNL A   1      40.688  24.813  27.822  1.00  0.00    -0.014 A 
BRANCH  31  32
ATOM     32  C   UNL A   1      41.297  26.124  28.158  1.00  0.00     0.031 A 
ATOM     33  C   UNL A   1      42.694  26.427  27.685  1.00  0.00     0.074 A 
ATOM     34  C   UNL A   1      40.594  27.056  28.827  1.00  0.00     0.049 A 
ATOM     35  N   UNL A   1      43.381  27.534  27.790  1.00  0.00    -0.248 NA
ATOM     36  C   UNL A   1      43.411  25.338  27.001  1.00  0.00     0.031 C 
ATOM     37  C   UNL A   1      39.238  26.881  29.344  1.00  0.00     0.029 A 
ATOM     38  N   UNL A   1      40.932  28.336  29.192  1.00  0.00    -0.354 N 
ATOM     39  C   UNL A   1      44.614  27.274  27.204  1.00  0.00     0.074 A 
ATOM     40  C   UNL A   1      44.590  25.895  26.764  1.00  0.00     0.031 C 
ATOM     41  C   UNL A   1      38.861  28.009  29.969  1.00  0.00     0.029 A 
ATOM     42  C   UNL A   1      39.950  28.982  29.905  1.00  0.00     0.049 A 
ATOM     43  H   UNL A   1      41.794  28.751  28.963  1.00  0.00     0.167 HD
ATOM     44  C   UNL A   1      45.662  28.111  27.022  1.00  0.00     0.034 A 
ATOM     45  C   UNL A   1      39.935  30.218  30.443  1.00  0.00     0.034 A 
ATOM     46  C   UNL A   1      45.678  29.487  27.438  1.00  0.00     0.049 A 
ATOM     47  C   UNL A   1      41.114  31.129  30.229  1.00  0.00     0.074 A 
ATOM     48  C   UNL A   1      46.676  30.428  27.263  1.00  0.00     0.029 A 
ATOM     49  N   UNL A   1      44.649  30.118  28.120  1.00  0.00    -0.354 N 
ATOM     50  N   UNL A   1      42.218  30.908  29.556  1.00  0.00    -0.248 NA
ATOM     51  C   UNL A   1      41.027  32.478  30.809  1.00  0.00     0.031 C 
ATOM     52  C   UNL A   1      46.258  31.625  27.855  1.00  0.00     0.029 A 
ATOM     53  C   UNL A   1      44.989  31.435  28.378  1.00  0.00     0.049 A 
ATOM     54  H   UNL A   1      43.801  29.692  28.381  1.00  0.00     0.167 HD
ATOM     55  C   UNL A   1      42.937  32.099  29.598  1.00  0.00     0.074 A 
ATOM     56  C   UNL A   1      42.135  33.043  30.348  1.00  0.00     0.031 C 
ATOM     57  C   UNL A   1      44.155  32.382  29.073  1.00  0.00     0.034 A 
BRANCH  44  58
ATOM     58  C   UNL A   1      46.872  27.568  26.307  1.00  0.00     0.023 A 
ATOM     59  C   UNL A   1      47.752  26.704  26.991  1.00  0.00     0.012 A 
ATOM     60  C   UNL A   1      47.113  27.868  24.952  1.00  0.00     0.148 A 
ATOM     61  C   UNL A   1      48.870  26.173  26.347  1.00  0.00     0.002 A 
ATOM     62  C   UNL A   1      48.206  27.302  24.306  1.00  0.00     0.091 A 
ATOM     63  F   UNL A   1      46.280  28.711  24.326  1.00  0.00    -0.205 F 
ATOM     64  C   UNL A   1      49.090  26.463  25.004  1.00  0.00     0.022 A 
BRANCH  62  65
ATOM     65  S   UNL A   1      48.531  27.556  22.558  1.00  0.00     0.127 S 
ATOM     66  O   UNL A   1      49.803  28.276  22.596  1.00  0.00    -0.237 OA
ATOM     67  O   UNL A   1      48.621  26.185  22.056  1.00  0.00    -0.237 OA
ATOM     68  O   UNL A   1      47.397  28.314  22.047  1.00  0.00    -0.744 OA
ENDBRANCH  62  65
ENDBRANCH  44  58
BRANCH  45  69
ATOM     69  C   UNL A   1      38.729  30.689  31.181  1.00  0.00     0.023 A 
ATOM     70  C   UNL A   1      38.675  30.554  32.583  1.00  0.00     0.012 A 
ATOM     71  C   UNL A   1      37.648  31.291  30.507  1.00  0.00     0.148 A 
ATOM     72  C   UNL A   1      37.556  30.985  33.296  1.00  0.00     0.002 A 
ATOM     73  C   UNL A   1      36.560  31.765  31.229  1.00  0.00     0.091 A 
ATOM     74  F   UNL A   1      37.711  31.393  29.172  1.00  0.00    -0.205 F 
ATOM     75  C   UNL A   1      36.504  31.599  32.621  1.00  0.00     0.022 A 
BRANCH  73  76
ATOM     76  S   UNL A   1      35.221  32.681  30.458  1.00  0.00     0.127 S 
ATOM     77  O   UNL A   1      34.263  32.792  31.555  1.00  0.00    -0.237 OA
ATOM     78  O   UNL A   1      35.885  33.934  30.090  1.00  0.00    -0.237 OA
ATOM     79  O   UNL A   1      34.795  31.873  29.323  1.00  0.00    -0.744 OA
ENDBRANCH  73  76
ENDBRANCH  45  69
BRANCH  57  80
ATOM     80  C   UNL A   1      44.688  33.780  29.249  1.00  0.00     0.023 A 
ATOM     81  C   UNL A   1      44.406  34.765  28.282  1.00  0.00     0.012 A 
ATOM     82  C   UNL A   1      45.403  34.137  30.409  1.00  0.00     0.148 A 
ATOM     83  C   UNL A   1      44.856  36.075  28.450  1.00  0.00     0.002 A 
ATOM     84  C   UNL A   1      45.808  35.454  30.592  1.00  0.00     0.091 A 
ATOM     85  F   UNL A   1      45.680  33.183  31.310  1.00  0.00    -0.205 F 
ATOM     86  C   UNL A   1      45.546  36.421  29.609  1.00  0.00     0.022 A 
BRANCH  84  87
ATOM     87  S   UNL A   1      46.617  36.006  32.099  1.00  0.00     0.127 S 
ATOM     88  O   UNL A   1      47.848  35.220  32.083  1.00  0.00    -0.237 OA
ATOM     89  O   UNL A   1      46.804  37.437  31.848  1.00  0.00    -0.237 OA
ATOM     90  O   UNL A   1      45.690  35.703  33.182  1.00  0.00    -0.744 OA
ENDBRANCH  84  87
ENDBRANCH  57  80
ENDBRANCH  31  32
ENDBRANCH  24  26
ENDBRANCH  23  24
ENDBRANCH  22  23
ENDBRANCH   1  22
TORSDOF 18
ENDMDL
