MODEL 1
REMARK VINA RESULT:     -10.7      0.000      0.000
REMARK SMILES Cc1cc(C)c2c(=O)n(CCCC(=O)OCCOCCOC(=O)c3ccc(-c4c5nc(c(-c6cccc(S(=O)(=O)[O-])c6F)c6ccc([nH]6)c(-c6cccc(S(=O)(=O)[O-])c6F)c6nc(c(-c7cccc(S(=O)(=O)[O-])c7F)c7ccc4[nH]7)C=C6)C=C5)cc3)sc2n1
REMARK SMILES IDX 18 1 17 2 16 3 15 4 13 5 14 6 12 7 11 8 10 9 9 10 1 11 2 12
REMARK SMILES IDX 3 13 89 14 4 15 88 16 5 17 6 18 87 19 7 20 8 21 19 22 20 23
REMARK SMILES IDX 21 24 22 25 23 26 24 27 25 28 86 29 26 30 85 31 27 32 28 33
REMARK SMILES IDX 29 34 79 35 30 36 84 37 78 38 80 39 31 40 83 41 77 42 76 43
REMARK SMILES IDX 32 45 64 46 44 47 63 48 45 49 48 50 62 51 81 52 46 53 47 54
REMARK SMILES IDX 61 56 82 57 49 58 33 59 34 60 42 61 35 62 37 63 43 64 36 65
REMARK SMILES IDX 38 66 39 67 40 68 41 69 65 70 66 71 74 72 67 73 69 74 75 75
REMARK SMILES IDX 68 76 70 77 71 78 72 79 73 80 50 81 51 82 59 83 52 84 54 85
REMARK SMILES IDX 60 86 53 87 55 88 56 89 57 90 58 91
REMARK H PARENT 80 44 48 55
REMARK Flexibility Score: inf
ROOT
ATOM      1  O   UNL A   1      32.731  30.438  26.233  1.00  0.00    -0.374 OA
ENDROOT
BRANCH   1   2
ATOM      2  C   UNL A   1      31.692  29.548  25.819  1.00  0.00     0.202 C 
BRANCH   2   3
ATOM      3  C   UNL A   1      31.739  29.066  24.373  1.00  0.00     0.261 C 
BRANCH   3   4
ATOM      4  O   UNL A   1      30.490  29.334  23.721  1.00  0.00    -0.463 OA
BRANCH   4   5
ATOM      5  C   UNL A   1      30.022  28.383  22.879  1.00  0.00     0.305 C 
ATOM      6  O   UNL A   1      30.442  28.179  21.746  1.00  0.00    -0.252 OA
BRANCH   5   7
ATOM      7  C   UNL A   1      28.918  27.543  23.492  1.00  0.00     0.124 C 
BRANCH   7   8
ATOM      8  C   UNL A   1      29.234  26.148  24.049  1.00  0.00     0.035 C 
BRANCH   8   9
ATOM      9  C   UNL A   1      29.983  26.019  25.388  1.00  0.00     0.139 C 
BRANCH   9  10
ATOM     10  N   UNL A   1      31.196  25.228  25.341  1.00  0.00    -0.262 N 
ATOM     11  C   UNL A   1      37.050  23.735  24.984  1.00  0.00     0.067 C 
ATOM     12  C   UNL A   1      35.594  23.670  25.325  1.00  0.00     0.039 A 
ATOM     13  C   UNL A   1      35.137  22.964  26.449  1.00  0.00     0.027 A 
ATOM     14  N   UNL A   1      34.776  24.394  24.532  1.00  0.00    -0.241 NA
ATOM     15  C   UNL A   1      33.786  23.039  26.827  1.00  0.00    -0.033 A 
ATOM     16  C   UNL A   1      33.496  24.454  24.929  1.00  0.00     0.146 A 
ATOM     17  C   UNL A   1      33.253  22.244  27.977  1.00  0.00     0.045 C 
ATOM     18  C   UNL A   1      32.977  23.876  26.072  1.00  0.00     0.081 A 
ATOM     19  S   UNL A   1      32.272  25.333  24.017  1.00  0.00    -0.035 S 
ATOM     20  C   UNL A   1      31.606  24.360  26.346  1.00  0.00     0.270 A 
ATOM     21  O   UNL A   1      30.994  24.085  27.364  1.00  0.00    -0.268 OA
ENDBRANCH   9  10
ENDBRANCH   8   9
ENDBRANCH   7   8
ENDBRANCH   5   7
ENDBRANCH   4   5
ENDBRANCH   3   4
ENDBRANCH   2   3
ENDBRANCH   1   2
BRANCH   1  22
ATOM     22  C   UNL A   1      32.460  31.417  27.234  1.00  0.00     0.202 C 
BRANCH  22  23
ATOM     23  C   UNL A   1      33.640  32.179  27.818  1.00  0.00     0.261 C 
BRANCH  23  24
ATOM     24  O   UNL A   1      33.429  33.582  27.798  1.00  0.00    -0.460 OA
BRANCH  24  25
ATOM     25  C   UNL A   1      33.506  34.156  29.023  1.00  0.00     0.338 C 
ATOM     26  O   UNL A   1      32.616  34.718  29.629  1.00  0.00    -0.246 OA
BRANCH  25  27
ATOM     27  C   UNL A   1      34.902  34.126  29.466  1.00  0.00     0.060 A 
ATOM     28  C   UNL A   1      35.860  34.280  28.464  1.00  0.00     0.016 A 
ATOM     29  C   UNL A   1      35.216  33.627  30.739  1.00  0.00     0.016 A 
ATOM     30  C   UNL A   1      37.085  33.693  28.653  1.00  0.00     0.010 A 
ATOM     31  C   UNL A   1      36.437  33.037  30.925  1.00  0.00     0.010 A 
ATOM     32  C   UNL A   1      37.310  32.993  29.843  1.00  0.00    -0.014 A 
BRANCH  32  33
ATOM     33  C   UNL A   1      38.552  32.273  29.972  1.00  0.00     0.031 A 
ATOM     34  C   UNL A   1      38.406  30.881  29.506  1.00  0.00     0.074 A 
ATOM     35  C   UNL A   1      39.677  32.883  30.395  1.00  0.00     0.049 A 
ATOM     36  N   UNL A   1      38.361  29.817  30.235  1.00  0.00    -0.248 NA
ATOM     37  C   UNL A   1      38.012  30.666  28.102  1.00  0.00     0.031 C 
ATOM     38  C   UNL A   1      39.886  34.327  30.569  1.00  0.00     0.029 A 
ATOM     39  N   UNL A   1      40.917  32.368  30.610  1.00  0.00    -0.354 N 
ATOM     40  C   UNL A   1      38.229  28.778  29.320  1.00  0.00     0.074 A 
ATOM     41  C   UNL A   1      37.747  29.359  28.099  1.00  0.00     0.031 C 
ATOM     42  C   UNL A   1      41.215  34.581  30.578  1.00  0.00     0.029 A 
ATOM     43  C   UNL A   1      41.932  33.320  30.547  1.00  0.00     0.049 A 
ATOM     44  H   UNL A   1      41.081  31.414  30.793  1.00  0.00     0.167 HD
ATOM     45  C   UNL A   1      38.882  27.603  29.520  1.00  0.00     0.034 A 
ATOM     46  C   UNL A   1      43.252  33.061  30.361  1.00  0.00     0.034 A 
ATOM     47  C   UNL A   1      39.395  27.519  30.859  1.00  0.00     0.049 A 
ATOM     48  C   UNL A   1      43.473  31.649  30.747  1.00  0.00     0.074 A 
ATOM     49  C   UNL A   1      38.879  27.306  32.116  1.00  0.00     0.029 A 
ATOM     50  N   UNL A   1      40.623  28.112  31.003  1.00  0.00    -0.354 N 
ATOM     51  N   UNL A   1      43.324  31.204  31.964  1.00  0.00    -0.248 NA
ATOM     52  C   UNL A   1      43.513  30.629  29.705  1.00  0.00     0.031 C 
ATOM     53  C   UNL A   1      39.778  27.939  33.020  1.00  0.00     0.029 A 
ATOM     54  C   UNL A   1      40.843  28.482  32.300  1.00  0.00     0.049 A 
ATOM     55  H   UNL A   1      41.263  28.253  30.269  1.00  0.00     0.167 HD
ATOM     56  C   UNL A   1      42.801  29.935  31.790  1.00  0.00     0.074 A 
ATOM     57  C   UNL A   1      43.114  29.569  30.414  1.00  0.00     0.031 C 
ATOM     58  C   UNL A   1      41.870  29.440  32.654  1.00  0.00     0.034 A 
BRANCH  45  59
ATOM     59  C   UNL A   1      39.477  26.762  28.417  1.00  0.00     0.023 A 
ATOM     60  C   UNL A   1      39.071  25.414  28.339  1.00  0.00     0.012 A 
ATOM     61  C   UNL A   1      40.592  27.142  27.632  1.00  0.00     0.148 A 
ATOM     62  C   UNL A   1      39.738  24.496  27.519  1.00  0.00     0.002 A 
ATOM     63  C   UNL A   1      41.190  26.253  26.749  1.00  0.00     0.091 A 
ATOM     64  F   UNL A   1      41.181  28.323  27.838  1.00  0.00    -0.205 F 
ATOM     65  C   UNL A   1      40.784  24.919  26.707  1.00  0.00     0.022 A 
BRANCH  63  66
ATOM     66  S   UNL A   1      42.504  26.768  25.635  1.00  0.00     0.127 S 
ATOM     67  O   UNL A   1      42.693  25.569  24.825  1.00  0.00    -0.237 OA
ATOM     68  O   UNL A   1      41.876  27.893  24.942  1.00  0.00    -0.237 OA
ATOM     69  O   UNL A   1      43.621  27.145  26.492  1.00  0.00    -0.744 OA
ENDBRANCH  63  66
ENDBRANCH  45  59
BRANCH  46  70
ATOM     70  C   UNL A   1      44.259  33.803  29.557  1.00  0.00     0.023 A 
ATOM     71  C   UNL A   1      45.462  34.212  30.173  1.00  0.00     0.012 A 
ATOM     72  C   UNL A   1      44.200  33.817  28.146  1.00  0.00     0.148 A 
ATOM     73  C   UNL A   1      46.587  34.552  29.411  1.00  0.00     0.002 A 
ATOM     74  C   UNL A   1      45.321  34.152  27.393  1.00  0.00     0.091 A 
ATOM     75  F   UNL A   1      43.078  33.407  27.540  1.00  0.00    -0.205 F 
ATOM     76  C   UNL A   1      46.522  34.504  28.022  1.00  0.00     0.022 A 
BRANCH  74  77
ATOM     77  S   UNL A   1      45.328  34.059  25.597  1.00  0.00     0.127 S 
ATOM     78  O   UNL A   1      44.147  34.850  25.249  1.00  0.00    -0.237 OA
ATOM     79  O   UNL A   1      46.605  34.688  25.271  1.00  0.00    -0.237 OA
ATOM     80  O   UNL A   1      45.218  32.643  25.272  1.00  0.00    -0.744 OA
ENDBRANCH  74  77
ENDBRANCH  46  70
BRANCH  58  81
ATOM     81  C   UNL A   1      41.797  30.035  34.028  1.00  0.00     0.023 A 
ATOM     82  C   UNL A   1      42.716  29.740  35.054  1.00  0.00     0.012 A 
ATOM     83  C   UNL A   1      40.855  31.058  34.223  1.00  0.00     0.148 A 
ATOM     84  C   UNL A   1      42.695  30.463  36.250  1.00  0.00     0.002 A 
ATOM     85  C   UNL A   1      40.877  31.813  35.383  1.00  0.00     0.091 A 
ATOM     86  F   UNL A   1      39.978  31.303  33.237  1.00  0.00    -0.205 F 
ATOM     87  C   UNL A   1      41.789  31.514  36.407  1.00  0.00     0.022 A 
BRANCH  85  88
ATOM     88  S   UNL A   1      39.844  33.268  35.565  1.00  0.00     0.127 S 
ATOM     89  O   UNL A   1      40.175  33.711  36.917  1.00  0.00    -0.237 OA
ATOM     90  O   UNL A   1      40.338  34.135  34.495  1.00  0.00    -0.237 OA
ATOM     91  O   UNL A   1      38.471  32.813  35.376  1.00  0.00    -0.744 OA
ENDBRANCH  85  88
ENDBRANCH  58  81
ENDBRANCH  32  33
ENDBRANCH  25  27
ENDBRANCH  24  25
ENDBRANCH  23  24
ENDBRANCH  22  23
ENDBRANCH   1  22
TORSDOF 20
ENDMDL
MODEL 2
REMARK VINA RESULT:     -10.0      3.596      7.167
REMARK SMILES Cc1cc(C)c2c(=O)n(CCCC(=O)OCCOCCOC(=O)c3ccc(-c4c5nc(c(-c6cccc(S(=O)(=O)[O-])c6F)c6ccc([nH]6)c(-c6cccc(S(=O)(=O)[O-])c6F)c6nc(c(-c7cccc(S(=O)(=O)[O-])c7F)c7ccc4[nH]7)C=C6)C=C5)cc3)sc2n1
REMARK SMILES IDX 18 1 17 2 16 3 15 4 13 5 14 6 12 7 11 8 10 9 9 10 1 11 2 12
REMARK SMILES IDX 3 13 89 14 4 15 88 16 5 17 6 18 87 19 7 20 8 21 19 22 20 23
REMARK SMILES IDX 21 24 22 25 23 26 24 27 25 28 86 29 26 30 85 31 27 32 28 33
REMARK SMILES IDX 29 34 79 35 30 36 84 37 78 38 80 39 31 40 83 41 77 42 76 43
REMARK SMILES IDX 32 45 64 46 44 47 63 48 45 49 48 50 62 51 81 52 46 53 47 54
REMARK SMILES IDX 61 56 82 57 49 58 33 59 34 60 42 61 35 62 37 63 43 64 36 65
REMARK SMILES IDX 38 66 39 67 40 68 41 69 65 70 66 71 74 72 67 73 69 74 75 75
REMARK SMILES IDX 68 76 70 77 71 78 72 79 73 80 50 81 51 82 59 83 52 84 54 85
REMARK SMILES IDX 60 86 53 87 55 88 56 89 57 90 58 91
REMARK H PARENT 80 44 48 55
REMARK Flexibility Score: inf
ROOT
ATOM      1  O   UNL A   1      32.796  30.936  26.878  1.00  0.00    -0.374 OA
ENDROOT
BRANCH   1   2
ATOM      2  C   UNL A   1      32.734  29.789  26.028  1.00  0.00     0.202 C 
BRANCH   2   3
ATOM      3  C   UNL A   1      33.689  28.645  26.351  1.00  0.00     0.261 C 
BRANCH   3   4
ATOM      4  O   UNL A   1      32.979  27.399  26.375  1.00  0.00    -0.463 OA
BRANCH   4   5
ATOM      5  C   UNL A   1      31.748  27.406  26.939  1.00  0.00     0.305 C 
ATOM      6  O   UNL A   1      31.489  27.848  28.052  1.00  0.00    -0.252 OA
BRANCH   5   7
ATOM      7  C   UNL A   1      30.679  26.830  26.032  1.00  0.00     0.124 C 
BRANCH   7   8
ATOM      8  C   UNL A   1      30.651  25.324  25.738  1.00  0.00     0.035 C 
BRANCH   8   9
ATOM      9  C   UNL A   1      31.570  24.747  24.646  1.00  0.00     0.139 C 
BRANCH   9  10
ATOM     10  N   UNL A   1      32.110  23.432  24.925  1.00  0.00    -0.262 N 
ATOM     11  C   UNL A   1      32.973  17.444  24.775  1.00  0.00     0.067 C 
ATOM     12  C   UNL A   1      33.245  18.907  24.938  1.00  0.00     0.039 A 
ATOM     13  C   UNL A   1      34.534  19.434  24.763  1.00  0.00     0.027 A 
ATOM     14  N   UNL A   1      32.165  19.677  25.184  1.00  0.00    -0.241 NA
ATOM     15  C   UNL A   1      34.734  20.825  24.779  1.00  0.00    -0.033 A 
ATOM     16  C   UNL A   1      32.389  21.000  25.182  1.00  0.00     0.146 A 
ATOM     17  C   UNL A   1      36.104  21.417  24.665  1.00  0.00     0.045 C 
ATOM     18  C   UNL A   1      33.601  21.612  24.919  1.00  0.00     0.081 A 
ATOM     19  S   UNL A   1      31.112  22.168  25.501  1.00  0.00    -0.035 S 
ATOM     20  C   UNL A   1      33.438  23.071  24.732  1.00  0.00     0.270 A 
ATOM     21  O   UNL A   1      34.345  23.801  24.372  1.00  0.00    -0.268 OA
ENDBRANCH   9  10
ENDBRANCH   8   9
ENDBRANCH   7   8
ENDBRANCH   5   7
ENDBRANCH   4   5
ENDBRANCH   3   4
ENDBRANCH   2   3
ENDBRANCH   1   2
BRANCH   1  22
ATOM     22  C   UNL A   1      33.979  31.190  27.632  1.00  0.00     0.202 C 
BRANCH  22  23
ATOM     23  C   UNL A   1      34.049  32.485  28.427  1.00  0.00     0.261 C 
BRANCH  23  24
ATOM     24  O   UNL A   1      35.378  32.803  28.808  1.00  0.00    -0.460 OA
BRANCH  24  25
ATOM     25  C   UNL A   1      35.919  31.911  29.673  1.00  0.00     0.338 C 
ATOM     26  O   UNL A   1      35.490  31.589  30.762  1.00  0.00    -0.246 OA
BRANCH  25  27
ATOM     27  C   UNL A   1      37.218  31.482  29.149  1.00  0.00     0.060 A 
ATOM     28  C   UNL A   1      37.238  30.237  28.520  1.00  0.00     0.016 A 
ATOM     29  C   UNL A   1      38.387  32.130  29.576  1.00  0.00     0.016 A 
ATOM     30  C   UNL A   1      38.409  29.523  28.549  1.00  0.00     0.010 A 
ATOM     31  C   UNL A   1      39.554  31.414  29.610  1.00  0.00     0.010 A 
ATOM     32  C   UNL A   1      39.517  30.090  29.189  1.00  0.00    -0.014 A 
BRANCH  32  33
ATOM     33  C   UNL A   1      40.699  29.276  29.326  1.00  0.00     0.031 A 
ATOM     34  C   UNL A   1      40.957  28.955  30.742  1.00  0.00     0.074 A 
ATOM     35  C   UNL A   1      41.380  28.839  28.248  1.00  0.00     0.049 A 
ATOM     36  N   UNL A   1      41.885  29.442  31.495  1.00  0.00    -0.248 NA
ATOM     37  C   UNL A   1      39.920  28.205  31.475  1.00  0.00     0.031 C 
ATOM     38  C   UNL A   1      40.952  28.911  26.845  1.00  0.00     0.029 A 
ATOM     39  N   UNL A   1      42.522  28.103  28.180  1.00  0.00    -0.354 N 
ATOM     40  C   UNL A   1      41.703  28.811  32.720  1.00  0.00     0.074 A 
ATOM     41  C   UNL A   1      40.360  28.304  32.730  1.00  0.00     0.031 C 
ATOM     42  C   UNL A   1      41.660  28.013  26.122  1.00  0.00     0.029 A 
ATOM     43  C   UNL A   1      42.668  27.414  26.978  1.00  0.00     0.049 A 
ATOM     44  H   UNL A   1      43.181  28.060  28.911  1.00  0.00     0.167 HD
ATOM     45  C   UNL A   1      42.777  28.428  33.459  1.00  0.00     0.034 A 
ATOM     46  C   UNL A   1      43.483  26.350  26.768  1.00  0.00     0.034 A 
ATOM     47  C   UNL A   1      43.985  29.029  32.965  1.00  0.00     0.049 A 
ATOM     48  C   UNL A   1      44.519  26.385  27.825  1.00  0.00     0.074 A 
ATOM     49  C   UNL A   1      44.564  30.277  32.992  1.00  0.00     0.029 A 
ATOM     50  N   UNL A   1      44.560  28.320  31.942  1.00  0.00    -0.354 N 
ATOM     51  N   UNL A   1      45.407  27.335  27.931  1.00  0.00    -0.248 NA
ATOM     52  C   UNL A   1      44.354  25.545  29.006  1.00  0.00     0.031 C 
ATOM     53  C   UNL A   1      45.401  30.343  31.843  1.00  0.00     0.029 A 
ATOM     54  C   UNL A   1      45.349  29.123  31.168  1.00  0.00     0.049 A 
ATOM     55  H   UNL A   1      44.423  27.358  31.786  1.00  0.00     0.167 HD
ATOM     56  C   UNL A   1      45.561  27.492  29.297  1.00  0.00     0.074 A 
ATOM     57  C   UNL A   1      45.049  26.263  29.891  1.00  0.00     0.031 C 
ATOM     58  C   UNL A   1      45.765  28.726  29.839  1.00  0.00     0.034 A 
BRANCH  45  59
ATOM     59  C   UNL A   1      42.832  27.170  34.292  1.00  0.00     0.023 A 
ATOM     60  C   UNL A   1      42.404  27.260  35.632  1.00  0.00     0.012 A 
ATOM     61  C   UNL A   1      43.519  25.990  33.916  1.00  0.00     0.148 A 
ATOM     62  C   UNL A   1      42.642  26.228  36.547  1.00  0.00     0.002 A 
ATOM     63  C   UNL A   1      43.669  24.931  34.800  1.00  0.00     0.091 A 
ATOM     64  F   UNL A   1      44.164  25.937  32.748  1.00  0.00    -0.205 F 
ATOM     65  C   UNL A   1      43.256  25.053  36.127  1.00  0.00     0.022 A 
BRANCH  63  66
ATOM     66  S   UNL A   1      44.398  23.369  34.288  1.00  0.00     0.127 S 
ATOM     67  O   UNL A   1      44.045  22.496  35.403  1.00  0.00    -0.237 OA
ATOM     68  O   UNL A   1      43.680  23.105  33.041  1.00  0.00    -0.237 OA
ATOM     69  O   UNL A   1      45.819  23.639  34.111  1.00  0.00    -0.744 OA
ENDBRANCH  63  66
ENDBRANCH  45  59
BRANCH  46  70
ATOM     70  C   UNL A   1      43.251  25.122  25.962  1.00  0.00     0.023 A 
ATOM     71  C   UNL A   1      44.200  24.752  24.985  1.00  0.00     0.012 A 
ATOM     72  C   UNL A   1      42.305  24.154  26.365  1.00  0.00     0.148 A 
ATOM     73  C   UNL A   1      44.250  23.447  24.481  1.00  0.00     0.002 A 
ATOM     74  C   UNL A   1      42.362  22.856  25.865  1.00  0.00     0.091 A 
ATOM     75  F   UNL A   1      41.413  24.473  27.312  1.00  0.00    -0.205 F 
ATOM     76  C   UNL A   1      43.344  22.494  24.935  1.00  0.00     0.022 A 
BRANCH  74  77
ATOM     77  S   UNL A   1      41.259  21.559  26.447  1.00  0.00     0.127 S 
ATOM     78  O   UNL A   1      41.779  20.385  25.745  1.00  0.00    -0.237 OA
ATOM     79  O   UNL A   1      41.511  21.576  27.884  1.00  0.00    -0.237 OA
ATOM     80  O   UNL A   1      39.921  21.960  26.033  1.00  0.00    -0.744 OA
ENDBRANCH  74  77
ENDBRANCH  46  70
BRANCH  58  81
ATOM     81  C   UNL A   1      46.318  29.802  28.953  1.00  0.00     0.023 A 
ATOM     82  C   UNL A   1      47.670  29.871  28.564  1.00  0.00     0.012 A 
ATOM     83  C   UNL A   1      45.388  30.673  28.363  1.00  0.00     0.148 A 
ATOM     84  C   UNL A   1      48.080  30.793  27.597  1.00  0.00     0.002 A 
ATOM     85  C   UNL A   1      45.787  31.541  27.360  1.00  0.00     0.091 A 
ATOM     86  F   UNL A   1      44.110  30.599  28.767  1.00  0.00    -0.205 F 
ATOM     87  C   UNL A   1      47.135  31.614  26.979  1.00  0.00     0.022 A 
BRANCH  85  88
ATOM     88  S   UNL A   1      44.589  32.499  26.431  1.00  0.00     0.127 S 
ATOM     89  O   UNL A   1      45.431  33.156  25.434  1.00  0.00    -0.237 OA
ATOM     90  O   UNL A   1      43.705  31.460  25.901  1.00  0.00    -0.237 OA
ATOM     91  O   UNL A   1      43.950  33.389  27.394  1.00  0.00    -0.744 OA
ENDBRANCH  85  88
ENDBRANCH  58  81
ENDBRANCH  32  33
ENDBRANCH  25  27
ENDBRANCH  24  25
ENDBRANCH  23  24
ENDBRANCH  22  23
ENDBRANCH   1  22
TORSDOF 20
ENDMDL
MODEL 3
REMARK VINA RESULT:     -10.0      3.306      7.792
REMARK SMILES Cc1cc(C)c2c(=O)n(CCCC(=O)OCCOCCOC(=O)c3ccc(-c4c5nc(c(-c6cccc(S(=O)(=O)[O-])c6F)c6ccc([nH]6)c(-c6cccc(S(=O)(=O)[O-])c6F)c6nc(c(-c7cccc(S(=O)(=O)[O-])c7F)c7ccc4[nH]7)C=C6)C=C5)cc3)sc2n1
REMARK SMILES IDX 18 1 17 2 16 3 15 4 13 5 14 6 12 7 11 8 10 9 9 10 1 11 2 12
REMARK SMILES IDX 3 13 89 14 4 15 88 16 5 17 6 18 87 19 7 20 8 21 19 22 20 23
REMARK SMILES IDX 21 24 22 25 23 26 24 27 25 28 86 29 26 30 85 31 27 32 28 33
REMARK SMILES IDX 29 34 79 35 30 36 84 37 78 38 80 39 31 40 83 41 77 42 76 43
REMARK SMILES IDX 32 45 64 46 44 47 63 48 45 49 48 50 62 51 81 52 46 53 47 54
REMARK SMILES IDX 61 56 82 57 49 58 33 59 34 60 42 61 35 62 37 63 43 64 36 65
REMARK SMILES IDX 38 66 39 67 40 68 41 69 65 70 66 71 74 72 67 73 69 74 75 75
REMARK SMILES IDX 68 76 70 77 71 78 72 79 73 80 50 81 51 82 59 83 52 84 54 85
REMARK SMILES IDX 60 86 53 87 55 88 56 89 57 90 58 91
REMARK H PARENT 80 44 48 55
REMARK Flexibility Score: inf
ROOT
ATOM      1  O   UNL A   1      32.285  28.796  25.907  1.00  0.00    -0.374 OA
ENDROOT
BRANCH   1   2
ATOM      2  C   UNL A   1      33.336  28.039  25.304  1.00  0.00     0.202 C 
BRANCH   2   3
ATOM      3  C   UNL A   1      34.021  26.998  26.183  1.00  0.00     0.261 C 
BRANCH   3   4
ATOM      4  O   UNL A   1      33.552  25.683  25.850  1.00  0.00    -0.463 OA
BRANCH   4   5
ATOM      5  C   UNL A   1      34.402  24.885  25.163  1.00  0.00     0.305 C 
ATOM      6  O   UNL A   1      35.476  24.475  25.586  1.00  0.00    -0.252 OA
BRANCH   5   7
ATOM      7  C   UNL A   1      33.877  24.503  23.793  1.00  0.00     0.124 C 
BRANCH   7   8
ATOM      8  C   UNL A   1      33.033  25.500  22.989  1.00  0.00     0.035 C 
BRANCH   8   9
ATOM      9  C   UNL A   1      31.498  25.394  23.023  1.00  0.00     0.139 C 
BRANCH   9  10
ATOM     10  N   UNL A   1      30.790  26.657  22.961  1.00  0.00    -0.262 N 
ATOM     11  C   UNL A   1      28.376  31.772  20.810  1.00  0.00     0.067 C 
ATOM     12  C   UNL A   1      28.597  30.566  21.668  1.00  0.00     0.039 A 
ATOM     13  C   UNL A   1      27.541  29.972  22.378  1.00  0.00     0.027 A 
ATOM     14  N   UNL A   1      29.845  30.055  21.647  1.00  0.00    -0.241 NA
ATOM     15  C   UNL A   1      27.745  28.760  23.059  1.00  0.00    -0.033 A 
ATOM     16  C   UNL A   1      30.002  28.892  22.297  1.00  0.00     0.146 A 
ATOM     17  C   UNL A   1      26.662  28.137  23.882  1.00  0.00     0.045 C 
ATOM     18  C   UNL A   1      29.001  28.185  22.937  1.00  0.00     0.081 A 
ATOM     19  S   UNL A   1      31.559  28.077  22.400  1.00  0.00    -0.035 S 
ATOM     20  C   UNL A   1      29.456  26.828  23.312  1.00  0.00     0.270 A 
ATOM     21  O   UNL A   1      28.713  25.981  23.776  1.00  0.00    -0.268 OA
ENDBRANCH   9  10
ENDBRANCH   8   9
ENDBRANCH   7   8
ENDBRANCH   5   7
ENDBRANCH   4   5
ENDBRANCH   3   4
ENDBRANCH   2   3
ENDBRANCH   1   2
BRANCH   1  22
ATOM     22  C   UNL A   1      32.452  30.199  26.104  1.00  0.00     0.202 C 
BRANCH  22  23
ATOM     23  C   UNL A   1      33.166  30.658  27.366  1.00  0.00     0.261 C 
BRANCH  23  24
ATOM     24  O   UNL A   1      34.577  30.615  27.224  1.00  0.00    -0.460 OA
BRANCH  24  25
ATOM     25  C   UNL A   1      35.212  31.640  27.842  1.00  0.00     0.338 C 
ATOM     26  O   UNL A   1      35.090  32.826  27.613  1.00  0.00    -0.246 OA
BRANCH  25  27
ATOM     27  C   UNL A   1      36.210  31.085  28.759  1.00  0.00     0.060 A 
ATOM     28  C   UNL A   1      37.259  31.938  29.104  1.00  0.00     0.016 A 
ATOM     29  C   UNL A   1      36.266  29.699  28.968  1.00  0.00     0.016 A 
ATOM     30  C   UNL A   1      38.467  31.372  29.422  1.00  0.00     0.010 A 
ATOM     31  C   UNL A   1      37.474  29.135  29.280  1.00  0.00     0.010 A 
ATOM     32  C   UNL A   1      38.573  29.977  29.401  1.00  0.00    -0.014 A 
BRANCH  32  33
ATOM     33  C   UNL A   1      39.879  29.401  29.610  1.00  0.00     0.031 A 
ATOM     34  C   UNL A   1      40.300  29.545  31.016  1.00  0.00     0.074 A 
ATOM     35  C   UNL A   1      40.530  28.761  28.619  1.00  0.00     0.049 A 
ATOM     36  N   UNL A   1      41.196  30.349  31.482  1.00  0.00    -0.248 NA
ATOM     37  C   UNL A   1      39.462  28.915  32.052  1.00  0.00     0.031 C 
ATOM     38  C   UNL A   1      39.982  28.361  27.316  1.00  0.00     0.029 A 
ATOM     39  N   UNL A   1      41.766  28.193  28.616  1.00  0.00    -0.354 N 
ATOM     40  C   UNL A   1      41.219  30.087  32.847  1.00  0.00     0.074 A 
ATOM     41  C   UNL A   1      39.982  29.433  33.165  1.00  0.00     0.031 C 
ATOM     42  C   UNL A   1      40.765  27.392  26.789  1.00  0.00     0.029 A 
ATOM     43  C   UNL A   1      41.923  27.208  27.644  1.00  0.00     0.049 A 
ATOM     44  H   UNL A   1      42.481  28.453  29.242  1.00  0.00     0.167 HD
ATOM     45  C   UNL A   1      42.398  30.081  33.523  1.00  0.00     0.034 A 
ATOM     46  C   UNL A   1      42.879  26.246  27.636  1.00  0.00     0.034 A 
ATOM     47  C   UNL A   1      43.448  30.664  32.734  1.00  0.00     0.049 A 
ATOM     48  C   UNL A   1      43.979  26.724  28.504  1.00  0.00     0.074 A 
ATOM     49  C   UNL A   1      43.818  31.930  32.342  1.00  0.00     0.029 A 
ATOM     50  N   UNL A   1      44.044  29.768  31.885  1.00  0.00    -0.354 N 
ATOM     51  N   UNL A   1      44.708  27.771  28.231  1.00  0.00    -0.248 NA
ATOM     52  C   UNL A   1      44.049  26.253  29.883  1.00  0.00     0.031 C 
ATOM     53  C   UNL A   1      44.537  31.765  31.124  1.00  0.00     0.029 A 
ATOM     54  C   UNL A   1      44.627  30.405  30.826  1.00  0.00     0.049 A 
ATOM     55  H   UNL A   1      44.052  28.793  32.020  1.00  0.00     0.167 HD
ATOM     56  C   UNL A   1      44.945  28.340  29.470  1.00  0.00     0.074 A 
ATOM     57  C   UNL A   1      44.689  27.284  30.440  1.00  0.00     0.031 C 
ATOM     58  C   UNL A   1      44.991  29.694  29.618  1.00  0.00     0.034 A 
BRANCH  45  59
ATOM     59  C   UNL A   1      42.724  29.141  34.658  1.00  0.00     0.023 A 
ATOM     60  C   UNL A   1      43.235  29.709  35.844  1.00  0.00     0.012 A 
ATOM     61  C   UNL A   1      42.807  27.733  34.534  1.00  0.00     0.148 A 
ATOM     62  C   UNL A   1      43.793  28.915  36.853  1.00  0.00     0.002 A 
ATOM     63  C   UNL A   1      43.274  26.944  35.576  1.00  0.00     0.091 A 
ATOM     64  F   UNL A   1      42.575  27.153  33.353  1.00  0.00    -0.205 F 
ATOM     65  C   UNL A   1      43.794  27.531  36.729  1.00  0.00     0.022 A 
BRANCH  63  66
ATOM     66  S   UNL A   1      43.237  25.148  35.489  1.00  0.00     0.127 S 
ATOM     67  O   UNL A   1      41.810  24.889  35.315  1.00  0.00    -0.237 OA
ATOM     68  O   UNL A   1      44.062  24.895  34.308  1.00  0.00    -0.237 OA
ATOM     69  O   UNL A   1      43.825  24.682  36.738  1.00  0.00    -0.744 OA
ENDBRANCH  63  66
ENDBRANCH  45  59
BRANCH  46  70
ATOM     70  C   UNL A   1      42.783  24.816  27.239  1.00  0.00     0.023 A 
ATOM     71  C   UNL A   1      41.522  24.181  27.263  1.00  0.00     0.012 A 
ATOM     72  C   UNL A   1      43.829  24.183  26.532  1.00  0.00     0.148 A 
ATOM     73  C   UNL A   1      41.293  22.997  26.551  1.00  0.00     0.002 A 
ATOM     74  C   UNL A   1      43.595  23.009  25.823  1.00  0.00     0.091 A 
ATOM     75  F   UNL A   1      45.025  24.781  26.472  1.00  0.00    -0.205 F 
ATOM     76  C   UNL A   1      42.324  22.421  25.816  1.00  0.00     0.022 A 
BRANCH  74  77
ATOM     77  S   UNL A   1      44.864  22.239  24.805  1.00  0.00     0.127 S 
ATOM     78  O   UNL A   1      44.169  21.055  24.301  1.00  0.00    -0.237 OA
ATOM     79  O   UNL A   1      45.114  23.275  23.807  1.00  0.00    -0.237 OA
ATOM     80  O   UNL A   1      45.972  21.947  25.705  1.00  0.00    -0.744 OA
ENDBRANCH  74  77
ENDBRANCH  46  70
BRANCH  58  81
ATOM     81  C   UNL A   1      45.289  30.527  28.406  1.00  0.00     0.023 A 
ATOM     82  C   UNL A   1      44.298  31.186  27.653  1.00  0.00     0.012 A 
ATOM     83  C   UNL A   1      46.643  30.779  28.132  1.00  0.00     0.148 A 
ATOM     84  C   UNL A   1      44.660  32.086  26.647  1.00  0.00     0.002 A 
ATOM     85  C   UNL A   1      46.996  31.718  27.178  1.00  0.00     0.091 A 
ATOM     86  F   UNL A   1      47.565  30.122  28.852  1.00  0.00    -0.205 F 
ATOM     87  C   UNL A   1      46.008  32.368  26.423  1.00  0.00     0.022 A 
BRANCH  85  88
ATOM     88  S   UNL A   1      48.702  32.229  26.964  1.00  0.00     0.127 S 
ATOM     89  O   UNL A   1      48.585  33.267  25.942  1.00  0.00    -0.237 OA
ATOM     90  O   UNL A   1      49.048  32.718  28.299  1.00  0.00    -0.237 OA
ATOM     91  O   UNL A   1      49.433  31.034  26.560  1.00  0.00    -0.744 OA
ENDBRANCH  85  88
ENDBRANCH  58  81
ENDBRANCH  32  33
ENDBRANCH  25  27
ENDBRANCH  24  25
ENDBRANCH  23  24
ENDBRANCH  22  23
ENDBRANCH   1  22
TORSDOF 20
ENDMDL
