MODEL 1
REMARK VINA RESULT:     -11.0      0.000      0.000
REMARK SMILES O=C(OCCOCCOC(=O)c1cncc(Oc2cc(F)ccc2F)n1)c1ccc(-c2c3nc(c(-c4cccc(S(=O)(=O)[O-])c4F)c4ccc([nH]4)c(-c4cccc(S(=O)(=O)[O-])c4F)c4nc(c(-c5cccc(S(=O)(=O)[O-])c5F)c5ccc2[nH]5)C=C4)C=C3)cc1
REMARK SMILES IDX 5 1 4 2 3 3 2 4 1 5 27 6 28 7 89 8 29 9 88 10 30 11 31 12
REMARK SMILES IDX 32 13 82 14 33 15 87 16 81 17 83 18 34 19 86 20 80 21 79 22
REMARK SMILES IDX 35 24 67 25 47 26 66 27 48 28 51 29 65 30 84 31 49 32 50 33
REMARK SMILES IDX 64 35 85 36 52 37 36 38 37 39 45 40 38 41 40 42 46 43 39 44
REMARK SMILES IDX 41 45 42 46 43 47 44 48 68 49 69 50 77 51 70 52 72 53 78 54
REMARK SMILES IDX 71 55 73 56 74 57 75 58 76 59 53 60 54 61 62 62 55 63 57 64
REMARK SMILES IDX 63 65 56 66 58 67 59 68 60 69 61 70 6 71 7 72 8 73 9 74
REMARK SMILES IDX 10 75 11 76 12 77 13 78 26 79 14 80 16 81 15 82 17 83 18 84
REMARK SMILES IDX 19 85 24 86 20 87 23 88 25 89 21 90 22 91
REMARK H PARENT 83 23 51 34
REMARK Flexibility Score: inf
ROOT
ATOM      1  C   UNL A   1      31.681  30.337  26.032  1.00  0.00     0.202 C 
ENDROOT
BRANCH   1   2
ATOM      2  C   UNL A   1      31.437  31.669  26.749  1.00  0.00     0.261 C 
BRANCH   2   3
ATOM      3  O   UNL A   1      32.604  32.504  26.661  1.00  0.00    -0.460 OA
BRANCH   3   4
ATOM      4  C   UNL A   1      33.357  33.019  27.663  1.00  0.00     0.338 C 
ATOM      5  O   UNL A   1      32.967  34.056  28.199  1.00  0.00    -0.246 OA
BRANCH   4   6
ATOM      6  C   UNL A   1      34.617  32.393  28.178  1.00  0.00     0.060 A 
ATOM      7  C   UNL A   1      34.737  31.089  28.658  1.00  0.00     0.016 A 
ATOM      8  C   UNL A   1      35.788  33.171  28.109  1.00  0.00     0.016 A 
ATOM      9  C   UNL A   1      35.941  30.593  29.131  1.00  0.00     0.010 A 
ATOM     10  C   UNL A   1      37.018  32.668  28.549  1.00  0.00     0.010 A 
ATOM     11  C   UNL A   1      37.083  31.383  29.094  1.00  0.00    -0.014 A 
BRANCH  11  12
ATOM     12  C   UNL A   1      38.282  30.857  29.769  1.00  0.00     0.031 A 
ATOM     13  C   UNL A   1      38.509  31.233  31.201  1.00  0.00     0.074 A 
ATOM     14  C   UNL A   1      39.036  29.933  29.148  1.00  0.00     0.049 A 
ATOM     15  N   UNL A   1      39.420  30.806  32.031  1.00  0.00    -0.248 NA
ATOM     16  C   UNL A   1      37.565  32.201  31.788  1.00  0.00     0.031 C 
ATOM     17  C   UNL A   1      38.820  29.450  27.782  1.00  0.00     0.029 A 
ATOM     18  N   UNL A   1      40.110  29.210  29.593  1.00  0.00    -0.354 N 
ATOM     19  C   UNL A   1      39.190  31.484  33.220  1.00  0.00     0.074 A 
ATOM     20  C   UNL A   1      38.045  32.340  33.014  1.00  0.00     0.031 C 
ATOM     21  C   UNL A   1      39.724  28.495  27.507  1.00  0.00     0.029 A 
ATOM     22  C   UNL A   1      40.604  28.331  28.658  1.00  0.00     0.049 A 
ATOM     23  H   UNL A   1      40.492  29.310  30.494  1.00  0.00     0.167 HD
ATOM     24  C   UNL A   1      39.877  31.395  34.381  1.00  0.00     0.034 A 
ATOM     25  C   UNL A   1      41.658  27.496  28.732  1.00  0.00     0.034 A 
ATOM     26  C   UNL A   1      41.004  30.525  34.564  1.00  0.00     0.049 A 
ATOM     27  C   UNL A   1      42.423  27.443  30.027  1.00  0.00     0.074 A 
ATOM     28  C   UNL A   1      41.803  30.370  35.678  1.00  0.00     0.029 A 
ATOM     29  N   UNL A   1      41.492  29.663  33.591  1.00  0.00    -0.354 N 
ATOM     30  N   UNL A   1      42.176  28.063  31.158  1.00  0.00    -0.248 NA
ATOM     31  C   UNL A   1      43.599  26.564  30.069  1.00  0.00     0.031 C 
ATOM     32  C   UNL A   1      42.793  29.430  35.371  1.00  0.00     0.029 A 
ATOM     33  C   UNL A   1      42.589  28.976  34.075  1.00  0.00     0.049 A 
ATOM     34  H   UNL A   1      41.112  29.556  32.689  1.00  0.00     0.167 HD
ATOM     35  C   UNL A   1      43.143  27.628  32.054  1.00  0.00     0.074 A 
ATOM     36  C   UNL A   1      43.967  26.673  31.338  1.00  0.00     0.031 C 
ATOM     37  C   UNL A   1      43.348  27.993  33.344  1.00  0.00     0.034 A 
BRANCH  24  38
ATOM     38  C   UNL A   1      39.439  32.289  35.507  1.00  0.00     0.023 A 
ATOM     39  C   UNL A   1      38.498  31.831  36.452  1.00  0.00     0.012 A 
ATOM     40  C   UNL A   1      39.946  33.598  35.613  1.00  0.00     0.148 A 
ATOM     41  C   UNL A   1      38.042  32.677  37.464  1.00  0.00     0.002 A 
ATOM     42  C   UNL A   1      39.516  34.421  36.647  1.00  0.00     0.091 A 
ATOM     43  F   UNL A   1      40.815  34.024  34.686  1.00  0.00    -0.205 F 
ATOM     44  C   UNL A   1      38.556  33.968  37.565  1.00  0.00     0.022 A 
BRANCH  42  45
ATOM     45  S   UNL A   1      40.158  36.080  36.891  1.00  0.00     0.127 S 
ATOM     46  O   UNL A   1      39.447  36.497  38.100  1.00  0.00    -0.237 OA
ATOM     47  O   UNL A   1      41.588  35.832  37.079  1.00  0.00    -0.237 OA
ATOM     48  O   UNL A   1      39.825  36.822  35.683  1.00  0.00    -0.744 OA
ENDBRANCH  42  45
ENDBRANCH  24  38
BRANCH  25  49
ATOM     49  C   UNL A   1      42.028  26.638  27.569  1.00  0.00     0.023 A 
ATOM     50  C   UNL A   1      42.767  27.184  26.502  1.00  0.00     0.012 A 
ATOM     51  C   UNL A   1      41.667  25.277  27.521  1.00  0.00     0.148 A 
ATOM     52  C   UNL A   1      43.113  26.401  25.399  1.00  0.00     0.002 A 
ATOM     53  C   UNL A   1      42.062  24.488  26.447  1.00  0.00     0.091 A 
ATOM     54  F   UNL A   1      40.943  24.775  28.533  1.00  0.00    -0.205 F 
ATOM     55  C   UNL A   1      42.771  25.052  25.376  1.00  0.00     0.022 A 
BRANCH  53  56
ATOM     56  S   UNL A   1      41.770  22.715  26.401  1.00  0.00     0.127 S 
ATOM     57  O   UNL A   1      42.426  22.337  25.152  1.00  0.00    -0.237 OA
ATOM     58  O   UNL A   1      42.449  22.262  27.615  1.00  0.00    -0.237 OA
ATOM     59  O   UNL A   1      40.322  22.558  26.433  1.00  0.00    -0.744 OA
ENDBRANCH  53  56
ENDBRANCH  25  49
BRANCH  37  60
ATOM     60  C   UNL A   1      44.483  27.329  34.074  1.00  0.00     0.023 A 
ATOM     61  C   UNL A   1      45.710  28.005  34.224  1.00  0.00     0.012 A 
ATOM     62  C   UNL A   1      44.300  26.075  34.684  1.00  0.00     0.148 A 
ATOM     63  C   UNL A   1      46.750  27.425  34.946  1.00  0.00     0.002 A 
ATOM     64  C   UNL A   1      45.322  25.527  35.446  1.00  0.00     0.091 A 
ATOM     65  F   UNL A   1      43.130  25.441  34.509  1.00  0.00    -0.205 F 
ATOM     66  C   UNL A   1      46.552  26.194  35.568  1.00  0.00     0.022 A 
BRANCH  64  67
ATOM     67  S   UNL A   1      45.107  24.001  36.368  1.00  0.00     0.127 S 
ATOM     68  O   UNL A   1      46.381  23.326  36.130  1.00  0.00    -0.237 OA
ATOM     69  O   UNL A   1      44.919  24.484  37.736  1.00  0.00    -0.237 OA
ATOM     70  O   UNL A   1      43.934  23.354  35.795  1.00  0.00    -0.744 OA
ENDBRANCH  64  67
ENDBRANCH  37  60
ENDBRANCH  11  12
ENDBRANCH   4   6
ENDBRANCH   3   4
ENDBRANCH   2   3
ENDBRANCH   1   2
BRANCH   1  71
ATOM     71  O   UNL A   1      32.389  29.378  26.816  1.00  0.00    -0.374 OA
BRANCH  71  72
ATOM     72  C   UNL A   1      33.422  28.657  26.140  1.00  0.00     0.202 C 
BRANCH  72  73
ATOM     73  C   UNL A   1      33.212  28.758  24.628  1.00  0.00     0.261 C 
BRANCH  73  74
ATOM     74  O   UNL A   1      32.894  27.448  24.124  1.00  0.00    -0.458 OA
BRANCH  74  75
ATOM     75  C   UNL A   1      31.570  27.123  24.156  1.00  0.00     0.358 C 
ATOM     76  O   UNL A   1      30.670  27.647  23.524  1.00  0.00    -0.244 OA
BRANCH  75  77
ATOM     77  C   UNL A   1      31.428  25.907  24.992  1.00  0.00     0.170 A 
ATOM     78  C   UNL A   1      30.303  25.744  25.791  1.00  0.00     0.147 A 
ATOM     79  N   UNL A   1      32.465  25.017  24.995  1.00  0.00    -0.203 NA
ATOM     80  N   UNL A   1      30.148  24.685  26.623  1.00  0.00    -0.257 NA
ATOM     81  C   UNL A   1      32.312  23.967  25.829  1.00  0.00     0.238 A 
ATOM     82  C   UNL A   1      31.175  23.800  26.613  1.00  0.00     0.179 A 
BRANCH  81  83
ATOM     83  O   UNL A   1      33.254  22.951  25.886  1.00  0.00    -0.434 OA
BRANCH  83  84
ATOM     84  C   UNL A   1      34.494  23.187  25.343  1.00  0.00     0.168 A 
ATOM     85  C   UNL A   1      35.530  23.747  26.093  1.00  0.00     0.089 A 
ATOM     86  C   UNL A   1      34.761  22.674  24.072  1.00  0.00     0.166 A 
ATOM     87  C   UNL A   1      36.809  23.807  25.543  1.00  0.00     0.127 A 
ATOM     88  C   UNL A   1      36.043  22.734  23.529  1.00  0.00     0.046 A 
ATOM     89  F   UNL A   1      33.786  22.076  23.372  1.00  0.00    -0.203 F 
ATOM     90  F   UNL A   1      37.806  24.337  26.265  1.00  0.00    -0.207 F 
ATOM     91  C   UNL A   1      37.077  23.304  24.272  1.00  0.00     0.042 A 
ENDBRANCH  83  84
ENDBRANCH  81  83
ENDBRANCH  75  77
ENDBRANCH  74  75
ENDBRANCH  73  74
ENDBRANCH  72  73
ENDBRANCH  71  72
ENDBRANCH   1  71
TORSDOF 19
ENDMDL
MODEL 2
REMARK VINA RESULT:     -10.9      2.445      3.865
REMARK SMILES O=C(OCCOCCOC(=O)c1cncc(Oc2cc(F)ccc2F)n1)c1ccc(-c2c3nc(c(-c4cccc(S(=O)(=O)[O-])c4F)c4ccc([nH]4)c(-c4cccc(S(=O)(=O)[O-])c4F)c4nc(c(-c5cccc(S(=O)(=O)[O-])c5F)c5ccc2[nH]5)C=C4)C=C3)cc1
REMARK SMILES IDX 5 1 4 2 3 3 2 4 1 5 27 6 28 7 89 8 29 9 88 10 30 11 31 12
REMARK SMILES IDX 32 13 82 14 33 15 87 16 81 17 83 18 34 19 86 20 80 21 79 22
REMARK SMILES IDX 35 24 67 25 47 26 66 27 48 28 51 29 65 30 84 31 49 32 50 33
REMARK SMILES IDX 64 35 85 36 52 37 36 38 37 39 45 40 38 41 40 42 46 43 39 44
REMARK SMILES IDX 41 45 42 46 43 47 44 48 68 49 69 50 77 51 70 52 72 53 78 54
REMARK SMILES IDX 71 55 73 56 74 57 75 58 76 59 53 60 54 61 62 62 55 63 57 64
REMARK SMILES IDX 63 65 56 66 58 67 59 68 60 69 61 70 6 71 7 72 8 73 9 74
REMARK SMILES IDX 10 75 11 76 12 77 13 78 26 79 14 80 16 81 15 82 17 83 18 84
REMARK SMILES IDX 19 85 24 86 20 87 23 88 25 89 21 90 22 91
REMARK H PARENT 83 23 51 34
REMARK Flexibility Score: inf
ROOT
ATOM      1  C   UNL A   1      31.102  31.212  25.947  1.00  0.00     0.202 C 
ENDROOT
BRANCH   1   2
ATOM      2  C   UNL A   1      31.464  32.130  27.119  1.00  0.00     0.261 C 
BRANCH   2   3
ATOM      3  O   UNL A   1      32.773  32.691  26.927  1.00  0.00    -0.460 OA
BRANCH   3   4
ATOM      4  C   UNL A   1      33.614  33.220  27.848  1.00  0.00     0.338 C 
ATOM      5  O   UNL A   1      33.324  34.315  28.328  1.00  0.00    -0.246 OA
BRANCH   4   6
ATOM      6  C   UNL A   1      34.858  32.545  28.340  1.00  0.00     0.060 A 
ATOM      7  C   UNL A   1      34.929  31.249  28.850  1.00  0.00     0.016 A 
ATOM      8  C   UNL A   1      36.063  33.262  28.214  1.00  0.00     0.016 A 
ATOM      9  C   UNL A   1      36.122  30.705  29.298  1.00  0.00     0.010 A 
ATOM     10  C   UNL A   1      37.280  32.710  28.629  1.00  0.00     0.010 A 
ATOM     11  C   UNL A   1      37.300  31.437  29.205  1.00  0.00    -0.014 A 
BRANCH  11  12
ATOM     12  C   UNL A   1      38.493  30.868  29.856  1.00  0.00     0.031 A 
ATOM     13  C   UNL A   1      38.740  31.204  31.295  1.00  0.00     0.074 A 
ATOM     14  C   UNL A   1      39.222  29.943  29.206  1.00  0.00     0.049 A 
ATOM     15  N   UNL A   1      39.649  30.738  32.106  1.00  0.00    -0.248 NA
ATOM     16  C   UNL A   1      37.823  32.179  31.914  1.00  0.00     0.031 C 
ATOM     17  C   UNL A   1      38.983  29.498  27.831  1.00  0.00     0.029 A 
ATOM     18  N   UNL A   1      40.283  29.187  29.624  1.00  0.00    -0.354 N 
ATOM     19  C   UNL A   1      39.444  31.392  33.313  1.00  0.00     0.074 A 
ATOM     20  C   UNL A   1      38.317  32.278  33.138  1.00  0.00     0.031 C 
ATOM     21  C   UNL A   1      39.863  28.531  27.525  1.00  0.00     0.029 A 
ATOM     22  C   UNL A   1      40.749  28.320  28.664  1.00  0.00     0.049 A 
ATOM     23  H   UNL A   1      40.675  29.257  30.524  1.00  0.00     0.167 HD
ATOM     24  C   UNL A   1      40.139  31.259  34.465  1.00  0.00     0.034 A 
ATOM     25  C   UNL A   1      41.786  27.461  28.708  1.00  0.00     0.034 A 
ATOM     26  C   UNL A   1      41.248  30.361  34.617  1.00  0.00     0.049 A 
ATOM     27  C   UNL A   1      42.561  27.361  29.994  1.00  0.00     0.074 A 
ATOM     28  C   UNL A   1      42.054  30.163  35.720  1.00  0.00     0.029 A 
ATOM     29  N   UNL A   1      41.709  29.513  33.619  1.00  0.00    -0.354 N 
ATOM     30  N   UNL A   1      42.337  27.958  31.142  1.00  0.00    -0.248 NA
ATOM     31  C   UNL A   1      43.717  26.455  30.004  1.00  0.00     0.031 C 
ATOM     32  C   UNL A   1      43.020  29.209  35.381  1.00  0.00     0.029 A 
ATOM     33  C   UNL A   1      42.795  28.791  34.076  1.00  0.00     0.049 A 
ATOM     34  H   UNL A   1      41.319  29.436  32.718  1.00  0.00     0.167 HD
ATOM     35  C   UNL A   1      43.301  27.480  32.018  1.00  0.00     0.074 A 
ATOM     36  C   UNL A   1      44.098  26.525  31.272  1.00  0.00     0.031 C 
ATOM     37  C   UNL A   1      43.526  27.809  33.315  1.00  0.00     0.034 A 
BRANCH  24  38
ATOM     38  C   UNL A   1      39.730  32.136  35.617  1.00  0.00     0.023 A 
ATOM     39  C   UNL A   1      40.335  33.397  35.797  1.00  0.00     0.012 A 
ATOM     40  C   UNL A   1      38.760  31.695  36.536  1.00  0.00     0.148 A 
ATOM     41  C   UNL A   1      40.004  34.190  36.897  1.00  0.00     0.002 A 
ATOM     42  C   UNL A   1      38.408  32.507  37.607  1.00  0.00     0.091 A 
ATOM     43  F   UNL A   1      38.222  30.479  36.364  1.00  0.00    -0.205 F 
ATOM     44  C   UNL A   1      39.037  33.747  37.797  1.00  0.00     0.022 A 
BRANCH  42  45
ATOM     45  S   UNL A   1      37.137  32.048  38.790  1.00  0.00     0.127 S 
ATOM     46  O   UNL A   1      37.727  32.502  40.049  1.00  0.00    -0.237 OA
ATOM     47  O   UNL A   1      35.993  32.838  38.333  1.00  0.00    -0.237 OA
ATOM     48  O   UNL A   1      36.970  30.607  38.662  1.00  0.00    -0.744 OA
ENDBRANCH  42  45
ENDBRANCH  24  38
BRANCH  25  49
ATOM     49  C   UNL A   1      42.127  26.624  27.521  1.00  0.00     0.023 A 
ATOM     50  C   UNL A   1      42.799  27.201  26.426  1.00  0.00     0.012 A 
ATOM     51  C   UNL A   1      41.805  25.253  27.478  1.00  0.00     0.148 A 
ATOM     52  C   UNL A   1      43.116  26.437  25.301  1.00  0.00     0.002 A 
ATOM     53  C   UNL A   1      42.173  24.484  26.379  1.00  0.00     0.091 A 
ATOM     54  F   UNL A   1      41.144  24.722  28.517  1.00  0.00    -0.205 F 
ATOM     55  C   UNL A   1      42.815  25.078  25.281  1.00  0.00     0.022 A 
BRANCH  53  56
ATOM     56  S   UNL A   1      41.932  22.704  26.331  1.00  0.00     0.127 S 
ATOM     57  O   UNL A   1      42.651  22.274  27.528  1.00  0.00    -0.237 OA
ATOM     58  O   UNL A   1      40.476  22.590  26.414  1.00  0.00    -0.237 OA
ATOM     59  O   UNL A   1      42.495  22.268  25.060  1.00  0.00    -0.744 OA
ENDBRANCH  53  56
ENDBRANCH  25  49
BRANCH  37  60
ATOM     60  C   UNL A   1      44.652  27.104  34.018  1.00  0.00     0.023 A 
ATOM     61  C   UNL A   1      45.962  27.614  33.930  1.00  0.00     0.012 A 
ATOM     62  C   UNL A   1      44.393  25.988  34.835  1.00  0.00     0.148 A 
ATOM     63  C   UNL A   1      47.005  27.003  34.623  1.00  0.00     0.002 A 
ATOM     64  C   UNL A   1      45.427  25.416  35.563  1.00  0.00     0.091 A 
ATOM     65  F   UNL A   1      43.142  25.507  34.885  1.00  0.00    -0.205 F 
ATOM     66  C   UNL A   1      46.735  25.914  35.449  1.00  0.00     0.022 A 
BRANCH  64  67
ATOM     67  S   UNL A   1      45.141  24.084  36.732  1.00  0.00     0.127 S 
ATOM     68  O   UNL A   1      44.465  23.093  35.897  1.00  0.00    -0.237 OA
ATOM     69  O   UNL A   1      46.501  23.719  37.131  1.00  0.00    -0.237 OA
ATOM     70  O   UNL A   1      44.338  24.660  37.802  1.00  0.00    -0.744 OA
ENDBRANCH  64  67
ENDBRANCH  37  60
ENDBRANCH  11  12
ENDBRANCH   4   6
ENDBRANCH   3   4
ENDBRANCH   2   3
ENDBRANCH   1   2
BRANCH   1  71
ATOM     71  O   UNL A   1      31.977  30.095  25.793  1.00  0.00    -0.374 OA
BRANCH  71  72
ATOM     72  C   UNL A   1      32.529  29.562  26.999  1.00  0.00     0.202 C 
BRANCH  72  73
ATOM     73  C   UNL A   1      31.607  28.473  27.547  1.00  0.00     0.261 C 
BRANCH  73  74
ATOM     74  O   UNL A   1      31.056  27.740  26.437  1.00  0.00    -0.458 OA
BRANCH  74  75
ATOM     75  C   UNL A   1      31.809  26.688  26.010  1.00  0.00     0.358 C 
ATOM     76  O   UNL A   1      32.311  25.817  26.697  1.00  0.00    -0.244 OA
BRANCH  75  77
ATOM     77  C   UNL A   1      31.793  26.700  24.527  1.00  0.00     0.170 A 
ATOM     78  C   UNL A   1      32.777  26.022  23.818  1.00  0.00     0.147 A 
ATOM     79  N   UNL A   1      30.833  27.453  23.912  1.00  0.00    -0.203 NA
ATOM     80  N   UNL A   1      32.849  26.049  22.464  1.00  0.00    -0.257 NA
ATOM     81  C   UNL A   1      30.911  27.484  22.564  1.00  0.00     0.238 A 
ATOM     82  C   UNL A   1      31.888  26.789  21.859  1.00  0.00     0.179 A 
BRANCH  81  83
ATOM     83  O   UNL A   1      29.963  28.154  21.805  1.00  0.00    -0.434 OA
BRANCH  83  84
ATOM     84  C   UNL A   1      29.299  29.209  22.382  1.00  0.00     0.168 A 
ATOM     85  C   UNL A   1      29.699  30.530  22.178  1.00  0.00     0.089 A 
ATOM     86  C   UNL A   1      28.088  28.946  23.027  1.00  0.00     0.166 A 
ATOM     87  C   UNL A   1      28.892  31.564  22.648  1.00  0.00     0.127 A 
ATOM     88  C   UNL A   1      27.283  29.984  23.491  1.00  0.00     0.046 A 
ATOM     89  F   UNL A   1      27.665  27.682  23.168  1.00  0.00    -0.203 F 
ATOM     90  F   UNL A   1      29.271  32.833  22.445  1.00  0.00    -0.207 F 
ATOM     91  C   UNL A   1      27.687  31.306  23.299  1.00  0.00     0.042 A 
ENDBRANCH  83  84
ENDBRANCH  81  83
ENDBRANCH  75  77
ENDBRANCH  74  75
ENDBRANCH  73  74
ENDBRANCH  72  73
ENDBRANCH  71  72
ENDBRANCH   1  71
TORSDOF 19
ENDMDL
MODEL 3
REMARK VINA RESULT:     -10.7      1.205      1.908
REMARK SMILES O=C(OCCOCCOC(=O)c1cncc(Oc2cc(F)ccc2F)n1)c1ccc(-c2c3nc(c(-c4cccc(S(=O)(=O)[O-])c4F)c4ccc([nH]4)c(-c4cccc(S(=O)(=O)[O-])c4F)c4nc(c(-c5cccc(S(=O)(=O)[O-])c5F)c5ccc2[nH]5)C=C4)C=C3)cc1
REMARK SMILES IDX 5 1 4 2 3 3 2 4 1 5 27 6 28 7 89 8 29 9 88 10 30 11 31 12
REMARK SMILES IDX 32 13 82 14 33 15 87 16 81 17 83 18 34 19 86 20 80 21 79 22
REMARK SMILES IDX 35 24 67 25 47 26 66 27 48 28 51 29 65 30 84 31 49 32 50 33
REMARK SMILES IDX 64 35 85 36 52 37 36 38 37 39 45 40 38 41 40 42 46 43 39 44
REMARK SMILES IDX 41 45 42 46 43 47 44 48 68 49 69 50 77 51 70 52 72 53 78 54
REMARK SMILES IDX 71 55 73 56 74 57 75 58 76 59 53 60 54 61 62 62 55 63 57 64
REMARK SMILES IDX 63 65 56 66 58 67 59 68 60 69 61 70 6 71 7 72 8 73 9 74
REMARK SMILES IDX 10 75 11 76 12 77 13 78 26 79 14 80 16 81 15 82 17 83 18 84
REMARK SMILES IDX 19 85 24 86 20 87 23 88 25 89 21 90 22 91
REMARK H PARENT 83 23 51 34
REMARK Flexibility Score: inf
ROOT
ATOM      1  C   UNL A   1      32.283  29.547  26.861  1.00  0.00     0.202 C 
ENDROOT
BRANCH   1   2
ATOM      2  C   UNL A   1      32.405  30.915  26.181  1.00  0.00     0.261 C 
BRANCH   2   3
ATOM      3  O   UNL A   1      32.411  31.962  27.165  1.00  0.00    -0.460 OA
BRANCH   3   4
ATOM      4  C   UNL A   1      33.459  32.688  27.626  1.00  0.00     0.338 C 
ATOM      5  O   UNL A   1      33.349  33.913  27.632  1.00  0.00    -0.246 OA
BRANCH   4   6
ATOM      6  C   UNL A   1      34.728  32.094  28.154  1.00  0.00     0.060 A 
ATOM      7  C   UNL A   1      34.874  30.794  28.638  1.00  0.00     0.016 A 
ATOM      8  C   UNL A   1      35.880  32.900  28.097  1.00  0.00     0.016 A 
ATOM      9  C   UNL A   1      36.086  30.328  29.124  1.00  0.00     0.010 A 
ATOM     10  C   UNL A   1      37.118  32.428  28.550  1.00  0.00     0.010 A 
ATOM     11  C   UNL A   1      37.209  31.146  29.098  1.00  0.00    -0.014 A 
BRANCH  11  12
ATOM     12  C   UNL A   1      38.412  30.650  29.786  1.00  0.00     0.031 A 
ATOM     13  C   UNL A   1      38.605  31.016  31.226  1.00  0.00     0.074 A 
ATOM     14  C   UNL A   1      39.206  29.757  29.167  1.00  0.00     0.049 A 
ATOM     15  N   UNL A   1      39.517  30.609  32.065  1.00  0.00    -0.248 NA
ATOM     16  C   UNL A   1      37.622  31.947  31.808  1.00  0.00     0.031 C 
ATOM     17  C   UNL A   1      39.026  29.283  27.792  1.00  0.00     0.029 A 
ATOM     18  N   UNL A   1      40.295  29.064  29.621  1.00  0.00    -0.354 N 
ATOM     19  C   UNL A   1      39.247  31.265  33.258  1.00  0.00     0.074 A 
ATOM     20  C   UNL A   1      38.079  32.088  33.042  1.00  0.00     0.031 C 
ATOM     21  C   UNL A   1      39.964  28.361  27.521  1.00  0.00     0.029 A 
ATOM     22  C   UNL A   1      40.831  28.211  28.684  1.00  0.00     0.049 A 
ATOM     23  H   UNL A   1      40.660  29.165  30.529  1.00  0.00     0.167 HD
ATOM     24  C   UNL A   1      39.918  31.184  34.428  1.00  0.00     0.034 A 
ATOM     25  C   UNL A   1      41.910  27.409  28.766  1.00  0.00     0.034 A 
ATOM     26  C   UNL A   1      41.069  30.348  34.619  1.00  0.00     0.049 A 
ATOM     27  C   UNL A   1      42.656  27.366  30.072  1.00  0.00     0.074 A 
ATOM     28  C   UNL A   1      41.855  30.207  35.745  1.00  0.00     0.029 A 
ATOM     29  N   UNL A   1      41.599  29.514  33.645  1.00  0.00    -0.354 N 
ATOM     30  N   UNL A   1      42.371  27.965  31.206  1.00  0.00    -0.248 NA
ATOM     31  C   UNL A   1      43.858  26.524  30.123  1.00  0.00     0.031 C 
ATOM     32  C   UNL A   1      42.879  29.301  35.443  1.00  0.00     0.029 A 
ATOM     33  C   UNL A   1      42.710  28.856  34.139  1.00  0.00     0.049 A 
ATOM     34  H   UNL A   1      41.237  29.405  32.736  1.00  0.00     0.167 HD
ATOM     35  C   UNL A   1      43.337  27.550  32.112  1.00  0.00     0.074 A 
ATOM     36  C   UNL A   1      44.203  26.629  31.399  1.00  0.00     0.031 C 
ATOM     37  C   UNL A   1      43.511  27.906  33.409  1.00  0.00     0.034 A 
BRANCH  24  38
ATOM     38  C   UNL A   1      39.434  32.052  35.557  1.00  0.00     0.023 A 
ATOM     39  C   UNL A   1      38.463  31.567  36.458  1.00  0.00     0.012 A 
ATOM     40  C   UNL A   1      39.928  33.361  35.709  1.00  0.00     0.148 A 
ATOM     41  C   UNL A   1      37.966  32.388  37.471  1.00  0.00     0.002 A 
ATOM     42  C   UNL A   1      39.457  34.159  36.745  1.00  0.00     0.091 A 
ATOM     43  F   UNL A   1      40.827  33.812  34.823  1.00  0.00    -0.205 F 
ATOM     44  C   UNL A   1      38.467  33.680  37.618  1.00  0.00     0.022 A 
BRANCH  42  45
ATOM     45  S   UNL A   1      40.078  35.816  37.047  1.00  0.00     0.127 S 
ATOM     46  O   UNL A   1      39.679  36.510  35.823  1.00  0.00    -0.237 OA
ATOM     47  O   UNL A   1      39.331  36.210  38.242  1.00  0.00    -0.237 OA
ATOM     48  O   UNL A   1      41.514  35.677  37.248  1.00  0.00    -0.744 OA
ENDBRANCH  42  45
ENDBRANCH  24  38
BRANCH  25  49
ATOM     49  C   UNL A   1      42.325  26.577  27.599  1.00  0.00     0.023 A 
ATOM     50  C   UNL A   1      43.121  27.141  26.584  1.00  0.00     0.012 A 
ATOM     51  C   UNL A   1      41.950  25.222  27.498  1.00  0.00     0.148 A 
ATOM     52  C   UNL A   1      43.511  26.381  25.478  1.00  0.00     0.002 A 
ATOM     53  C   UNL A   1      42.386  24.456  26.423  1.00  0.00     0.091 A 
ATOM     54  F   UNL A   1      41.172  24.705  28.460  1.00  0.00    -0.205 F 
ATOM     55  C   UNL A   1      43.154  25.038  25.403  1.00  0.00     0.022 A 
BRANCH  53  56
ATOM     56  S   UNL A   1      42.075  22.689  26.317  1.00  0.00     0.127 S 
ATOM     57  O   UNL A   1      42.779  22.191  27.496  1.00  0.00    -0.237 OA
ATOM     58  O   UNL A   1      40.615  22.631  26.401  1.00  0.00    -0.237 OA
ATOM     59  O   UNL A   1      42.616  22.275  25.030  1.00  0.00    -0.744 OA
ENDBRANCH  53  56
ENDBRANCH  25  49
BRANCH  37  60
ATOM     60  C   UNL A   1      44.655  27.270  34.150  1.00  0.00     0.023 A 
ATOM     61  C   UNL A   1      45.907  27.914  34.191  1.00  0.00     0.012 A 
ATOM     62  C   UNL A   1      44.459  26.081  34.875  1.00  0.00     0.148 A 
ATOM     63  C   UNL A   1      46.959  27.364  34.920  1.00  0.00     0.002 A 
ATOM     64  C   UNL A   1      45.496  25.566  35.642  1.00  0.00     0.091 A 
ATOM     65  F   UNL A   1      43.265  25.474  34.803  1.00  0.00    -0.205 F 
ATOM     66  C   UNL A   1      46.749  26.199  35.656  1.00  0.00     0.022 A 
BRANCH  64  67
ATOM     67  S   UNL A   1      45.273  24.135  36.703  1.00  0.00     0.127 S 
ATOM     68  O   UNL A   1      44.543  23.223  35.825  1.00  0.00    -0.237 OA
ATOM     69  O   UNL A   1      46.652  23.737  36.987  1.00  0.00    -0.237 OA
ATOM     70  O   UNL A   1      44.537  24.614  37.865  1.00  0.00    -0.744 OA
ENDBRANCH  64  67
ENDBRANCH  37  60
ENDBRANCH  11  12
ENDBRANCH   4   6
ENDBRANCH   3   4
ENDBRANCH   2   3
ENDBRANCH   1   2
BRANCH   1  71
ATOM     71  O   UNL A   1      32.197  28.452  25.949  1.00  0.00    -0.374 OA
BRANCH  71  72
ATOM     72  C   UNL A   1      32.321  28.780  24.563  1.00  0.00     0.202 C 
BRANCH  72  73
ATOM     73  C   UNL A   1      30.942  28.746  23.904  1.00  0.00     0.261 C 
BRANCH  73  74
ATOM     74  O   UNL A   1      30.292  27.515  24.270  1.00  0.00    -0.458 OA
BRANCH  74  75
ATOM     75  C   UNL A   1      30.734  26.409  23.607  1.00  0.00     0.358 C 
ATOM     76  O   UNL A   1      30.984  26.317  22.418  1.00  0.00    -0.244 OA
BRANCH  75  77
ATOM     77  C   UNL A   1      31.007  25.360  24.619  1.00  0.00     0.170 A 
ATOM     78  C   UNL A   1      30.250  25.306  25.782  1.00  0.00     0.147 A 
ATOM     79  N   UNL A   1      32.061  24.521  24.389  1.00  0.00    -0.203 NA
ATOM     80  N   UNL A   1      30.494  24.410  26.769  1.00  0.00    -0.257 NA
ATOM     81  C   UNL A   1      32.307  23.633  25.377  1.00  0.00     0.238 A 
ATOM     82  C   UNL A   1      31.534  23.573  26.532  1.00  0.00     0.179 A 
BRANCH  81  83
ATOM     83  O   UNL A   1      33.303  22.677  25.252  1.00  0.00    -0.434 OA
BRANCH  83  84
ATOM     84  C   UNL A   1      32.938  21.405  24.882  1.00  0.00     0.168 A 
ATOM     85  C   UNL A   1      32.582  21.095  23.569  1.00  0.00     0.089 A 
ATOM     86  C   UNL A   1      33.115  20.377  25.810  1.00  0.00     0.166 A 
ATOM     87  C   UNL A   1      32.384  19.761  23.216  1.00  0.00     0.127 A 
ATOM     88  C   UNL A   1      32.920  19.045  25.451  1.00  0.00     0.046 A 
ATOM     89  F   UNL A   1      33.520  20.662  27.056  1.00  0.00    -0.203 F 
ATOM     90  F   UNL A   1      32.052  19.462  21.953  1.00  0.00    -0.207 F 
ATOM     91  C   UNL A   1      32.553  18.733  24.141  1.00  0.00     0.042 A 
ENDBRANCH  83  84
ENDBRANCH  81  83
ENDBRANCH  75  77
ENDBRANCH  74  75
ENDBRANCH  73  74
ENDBRANCH  72  73
ENDBRANCH  71  72
ENDBRANCH   1  71
TORSDOF 19
ENDMDL
