MODEL 1
REMARK VINA RESULT:     -12.8      0.000      0.000
REMARK SMILES O=C(OCCOCCOC(=O)c1ccc(-c2c3nc(c(-c4cccc(S(=O)(=O)[O-])c4F)c4ccc([nH]4)c(-c4cccc(S(=O)(=O)[O-])c4F)c4nc(c(-c5cccc(S(=O)(=O)[O-])c5F)c5ccc2[nH]5)C=C4)C=C3)cc1)C1=Cc2cc(OC(F)(F)F)ccc2O[C@@H]1C(F)(F)F
REMARK SMILES IDX 7 1 6 2 5 3 4 4 3 5 2 6 1 7 75 8 76 9 89 10 77 11 88 12
REMARK SMILES IDX 78 13 87 14 79 15 86 16 85 17 90 18 91 19 92 20 93 21 80 22
REMARK SMILES IDX 81 23 82 24 83 25 84 26 8 27 9 28 10 29 11 30 12 31 13 32
REMARK SMILES IDX 74 33 14 34 73 35 15 36 16 37 17 38 67 39 18 40 72 41 66 42
REMARK SMILES IDX 68 43 19 44 71 45 65 46 64 47 20 49 52 50 32 51 51 52 33 53
REMARK SMILES IDX 36 54 50 55 69 56 34 57 35 58 49 60 70 61 37 62 21 63 22 64
REMARK SMILES IDX 30 65 23 66 25 67 31 68 24 69 26 70 27 71 28 72 29 73 53 74
REMARK SMILES IDX 54 75 62 76 55 77 57 78 63 79 56 80 58 81 59 82 60 83 61 84
REMARK SMILES IDX 38 85 39 86 47 87 40 88 42 89 48 90 41 91 43 92 44 93 45 94
REMARK SMILES IDX 46 95
REMARK H PARENT 68 48 36 59
REMARK Flexibility Score: inf
ROOT
ATOM      1  C   UNL A   1      31.410  32.045  26.571  1.00  0.00     0.202 C 
ENDROOT
BRANCH   1   2
ATOM      2  O   UNL A   1      31.813  30.707  26.923  1.00  0.00    -0.374 OA
BRANCH   2   3
ATOM      3  C   UNL A   1      31.848  29.302  26.118  1.00  0.00     0.202 C 
BRANCH   3   4
ATOM      4  C   UNL A   1      31.583  27.241  26.790  1.00  0.00     0.261 C 
BRANCH   4   5
ATOM      5  O   UNL A   1      30.403  26.314  26.446  1.00  0.00    -0.460 OA
BRANCH   5   6
ATOM      6  C   UNL A   1      30.760  25.029  26.375  1.00  0.00     0.338 C 
ATOM      7  O   UNL A   1      31.468  24.384  27.104  1.00  0.00    -0.246 OA
BRANCH   6   8
ATOM      8  C   UNL A   1      30.350  24.838  25.002  1.00  0.00     0.087 C 
ATOM      9  C   UNL A   1      29.349  25.846  24.587  1.00  0.00     0.027 C 
ATOM     10  C   UNL A   1      32.136  24.689  24.270  1.00  0.00     0.316 C 
ATOM     11  C   UNL A   1      29.727  27.236  23.492  1.00  0.00     0.021 A 
ATOM     12  O   UNL A   1      32.577  26.202  23.147  1.00  0.00    -0.475 OA
ATOM     13  C   UNL A   1      28.787  28.209  23.303  1.00  0.00     0.058 A 
ATOM     14  C   UNL A   1      31.314  27.490  22.852  1.00  0.00     0.128 A 
ATOM     15  C   UNL A   1      29.219  29.361  22.618  1.00  0.00     0.130 A 
ATOM     16  C   UNL A   1      31.686  28.685  22.316  1.00  0.00     0.051 A 
ATOM     17  C   UNL A   1      30.597  29.602  22.198  1.00  0.00     0.050 A 
BRANCH  10  18
ATOM     18  C   UNL A   1      32.090  23.121  23.973  1.00  0.00     0.430 C 
ATOM     19  F   UNL A   1      31.873  22.324  25.034  1.00  0.00    -0.167 F 
ATOM     20  F   UNL A   1      31.012  22.901  23.158  1.00  0.00    -0.167 F 
ATOM     21  F   UNL A   1      33.140  22.638  23.271  1.00  0.00    -0.167 F 
ENDBRANCH  10  18
BRANCH  15  22
ATOM     22  O   UNL A   1      28.186  30.261  22.468  1.00  0.00    -0.406 OA
BRANCH  22  23
ATOM     23  C   UNL A   1      28.077  31.328  23.392  1.00  0.00     0.573 C 
ATOM     24  F   UNL A   1      26.972  31.185  24.146  1.00  0.00    -0.132 F 
ATOM     25  F   UNL A   1      29.167  31.417  24.182  1.00  0.00    -0.132 F 
ATOM     26  F   UNL A   1      27.971  32.482  22.692  1.00  0.00    -0.132 F 
ENDBRANCH  22  23
ENDBRANCH  15  22
ENDBRANCH   6   8
ENDBRANCH   5   6
ENDBRANCH   4   5
ENDBRANCH   3   4
ENDBRANCH   2   3
ENDBRANCH   1   2
BRANCH   1  27
ATOM     27  C   UNL A   1      32.173  33.219  27.169  1.00  0.00     0.261 C 
BRANCH  27  28
ATOM     28  O   UNL A   1      33.232  32.810  28.011  1.00  0.00    -0.460 OA
BRANCH  28  29
ATOM     29  C   UNL A   1      34.276  33.666  28.013  1.00  0.00     0.338 C 
ATOM     30  O   UNL A   1      34.278  34.843  27.697  1.00  0.00    -0.246 OA
BRANCH  29  31
ATOM     31  C   UNL A   1      35.461  32.932  28.481  1.00  0.00     0.060 A 
ATOM     32  C   UNL A   1      35.290  31.590  28.829  1.00  0.00     0.016 A 
ATOM     33  C   UNL A   1      36.722  33.542  28.540  1.00  0.00     0.016 A 
ATOM     34  C   UNL A   1      36.394  30.839  29.206  1.00  0.00     0.010 A 
ATOM     35  C   UNL A   1      37.823  32.797  28.940  1.00  0.00     0.010 A 
ATOM     36  C   UNL A   1      37.651  31.449  29.283  1.00  0.00    -0.014 A 
BRANCH  36  37
ATOM     37  C   UNL A   1      38.746  30.724  29.940  1.00  0.00     0.031 A 
ATOM     38  C   UNL A   1      39.081  31.114  31.344  1.00  0.00     0.074 A 
ATOM     39  C   UNL A   1      39.401  29.743  29.300  1.00  0.00     0.049 A 
ATOM     40  N   UNL A   1      39.976  30.612  32.147  1.00  0.00    -0.248 NA
ATOM     41  C   UNL A   1      38.293  32.218  31.925  1.00  0.00     0.031 C 
ATOM     42  C   UNL A   1      39.133  29.295  27.935  1.00  0.00     0.029 A 
ATOM     43  N   UNL A   1      40.443  28.959  29.718  1.00  0.00    -0.354 N 
ATOM     44  C   UNL A   1      39.873  31.345  33.319  1.00  0.00     0.074 A 
ATOM     45  C   UNL A   1      38.838  32.333  33.125  1.00  0.00     0.031 C 
ATOM     46  C   UNL A   1      40.008  28.324  27.618  1.00  0.00     0.029 A 
ATOM     47  C   UNL A   1      40.911  28.109  28.747  1.00  0.00     0.049 A 
ATOM     48  H   UNL A   1      40.818  29.001  30.627  1.00  0.00     0.167 HD
ATOM     49  C   UNL A   1      40.581  31.199  34.460  1.00  0.00     0.034 A 
ATOM     50  C   UNL A   1      41.969  27.277  28.772  1.00  0.00     0.034 A 
ATOM     51  C   UNL A   1      41.630  30.234  34.622  1.00  0.00     0.049 A 
ATOM     52  C   UNL A   1      42.782  27.179  30.038  1.00  0.00     0.074 A 
ATOM     53  C   UNL A   1      42.402  29.985  35.742  1.00  0.00     0.029 A 
ATOM     54  N   UNL A   1      42.081  29.385  33.622  1.00  0.00    -0.354 N 
ATOM     55  N   UNL A   1      42.610  27.800  31.180  1.00  0.00    -0.248 NA
ATOM     56  C   UNL A   1      43.914  26.243  30.029  1.00  0.00     0.031 C 
ATOM     57  C   UNL A   1      43.361  29.028  35.398  1.00  0.00     0.029 A 
ATOM     58  C   UNL A   1      43.138  28.628  34.089  1.00  0.00     0.049 A 
ATOM     59  H   UNL A   1      41.703  29.330  32.715  1.00  0.00     0.167 HD
ATOM     60  C   UNL A   1      43.585  27.301  32.038  1.00  0.00     0.074 A 
ATOM     61  C   UNL A   1      44.333  26.314  31.284  1.00  0.00     0.031 C 
ATOM     62  C   UNL A   1      43.843  27.627  33.329  1.00  0.00     0.034 A 
BRANCH  49  63
ATOM     63  C   UNL A   1      40.263  32.130  35.595  1.00  0.00     0.023 A 
ATOM     64  C   UNL A   1      41.036  33.290  35.804  1.00  0.00     0.012 A 
ATOM     65  C   UNL A   1      39.176  31.858  36.448  1.00  0.00     0.148 A 
ATOM     66  C   UNL A   1      40.753  34.147  36.866  1.00  0.00     0.002 A 
ATOM     67  C   UNL A   1      38.868  32.744  37.469  1.00  0.00     0.091 A 
ATOM     68  F   UNL A   1      38.476  30.732  36.249  1.00  0.00    -0.205 F 
ATOM     69  C   UNL A   1      39.662  33.881  37.690  1.00  0.00     0.022 A 
BRANCH  67  70
ATOM     70  S   UNL A   1      37.439  32.528  38.534  1.00  0.00     0.127 S 
ATOM     71  O   UNL A   1      37.498  31.094  38.817  1.00  0.00    -0.237 OA
ATOM     72  O   UNL A   1      37.774  33.388  39.668  1.00  0.00    -0.237 OA
ATOM     73  O   UNL A   1      36.285  32.958  37.758  1.00  0.00    -0.744 OA
ENDBRANCH  67  70
ENDBRANCH  49  63
BRANCH  50  74
ATOM     74  C   UNL A   1      42.322  26.474  27.569  1.00  0.00     0.023 A 
ATOM     75  C   UNL A   1      42.987  27.080  26.485  1.00  0.00     0.012 A 
ATOM     76  C   UNL A   1      41.994  25.106  27.494  1.00  0.00     0.148 A 
ATOM     77  C   UNL A   1      43.282  26.348  25.333  1.00  0.00     0.002 A 
ATOM     78  C   UNL A   1      42.341  24.370  26.370  1.00  0.00     0.091 A 
ATOM     79  F   UNL A   1      41.355  24.551  28.534  1.00  0.00    -0.205 F 
ATOM     80  C   UNL A   1      42.966  24.993  25.279  1.00  0.00     0.022 A 
BRANCH  78  81
ATOM     81  S   UNL A   1      42.078  22.598  26.258  1.00  0.00     0.127 S 
ATOM     82  O   UNL A   1      42.746  22.119  27.465  1.00  0.00    -0.237 OA
ATOM     83  O   UNL A   1      40.617  22.513  26.286  1.00  0.00    -0.237 OA
ATOM     84  O   UNL A   1      42.683  22.185  24.999  1.00  0.00    -0.744 OA
ENDBRANCH  78  81
ENDBRANCH  50  74
BRANCH  62  85
ATOM     85  C   UNL A   1      44.939  26.873  34.037  1.00  0.00     0.023 A 
ATOM     86  C   UNL A   1      46.279  27.293  33.933  1.00  0.00     0.012 A 
ATOM     87  C   UNL A   1      44.616  25.787  34.876  1.00  0.00     0.148 A 
ATOM     88  C   UNL A   1      47.287  26.617  34.621  1.00  0.00     0.002 A 
ATOM     89  C   UNL A   1      45.616  25.159  35.605  1.00  0.00     0.091 A 
ATOM     90  F   UNL A   1      43.336  25.397  34.952  1.00  0.00    -0.205 F 
ATOM     91  C   UNL A   1      46.954  25.561  35.466  1.00  0.00     0.022 A 
BRANCH  89  92
ATOM     92  S   UNL A   1      45.268  23.860  36.795  1.00  0.00     0.127 S 
ATOM     93  O   UNL A   1      44.700  22.818  35.940  1.00  0.00    -0.237 OA
ATOM     94  O   UNL A   1      46.600  23.560  37.320  1.00  0.00    -0.237 OA
ATOM     95  O   UNL A   1      44.347  24.435  37.767  1.00  0.00    -0.744 OA
ENDBRANCH  89  92
ENDBRANCH  62  85
ENDBRANCH  36  37
ENDBRANCH  29  31
ENDBRANCH  28  29
ENDBRANCH  27  28
ENDBRANCH   1  27
TORSDOF 20
ENDMDL
MODEL 2
REMARK VINA RESULT:     -12.7      2.191      4.541
REMARK SMILES O=C(OCCOCCOC(=O)c1ccc(-c2c3nc(c(-c4cccc(S(=O)(=O)[O-])c4F)c4ccc([nH]4)c(-c4cccc(S(=O)(=O)[O-])c4F)c4nc(c(-c5cccc(S(=O)(=O)[O-])c5F)c5ccc2[nH]5)C=C4)C=C3)cc1)C1=Cc2cc(OC(F)(F)F)ccc2O[C@@H]1C(F)(F)F
REMARK SMILES IDX 7 1 6 2 5 3 4 4 3 5 2 6 1 7 75 8 76 9 89 10 77 11 88 12
REMARK SMILES IDX 78 13 87 14 79 15 86 16 85 17 90 18 91 19 92 20 93 21 80 22
REMARK SMILES IDX 81 23 82 24 83 25 84 26 8 27 9 28 10 29 11 30 12 31 13 32
REMARK SMILES IDX 74 33 14 34 73 35 15 36 16 37 17 38 67 39 18 40 72 41 66 42
REMARK SMILES IDX 68 43 19 44 71 45 65 46 64 47 20 49 52 50 32 51 51 52 33 53
REMARK SMILES IDX 36 54 50 55 69 56 34 57 35 58 49 60 70 61 37 62 21 63 22 64
REMARK SMILES IDX 30 65 23 66 25 67 31 68 24 69 26 70 27 71 28 72 29 73 53 74
REMARK SMILES IDX 54 75 62 76 55 77 57 78 63 79 56 80 58 81 59 82 60 83 61 84
REMARK SMILES IDX 38 85 39 86 47 87 40 88 42 89 48 90 41 91 43 92 44 93 45 94
REMARK SMILES IDX 46 95
REMARK H PARENT 68 48 36 59
REMARK Flexibility Score: inf
ROOT
ATOM      1  C   UNL A   1      30.781  31.563  25.504  1.00  0.00     0.202 C 
ENDROOT
BRANCH   1   2
ATOM      2  O   UNL A   1      31.068  30.297  24.879  1.00  0.00    -0.374 OA
BRANCH   2   3
ATOM      3  C   UNL A   1      30.274  29.371  23.812  1.00  0.00     0.202 C 
BRANCH   3   4
ATOM      4  C   UNL A   1      30.958  27.776  22.488  1.00  0.00     0.261 C 
BRANCH   4   5
ATOM      5  O   UNL A   1      30.972  26.270  22.806  1.00  0.00    -0.460 OA
BRANCH   5   6
ATOM      6  C   UNL A   1      32.208  25.767  22.867  1.00  0.00     0.338 C 
ATOM      7  O   UNL A   1      32.998  25.551  21.984  1.00  0.00    -0.246 OA
BRANCH   6   8
ATOM      8  C   UNL A   1      32.091  25.251  24.212  1.00  0.00     0.087 C 
ATOM      9  C   UNL A   1      31.600  23.855  24.219  1.00  0.00     0.027 C 
ATOM     10  C   UNL A   1      33.851  25.805  24.801  1.00  0.00     0.316 C 
ATOM     11  C   UNL A   1      32.654  22.427  24.567  1.00  0.00     0.021 A 
ATOM     12  O   UNL A   1      35.009  24.287  25.115  1.00  0.00    -0.475 OA
ATOM     13  C   UNL A   1      32.153  21.169  24.382  1.00  0.00     0.058 A 
ATOM     14  C   UNL A   1      34.341  22.599  24.912  1.00  0.00     0.128 A 
ATOM     15  C   UNL A   1      33.084  20.115  24.462  1.00  0.00     0.130 A 
ATOM     16  C   UNL A   1      35.195  21.541  24.844  1.00  0.00     0.051 A 
ATOM     17  C   UNL A   1      34.523  20.299  24.631  1.00  0.00     0.050 A 
BRANCH  10  18
ATOM     18  C   UNL A   1      33.368  26.990  25.754  1.00  0.00     0.430 C 
ATOM     19  F   UNL A   1      32.430  26.674  26.665  1.00  0.00    -0.167 F 
ATOM     20  F   UNL A   1      34.452  27.367  26.501  1.00  0.00    -0.167 F 
ATOM     21  F   UNL A   1      32.995  28.124  25.118  1.00  0.00    -0.167 F 
ENDBRANCH  10  18
BRANCH  15  22
ATOM     22  O   UNL A   1      32.465  18.897  24.281  1.00  0.00    -0.406 OA
BRANCH  22  23
ATOM     23  C   UNL A   1      32.690  17.875  25.236  1.00  0.00     0.573 C 
ATOM     24  F   UNL A   1      32.677  18.385  26.481  1.00  0.00    -0.132 F 
ATOM     25  F   UNL A   1      31.779  16.887  25.132  1.00  0.00    -0.132 F 
ATOM     26  F   UNL A   1      33.913  17.344  25.004  1.00  0.00    -0.132 F 
ENDBRANCH  22  23
ENDBRANCH  15  22
ENDBRANCH   6   8
ENDBRANCH   5   6
ENDBRANCH   4   5
ENDBRANCH   3   4
ENDBRANCH   2   3
ENDBRANCH   1   2
BRANCH   1  27
ATOM     27  C   UNL A   1      31.376  31.852  26.875  1.00  0.00     0.261 C 
BRANCH  27  28
ATOM     28  O   UNL A   1      32.774  31.639  26.920  1.00  0.00    -0.460 OA
BRANCH  28  29
ATOM     29  C   UNL A   1      33.448  32.630  27.541  1.00  0.00     0.338 C 
ATOM     30  O   UNL A   1      33.116  33.796  27.663  1.00  0.00    -0.246 OA
BRANCH  29  31
ATOM     31  C   UNL A   1      34.694  32.064  28.075  1.00  0.00     0.060 A 
ATOM     32  C   UNL A   1      34.707  30.697  28.367  1.00  0.00     0.016 A 
ATOM     33  C   UNL A   1      35.841  32.853  28.247  1.00  0.00     0.016 A 
ATOM     34  C   UNL A   1      35.882  30.105  28.804  1.00  0.00     0.010 A 
ATOM     35  C   UNL A   1      37.011  32.265  28.707  1.00  0.00     0.010 A 
ATOM     36  C   UNL A   1      37.024  30.893  28.994  1.00  0.00    -0.014 A 
BRANCH  36  37
ATOM     37  C   UNL A   1      38.168  30.315  29.710  1.00  0.00     0.031 A 
ATOM     38  C   UNL A   1      38.380  30.746  31.126  1.00  0.00     0.074 A 
ATOM     39  C   UNL A   1      38.972  29.423  29.111  1.00  0.00     0.049 A 
ATOM     40  N   UNL A   1      39.291  30.363  31.975  1.00  0.00    -0.248 NA
ATOM     41  C   UNL A   1      37.431  31.742  31.658  1.00  0.00     0.031 C 
ATOM     42  C   UNL A   1      38.831  28.942  27.738  1.00  0.00     0.029 A 
ATOM     43  N   UNL A   1      40.082  28.778  29.586  1.00  0.00    -0.354 N 
ATOM     44  C   UNL A   1      39.038  31.079  33.135  1.00  0.00     0.074 A 
ATOM     45  C   UNL A   1      37.897  31.928  32.882  1.00  0.00     0.031 C 
ATOM     46  C   UNL A   1      39.837  28.089  27.472  1.00  0.00     0.029 A 
ATOM     47  C   UNL A   1      40.702  27.992  28.646  1.00  0.00     0.049 A 
ATOM     48  H   UNL A   1      40.404  28.869  30.512  1.00  0.00     0.167 HD
ATOM     49  C   UNL A   1      39.701  31.027  34.311  1.00  0.00     0.034 A 
ATOM     50  C   UNL A   1      41.854  27.301  28.729  1.00  0.00     0.034 A 
ATOM     51  C   UNL A   1      40.854  30.202  34.532  1.00  0.00     0.049 A 
ATOM     52  C   UNL A   1      42.609  27.309  30.034  1.00  0.00     0.074 A 
ATOM     53  C   UNL A   1      41.594  30.055  35.690  1.00  0.00     0.029 A 
ATOM     54  N   UNL A   1      41.458  29.415  33.562  1.00  0.00    -0.354 N 
ATOM     55  N   UNL A   1      42.304  27.905  31.162  1.00  0.00    -0.248 NA
ATOM     56  C   UNL A   1      43.850  26.524  30.088  1.00  0.00     0.031 C 
ATOM     57  C   UNL A   1      42.683  29.227  35.401  1.00  0.00     0.029 A 
ATOM     58  C   UNL A   1      42.578  28.799  34.087  1.00  0.00     0.049 A 
ATOM     59  H   UNL A   1      41.136  29.311  32.638  1.00  0.00     0.167 HD
ATOM     60  C   UNL A   1      43.290  27.536  32.070  1.00  0.00     0.074 A 
ATOM     61  C   UNL A   1      44.193  26.650  31.362  1.00  0.00     0.031 C 
ATOM     62  C   UNL A   1      43.441  27.894  33.370  1.00  0.00     0.034 A 
BRANCH  49  63
ATOM     63  C   UNL A   1      39.211  31.911  35.421  1.00  0.00     0.023 A 
ATOM     64  C   UNL A   1      38.246  31.439  36.334  1.00  0.00     0.012 A 
ATOM     65  C   UNL A   1      39.728  33.213  35.568  1.00  0.00     0.148 A 
ATOM     66  C   UNL A   1      37.778  32.264  37.356  1.00  0.00     0.002 A 
ATOM     67  C   UNL A   1      39.296  34.007  36.620  1.00  0.00     0.091 A 
ATOM     68  F   UNL A   1      40.620  33.649  34.668  1.00  0.00    -0.205 F 
ATOM     69  C   UNL A   1      38.312  33.542  37.507  1.00  0.00     0.022 A 
BRANCH  67  70
ATOM     70  S   UNL A   1      39.979  35.635  36.941  1.00  0.00     0.127 S 
ATOM     71  O   UNL A   1      39.286  36.007  38.174  1.00  0.00    -0.237 OA
ATOM     72  O   UNL A   1      41.402  35.339  37.105  1.00  0.00    -0.237 OA
ATOM     73  O   UNL A   1      39.653  36.449  35.779  1.00  0.00    -0.744 OA
ENDBRANCH  67  70
ENDBRANCH  49  63
BRANCH  50  74
ATOM     74  C   UNL A   1      42.365  26.547  27.551  1.00  0.00     0.023 A 
ATOM     75  C   UNL A   1      43.131  27.205  26.569  1.00  0.00     0.012 A 
ATOM     76  C   UNL A   1      42.089  25.174  27.400  1.00  0.00     0.148 A 
ATOM     77  C   UNL A   1      43.575  26.520  25.438  1.00  0.00     0.002 A 
ATOM     78  C   UNL A   1      42.583  24.485  26.301  1.00  0.00     0.091 A 
ATOM     79  F   UNL A   1      41.353  24.569  28.343  1.00  0.00    -0.205 F 
ATOM     80  C   UNL A   1      43.308  25.159  25.308  1.00  0.00     0.022 A 
BRANCH  78  81
ATOM     81  S   UNL A   1      42.387  22.710  26.109  1.00  0.00     0.127 S 
ATOM     82  O   UNL A   1      43.028  22.477  24.817  1.00  0.00    -0.237 OA
ATOM     83  O   UNL A   1      43.126  22.203  27.265  1.00  0.00    -0.237 OA
ATOM     84  O   UNL A   1      40.952  22.463  26.151  1.00  0.00    -0.744 OA
ENDBRANCH  78  81
ENDBRANCH  50  74
BRANCH  62  85
ATOM     85  C   UNL A   1      44.587  27.286  34.136  1.00  0.00     0.023 A 
ATOM     86  C   UNL A   1      45.863  27.879  34.106  1.00  0.00     0.012 A 
ATOM     87  C   UNL A   1      44.365  26.161  34.957  1.00  0.00     0.148 A 
ATOM     88  C   UNL A   1      46.912  27.338  34.848  1.00  0.00     0.002 A 
ATOM     89  C   UNL A   1      45.398  25.665  35.739  1.00  0.00     0.091 A 
ATOM     90  F   UNL A   1      43.145  25.605  34.963  1.00  0.00    -0.205 F 
ATOM     91  C   UNL A   1      46.676  26.241  35.674  1.00  0.00     0.022 A 
BRANCH  89  92
ATOM     92  S   UNL A   1      45.160  24.324  36.909  1.00  0.00     0.127 S 
ATOM     93  O   UNL A   1      46.455  24.289  37.588  1.00  0.00    -0.237 OA
ATOM     94  O   UNL A   1      44.055  24.823  37.727  1.00  0.00    -0.237 OA
ATOM     95  O   UNL A   1      44.844  23.143  36.116  1.00  0.00    -0.744 OA
ENDBRANCH  89  92
ENDBRANCH  62  85
ENDBRANCH  36  37
ENDBRANCH  29  31
ENDBRANCH  28  29
ENDBRANCH  27  28
ENDBRANCH   1  27
TORSDOF 20
ENDMDL
MODEL 3
REMARK VINA RESULT:     -12.4      1.869      4.243
REMARK SMILES O=C(OCCOCCOC(=O)c1ccc(-c2c3nc(c(-c4cccc(S(=O)(=O)[O-])c4F)c4ccc([nH]4)c(-c4cccc(S(=O)(=O)[O-])c4F)c4nc(c(-c5cccc(S(=O)(=O)[O-])c5F)c5ccc2[nH]5)C=C4)C=C3)cc1)C1=Cc2cc(OC(F)(F)F)ccc2O[C@@H]1C(F)(F)F
REMARK SMILES IDX 7 1 6 2 5 3 4 4 3 5 2 6 1 7 75 8 76 9 89 10 77 11 88 12
REMARK SMILES IDX 78 13 87 14 79 15 86 16 85 17 90 18 91 19 92 20 93 21 80 22
REMARK SMILES IDX 81 23 82 24 83 25 84 26 8 27 9 28 10 29 11 30 12 31 13 32
REMARK SMILES IDX 74 33 14 34 73 35 15 36 16 37 17 38 67 39 18 40 72 41 66 42
REMARK SMILES IDX 68 43 19 44 71 45 65 46 64 47 20 49 52 50 32 51 51 52 33 53
REMARK SMILES IDX 36 54 50 55 69 56 34 57 35 58 49 60 70 61 37 62 21 63 22 64
REMARK SMILES IDX 30 65 23 66 25 67 31 68 24 69 26 70 27 71 28 72 29 73 53 74
REMARK SMILES IDX 54 75 62 76 55 77 57 78 63 79 56 80 58 81 59 82 60 83 61 84
REMARK SMILES IDX 38 85 39 86 47 87 40 88 42 89 48 90 41 91 43 92 44 93 45 94
REMARK SMILES IDX 46 95
REMARK H PARENT 68 48 36 59
REMARK Flexibility Score: inf
ROOT
ATOM      1  C   UNL A   1      31.574  31.842  26.895  1.00  0.00     0.202 C 
ENDROOT
BRANCH   1   2
ATOM      2  O   UNL A   1      32.059  30.786  26.041  1.00  0.00    -0.374 OA
BRANCH   2   3
ATOM      3  C   UNL A   1      31.365  29.850  24.917  1.00  0.00     0.202 C 
BRANCH   3   4
ATOM      4  C   UNL A   1      32.171  28.899  23.124  1.00  0.00     0.261 C 
BRANCH   4   5
ATOM      5  O   UNL A   1      32.465  27.400  22.940  1.00  0.00    -0.460 OA
BRANCH   5   6
ATOM      6  C   UNL A   1      32.955  26.831  24.045  1.00  0.00     0.338 C 
ATOM      7  O   UNL A   1      33.897  27.150  24.724  1.00  0.00    -0.246 OA
BRANCH   6   8
ATOM      8  C   UNL A   1      32.247  25.580  23.894  1.00  0.00     0.087 C 
ATOM      9  C   UNL A   1      33.176  24.453  23.658  1.00  0.00     0.027 C 
ATOM     10  C   UNL A   1      31.133  25.782  25.465  1.00  0.00     0.316 C 
ATOM     11  C   UNL A   1      33.577  23.211  24.909  1.00  0.00     0.021 A 
ATOM     12  O   UNL A   1      31.595  24.499  26.838  1.00  0.00    -0.475 OA
ATOM     13  C   UNL A   1      34.573  22.309  24.658  1.00  0.00     0.058 A 
ATOM     14  C   UNL A   1      32.897  23.262  26.499  1.00  0.00     0.128 A 
ATOM     15  C   UNL A   1      34.978  21.515  25.748  1.00  0.00     0.130 A 
ATOM     16  C   UNL A   1      33.432  22.550  27.530  1.00  0.00     0.051 A 
ATOM     17  C   UNL A   1      34.472  21.666  27.110  1.00  0.00     0.050 A 
BRANCH  10  18
ATOM     18  C   UNL A   1      29.765  26.068  24.694  1.00  0.00     0.430 C 
ATOM     19  F   UNL A   1      29.492  25.262  23.653  1.00  0.00    -0.167 F 
ATOM     20  F   UNL A   1      28.750  25.832  25.582  1.00  0.00    -0.167 F 
ATOM     21  F   UNL A   1      29.579  27.352  24.312  1.00  0.00    -0.167 F 
ENDBRANCH  10  18
BRANCH  15  22
ATOM     22  O   UNL A   1      35.968  20.633  25.373  1.00  0.00    -0.406 OA
BRANCH  22  23
ATOM     23  C   UNL A   1      37.239  21.151  25.021  1.00  0.00     0.573 C 
ATOM     24  F   UNL A   1      38.157  20.168  24.998  1.00  0.00    -0.132 F 
ATOM     25  F   UNL A   1      37.208  21.782  23.830  1.00  0.00    -0.132 F 
ATOM     26  F   UNL A   1      37.601  22.052  25.964  1.00  0.00    -0.132 F 
ENDBRANCH  22  23
ENDBRANCH  15  22
ENDBRANCH   6   8
ENDBRANCH   5   6
ENDBRANCH   4   5
ENDBRANCH   3   4
ENDBRANCH   2   3
ENDBRANCH   1   2
BRANCH   1  27
ATOM     27  C   UNL A   1      32.407  33.108  27.036  1.00  0.00     0.261 C 
BRANCH  27  28
ATOM     28  O   UNL A   1      32.490  33.561  28.373  1.00  0.00    -0.460 OA
BRANCH  28  29
ATOM     29  C   UNL A   1      33.512  34.417  28.587  1.00  0.00     0.338 C 
ATOM     30  O   UNL A   1      33.508  35.630  28.467  1.00  0.00    -0.246 OA
BRANCH  29  31
ATOM     31  C   UNL A   1      34.679  33.631  29.009  1.00  0.00     0.060 A 
ATOM     32  C   UNL A   1      34.453  32.557  29.874  1.00  0.00     0.016 A 
ATOM     33  C   UNL A   1      35.966  33.920  28.534  1.00  0.00     0.016 A 
ATOM     34  C   UNL A   1      35.514  31.743  30.241  1.00  0.00     0.010 A 
ATOM     35  C   UNL A   1      37.033  33.120  28.920  1.00  0.00     0.010 A 
ATOM     36  C   UNL A   1      36.803  32.039  29.782  1.00  0.00    -0.014 A 
BRANCH  36  37
ATOM     37  C   UNL A   1      37.944  31.344  30.391  1.00  0.00     0.031 A 
ATOM     38  C   UNL A   1      38.281  31.689  31.807  1.00  0.00     0.074 A 
ATOM     39  C   UNL A   1      38.638  30.427  29.700  1.00  0.00     0.049 A 
ATOM     40  N   UNL A   1      39.213  31.200  32.574  1.00  0.00    -0.248 NA
ATOM     41  C   UNL A   1      37.447  32.724  32.447  1.00  0.00     0.031 C 
ATOM     42  C   UNL A   1      38.372  30.026  28.320  1.00  0.00     0.029 A 
ATOM     43  N   UNL A   1      39.725  29.681  30.068  1.00  0.00    -0.354 N 
ATOM     44  C   UNL A   1      39.092  31.874  33.779  1.00  0.00     0.074 A 
ATOM     45  C   UNL A   1      38.005  32.816  33.643  1.00  0.00     0.031 C 
ATOM     46  C   UNL A   1      39.290  29.116  27.948  1.00  0.00     0.029 A 
ATOM     47  C   UNL A   1      40.220  28.899  29.054  1.00  0.00     0.049 A 
ATOM     48  H   UNL A   1      40.113  29.703  30.973  1.00  0.00     0.167 HD
ATOM     49  C   UNL A   1      39.825  31.717  34.902  1.00  0.00     0.034 A 
ATOM     50  C   UNL A   1      41.320  28.123  29.027  1.00  0.00     0.034 A 
ATOM     51  C   UNL A   1      40.925  30.800  35.007  1.00  0.00     0.049 A 
ATOM     52  C   UNL A   1      42.157  28.012  30.276  1.00  0.00     0.074 A 
ATOM     53  C   UNL A   1      41.726  30.543  36.103  1.00  0.00     0.029 A 
ATOM     54  N   UNL A   1      41.402  30.021  33.964  1.00  0.00    -0.354 N 
ATOM     55  N   UNL A   1      41.972  28.573  31.447  1.00  0.00    -0.248 NA
ATOM     56  C   UNL A   1      43.335  27.137  30.210  1.00  0.00     0.031 C 
ATOM     57  C   UNL A   1      42.727  29.654  35.704  1.00  0.00     0.029 A 
ATOM     58  C   UNL A   1      42.504  29.299  34.383  1.00  0.00     0.049 A 
ATOM     59  H   UNL A   1      41.013  29.986  33.061  1.00  0.00     0.167 HD
ATOM     60  C   UNL A   1      42.985  28.088  32.268  1.00  0.00     0.074 A 
ATOM     61  C   UNL A   1      43.770  27.175  31.461  1.00  0.00     0.031 C 
ATOM     62  C   UNL A   1      43.247  28.370  33.569  1.00  0.00     0.034 A 
BRANCH  49  63
ATOM     63  C   UNL A   1      39.478  32.579  36.082  1.00  0.00     0.023 A 
ATOM     64  C   UNL A   1      40.002  33.884  36.189  1.00  0.00     0.012 A 
ATOM     65  C   UNL A   1      38.610  32.095  37.080  1.00  0.00     0.148 A 
ATOM     66  C   UNL A   1      39.694  34.680  37.291  1.00  0.00     0.002 A 
ATOM     67  C   UNL A   1      38.266  32.914  38.145  1.00  0.00     0.091 A 
ATOM     68  F   UNL A   1      38.151  30.841  36.972  1.00  0.00    -0.205 F 
ATOM     69  C   UNL A   1      38.817  34.201  38.261  1.00  0.00     0.022 A 
BRANCH  67  70
ATOM     70  S   UNL A   1      37.087  32.415  39.402  1.00  0.00     0.127 S 
ATOM     71  O   UNL A   1      37.224  33.495  40.379  1.00  0.00    -0.237 OA
ATOM     72  O   UNL A   1      35.829  32.422  38.656  1.00  0.00    -0.237 OA
ATOM     73  O   UNL A   1      37.517  31.104  39.865  1.00  0.00    -0.744 OA
ENDBRANCH  67  70
ENDBRANCH  49  63
BRANCH  50  74
ATOM     74  C   UNL A   1      41.694  27.393  27.785  1.00  0.00     0.023 A 
ATOM     75  C   UNL A   1      42.174  28.101  26.666  1.00  0.00     0.012 A 
ATOM     76  C   UNL A   1      41.570  25.991  27.708  1.00  0.00     0.148 A 
ATOM     77  C   UNL A   1      42.484  27.432  25.481  1.00  0.00     0.002 A 
ATOM     78  C   UNL A   1      41.934  25.326  26.546  1.00  0.00     0.091 A 
ATOM     79  F   UNL A   1      41.104  25.338  28.782  1.00  0.00    -0.205 F 
ATOM     80  C   UNL A   1      42.371  26.045  25.423  1.00  0.00     0.022 A 
BRANCH  78  81
ATOM     81  S   UNL A   1      41.931  23.535  26.419  1.00  0.00     0.127 S 
ATOM     82  O   UNL A   1      42.737  23.152  27.576  1.00  0.00    -0.237 OA
ATOM     83  O   UNL A   1      40.504  23.232  26.533  1.00  0.00    -0.237 OA
ATOM     84  O   UNL A   1      42.513  23.228  25.120  1.00  0.00    -0.744 OA
ENDBRANCH  78  81
ENDBRANCH  50  74
BRANCH  62  85
ATOM     85  C   UNL A   1      44.391  27.644  34.227  1.00  0.00     0.023 A 
ATOM     86  C   UNL A   1      45.698  28.165  34.168  1.00  0.00     0.012 A 
ATOM     87  C   UNL A   1      44.144  26.477  34.978  1.00  0.00     0.148 A 
ATOM     88  C   UNL A   1      46.749  27.512  34.812  1.00  0.00     0.002 A 
ATOM     89  C   UNL A   1      45.183  25.867  35.666  1.00  0.00     0.091 A 
ATOM     90  F   UNL A   1      42.894  25.992  35.012  1.00  0.00    -0.205 F 
ATOM     91  C   UNL A   1      46.489  26.372  35.571  1.00  0.00     0.022 A 
BRANCH  89  92
ATOM     92  S   UNL A   1      44.924  24.459  36.750  1.00  0.00     0.127 S 
ATOM     93  O   UNL A   1      44.501  23.429  35.803  1.00  0.00    -0.237 OA
ATOM     94  O   UNL A   1      46.258  24.258  37.315  1.00  0.00    -0.237 OA
ATOM     95  O   UNL A   1      43.911  24.869  37.714  1.00  0.00    -0.744 OA
ENDBRANCH  89  92
ENDBRANCH  62  85
ENDBRANCH  36  37
ENDBRANCH  29  31
ENDBRANCH  28  29
ENDBRANCH  27  28
ENDBRANCH   1  27
TORSDOF 20
ENDMDL
