MODEL 1
REMARK VINA RESULT:     -11.7      0.000      0.000
REMARK SMILES C[C@H]1[C@H](C(=O)OCCOCCOC(=O)c2ccc(-c3c4nc(c(-c5cccc(S(=O)(=O)[O-])c5F)c5ccc([nH]5)c(-c5cccc(S(=O)(=O)[O-])c5F)c5nc(c(-c6cccc(S(=O)(=O)[O-])c6F)c6ccc3[nH]6)C=C5)C=C4)cc2)CC[N@H+]1[C@@H]1CCCC1(C)C
REMARK SMILES IDX 10 1 9 2 8 3 7 4 6 5 4 6 5 7 3 8 1 9 2 10 80 11 78 12 79 13
REMARK SMILES IDX 81 15 82 16 85 17 83 18 84 19 86 20 87 21 11 22 12 23 13 24
REMARK SMILES IDX 14 25 15 26 16 27 77 28 17 29 76 30 18 31 19 32 20 33 70 34
REMARK SMILES IDX 21 35 75 36 69 37 71 38 22 39 74 40 68 41 67 42 23 44 55 45
REMARK SMILES IDX 35 46 54 47 36 48 39 49 53 50 72 51 37 52 38 53 52 55 73 56
REMARK SMILES IDX 40 57 24 58 25 59 33 60 26 61 28 62 34 63 27 64 29 65 30 66
REMARK SMILES IDX 31 67 32 68 56 69 57 70 65 71 58 72 60 73 66 74 59 75 61 76
REMARK SMILES IDX 62 77 63 78 64 79 41 80 42 81 50 82 43 83 45 84 51 85 44 86
REMARK SMILES IDX 46 87 47 88 48 89 49 90
REMARK H PARENT 80 14 71 43 39 54
REMARK Flexibility Score: inf
ROOT
ATOM      1  C   UNL A   1      35.743  21.194  25.580  1.00  0.00     0.202 C 
ENDROOT
BRANCH   1   2
ATOM      2  O   UNL A   1      34.731  21.131  24.579  1.00  0.00    -0.374 OA
BRANCH   2   3
ATOM      3  C   UNL A   1      33.540  20.422  24.927  1.00  0.00     0.202 C 
BRANCH   3   4
ATOM      4  C   UNL A   1      32.217  21.054  24.481  1.00  0.00     0.261 C 
BRANCH   4   5
ATOM      5  O   UNL A   1      31.395  21.453  25.597  1.00  0.00    -0.463 OA
BRANCH   5   6
ATOM      6  C   UNL A   1      31.818  22.538  26.296  1.00  0.00     0.315 C 
ATOM      7  O   UNL A   1      31.682  22.691  27.505  1.00  0.00    -0.252 OA
BRANCH   6   8
ATOM      8  C   UNL A   1      32.447  23.600  25.424  1.00  0.00     0.162 C 
ATOM      9  C   UNL A   1      30.914  24.270  23.538  1.00  0.00     0.076 C 
ATOM     10  C   UNL A   1      31.541  24.710  24.865  1.00  0.00     0.195 C 
ATOM     11  N   UNL A   1      32.392  25.926  24.848  1.00  0.00    -0.329 N 
ATOM     12  C   UNL A   1      33.514  24.346  26.192  1.00  0.00     0.083 C 
ATOM     13  C   UNL A   1      33.718  25.584  25.344  1.00  0.00     0.263 C 
ATOM     14  H   UNL A   1      31.957  26.577  25.501  1.00  0.00     0.348 HD
BRANCH  11  15
ATOM     15  C   UNL A   1      32.284  26.893  23.753  1.00  0.00     0.189 C 
ATOM     16  C   UNL A   1      33.595  27.538  23.248  1.00  0.00     0.066 C 
ATOM     17  C   UNL A   1      31.304  28.111  23.893  1.00  0.00     0.017 C 
ATOM     18  C   UNL A   1      33.216  28.882  22.624  1.00  0.00     0.007 C 
ATOM     19  C   UNL A   1      31.694  28.929  22.643  1.00  0.00     0.013 C 
ATOM     20  C   UNL A   1      29.835  27.680  23.820  1.00  0.00     0.017 C 
ATOM     21  C   UNL A   1      31.498  29.000  25.135  1.00  0.00     0.017 C 
ENDBRANCH  11  15
ENDBRANCH   6   8
ENDBRANCH   5   6
ENDBRANCH   4   5
ENDBRANCH   3   4
ENDBRANCH   2   3
ENDBRANCH   1   2
BRANCH   1  22
ATOM     22  C   UNL A   1      37.127  20.667  25.188  1.00  0.00     0.261 C 
BRANCH  22  23
ATOM     23  O   UNL A   1      38.111  21.716  25.188  1.00  0.00    -0.460 OA
BRANCH  23  24
ATOM     24  C   UNL A   1      39.210  21.441  25.924  1.00  0.00     0.338 C 
ATOM     25  O   UNL A   1      39.923  20.447  25.833  1.00  0.00    -0.246 OA
BRANCH  24  26
ATOM     26  C   UNL A   1      39.578  22.586  26.774  1.00  0.00     0.060 A 
ATOM     27  C   UNL A   1      38.904  23.789  26.530  1.00  0.00     0.016 A 
ATOM     28  C   UNL A   1      40.613  22.529  27.711  1.00  0.00     0.016 A 
ATOM     29  C   UNL A   1      39.331  24.962  27.142  1.00  0.00     0.010 A 
ATOM     30  C   UNL A   1      41.040  23.711  28.329  1.00  0.00     0.010 A 
ATOM     31  C   UNL A   1      40.440  24.940  27.997  1.00  0.00    -0.014 A 
BRANCH  31  32
ATOM     32  C   UNL A   1      41.068  26.233  28.362  1.00  0.00     0.031 A 
ATOM     33  C   UNL A   1      42.484  26.503  27.926  1.00  0.00     0.074 A 
ATOM     34  C   UNL A   1      40.363  27.187  28.996  1.00  0.00     0.049 A 
ATOM     35  N   UNL A   1      43.191  27.598  28.035  1.00  0.00    -0.248 NA
ATOM     36  C   UNL A   1      43.201  25.391  27.278  1.00  0.00     0.031 C 
ATOM     37  C   UNL A   1      38.986  27.046  29.467  1.00  0.00     0.029 A 
ATOM     38  N   UNL A   1      40.712  28.465  29.350  1.00  0.00    -0.354 N 
ATOM     39  C   UNL A   1      44.434  27.304  27.488  1.00  0.00     0.074 A 
ATOM     40  C   UNL A   1      44.397  25.921  27.069  1.00  0.00     0.031 C 
ATOM     41  C   UNL A   1      38.610  28.191  30.061  1.00  0.00     0.029 A 
ATOM     42  C   UNL A   1      39.719  29.142  30.016  1.00  0.00     0.049 A 
ATOM     43  H   UNL A   1      41.590  28.859  29.147  1.00  0.00     0.167 HD
ATOM     44  C   UNL A   1      45.504  28.118  27.324  1.00  0.00     0.034 A 
ATOM     45  C   UNL A   1      39.709  30.389  30.529  1.00  0.00     0.034 A 
ATOM     46  C   UNL A   1      45.532  29.501  27.716  1.00  0.00     0.049 A 
ATOM     47  C   UNL A   1      40.910  31.276  30.330  1.00  0.00     0.074 A 
ATOM     48  C   UNL A   1      46.552  30.422  27.554  1.00  0.00     0.029 A 
ATOM     49  N   UNL A   1      44.494  30.162  28.354  1.00  0.00    -0.354 N 
ATOM     50  N   UNL A   1      42.029  31.023  29.694  1.00  0.00    -0.248 NA
ATOM     51  C   UNL A   1      40.830  32.636  30.882  1.00  0.00     0.031 C 
ATOM     52  C   UNL A   1      46.136  31.635  28.112  1.00  0.00     0.029 A 
ATOM     53  C   UNL A   1      44.850  31.476  28.600  1.00  0.00     0.049 A 
ATOM     54  H   UNL A   1      43.630  29.756  28.595  1.00  0.00     0.167 HD
ATOM     55  C   UNL A   1      42.769  32.199  29.738  1.00  0.00     0.074 A 
ATOM     56  C   UNL A   1      41.961  33.173  30.443  1.00  0.00     0.031 C 
ATOM     57  C   UNL A   1      44.012  32.449  29.254  1.00  0.00     0.034 A 
BRANCH  44  58
ATOM     58  C   UNL A   1      46.724  27.539  26.658  1.00  0.00     0.023 A 
ATOM     59  C   UNL A   1      47.593  26.708  27.394  1.00  0.00     0.012 A 
ATOM     60  C   UNL A   1      46.986  27.776  25.294  1.00  0.00     0.148 A 
ATOM     61  C   UNL A   1      48.719  26.147  26.794  1.00  0.00     0.002 A 
ATOM     62  C   UNL A   1      48.089  27.181  24.692  1.00  0.00     0.091 A 
ATOM     63  F   UNL A   1      46.164  28.591  24.616  1.00  0.00    -0.205 F 
ATOM     64  C   UNL A   1      48.962  26.376  25.443  1.00  0.00     0.022 A 
BRANCH  62  65
ATOM     65  S   UNL A   1      48.446  27.357  22.941  1.00  0.00     0.127 S 
ATOM     66  O   UNL A   1      49.789  27.934  22.969  1.00  0.00    -0.237 OA
ATOM     67  O   UNL A   1      48.390  25.971  22.473  1.00  0.00    -0.237 OA
ATOM     68  O   UNL A   1      47.403  28.220  22.405  1.00  0.00    -0.744 OA
ENDBRANCH  62  65
ENDBRANCH  44  58
BRANCH  45  69
ATOM     69  C   UNL A   1      38.493  30.893  31.229  1.00  0.00     0.023 A 
ATOM     70  C   UNL A   1      38.392  30.770  32.629  1.00  0.00     0.012 A 
ATOM     71  C   UNL A   1      37.448  31.512  30.517  1.00  0.00     0.148 A 
ATOM     72  C   UNL A   1      37.259  31.228  33.302  1.00  0.00     0.002 A 
ATOM     73  C   UNL A   1      36.347  32.014  31.200  1.00  0.00     0.091 A 
ATOM     74  F   UNL A   1      37.554  31.601  29.183  1.00  0.00    -0.205 F 
ATOM     75  C   UNL A   1      36.242  31.859  32.591  1.00  0.00     0.022 A 
BRANCH  73  76
ATOM     76  S   UNL A   1      35.056  32.956  30.378  1.00  0.00     0.127 S 
ATOM     77  O   UNL A   1      35.804  34.096  29.855  1.00  0.00    -0.237 OA
ATOM     78  O   UNL A   1      34.587  32.009  29.366  1.00  0.00    -0.237 OA
ATOM     79  O   UNL A   1      34.075  33.260  31.412  1.00  0.00    -0.744 OA
ENDBRANCH  73  76
ENDBRANCH  45  69
BRANCH  57  80
ATOM     80  C   UNL A   1      44.568  33.837  29.441  1.00  0.00     0.023 A 
ATOM     81  C   UNL A   1      45.249  34.163  30.630  1.00  0.00     0.012 A 
ATOM     82  C   UNL A   1      44.473  34.797  28.413  1.00  0.00     0.148 A 
ATOM     83  C   UNL A   1      45.793  35.435  30.810  1.00  0.00     0.002 A 
ATOM     84  C   UNL A   1      45.059  36.047  28.581  1.00  0.00     0.091 A 
ATOM     85  F   UNL A   1      43.804  34.477  27.296  1.00  0.00    -0.205 F 
ATOM     86  C   UNL A   1      45.707  36.371  29.783  1.00  0.00     0.022 A 
BRANCH  84  87
ATOM     87  S   UNL A   1      45.077  37.275  27.270  1.00  0.00     0.127 S 
ATOM     88  O   UNL A   1      45.906  36.621  26.259  1.00  0.00    -0.237 OA
ATOM     89  O   UNL A   1      43.661  37.382  26.919  1.00  0.00    -0.237 OA
ATOM     90  O   UNL A   1      45.640  38.480  27.866  1.00  0.00    -0.744 OA
ENDBRANCH  84  87
ENDBRANCH  57  80
ENDBRANCH  31  32
ENDBRANCH  24  26
ENDBRANCH  23  24
ENDBRANCH  22  23
ENDBRANCH   1  22
TORSDOF 18
ENDMDL
MODEL 2
REMARK VINA RESULT:     -11.6      1.577      7.832
REMARK SMILES C[C@H]1[C@H](C(=O)OCCOCCOC(=O)c2ccc(-c3c4nc(c(-c5cccc(S(=O)(=O)[O-])c5F)c5ccc([nH]5)c(-c5cccc(S(=O)(=O)[O-])c5F)c5nc(c(-c6cccc(S(=O)(=O)[O-])c6F)c6ccc3[nH]6)C=C5)C=C4)cc2)CC[N@H+]1[C@@H]1CCCC1(C)C
REMARK SMILES IDX 10 1 9 2 8 3 7 4 6 5 4 6 5 7 3 8 1 9 2 10 80 11 78 12 79 13
REMARK SMILES IDX 81 15 82 16 85 17 83 18 84 19 86 20 87 21 11 22 12 23 13 24
REMARK SMILES IDX 14 25 15 26 16 27 77 28 17 29 76 30 18 31 19 32 20 33 70 34
REMARK SMILES IDX 21 35 75 36 69 37 71 38 22 39 74 40 68 41 67 42 23 44 55 45
REMARK SMILES IDX 35 46 54 47 36 48 39 49 53 50 72 51 37 52 38 53 52 55 73 56
REMARK SMILES IDX 40 57 24 58 25 59 33 60 26 61 28 62 34 63 27 64 29 65 30 66
REMARK SMILES IDX 31 67 32 68 56 69 57 70 65 71 58 72 60 73 66 74 59 75 61 76
REMARK SMILES IDX 62 77 63 78 64 79 41 80 42 81 50 82 43 83 45 84 51 85 44 86
REMARK SMILES IDX 46 87 47 88 48 89 49 90
REMARK H PARENT 80 14 71 43 39 54
REMARK Flexibility Score: inf
ROOT
ATOM      1  C   UNL A   1      35.903  20.324  25.030  1.00  0.00     0.202 C 
ENDROOT
BRANCH   1   2
ATOM      2  O   UNL A   1      35.643  21.464  25.845  1.00  0.00    -0.374 OA
BRANCH   2   3
ATOM      3  C   UNL A   1      34.422  21.445  26.589  1.00  0.00     0.202 C 
BRANCH   3   4
ATOM      4  C   UNL A   1      33.281  20.607  26.001  1.00  0.00     0.261 C 
BRANCH   4   5
ATOM      5  O   UNL A   1      32.331  21.409  25.270  1.00  0.00    -0.463 OA
BRANCH   5   6
ATOM      6  C   UNL A   1      32.472  21.423  23.919  1.00  0.00     0.315 C 
ATOM      7  O   UNL A   1      32.482  20.428  23.203  1.00  0.00    -0.252 OA
BRANCH   6   8
ATOM      8  C   UNL A   1      32.672  22.811  23.356  1.00  0.00     0.162 C 
ATOM      9  C   UNL A   1      30.599  24.222  23.625  1.00  0.00     0.076 C 
ATOM     10  C   UNL A   1      32.036  23.996  24.104  1.00  0.00     0.195 C 
ATOM     11  N   UNL A   1      32.996  25.115  23.934  1.00  0.00    -0.329 N 
ATOM     12  C   UNL A   1      34.143  23.152  23.308  1.00  0.00     0.083 C 
ATOM     13  C   UNL A   1      34.123  24.655  23.133  1.00  0.00     0.263 C 
ATOM     14  H   UNL A   1      33.331  25.338  24.871  1.00  0.00     0.348 HD
BRANCH  11  15
ATOM     15  C   UNL A   1      32.514  26.485  23.740  1.00  0.00     0.189 C 
ATOM     16  C   UNL A   1      33.218  27.335  22.657  1.00  0.00     0.066 C 
ATOM     17  C   UNL A   1      32.426  27.454  24.971  1.00  0.00     0.017 C 
ATOM     18  C   UNL A   1      33.025  28.801  23.051  1.00  0.00     0.007 C 
ATOM     19  C   UNL A   1      32.098  28.783  24.259  1.00  0.00     0.013 C 
ATOM     20  C   UNL A   1      31.299  27.062  25.933  1.00  0.00     0.017 C 
ATOM     21  C   UNL A   1      33.723  27.644  25.779  1.00  0.00     0.017 C 
ENDBRANCH  11  15
ENDBRANCH   6   8
ENDBRANCH   5   6
ENDBRANCH   4   5
ENDBRANCH   3   4
ENDBRANCH   2   3
ENDBRANCH   1   2
BRANCH   1  22
ATOM     22  C   UNL A   1      37.350  19.824  24.995  1.00  0.00     0.261 C 
BRANCH  22  23
ATOM     23  O   UNL A   1      38.286  20.911  25.093  1.00  0.00    -0.460 OA
BRANCH  23  24
ATOM     24  C   UNL A   1      39.293  20.695  25.968  1.00  0.00     0.338 C 
ATOM     25  O   UNL A   1      39.917  19.651  26.124  1.00  0.00    -0.246 OA
BRANCH  24  26
ATOM     26  C   UNL A   1      39.693  21.947  26.633  1.00  0.00     0.060 A 
ATOM     27  C   UNL A   1      39.065  23.119  26.192  1.00  0.00     0.016 A 
ATOM     28  C   UNL A   1      40.717  22.004  27.583  1.00  0.00     0.016 A 
ATOM     29  C   UNL A   1      39.527  24.358  26.619  1.00  0.00     0.010 A 
ATOM     30  C   UNL A   1      41.180  23.254  28.013  1.00  0.00     0.010 A 
ATOM     31  C   UNL A   1      40.627  24.434  27.483  1.00  0.00    -0.014 A 
BRANCH  31  32
ATOM     32  C   UNL A   1      41.297  25.747  27.649  1.00  0.00     0.031 A 
ATOM     33  C   UNL A   1      40.572  26.845  28.383  1.00  0.00     0.074 A 
ATOM     34  C   UNL A   1      42.562  25.934  27.232  1.00  0.00     0.049 A 
ATOM     35  N   UNL A   1      41.002  28.027  28.741  1.00  0.00    -0.248 NA
ATOM     36  C   UNL A   1      39.175  26.576  28.767  1.00  0.00     0.031 C 
ATOM     37  C   UNL A   1      43.367  24.948  26.512  1.00  0.00     0.029 A 
ATOM     38  N   UNL A   1      43.390  27.020  27.357  1.00  0.00    -0.354 N 
ATOM     39  C   UNL A   1      39.931  28.645  29.374  1.00  0.00     0.074 A 
ATOM     40  C   UNL A   1      38.821  27.720  29.331  1.00  0.00     0.031 C 
ATOM     41  C   UNL A   1      44.572  25.482  26.248  1.00  0.00     0.029 A 
ATOM     42  C   UNL A   1      44.621  26.845  26.775  1.00  0.00     0.049 A 
ATOM     43  H   UNL A   1      43.125  27.848  27.820  1.00  0.00     0.167 HD
ATOM     44  C   UNL A   1      39.880  29.864  29.963  1.00  0.00     0.034 A 
ATOM     45  C   UNL A   1      45.668  27.688  26.681  1.00  0.00     0.034 A 
ATOM     46  C   UNL A   1      40.991  30.773  30.031  1.00  0.00     0.049 A 
ATOM     47  C   UNL A   1      45.588  29.036  27.347  1.00  0.00     0.074 A 
ATOM     48  C   UNL A   1      41.055  32.013  30.643  1.00  0.00     0.029 A 
ATOM     49  N   UNL A   1      42.235  30.543  29.462  1.00  0.00    -0.354 N 
ATOM     50  N   UNL A   1      44.612  29.553  28.055  1.00  0.00    -0.248 NA
ATOM     51  C   UNL A   1      46.772  29.902  27.239  1.00  0.00     0.031 C 
ATOM     52  C   UNL A   1      42.332  32.541  30.427  1.00  0.00     0.029 A 
ATOM     53  C   UNL A   1      43.071  31.620  29.701  1.00  0.00     0.049 A 
ATOM     54  H   UNL A   1      42.486  29.733  28.963  1.00  0.00     0.167 HD
ATOM     55  C   UNL A   1      45.075  30.784  28.505  1.00  0.00     0.074 A 
ATOM     56  C   UNL A   1      46.429  30.925  28.010  1.00  0.00     0.031 C 
ATOM     57  C   UNL A   1      44.435  31.722  29.248  1.00  0.00     0.034 A 
BRANCH  44  58
ATOM     58  C   UNL A   1      38.584  30.269  30.616  1.00  0.00     0.023 A 
ATOM     59  C   UNL A   1      38.325  29.885  31.947  1.00  0.00     0.012 A 
ATOM     60  C   UNL A   1      37.646  31.066  29.931  1.00  0.00     0.148 A 
ATOM     61  C   UNL A   1      37.140  30.262  32.577  1.00  0.00     0.002 A 
ATOM     62  C   UNL A   1      36.485  31.472  30.580  1.00  0.00     0.091 A 
ATOM     63  F   UNL A   1      37.898  31.399  28.657  1.00  0.00    -0.205 F 
ATOM     64  C   UNL A   1      36.226  31.062  31.898  1.00  0.00     0.022 A 
BRANCH  62  65
ATOM     65  S   UNL A   1      35.281  32.562  29.813  1.00  0.00     0.127 S 
ATOM     66  O   UNL A   1      34.749  31.713  28.748  1.00  0.00    -0.237 OA
ATOM     67  O   UNL A   1      34.349  32.815  30.913  1.00  0.00    -0.237 OA
ATOM     68  O   UNL A   1      36.026  33.732  29.370  1.00  0.00    -0.744 OA
ENDBRANCH  62  65
ENDBRANCH  44  58
BRANCH  45  69
ATOM     69  C   UNL A   1      46.908  27.256  25.974  1.00  0.00     0.023 A 
ATOM     70  C   UNL A   1      47.052  27.513  24.597  1.00  0.00     0.012 A 
ATOM     71  C   UNL A   1      47.951  26.612  26.666  1.00  0.00     0.148 A 
ATOM     72  C   UNL A   1      48.201  27.109  23.915  1.00  0.00     0.002 A 
ATOM     73  C   UNL A   1      49.116  26.261  25.992  1.00  0.00     0.091 A 
ATOM     74  F   UNL A   1      47.787  26.358  27.972  1.00  0.00    -0.205 F 
ATOM     75  C   UNL A   1      49.236  26.493  24.614  1.00  0.00     0.022 A 
BRANCH  73  76
ATOM     76  S   UNL A   1      50.548  25.584  26.841  1.00  0.00     0.127 S 
ATOM     77  O   UNL A   1      51.483  25.386  25.736  1.00  0.00    -0.237 OA
ATOM     78  O   UNL A   1      50.898  26.669  27.758  1.00  0.00    -0.237 OA
ATOM     79  O   UNL A   1      50.075  24.374  27.499  1.00  0.00    -0.744 OA
ENDBRANCH  73  76
ENDBRANCH  45  69
BRANCH  57  80
ATOM     80  C   UNL A   1      45.196  32.974  29.599  1.00  0.00     0.023 A 
ATOM     81  C   UNL A   1      45.977  33.012  30.771  1.00  0.00     0.012 A 
ATOM     82  C   UNL A   1      45.190  34.088  28.737  1.00  0.00     0.148 A 
ATOM     83  C   UNL A   1      46.709  34.152  31.099  1.00  0.00     0.002 A 
ATOM     84  C   UNL A   1      45.960  35.205  29.046  1.00  0.00     0.091 A 
ATOM     85  F   UNL A   1      44.426  34.044  27.635  1.00  0.00    -0.205 F 
ATOM     86  C   UNL A   1      46.709  35.243  30.233  1.00  0.00     0.022 A 
BRANCH  84  87
ATOM     87  S   UNL A   1      46.091  36.610  27.936  1.00  0.00     0.127 S 
ATOM     88  O   UNL A   1      44.728  37.138  27.959  1.00  0.00    -0.237 OA
ATOM     89  O   UNL A   1      47.080  37.453  28.610  1.00  0.00    -0.237 OA
ATOM     90  O   UNL A   1      46.537  36.066  26.661  1.00  0.00    -0.744 OA
ENDBRANCH  84  87
ENDBRANCH  57  80
ENDBRANCH  31  32
ENDBRANCH  24  26
ENDBRANCH  23  24
ENDBRANCH  22  23
ENDBRANCH   1  22
TORSDOF 18
ENDMDL
MODEL 3
REMARK VINA RESULT:     -11.4      1.100      7.689
REMARK SMILES C[C@H]1[C@H](C(=O)OCCOCCOC(=O)c2ccc(-c3c4nc(c(-c5cccc(S(=O)(=O)[O-])c5F)c5ccc([nH]5)c(-c5cccc(S(=O)(=O)[O-])c5F)c5nc(c(-c6cccc(S(=O)(=O)[O-])c6F)c6ccc3[nH]6)C=C5)C=C4)cc2)CC[N@H+]1[C@@H]1CCCC1(C)C
REMARK SMILES IDX 10 1 9 2 8 3 7 4 6 5 4 6 5 7 3 8 1 9 2 10 80 11 78 12 79 13
REMARK SMILES IDX 81 15 82 16 85 17 83 18 84 19 86 20 87 21 11 22 12 23 13 24
REMARK SMILES IDX 14 25 15 26 16 27 77 28 17 29 76 30 18 31 19 32 20 33 70 34
REMARK SMILES IDX 21 35 75 36 69 37 71 38 22 39 74 40 68 41 67 42 23 44 55 45
REMARK SMILES IDX 35 46 54 47 36 48 39 49 53 50 72 51 37 52 38 53 52 55 73 56
REMARK SMILES IDX 40 57 24 58 25 59 33 60 26 61 28 62 34 63 27 64 29 65 30 66
REMARK SMILES IDX 31 67 32 68 56 69 57 70 65 71 58 72 60 73 66 74 59 75 61 76
REMARK SMILES IDX 62 77 63 78 64 79 41 80 42 81 50 82 43 83 45 84 51 85 44 86
REMARK SMILES IDX 46 87 47 88 48 89 49 90
REMARK H PARENT 80 14 71 43 39 54
REMARK Flexibility Score: inf
ROOT
ATOM      1  C   UNL A   1      36.127  20.997  25.425  1.00  0.00     0.202 C 
ENDROOT
BRANCH   1   2
ATOM      2  O   UNL A   1      35.020  20.794  24.551  1.00  0.00    -0.374 OA
BRANCH   2   3
ATOM      3  C   UNL A   1      34.031  19.858  24.989  1.00  0.00     0.202 C 
BRANCH   3   4
ATOM      4  C   UNL A   1      33.056  20.354  26.064  1.00  0.00     0.261 C 
BRANCH   4   5
ATOM      5  O   UNL A   1      32.615  21.705  25.824  1.00  0.00    -0.463 OA
BRANCH   5   6
ATOM      6  C   UNL A   1      32.651  22.547  26.890  1.00  0.00     0.315 C 
ATOM      7  O   UNL A   1      32.555  22.200  28.062  1.00  0.00    -0.252 OA
BRANCH   6   8
ATOM      8  C   UNL A   1      32.773  24.000  26.496  1.00  0.00     0.162 C 
ATOM      9  C   UNL A   1      34.882  24.424  25.180  1.00  0.00     0.076 C 
ATOM     10  C   UNL A   1      33.354  24.331  25.110  1.00  0.00     0.195 C 
ATOM     11  N   UNL A   1      32.616  25.538  24.664  1.00  0.00    -0.329 N 
ATOM     12  C   UNL A   1      31.413  24.660  26.493  1.00  0.00     0.083 C 
ATOM     13  C   UNL A   1      31.668  25.925  25.701  1.00  0.00     0.263 C 
ATOM     14  H   UNL A   1      32.095  25.253  23.835  1.00  0.00     0.348 HD
BRANCH  11  15
ATOM     15  C   UNL A   1      33.302  26.594  23.917  1.00  0.00     0.189 C 
ATOM     16  C   UNL A   1      33.536  27.938  24.645  1.00  0.00     0.066 C 
ATOM     17  C   UNL A   1      32.752  27.028  22.512  1.00  0.00     0.017 C 
ATOM     18  C   UNL A   1      33.651  29.014  23.563  1.00  0.00     0.007 C 
ATOM     19  C   UNL A   1      33.630  28.266  22.237  1.00  0.00     0.013 C 
ATOM     20  C   UNL A   1      32.985  25.951  21.445  1.00  0.00     0.017 C 
ATOM     21  C   UNL A   1      31.275  27.460  22.464  1.00  0.00     0.017 C 
ENDBRANCH  11  15
ENDBRANCH   6   8
ENDBRANCH   5   6
ENDBRANCH   4   5
ENDBRANCH   3   4
ENDBRANCH   2   3
ENDBRANCH   1   2
BRANCH   1  22
ATOM     22  C   UNL A   1      37.378  20.158  25.151  1.00  0.00     0.261 C 
BRANCH  22  23
ATOM     23  O   UNL A   1      38.552  20.981  25.045  1.00  0.00    -0.460 OA
BRANCH  23  24
ATOM     24  C   UNL A   1      39.449  20.794  26.038  1.00  0.00     0.338 C 
ATOM     25  O   UNL A   1      40.000  19.740  26.339  1.00  0.00    -0.246 OA
BRANCH  24  26
ATOM     26  C   UNL A   1      39.840  22.077  26.647  1.00  0.00     0.060 A 
ATOM     27  C   UNL A   1      39.237  23.228  26.124  1.00  0.00     0.016 A 
ATOM     28  C   UNL A   1      40.834  22.177  27.624  1.00  0.00     0.016 A 
ATOM     29  C   UNL A   1      39.697  24.485  26.497  1.00  0.00     0.010 A 
ATOM     30  C   UNL A   1      41.295  23.446  28.000  1.00  0.00     0.010 A 
ATOM     31  C   UNL A   1      40.770  24.600  27.390  1.00  0.00    -0.014 A 
BRANCH  31  32
ATOM     32  C   UNL A   1      41.446  25.914  27.506  1.00  0.00     0.031 A 
ATOM     33  C   UNL A   1      40.758  27.022  28.260  1.00  0.00     0.074 A 
ATOM     34  C   UNL A   1      42.689  26.096  27.025  1.00  0.00     0.049 A 
ATOM     35  N   UNL A   1      41.204  28.208  28.582  1.00  0.00    -0.248 NA
ATOM     36  C   UNL A   1      39.381  26.757  28.716  1.00  0.00     0.031 C 
ATOM     37  C   UNL A   1      43.459  25.101  26.279  1.00  0.00     0.029 A 
ATOM     38  N   UNL A   1      43.521  27.184  27.095  1.00  0.00    -0.354 N 
ATOM     39  C   UNL A   1      40.165  28.835  29.259  1.00  0.00     0.074 A 
ATOM     40  C   UNL A   1      39.055  27.909  29.283  1.00  0.00     0.031 C 
ATOM     41  C   UNL A   1      44.649  25.631  25.949  1.00  0.00     0.029 A 
ATOM     42  C   UNL A   1      44.722  27.001  26.455  1.00  0.00     0.049 A 
ATOM     43  H   UNL A   1      43.279  28.018  27.560  1.00  0.00     0.167 HD
ATOM     44  C   UNL A   1      40.142  30.061  29.834  1.00  0.00     0.034 A 
ATOM     45  C   UNL A   1      45.763  27.843  26.299  1.00  0.00     0.034 A 
ATOM     46  C   UNL A   1      41.255  30.971  29.836  1.00  0.00     0.049 A 
ATOM     47  C   UNL A   1      45.715  29.200  26.951  1.00  0.00     0.074 A 
ATOM     48  C   UNL A   1      41.348  32.218  30.428  1.00  0.00     0.029 A 
ATOM     49  N   UNL A   1      42.469  30.734  29.209  1.00  0.00    -0.354 N 
ATOM     50  N   UNL A   1      44.774  29.726  27.699  1.00  0.00    -0.248 NA
ATOM     51  C   UNL A   1      46.891  30.064  26.774  1.00  0.00     0.031 C 
ATOM     52  C   UNL A   1      42.612  32.743  30.142  1.00  0.00     0.029 A 
ATOM     53  C   UNL A   1      43.315  31.814  29.393  1.00  0.00     0.049 A 
ATOM     54  H   UNL A   1      42.696  29.917  28.709  1.00  0.00     0.167 HD
ATOM     55  C   UNL A   1      45.258  30.962  28.110  1.00  0.00     0.074 A 
ATOM     56  C   UNL A   1      46.586  31.097  27.548  1.00  0.00     0.031 C 
ATOM     57  C   UNL A   1      44.655  31.910  28.872  1.00  0.00     0.034 A 
BRANCH  44  58
ATOM     58  C   UNL A   1      38.880  30.474  30.545  1.00  0.00     0.023 A 
ATOM     59  C   UNL A   1      38.740  30.215  31.923  1.00  0.00     0.012 A 
ATOM     60  C   UNL A   1      37.854  31.157  29.862  1.00  0.00     0.148 A 
ATOM     61  C   UNL A   1      37.588  30.603  32.605  1.00  0.00     0.002 A 
ATOM     62  C   UNL A   1      36.726  31.576  30.558  1.00  0.00     0.091 A 
ATOM     63  F   UNL A   1      37.993  31.370  28.545  1.00  0.00    -0.205 F 
ATOM     64  C   UNL A   1      36.587  31.291  31.926  1.00  0.00     0.022 A 
BRANCH  62  65
ATOM     65  S   UNL A   1      35.415  32.532  29.786  1.00  0.00     0.127 S 
ATOM     66  O   UNL A   1      36.134  33.732  29.362  1.00  0.00    -0.237 OA
ATOM     67  O   UNL A   1      34.997  31.654  28.692  1.00  0.00    -0.237 OA
ATOM     68  O   UNL A   1      34.409  32.736  30.818  1.00  0.00    -0.744 OA
ENDBRANCH  62  65
ENDBRANCH  44  58
BRANCH  45  69
ATOM     69  C   UNL A   1      46.967  27.402  25.538  1.00  0.00     0.023 A 
ATOM     70  C   UNL A   1      47.923  26.577  26.160  1.00  0.00     0.012 A 
ATOM     71  C   UNL A   1      47.156  27.781  24.195  1.00  0.00     0.148 A 
ATOM     72  C   UNL A   1      49.061  26.161  25.468  1.00  0.00     0.002 A 
ATOM     73  C   UNL A   1      48.264  27.318  23.495  1.00  0.00     0.091 A 
ATOM     74  F   UNL A   1      46.245  28.583  23.626  1.00  0.00    -0.205 F 
ATOM     75  C   UNL A   1      49.227  26.522  24.134  1.00  0.00     0.022 A 
BRANCH  73  76
ATOM     76  S   UNL A   1      48.487  27.627  21.739  1.00  0.00     0.127 S 
ATOM     77  O   UNL A   1      49.436  28.737  21.748  1.00  0.00    -0.237 OA
ATOM     78  O   UNL A   1      49.034  26.352  21.273  1.00  0.00    -0.237 OA
ATOM     79  O   UNL A   1      47.158  27.931  21.224  1.00  0.00    -0.744 OA
ENDBRANCH  73  76
ENDBRANCH  45  69
BRANCH  57  80
ATOM     80  C   UNL A   1      45.431  33.166  29.169  1.00  0.00     0.023 A 
ATOM     81  C   UNL A   1      46.244  33.231  30.318  1.00  0.00     0.012 A 
ATOM     82  C   UNL A   1      45.408  34.257  28.278  1.00  0.00     0.148 A 
ATOM     83  C   UNL A   1      46.990  34.375  30.596  1.00  0.00     0.002 A 
ATOM     84  C   UNL A   1      46.191  35.377  28.537  1.00  0.00     0.091 A 
ATOM     85  F   UNL A   1      44.614  34.188  27.199  1.00  0.00    -0.205 F 
ATOM     86  C   UNL A   1      46.973  35.442  29.702  1.00  0.00     0.022 A 
BRANCH  84  87
ATOM     87  S   UNL A   1      46.299  36.752  27.387  1.00  0.00     0.127 S 
ATOM     88  O   UNL A   1      44.930  37.264  27.403  1.00  0.00    -0.237 OA
ATOM     89  O   UNL A   1      47.282  37.625  28.030  1.00  0.00    -0.237 OA
ATOM     90  O   UNL A   1      46.744  36.177  26.124  1.00  0.00    -0.744 OA
ENDBRANCH  84  87
ENDBRANCH  57  80
ENDBRANCH  31  32
ENDBRANCH  24  26
ENDBRANCH  23  24
ENDBRANCH  22  23
ENDBRANCH   1  22
TORSDOF 18
ENDMDL
