MODEL 1
REMARK VINA RESULT:     -10.3      0.000      0.000
REMARK SMILES Cc1cc(C)n2ncc(C(=O)N(C)CCCC(=O)OCCOCCOC(=O)c3ccc(-c4c5nc(c(-c6cccc(S(=O)(=O)[O-])c6F)c6ccc([nH]6)c(-c6cccc(S(=O)(=O)[O-])c6F)c6nc(c(-c7cccc(S(=O)(=O)[O-])c7F)c7ccc4[nH]7)C=C6)C=C5)cc3)c2n1
REMARK SMILES IDX 21 1 20 2 19 3 17 4 18 5 16 6 15 7 14 8 12 9 13 10 10 11
REMARK SMILES IDX 11 12 9 13 1 14 2 15 3 16 92 17 4 18 91 19 5 20 6 21 7 22
REMARK SMILES IDX 8 23 22 24 23 25 24 26 25 27 26 28 27 29 28 30 29 31 90 32
REMARK SMILES IDX 30 33 89 34 31 35 32 36 33 37 83 38 34 39 88 40 82 41 84 42
REMARK SMILES IDX 35 43 87 44 81 45 80 46 36 48 68 49 48 50 67 51 49 52 52 53
REMARK SMILES IDX 66 54 85 55 50 56 51 57 65 59 86 60 53 61 37 62 38 63 46 64
REMARK SMILES IDX 39 65 41 66 47 67 40 68 42 69 43 70 44 71 45 72 69 73 70 74
REMARK SMILES IDX 78 75 71 76 73 77 79 78 72 79 74 80 75 81 76 82 77 83 54 84
REMARK SMILES IDX 55 85 63 86 56 87 58 88 64 89 57 90 59 91 60 92 61 93 62 94
REMARK H PARENT 84 47 52 58
REMARK Flexibility Score: inf
ROOT
ATOM      1  C   UNL A   1      34.001  27.919  26.552  1.00  0.00     0.202 C 
ENDROOT
BRANCH   1   2
ATOM      2  C   UNL A   1      33.883  28.235  25.065  1.00  0.00     0.261 C 
BRANCH   2   3
ATOM      3  O   UNL A   1      33.447  27.082  24.336  1.00  0.00    -0.463 OA
BRANCH   3   4
ATOM      4  C   UNL A   1      32.325  27.227  23.594  1.00  0.00     0.305 C 
ATOM      5  O   UNL A   1      31.709  28.278  23.443  1.00  0.00    -0.252 OA
BRANCH   4   6
ATOM      6  C   UNL A   1      31.935  25.958  22.865  1.00  0.00     0.124 C 
BRANCH   6   7
ATOM      7  C   UNL A   1      30.634  25.249  23.253  1.00  0.00     0.033 C 
BRANCH   7   8
ATOM      8  C   UNL A   1      30.701  24.117  24.289  1.00  0.00     0.120 C 
BRANCH   8   9
ATOM      9  N   UNL A   1      30.937  24.568  25.664  1.00  0.00    -0.342 N 
ATOM     10  C   UNL A   1      29.997  25.568  26.140  1.00  0.00     0.147 C 
BRANCH   9  11
ATOM     11  C   UNL A   1      31.841  23.819  26.432  1.00  0.00     0.259 C 
ATOM     12  O   UNL A   1      31.471  23.367  27.517  1.00  0.00    -0.269 OA
BRANCH  11  13
ATOM     13  C   UNL A   1      33.180  23.481  25.962  1.00  0.00     0.104 A 
ATOM     14  C   UNL A   1      32.614  18.712  24.831  1.00  0.00     0.067 C 
ATOM     15  C   UNL A   1      33.412  19.978  25.029  1.00  0.00     0.042 A 
ATOM     16  C   UNL A   1      34.898  19.869  24.910  1.00  0.00     0.047 A 
ATOM     17  N   UNL A   1      32.771  21.075  25.308  1.00  0.00    -0.233 NA
ATOM     18  C   UNL A   1      35.592  21.011  25.050  1.00  0.00     0.043 A 
ATOM     19  C   UNL A   1      33.520  22.207  25.511  1.00  0.00     0.168 A 
ATOM     20  C   UNL A   1      37.084  21.072  24.972  1.00  0.00     0.067 C 
ATOM     21  N   UNL A   1      34.903  22.201  25.327  1.00  0.00    -0.219 N 
ATOM     22  N   UNL A   1      35.427  23.440  25.483  1.00  0.00    -0.174 NA
ATOM     23  C   UNL A   1      34.401  24.179  25.903  1.00  0.00     0.151 A 
ENDBRANCH  11  13
ENDBRANCH   9  11
ENDBRANCH   8   9
ENDBRANCH   7   8
ENDBRANCH   6   7
ENDBRANCH   4   6
ENDBRANCH   3   4
ENDBRANCH   2   3
ENDBRANCH   1   2
BRANCH   1  24
ATOM     24  O   UNL A   1      34.172  29.020  27.447  1.00  0.00    -0.374 OA
BRANCH  24  25
ATOM     25  C   UNL A   1      34.029  30.353  26.960  1.00  0.00     0.202 C 
BRANCH  25  26
ATOM     26  C   UNL A   1      34.184  31.499  27.950  1.00  0.00     0.261 C 
BRANCH  26  27
ATOM     27  O   UNL A   1      35.496  31.580  28.482  1.00  0.00    -0.460 OA
BRANCH  27  28
ATOM     28  C   UNL A   1      35.523  31.914  29.795  1.00  0.00     0.338 C 
ATOM     29  O   UNL A   1      34.899  32.805  30.339  1.00  0.00    -0.246 OA
BRANCH  28  30
ATOM     30  C   UNL A   1      36.578  31.142  30.456  1.00  0.00     0.060 A 
ATOM     31  C   UNL A   1      37.760  31.840  30.698  1.00  0.00     0.016 A 
ATOM     32  C   UNL A   1      36.520  29.741  30.436  1.00  0.00     0.016 A 
ATOM     33  C   UNL A   1      38.937  31.140  30.615  1.00  0.00     0.010 A 
ATOM     34  C   UNL A   1      37.696  29.043  30.352  1.00  0.00     0.010 A 
ATOM     35  C   UNL A   1      38.880  29.770  30.331  1.00  0.00    -0.014 A 
BRANCH  35  36
ATOM     36  C   UNL A   1      40.131  29.072  30.160  1.00  0.00     0.031 A 
ATOM     37  C   UNL A   1      40.787  28.878  31.466  1.00  0.00     0.074 A 
ATOM     38  C   UNL A   1      40.569  28.635  28.963  1.00  0.00     0.049 A 
ATOM     39  N   UNL A   1      41.768  29.567  31.944  1.00  0.00    -0.248 NA
ATOM     40  C   UNL A   1      40.107  28.028  32.457  1.00  0.00     0.031 C 
ATOM     41  C   UNL A   1      39.829  28.584  27.697  1.00  0.00     0.029 A 
ATOM     42  N   UNL A   1      41.745  28.030  28.650  1.00  0.00    -0.354 N 
ATOM     43  C   UNL A   1      42.010  29.000  33.189  1.00  0.00     0.074 A 
ATOM     44  C   UNL A   1      40.814  28.294  33.556  1.00  0.00     0.031 C 
ATOM     45  C   UNL A   1      40.475  27.761  26.835  1.00  0.00     0.029 A 
ATOM     46  C   UNL A   1      41.737  27.358  27.430  1.00  0.00     0.049 A 
ATOM     47  H   UNL A   1      42.536  28.065  29.236  1.00  0.00     0.167 HD
ATOM     48  C   UNL A   1      43.289  28.831  33.615  1.00  0.00     0.034 A 
ATOM     49  C   UNL A   1      42.690  26.496  26.994  1.00  0.00     0.034 A 
ATOM     50  C   UNL A   1      44.200  29.614  32.822  1.00  0.00     0.049 A 
ATOM     51  C   UNL A   1      43.923  26.806  27.747  1.00  0.00     0.074 A 
ATOM     52  C   UNL A   1      44.515  30.947  32.689  1.00  0.00     0.029 A 
ATOM     53  N   UNL A   1      44.612  28.973  31.680  1.00  0.00    -0.354 N 
ATOM     54  N   UNL A   1      44.582  27.920  27.601  1.00  0.00    -0.248 NA
ATOM     55  C   UNL A   1      44.253  26.028  28.935  1.00  0.00     0.031 C 
ATOM     56  C   UNL A   1      44.980  31.111  31.351  1.00  0.00     0.029 A 
ATOM     57  C   UNL A   1      44.987  29.869  30.718  1.00  0.00     0.049 A 
ATOM     58  H   UNL A   1      44.636  27.995  31.570  1.00  0.00     0.167 HD
ATOM     59  C   UNL A   1      45.037  28.199  28.876  1.00  0.00     0.074 A 
ATOM     60  C   UNL A   1      44.982  26.932  29.594  1.00  0.00     0.031 C 
ATOM     61  C   UNL A   1      45.090  29.483  29.327  1.00  0.00     0.034 A 
BRANCH  48  62
ATOM     62  C   UNL A   1      43.770  27.622  34.386  1.00  0.00     0.023 A 
ATOM     63  C   UNL A   1      43.678  26.369  33.748  1.00  0.00     0.012 A 
ATOM     64  C   UNL A   1      44.057  27.610  35.772  1.00  0.00     0.148 A 
ATOM     65  C   UNL A   1      43.860  25.172  34.452  1.00  0.00     0.002 A 
ATOM     66  C   UNL A   1      44.332  26.429  36.446  1.00  0.00     0.091 A 
ATOM     67  F   UNL A   1      43.921  28.722  36.497  1.00  0.00    -0.205 F 
ATOM     68  C   UNL A   1      44.207  25.202  35.797  1.00  0.00     0.022 A 
BRANCH  66  69
ATOM     69  S   UNL A   1      44.846  26.429  38.170  1.00  0.00     0.127 S 
ATOM     70  O   UNL A   1      43.566  26.552  38.860  1.00  0.00    -0.237 OA
ATOM     71  O   UNL A   1      45.493  25.123  38.285  1.00  0.00    -0.237 OA
ATOM     72  O   UNL A   1      45.758  27.558  38.309  1.00  0.00    -0.744 OA
ENDBRANCH  66  69
ENDBRANCH  48  62
BRANCH  49  73
ATOM     73  C   UNL A   1      42.621  25.274  26.159  1.00  0.00     0.023 A 
ATOM     74  C   UNL A   1      43.546  25.108  25.106  1.00  0.00     0.012 A 
ATOM     75  C   UNL A   1      41.922  24.138  26.619  1.00  0.00     0.148 A 
ATOM     76  C   UNL A   1      43.826  23.843  24.580  1.00  0.00     0.002 A 
ATOM     77  C   UNL A   1      42.214  22.879  26.101  1.00  0.00     0.091 A 
ATOM     78  F   UNL A   1      41.054  24.285  27.629  1.00  0.00    -0.205 F 
ATOM     79  C   UNL A   1      43.176  22.725  25.092  1.00  0.00     0.022 A 
BRANCH  77  80
ATOM     80  S   UNL A   1      41.481  21.373  26.758  1.00  0.00     0.127 S 
ATOM     81  O   UNL A   1      41.868  20.384  25.752  1.00  0.00    -0.237 OA
ATOM     82  O   UNL A   1      42.168  21.242  28.041  1.00  0.00    -0.237 OA
ATOM     83  O   UNL A   1      40.048  21.628  26.834  1.00  0.00    -0.744 OA
ENDBRANCH  77  80
ENDBRANCH  49  73
BRANCH  61  84
ATOM     84  C   UNL A   1      45.100  30.579  28.300  1.00  0.00     0.023 A 
ATOM     85  C   UNL A   1      43.929  31.156  27.769  1.00  0.00     0.012 A 
ATOM     86  C   UNL A   1      46.347  31.121  27.955  1.00  0.00     0.148 A 
ATOM     87  C   UNL A   1      44.008  32.250  26.901  1.00  0.00     0.002 A 
ATOM     88  C   UNL A   1      46.420  32.239  27.139  1.00  0.00     0.091 A 
ATOM     89  F   UNL A   1      47.449  30.542  28.458  1.00  0.00    -0.205 F 
ATOM     90  C   UNL A   1      45.252  32.803  26.600  1.00  0.00     0.022 A 
BRANCH  88  91
ATOM     91  S   UNL A   1      47.979  33.068  26.834  1.00  0.00     0.127 S 
ATOM     92  O   UNL A   1      48.842  31.959  26.432  1.00  0.00    -0.237 OA
ATOM     93  O   UNL A   1      47.634  33.999  25.759  1.00  0.00    -0.237 OA
ATOM     94  O   UNL A   1      48.339  33.718  28.089  1.00  0.00    -0.744 OA
ENDBRANCH  88  91
ENDBRANCH  61  84
ENDBRANCH  35  36
ENDBRANCH  28  30
ENDBRANCH  27  28
ENDBRANCH  26  27
ENDBRANCH  25  26
ENDBRANCH  24  25
ENDBRANCH   1  24
TORSDOF 22
ENDMDL
MODEL 2
REMARK VINA RESULT:     -10.1      1.884      2.522
REMARK SMILES Cc1cc(C)n2ncc(C(=O)N(C)CCCC(=O)OCCOCCOC(=O)c3ccc(-c4c5nc(c(-c6cccc(S(=O)(=O)[O-])c6F)c6ccc([nH]6)c(-c6cccc(S(=O)(=O)[O-])c6F)c6nc(c(-c7cccc(S(=O)(=O)[O-])c7F)c7ccc4[nH]7)C=C6)C=C5)cc3)c2n1
REMARK SMILES IDX 21 1 20 2 19 3 17 4 18 5 16 6 15 7 14 8 12 9 13 10 10 11
REMARK SMILES IDX 11 12 9 13 1 14 2 15 3 16 92 17 4 18 91 19 5 20 6 21 7 22
REMARK SMILES IDX 8 23 22 24 23 25 24 26 25 27 26 28 27 29 28 30 29 31 90 32
REMARK SMILES IDX 30 33 89 34 31 35 32 36 33 37 83 38 34 39 88 40 82 41 84 42
REMARK SMILES IDX 35 43 87 44 81 45 80 46 36 48 68 49 48 50 67 51 49 52 52 53
REMARK SMILES IDX 66 54 85 55 50 56 51 57 65 59 86 60 53 61 37 62 38 63 46 64
REMARK SMILES IDX 39 65 41 66 47 67 40 68 42 69 43 70 44 71 45 72 69 73 70 74
REMARK SMILES IDX 78 75 71 76 73 77 79 78 72 79 74 80 75 81 76 82 77 83 54 84
REMARK SMILES IDX 55 85 63 86 56 87 58 88 64 89 57 90 59 91 60 92 61 93 62 94
REMARK H PARENT 84 47 52 58
REMARK Flexibility Score: inf
ROOT
ATOM      1  C   UNL A   1      33.021  29.274  26.229  1.00  0.00     0.202 C 
ENDROOT
BRANCH   1   2
ATOM      2  C   UNL A   1      32.309  29.767  24.974  1.00  0.00     0.261 C 
BRANCH   2   3
ATOM      3  O   UNL A   1      31.709  28.674  24.270  1.00  0.00    -0.463 OA
BRANCH   3   4
ATOM      4  C   UNL A   1      30.455  28.874  23.802  1.00  0.00     0.305 C 
ATOM      5  O   UNL A   1      29.899  29.965  23.714  1.00  0.00    -0.252 OA
BRANCH   4   6
ATOM      6  C   UNL A   1      29.810  27.603  23.291  1.00  0.00     0.124 C 
BRANCH   6   7
ATOM      7  C   UNL A   1      29.756  26.377  24.207  1.00  0.00     0.033 C 
BRANCH   7   8
ATOM      8  C   UNL A   1      30.352  25.057  23.696  1.00  0.00     0.120 C 
BRANCH   8   9
ATOM      9  N   UNL A   1      31.678  24.742  24.237  1.00  0.00    -0.342 N 
ATOM     10  C   UNL A   1      32.759  25.540  23.686  1.00  0.00     0.147 C 
BRANCH   9  11
ATOM     11  C   UNL A   1      31.721  23.925  25.377  1.00  0.00     0.259 C 
ATOM     12  O   UNL A   1      31.184  24.320  26.413  1.00  0.00    -0.269 OA
BRANCH  11  13
ATOM     13  C   UNL A   1      32.304  22.589  25.365  1.00  0.00     0.104 A 
ATOM     14  C   UNL A   1      37.105  23.645  25.792  1.00  0.00     0.067 C 
ATOM     15  C   UNL A   1      35.928  22.724  25.582  1.00  0.00     0.042 A 
ATOM     16  C   UNL A   1      36.233  21.302  25.235  1.00  0.00     0.047 A 
ATOM     17  N   UNL A   1      34.729  23.216  25.695  1.00  0.00    -0.233 NA
ATOM     18  C   UNL A   1      35.176  20.485  25.090  1.00  0.00     0.043 A 
ATOM     19  C   UNL A   1      33.675  22.366  25.473  1.00  0.00     0.168 A 
ATOM     20  C   UNL A   1      35.308  19.039  24.730  1.00  0.00     0.067 C 
ATOM     21  N   UNL A   1      33.882  21.006  25.234  1.00  0.00    -0.219 N 
ATOM     22  N   UNL A   1      32.709  20.337  25.141  1.00  0.00    -0.174 NA
ATOM     23  C   UNL A   1      31.782  21.295  25.176  1.00  0.00     0.151 A 
ENDBRANCH  11  13
ENDBRANCH   9  11
ENDBRANCH   8   9
ENDBRANCH   7   8
ENDBRANCH   6   7
ENDBRANCH   4   6
ENDBRANCH   3   4
ENDBRANCH   2   3
ENDBRANCH   1   2
BRANCH   1  24
ATOM     24  O   UNL A   1      32.854  30.040  27.424  1.00  0.00    -0.374 OA
BRANCH  24  25
ATOM     25  C   UNL A   1      32.964  31.461  27.372  1.00  0.00     0.202 C 
BRANCH  25  26
ATOM     26  C   UNL A   1      34.229  32.103  27.923  1.00  0.00     0.261 C 
BRANCH  26  27
ATOM     27  O   UNL A   1      35.113  31.152  28.494  1.00  0.00    -0.460 OA
BRANCH  27  28
ATOM     28  C   UNL A   1      36.038  31.705  29.315  1.00  0.00     0.338 C 
ATOM     29  O   UNL A   1      35.847  32.537  30.181  1.00  0.00    -0.246 OA
BRANCH  28  30
ATOM     30  C   UNL A   1      37.370  31.279  28.880  1.00  0.00     0.060 A 
ATOM     31  C   UNL A   1      37.398  30.125  28.099  1.00  0.00     0.016 A 
ATOM     32  C   UNL A   1      38.500  31.757  29.558  1.00  0.00     0.016 A 
ATOM     33  C   UNL A   1      38.475  29.287  28.246  1.00  0.00     0.010 A 
ATOM     34  C   UNL A   1      39.574  30.919  29.706  1.00  0.00     0.010 A 
ATOM     35  C   UNL A   1      39.491  29.654  29.137  1.00  0.00    -0.014 A 
BRANCH  35  36
ATOM     36  C   UNL A   1      40.568  28.718  29.343  1.00  0.00     0.031 A 
ATOM     37  C   UNL A   1      40.799  28.521  30.786  1.00  0.00     0.074 A 
ATOM     38  C   UNL A   1      41.206  28.099  28.331  1.00  0.00     0.049 A 
ATOM     39  N   UNL A   1      41.740  29.051  31.493  1.00  0.00    -0.248 NA
ATOM     40  C   UNL A   1      39.720  27.910  31.578  1.00  0.00     0.031 C 
ATOM     41  C   UNL A   1      40.834  28.076  26.911  1.00  0.00     0.029 A 
ATOM     42  N   UNL A   1      42.271  27.255  28.378  1.00  0.00    -0.354 N 
ATOM     43  C   UNL A   1      41.521  28.563  32.775  1.00  0.00     0.074 A 
ATOM     44  C   UNL A   1      40.150  28.134  32.820  1.00  0.00     0.031 C 
ATOM     45  C   UNL A   1      41.499  27.070  26.292  1.00  0.00     0.029 A 
ATOM     46  C   UNL A   1      42.446  26.489  27.228  1.00  0.00     0.049 A 
ATOM     47  H   UNL A   1      42.867  27.191  29.159  1.00  0.00     0.167 HD
ATOM     48  C   UNL A   1      42.576  28.192  33.546  1.00  0.00     0.034 A 
ATOM     49  C   UNL A   1      43.279  25.425  27.103  1.00  0.00     0.034 A 
ATOM     50  C   UNL A   1      43.808  28.711  33.010  1.00  0.00     0.049 A 
ATOM     51  C   UNL A   1      44.305  25.561  28.158  1.00  0.00     0.074 A 
ATOM     52  C   UNL A   1      44.418  29.942  32.924  1.00  0.00     0.029 A 
ATOM     53  N   UNL A   1      44.364  27.903  32.050  1.00  0.00    -0.354 N 
ATOM     54  N   UNL A   1      45.196  26.511  28.162  1.00  0.00    -0.248 NA
ATOM     55  C   UNL A   1      44.139  24.845  29.417  1.00  0.00     0.031 C 
ATOM     56  C   UNL A   1      45.244  29.893  31.763  1.00  0.00     0.029 A 
ATOM     57  C   UNL A   1      45.158  28.620  31.199  1.00  0.00     0.049 A 
ATOM     58  H   UNL A   1      44.212  26.932  31.985  1.00  0.00     0.167 HD
ATOM     59  C   UNL A   1      45.345  26.812  29.503  1.00  0.00     0.074 A 
ATOM     60  C   UNL A   1      44.840  25.649  30.221  1.00  0.00     0.031 C 
ATOM     61  C   UNL A   1      45.544  28.097  29.906  1.00  0.00     0.034 A 
BRANCH  48  62
ATOM     62  C   UNL A   1      42.573  26.988  34.461  1.00  0.00     0.023 A 
ATOM     63  C   UNL A   1      41.866  27.101  35.676  1.00  0.00     0.012 A 
ATOM     64  C   UNL A   1      43.426  25.867  34.324  1.00  0.00     0.148 A 
ATOM     65  C   UNL A   1      42.003  26.151  36.695  1.00  0.00     0.002 A 
ATOM     66  C   UNL A   1      43.487  24.878  35.295  1.00  0.00     0.091 A 
ATOM     67  F   UNL A   1      44.308  25.811  33.324  1.00  0.00    -0.205 F 
ATOM     68  C   UNL A   1      42.798  25.028  36.498  1.00  0.00     0.022 A 
BRANCH  66  69
ATOM     69  S   UNL A   1      44.454  23.381  35.051  1.00  0.00     0.127 S 
ATOM     70  O   UNL A   1      44.723  22.975  36.426  1.00  0.00    -0.237 OA
ATOM     71  O   UNL A   1      43.507  22.534  34.326  1.00  0.00    -0.237 OA
ATOM     72  O   UNL A   1      45.613  23.785  34.264  1.00  0.00    -0.744 OA
ENDBRANCH  66  69
ENDBRANCH  48  62
BRANCH  49  73
ATOM     73  C   UNL A   1      43.180  24.168  26.325  1.00  0.00     0.023 A 
ATOM     74  C   UNL A   1      44.337  23.654  25.702  1.00  0.00     0.012 A 
ATOM     75  C   UNL A   1      42.078  23.306  26.506  1.00  0.00     0.148 A 
ATOM     76  C   UNL A   1      44.427  22.305  25.342  1.00  0.00     0.002 A 
ATOM     77  C   UNL A   1      42.178  21.961  26.158  1.00  0.00     0.091 A 
ATOM     78  F   UNL A   1      40.983  23.783  27.111  1.00  0.00    -0.205 F 
ATOM     79  C   UNL A   1      43.355  21.453  25.590  1.00  0.00     0.022 A 
BRANCH  77  80
ATOM     80  S   UNL A   1      40.874  20.774  26.515  1.00  0.00     0.127 S 
ATOM     81  O   UNL A   1      39.718  21.392  25.864  1.00  0.00    -0.237 OA
ATOM     82  O   UNL A   1      41.377  19.571  25.856  1.00  0.00    -0.237 OA
ATOM     83  O   UNL A   1      40.784  20.707  27.968  1.00  0.00    -0.744 OA
ENDBRANCH  77  80
ENDBRANCH  49  73
BRANCH  61  84
ATOM     84  C   UNL A   1      46.054  29.074  28.885  1.00  0.00     0.023 A 
ATOM     85  C   UNL A   1      47.373  29.061  28.390  1.00  0.00     0.012 A 
ATOM     86  C   UNL A   1      45.121  29.960  28.325  1.00  0.00     0.148 A 
ATOM     87  C   UNL A   1      47.752  29.925  27.358  1.00  0.00     0.002 A 
ATOM     88  C   UNL A   1      45.485  30.776  27.266  1.00  0.00     0.091 A 
ATOM     89  F   UNL A   1      43.877  29.967  28.828  1.00  0.00    -0.205 F 
ATOM     90  C   UNL A   1      46.803  30.771  26.784  1.00  0.00     0.022 A 
BRANCH  88  91
ATOM     91  S   UNL A   1      44.272  31.777  26.405  1.00  0.00     0.127 S 
ATOM     92  O   UNL A   1      43.247  30.792  26.067  1.00  0.00    -0.237 OA
ATOM     93  O   UNL A   1      43.880  32.744  27.431  1.00  0.00    -0.237 OA
ATOM     94  O   UNL A   1      44.973  32.367  25.271  1.00  0.00    -0.744 OA
ENDBRANCH  88  91
ENDBRANCH  61  84
ENDBRANCH  35  36
ENDBRANCH  28  30
ENDBRANCH  27  28
ENDBRANCH  26  27
ENDBRANCH  25  26
ENDBRANCH  24  25
ENDBRANCH   1  24
TORSDOF 22
ENDMDL
MODEL 3
REMARK VINA RESULT:      -9.7      5.239     11.383
REMARK SMILES Cc1cc(C)n2ncc(C(=O)N(C)CCCC(=O)OCCOCCOC(=O)c3ccc(-c4c5nc(c(-c6cccc(S(=O)(=O)[O-])c6F)c6ccc([nH]6)c(-c6cccc(S(=O)(=O)[O-])c6F)c6nc(c(-c7cccc(S(=O)(=O)[O-])c7F)c7ccc4[nH]7)C=C6)C=C5)cc3)c2n1
REMARK SMILES IDX 21 1 20 2 19 3 17 4 18 5 16 6 15 7 14 8 12 9 13 10 10 11
REMARK SMILES IDX 11 12 9 13 1 14 2 15 3 16 92 17 4 18 91 19 5 20 6 21 7 22
REMARK SMILES IDX 8 23 22 24 23 25 24 26 25 27 26 28 27 29 28 30 29 31 90 32
REMARK SMILES IDX 30 33 89 34 31 35 32 36 33 37 83 38 34 39 88 40 82 41 84 42
REMARK SMILES IDX 35 43 87 44 81 45 80 46 36 48 68 49 48 50 67 51 49 52 52 53
REMARK SMILES IDX 66 54 85 55 50 56 51 57 65 59 86 60 53 61 37 62 38 63 46 64
REMARK SMILES IDX 39 65 41 66 47 67 40 68 42 69 43 70 44 71 45 72 69 73 70 74
REMARK SMILES IDX 78 75 71 76 73 77 79 78 72 79 74 80 75 81 76 82 77 83 54 84
REMARK SMILES IDX 55 85 63 86 56 87 58 88 64 89 57 90 59 91 60 92 61 93 62 94
REMARK H PARENT 84 47 52 58
REMARK Flexibility Score: inf
ROOT
ATOM      1  C   UNL A   1      47.510  20.365  34.523  1.00  0.00     0.202 C 
ENDROOT
BRANCH   1   2
ATOM      2  C   UNL A   1      46.333  19.853  35.346  1.00  0.00     0.261 C 
BRANCH   2   3
ATOM      3  O   UNL A   1      45.122  20.514  34.964  1.00  0.00    -0.463 OA
BRANCH   3   4
ATOM      4  C   UNL A   1      45.025  21.825  35.283  1.00  0.00     0.305 C 
ATOM      5  O   UNL A   1      45.280  22.305  36.384  1.00  0.00    -0.252 OA
BRANCH   4   6
ATOM      6  C   UNL A   1      44.651  22.692  34.099  1.00  0.00     0.124 C 
BRANCH   6   7
ATOM      7  C   UNL A   1      43.434  23.615  34.209  1.00  0.00     0.033 C 
BRANCH   7   8
ATOM      8  C   UNL A   1      43.617  24.989  34.870  1.00  0.00     0.120 C 
BRANCH   8   9
ATOM      9  N   UNL A   1      42.363  25.659  35.230  1.00  0.00    -0.342 N 
ATOM     10  C   UNL A   1      41.506  24.896  36.121  1.00  0.00     0.147 C 
BRANCH   9  11
ATOM     11  C   UNL A   1      42.256  27.021  34.909  1.00  0.00     0.259 C 
ATOM     12  O   UNL A   1      42.155  27.843  35.821  1.00  0.00    -0.269 OA
BRANCH  11  13
ATOM     13  C   UNL A   1      42.341  27.514  33.539  1.00  0.00     0.104 A 
ATOM     14  C   UNL A   1      37.625  28.666  32.651  1.00  0.00     0.067 C 
ATOM     15  C   UNL A   1      39.073  28.472  32.271  1.00  0.00     0.042 A 
ATOM     16  C   UNL A   1      39.421  28.615  30.824  1.00  0.00     0.047 A 
ATOM     17  N   UNL A   1      39.924  28.176  33.210  1.00  0.00    -0.233 NA
ATOM     18  C   UNL A   1      40.719  28.478  30.507  1.00  0.00     0.043 A 
ATOM     19  C   UNL A   1      41.230  27.977  32.837  1.00  0.00     0.168 A 
ATOM     20  C   UNL A   1      41.230  28.578  29.105  1.00  0.00     0.067 C 
ATOM     21  N   UNL A   1      41.644  28.183  31.519  1.00  0.00    -0.219 N 
ATOM     22  N   UNL A   1      42.983  28.028  31.393  1.00  0.00    -0.174 NA
ATOM     23  C   UNL A   1      43.376  27.588  32.589  1.00  0.00     0.151 A 
ENDBRANCH  11  13
ENDBRANCH   9  11
ENDBRANCH   8   9
ENDBRANCH   7   8
ENDBRANCH   6   7
ENDBRANCH   4   6
ENDBRANCH   3   4
ENDBRANCH   2   3
ENDBRANCH   1   2
BRANCH   1  24
ATOM     24  O   UNL A   1      48.803  20.326  35.131  1.00  0.00    -0.374 OA
BRANCH  24  25
ATOM     25  C   UNL A   1      49.960  20.601  34.343  1.00  0.00     0.202 C 
BRANCH  25  26
ATOM     26  C   UNL A   1      50.520  22.016  34.361  1.00  0.00     0.261 C 
BRANCH  26  27
ATOM     27  O   UNL A   1      49.725  22.921  33.612  1.00  0.00    -0.460 OA
BRANCH  27  28
ATOM     28  C   UNL A   1      49.065  23.819  34.383  1.00  0.00     0.338 C 
ATOM     29  O   UNL A   1      48.760  23.698  35.554  1.00  0.00    -0.246 OA
BRANCH  28  30
ATOM     30  C   UNL A   1      48.596  24.916  33.533  1.00  0.00     0.060 A 
ATOM     31  C   UNL A   1      47.274  25.305  33.743  1.00  0.00     0.016 A 
ATOM     32  C   UNL A   1      49.291  25.218  32.354  1.00  0.00     0.016 A 
ATOM     33  C   UNL A   1      46.557  25.728  32.652  1.00  0.00     0.010 A 
ATOM     34  C   UNL A   1      48.574  25.639  31.264  1.00  0.00     0.010 A 
ATOM     35  C   UNL A   1      47.199  25.778  31.409  1.00  0.00    -0.014 A 
BRANCH  35  36
ATOM     36  C   UNL A   1      46.405  26.138  30.261  1.00  0.00     0.031 A 
ATOM     37  C   UNL A   1      45.542  25.010  29.867  1.00  0.00     0.074 A 
ATOM     38  C   UNL A   1      46.444  27.361  29.697  1.00  0.00     0.049 A 
ATOM     39  N   UNL A   1      45.745  24.189  28.892  1.00  0.00    -0.248 NA
ATOM     40  C   UNL A   1      44.507  24.572  30.818  1.00  0.00     0.031 C 
ATOM     41  C   UNL A   1      47.091  28.572  30.214  1.00  0.00     0.029 A 
ATOM     42  N   UNL A   1      45.806  27.811  28.583  1.00  0.00    -0.354 N 
ATOM     43  C   UNL A   1      44.663  23.319  28.944  1.00  0.00     0.074 A 
ATOM     44  C   UNL A   1      44.127  23.415  30.274  1.00  0.00     0.031 C 
ATOM     45  C   UNL A   1      46.604  29.654  29.558  1.00  0.00     0.029 A 
ATOM     46  C   UNL A   1      45.738  29.199  28.484  1.00  0.00     0.049 A 
ATOM     47  H   UNL A   1      45.425  27.207  27.905  1.00  0.00     0.167 HD
ATOM     48  C   UNL A   1      44.072  22.907  27.793  1.00  0.00     0.034 A 
ATOM     49  C   UNL A   1      44.973  29.893  27.605  1.00  0.00     0.034 A 
ATOM     50  C   UNL A   1      44.916  23.181  26.659  1.00  0.00     0.049 A 
ATOM     51  C   UNL A   1      44.673  28.979  26.483  1.00  0.00     0.074 A 
ATOM     52  C   UNL A   1      46.084  22.669  26.138  1.00  0.00     0.029 A 
ATOM     53  N   UNL A   1      44.757  24.448  26.158  1.00  0.00    -0.354 N 
ATOM     54  N   UNL A   1      45.583  28.549  25.657  1.00  0.00    -0.248 NA
ATOM     55  C   UNL A   1      43.412  28.247  26.472  1.00  0.00     0.031 C 
ATOM     56  C   UNL A   1      46.706  23.743  25.437  1.00  0.00     0.029 A 
ATOM     57  C   UNL A   1      45.882  24.866  25.503  1.00  0.00     0.049 A 
ATOM     58  H   UNL A   1      43.938  24.986  26.257  1.00  0.00     0.167 HD
ATOM     59  C   UNL A   1      45.190  27.252  25.386  1.00  0.00     0.074 A 
ATOM     60  C   UNL A   1      43.778  27.191  25.741  1.00  0.00     0.031 C 
ATOM     61  C   UNL A   1      46.117  26.267  25.225  1.00  0.00     0.034 A 
BRANCH  48  62
ATOM     62  C   UNL A   1      42.580  22.727  27.625  1.00  0.00     0.023 A 
ATOM     63  C   UNL A   1      42.120  21.445  27.263  1.00  0.00     0.012 A 
ATOM     64  C   UNL A   1      41.643  23.784  27.546  1.00  0.00     0.148 A 
ATOM     65  C   UNL A   1      40.801  21.230  26.844  1.00  0.00     0.002 A 
ATOM     66  C   UNL A   1      40.313  23.554  27.224  1.00  0.00     0.091 A 
ATOM     67  F   UNL A   1      42.050  25.053  27.632  1.00  0.00    -0.205 F 
ATOM     68  C   UNL A   1      39.891  22.281  26.843  1.00  0.00     0.022 A 
BRANCH  66  69
ATOM     69  S   UNL A   1      39.092  24.873  27.273  1.00  0.00     0.127 S 
ATOM     70  O   UNL A   1      39.048  25.184  28.698  1.00  0.00    -0.237 OA
ATOM     71  O   UNL A   1      39.725  25.891  26.433  1.00  0.00    -0.237 OA
ATOM     72  O   UNL A   1      37.875  24.306  26.703  1.00  0.00    -0.744 OA
ENDBRANCH  66  69
ENDBRANCH  48  62
BRANCH  49  73
ATOM     73  C   UNL A   1      44.268  31.193  27.708  1.00  0.00     0.023 A 
ATOM     74  C   UNL A   1      43.565  31.501  28.893  1.00  0.00     0.012 A 
ATOM     75  C   UNL A   1      44.591  32.248  26.830  1.00  0.00     0.148 A 
ATOM     76  C   UNL A   1      43.263  32.824  29.233  1.00  0.00     0.002 A 
ATOM     77  C   UNL A   1      44.301  33.564  27.179  1.00  0.00     0.091 A 
ATOM     78  F   UNL A   1      45.272  31.965  25.712  1.00  0.00    -0.205 F 
ATOM     79  C   UNL A   1      43.650  33.857  28.387  1.00  0.00     0.022 A 
BRANCH  77  80
ATOM     80  S   UNL A   1      44.834  34.965  26.185  1.00  0.00     0.127 S 
ATOM     81  O   UNL A   1      46.288  34.802  26.188  1.00  0.00    -0.237 OA
ATOM     82  O   UNL A   1      44.189  34.684  24.904  1.00  0.00    -0.237 OA
ATOM     83  O   UNL A   1      44.358  36.153  26.883  1.00  0.00    -0.744 OA
ENDBRANCH  77  80
ENDBRANCH  49  73
BRANCH  61  84
ATOM     84  C   UNL A   1      47.520  26.683  24.886  1.00  0.00     0.023 A 
ATOM     85  C   UNL A   1      47.924  27.069  23.592  1.00  0.00     0.012 A 
ATOM     86  C   UNL A   1      48.428  26.797  25.949  1.00  0.00     0.148 A 
ATOM     87  C   UNL A   1      49.216  27.553  23.367  1.00  0.00     0.002 A 
ATOM     88  C   UNL A   1      49.690  27.329  25.734  1.00  0.00     0.091 A 
ATOM     89  F   UNL A   1      48.026  26.404  27.168  1.00  0.00    -0.205 F 
ATOM     90  C   UNL A   1      50.094  27.700  24.441  1.00  0.00     0.022 A 
BRANCH  88  91
ATOM     91  S   UNL A   1      50.802  27.666  27.099  1.00  0.00     0.127 S 
ATOM     92  O   UNL A   1      51.275  26.327  27.445  1.00  0.00    -0.237 OA
ATOM     93  O   UNL A   1      51.806  28.531  26.478  1.00  0.00    -0.237 OA
ATOM     94  O   UNL A   1      49.996  28.328  28.117  1.00  0.00    -0.744 OA
ENDBRANCH  88  91
ENDBRANCH  61  84
ENDBRANCH  35  36
ENDBRANCH  28  30
ENDBRANCH  27  28
ENDBRANCH  26  27
ENDBRANCH  25  26
ENDBRANCH  24  25
ENDBRANCH   1  24
TORSDOF 22
ENDMDL
