MODEL 1
REMARK VINA RESULT:     -10.5      0.000      0.000
REMARK SMILES CC[C@@H](C)[C@H](NC(=O)CCc1ccc(F)c(F)c1)C(=O)OCCOCCOC(=O)c1ccc(-c2c3nc(c(-c4cccc(S(=O)(=O)[O-])c4F)c4ccc([nH]4)c(-c4cccc(S(=O)(=O)[O-])c4F)c4nc(c(-c5cccc(S(=O)(=O)[O-])c5F)c5ccc2[nH]5)C=C4)C=C3)cc1
REMARK SMILES IDX 23 1 22 2 21 3 19 4 20 5 5 6 3 7 4 8 2 9 1 10 6 11 7 12 8 14
REMARK SMILES IDX 9 15 10 16 11 17 12 18 18 19 13 20 16 21 14 22 17 23 15 24
REMARK SMILES IDX 24 25 25 26 26 27 27 28 28 29 29 30 30 31 31 32 92 33 32 34
REMARK SMILES IDX 91 35 33 36 34 37 35 38 85 39 36 40 90 41 84 42 86 43 37 44
REMARK SMILES IDX 89 45 83 46 82 47 38 49 70 50 50 51 69 52 51 53 54 54 68 55
REMARK SMILES IDX 87 56 52 57 53 58 67 60 88 61 55 62 39 63 40 64 48 65 41 66
REMARK SMILES IDX 43 67 49 68 42 69 44 70 45 71 46 72 47 73 71 74 72 75 80 76
REMARK SMILES IDX 73 77 75 78 81 79 74 80 76 81 77 82 78 83 79 84 56 85 57 86
REMARK SMILES IDX 65 87 58 88 60 89 66 90 59 91 61 92 62 93 63 94 64 95
REMARK H PARENT 6 13 86 48 54 59
REMARK Flexibility Score: inf
ROOT
ATOM      1  C   UNL A   1      32.035  28.657  27.341  1.00  0.00     0.202 C 
ENDROOT
BRANCH   1   2
ATOM      2  C   UNL A   1      31.934  27.222  26.815  1.00  0.00     0.261 C 
BRANCH   2   3
ATOM      3  O   UNL A   1      30.730  26.965  26.069  1.00  0.00    -0.462 OA
BRANCH   3   4
ATOM      4  C   UNL A   1      30.346  25.661  26.046  1.00  0.00     0.328 C 
ATOM      5  O   UNL A   1      29.298  25.231  26.521  1.00  0.00    -0.250 OA
BRANCH   4   6
ATOM      6  C   UNL A   1      31.383  24.721  25.408  1.00  0.00     0.195 C 
BRANCH   6   7
ATOM      7  C   UNL A   1      31.751  25.329  24.021  1.00  0.00     0.019 C 
ATOM      8  C   UNL A   1      31.051  24.617  22.857  1.00  0.00     0.010 C 
BRANCH   7   9
ATOM      9  C   UNL A   1      33.275  25.381  23.835  1.00  0.00     0.002 C 
ATOM     10  C   UNL A   1      33.783  24.495  22.707  1.00  0.00     0.004 C 
ENDBRANCH   7   9
ENDBRANCH   6   7
BRANCH   6  11
ATOM     11  N   UNL A   1      31.080  23.286  25.312  1.00  0.00    -0.343 N 
ATOM     12  C   UNL A   1      31.694  22.198  25.846  1.00  0.00     0.221 C 
ATOM     13  H   UNL A   1      30.290  23.076  24.761  1.00  0.00     0.164 HD
ATOM     14  O   UNL A   1      31.374  21.084  25.427  1.00  0.00    -0.275 OA
BRANCH  12  15
ATOM     15  C   UNL A   1      32.704  22.318  26.969  1.00  0.00     0.105 C 
BRANCH  15  16
ATOM     16  C   UNL A   1      33.814  23.350  26.758  1.00  0.00     0.045 C 
BRANCH  16  17
ATOM     17  C   UNL A   1      35.097  22.797  26.173  1.00  0.00    -0.044 A 
ATOM     18  C   UNL A   1      36.224  23.625  26.049  1.00  0.00     0.007 A 
ATOM     19  C   UNL A   1      35.194  21.462  25.742  1.00  0.00     0.046 A 
ATOM     20  C   UNL A   1      37.446  23.102  25.609  1.00  0.00     0.043 A 
ATOM     21  C   UNL A   1      36.418  20.945  25.326  1.00  0.00     0.159 A 
ATOM     22  C   UNL A   1      37.541  21.756  25.277  1.00  0.00     0.158 A 
ATOM     23  F   UNL A   1      36.500  19.650  24.990  1.00  0.00    -0.204 F 
ATOM     24  F   UNL A   1      38.726  21.250  24.911  1.00  0.00    -0.204 F 
ENDBRANCH  16  17
ENDBRANCH  15  16
ENDBRANCH  12  15
ENDBRANCH   6  11
ENDBRANCH   4   6
ENDBRANCH   3   4
ENDBRANCH   2   3
ENDBRANCH   1   2
BRANCH   1  25
ATOM     25  O   UNL A   1      31.467  29.688  26.537  1.00  0.00    -0.374 OA
BRANCH  25  26
ATOM     26  C   UNL A   1      32.247  30.859  26.309  1.00  0.00     0.202 C 
BRANCH  26  27
ATOM     27  C   UNL A   1      31.763  32.165  26.949  1.00  0.00     0.261 C 
BRANCH  27  28
ATOM     28  O   UNL A   1      32.719  33.230  26.799  1.00  0.00    -0.460 OA
BRANCH  28  29
ATOM     29  C   UNL A   1      33.294  33.633  27.959  1.00  0.00     0.338 C 
ATOM     30  O   UNL A   1      32.811  34.386  28.794  1.00  0.00    -0.246 OA
BRANCH  29  31
ATOM     31  C   UNL A   1      34.542  32.895  28.208  1.00  0.00     0.060 A 
ATOM     32  C   UNL A   1      34.430  31.590  28.708  1.00  0.00     0.016 A 
ATOM     33  C   UNL A   1      35.790  33.509  28.095  1.00  0.00     0.016 A 
ATOM     34  C   UNL A   1      35.564  30.915  29.154  1.00  0.00     0.010 A 
ATOM     35  C   UNL A   1      36.926  32.831  28.554  1.00  0.00     0.010 A 
ATOM     36  C   UNL A   1      36.811  31.551  29.125  1.00  0.00    -0.014 A 
BRANCH  36  37
ATOM     37  C   UNL A   1      37.958  30.925  29.827  1.00  0.00     0.031 A 
ATOM     38  C   UNL A   1      38.238  31.300  31.258  1.00  0.00     0.074 A 
ATOM     39  C   UNL A   1      38.727  30.014  29.205  1.00  0.00     0.049 A 
ATOM     40  N   UNL A   1      39.174  30.866  32.059  1.00  0.00    -0.248 NA
ATOM     41  C   UNL A   1      37.340  32.296  31.866  1.00  0.00     0.031 C 
ATOM     42  C   UNL A   1      38.555  29.568  27.824  1.00  0.00     0.029 A 
ATOM     43  N   UNL A   1      39.821  29.316  29.652  1.00  0.00    -0.354 N 
ATOM     44  C   UNL A   1      38.994  31.546  33.257  1.00  0.00     0.074 A 
ATOM     45  C   UNL A   1      37.866  32.434  33.074  1.00  0.00     0.031 C 
ATOM     46  C   UNL A   1      39.529  28.692  27.525  1.00  0.00     0.029 A 
ATOM     47  C   UNL A   1      40.401  28.529  28.686  1.00  0.00     0.049 A 
ATOM     48  H   UNL A   1      40.158  29.374  30.575  1.00  0.00     0.167 HD
ATOM     49  C   UNL A   1      39.690  31.428  34.414  1.00  0.00     0.034 A 
ATOM     50  C   UNL A   1      41.519  27.776  28.730  1.00  0.00     0.034 A 
ATOM     51  C   UNL A   1      40.799  30.533  34.600  1.00  0.00     0.049 A 
ATOM     52  C   UNL A   1      42.288  27.675  30.022  1.00  0.00     0.074 A 
ATOM     53  C   UNL A   1      41.544  30.310  35.746  1.00  0.00     0.029 A 
ATOM     54  N   UNL A   1      41.332  29.717  33.614  1.00  0.00    -0.354 N 
ATOM     55  N   UNL A   1      42.029  28.229  31.182  1.00  0.00    -0.248 NA
ATOM     56  C   UNL A   1      43.482  26.817  30.021  1.00  0.00     0.031 C 
ATOM     57  C   UNL A   1      42.539  29.374  35.446  1.00  0.00     0.029 A 
ATOM     58  C   UNL A   1      42.401  28.997  34.118  1.00  0.00     0.049 A 
ATOM     59  H   UNL A   1      40.998  29.659  32.689  1.00  0.00     0.167 HD
ATOM     60  C   UNL A   1      43.006  27.764  32.055  1.00  0.00     0.074 A 
ATOM     61  C   UNL A   1      43.850  26.865  31.295  1.00  0.00     0.031 C 
ATOM     62  C   UNL A   1      43.199  28.065  33.364  1.00  0.00     0.034 A 
BRANCH  49  63
ATOM     63  C   UNL A   1      39.246  32.267  35.583  1.00  0.00     0.023 A 
ATOM     64  C   UNL A   1      38.320  31.737  36.503  1.00  0.00     0.012 A 
ATOM     65  C   UNL A   1      39.781  33.552  35.803  1.00  0.00     0.148 A 
ATOM     66  C   UNL A   1      37.909  32.482  37.608  1.00  0.00     0.002 A 
ATOM     67  C   UNL A   1      39.396  34.274  36.927  1.00  0.00     0.091 A 
ATOM     68  F   UNL A   1      40.643  34.048  34.904  1.00  0.00    -0.205 F 
ATOM     69  C   UNL A   1      38.454  33.745  37.825  1.00  0.00     0.022 A 
BRANCH  67  70
ATOM     70  S   UNL A   1      40.095  35.879  37.329  1.00  0.00     0.127 S 
ATOM     71  O   UNL A   1      39.445  36.173  38.606  1.00  0.00    -0.237 OA
ATOM     72  O   UNL A   1      41.524  35.578  37.428  1.00  0.00    -0.237 OA
ATOM     73  O   UNL A   1      39.738  36.759  36.225  1.00  0.00    -0.744 OA
ENDBRANCH  67  70
ENDBRANCH  49  63
BRANCH  50  74
ATOM     74  C   UNL A   1      41.954  27.027  27.518  1.00  0.00     0.023 A 
ATOM     75  C   UNL A   1      42.562  27.718  26.453  1.00  0.00     0.012 A 
ATOM     76  C   UNL A   1      41.797  25.630  27.431  1.00  0.00     0.148 A 
ATOM     77  C   UNL A   1      42.984  27.034  25.312  1.00  0.00     0.002 A 
ATOM     78  C   UNL A   1      42.270  24.948  26.316  1.00  0.00     0.091 A 
ATOM     79  F   UNL A   1      41.196  24.993  28.446  1.00  0.00    -0.205 F 
ATOM     80  C   UNL A   1      42.850  25.650  25.248  1.00  0.00     0.022 A 
BRANCH  78  81
ATOM     81  S   UNL A   1      42.260  23.154  26.214  1.00  0.00     0.127 S 
ATOM     82  O   UNL A   1      43.144  22.787  27.318  1.00  0.00    -0.237 OA
ATOM     83  O   UNL A   1      40.846  22.846  26.428  1.00  0.00    -0.237 OA
ATOM     84  O   UNL A   1      42.746  22.837  24.878  1.00  0.00    -0.744 OA
ENDBRANCH  78  81
ENDBRANCH  50  74
BRANCH  62  85
ATOM     85  C   UNL A   1      44.350  27.402  34.074  1.00  0.00     0.023 A 
ATOM     86  C   UNL A   1      45.594  28.058  34.150  1.00  0.00     0.012 A 
ATOM     87  C   UNL A   1      44.178  26.168  34.733  1.00  0.00     0.148 A 
ATOM     88  C   UNL A   1      46.657  27.484  34.847  1.00  0.00     0.002 A 
ATOM     89  C   UNL A   1      45.228  25.625  35.465  1.00  0.00     0.091 A 
ATOM     90  F   UNL A   1      42.991  25.550  34.634  1.00  0.00    -0.205 F 
ATOM     91  C   UNL A   1      46.470  26.276  35.513  1.00  0.00     0.022 A 
BRANCH  89  92
ATOM     92  S   UNL A   1      45.047  24.119  36.429  1.00  0.00     0.127 S 
ATOM     93  O   UNL A   1      44.245  23.287  35.534  1.00  0.00    -0.237 OA
ATOM     94  O   UNL A   1      46.435  23.682  36.589  1.00  0.00    -0.237 OA
ATOM     95  O   UNL A   1      44.395  24.516  37.669  1.00  0.00    -0.744 OA
ENDBRANCH  89  92
ENDBRANCH  62  85
ENDBRANCH  36  37
ENDBRANCH  29  31
ENDBRANCH  28  29
ENDBRANCH  27  28
ENDBRANCH  26  27
ENDBRANCH  25  26
ENDBRANCH   1  25
TORSDOF 23
ENDMDL
MODEL 2
REMARK VINA RESULT:     -10.4      2.636      3.908
REMARK SMILES CC[C@@H](C)[C@H](NC(=O)CCc1ccc(F)c(F)c1)C(=O)OCCOCCOC(=O)c1ccc(-c2c3nc(c(-c4cccc(S(=O)(=O)[O-])c4F)c4ccc([nH]4)c(-c4cccc(S(=O)(=O)[O-])c4F)c4nc(c(-c5cccc(S(=O)(=O)[O-])c5F)c5ccc2[nH]5)C=C4)C=C3)cc1
REMARK SMILES IDX 23 1 22 2 21 3 19 4 20 5 5 6 3 7 4 8 2 9 1 10 6 11 7 12 8 14
REMARK SMILES IDX 9 15 10 16 11 17 12 18 18 19 13 20 16 21 14 22 17 23 15 24
REMARK SMILES IDX 24 25 25 26 26 27 27 28 28 29 29 30 30 31 31 32 92 33 32 34
REMARK SMILES IDX 91 35 33 36 34 37 35 38 85 39 36 40 90 41 84 42 86 43 37 44
REMARK SMILES IDX 89 45 83 46 82 47 38 49 70 50 50 51 69 52 51 53 54 54 68 55
REMARK SMILES IDX 87 56 52 57 53 58 67 60 88 61 55 62 39 63 40 64 48 65 41 66
REMARK SMILES IDX 43 67 49 68 42 69 44 70 45 71 46 72 47 73 71 74 72 75 80 76
REMARK SMILES IDX 73 77 75 78 81 79 74 80 76 81 77 82 78 83 79 84 56 85 57 86
REMARK SMILES IDX 65 87 58 88 60 89 66 90 59 91 61 92 62 93 63 94 64 95
REMARK H PARENT 6 13 86 48 54 59
REMARK Flexibility Score: inf
ROOT
ATOM      1  C   UNL A   1      31.559  27.767  26.655  1.00  0.00     0.202 C 
ENDROOT
BRANCH   1   2
ATOM      2  C   UNL A   1      32.096  26.535  25.920  1.00  0.00     0.261 C 
BRANCH   2   3
ATOM      3  O   UNL A   1      33.397  26.116  26.372  1.00  0.00    -0.462 OA
BRANCH   3   4
ATOM      4  C   UNL A   1      34.073  25.328  25.494  1.00  0.00     0.328 C 
ATOM      5  O   UNL A   1      35.273  25.073  25.563  1.00  0.00    -0.250 OA
BRANCH   4   6
ATOM      6  C   UNL A   1      33.207  24.805  24.336  1.00  0.00     0.195 C 
BRANCH   6   7
ATOM      7  C   UNL A   1      33.177  23.251  24.460  1.00  0.00     0.019 C 
ATOM      8  C   UNL A   1      33.719  22.547  23.211  1.00  0.00     0.010 C 
BRANCH   7   9
ATOM      9  C   UNL A   1      31.770  22.761  24.837  1.00  0.00     0.002 C 
ATOM     10  C   UNL A   1      31.724  21.297  25.247  1.00  0.00     0.004 C 
ENDBRANCH   7   9
ENDBRANCH   6   7
BRANCH   6  11
ATOM     11  N   UNL A   1      33.513  25.237  22.966  1.00  0.00    -0.343 N 
ATOM     12  C   UNL A   1      33.335  26.429  22.336  1.00  0.00     0.221 C 
ATOM     13  H   UNL A   1      33.918  24.538  22.402  1.00  0.00     0.164 HD
ATOM     14  O   UNL A   1      33.468  26.466  21.111  1.00  0.00    -0.275 OA
BRANCH  12  15
ATOM     15  C   UNL A   1      33.041  27.703  23.100  1.00  0.00     0.105 C 
BRANCH  15  16
ATOM     16  C   UNL A   1      32.263  28.775  22.332  1.00  0.00     0.045 C 
BRANCH  16  17
ATOM     17  C   UNL A   1      30.760  28.719  22.504  1.00  0.00    -0.044 A 
ATOM     18  C   UNL A   1      30.162  27.578  23.061  1.00  0.00     0.007 A 
ATOM     19  C   UNL A   1      29.934  29.787  22.115  1.00  0.00     0.046 A 
ATOM     20  C   UNL A   1      28.787  27.551  23.324  1.00  0.00     0.043 A 
ATOM     21  C   UNL A   1      28.571  29.762  22.398  1.00  0.00     0.159 A 
ATOM     22  C   UNL A   1      28.005  28.658  23.016  1.00  0.00     0.158 A 
ATOM     23  F   UNL A   1      27.817  30.825  22.083  1.00  0.00    -0.204 F 
ATOM     24  F   UNL A   1      26.700  28.648  23.320  1.00  0.00    -0.204 F 
ENDBRANCH  16  17
ENDBRANCH  15  16
ENDBRANCH  12  15
ENDBRANCH   6  11
ENDBRANCH   4   6
ENDBRANCH   3   4
ENDBRANCH   2   3
ENDBRANCH   1   2
BRANCH   1  25
ATOM     25  O   UNL A   1      31.297  28.930  25.873  1.00  0.00    -0.374 OA
BRANCH  25  26
ATOM     26  C   UNL A   1      32.218  30.015  25.967  1.00  0.00     0.202 C 
BRANCH  26  27
ATOM     27  C   UNL A   1      31.815  31.209  26.840  1.00  0.00     0.261 C 
BRANCH  27  28
ATOM     28  O   UNL A   1      32.648  32.359  26.603  1.00  0.00    -0.460 OA
BRANCH  28  29
ATOM     29  C   UNL A   1      33.198  32.892  27.721  1.00  0.00     0.338 C 
ATOM     30  O   UNL A   1      32.658  33.650  28.515  1.00  0.00    -0.246 OA
BRANCH  29  31
ATOM     31  C   UNL A   1      34.513  32.292  27.994  1.00  0.00     0.060 A 
ATOM     32  C   UNL A   1      34.544  30.932  28.335  1.00  0.00     0.016 A 
ATOM     33  C   UNL A   1      35.672  33.068  28.055  1.00  0.00     0.016 A 
ATOM     34  C   UNL A   1      35.725  30.357  28.799  1.00  0.00     0.010 A 
ATOM     35  C   UNL A   1      36.854  32.489  28.532  1.00  0.00     0.010 A 
ATOM     36  C   UNL A   1      36.873  31.145  28.946  1.00  0.00    -0.014 A 
BRANCH  36  37
ATOM     37  C   UNL A   1      38.043  30.589  29.670  1.00  0.00     0.031 A 
ATOM     38  C   UNL A   1      38.323  31.048  31.077  1.00  0.00     0.074 A 
ATOM     39  C   UNL A   1      38.833  29.667  29.091  1.00  0.00     0.049 A 
ATOM     40  N   UNL A   1      39.277  30.683  31.892  1.00  0.00    -0.248 NA
ATOM     41  C   UNL A   1      37.402  32.049  31.640  1.00  0.00     0.031 C 
ATOM     42  C   UNL A   1      38.662  29.144  27.737  1.00  0.00     0.029 A 
ATOM     43  N   UNL A   1      39.949  29.025  29.565  1.00  0.00    -0.354 N 
ATOM     44  C   UNL A   1      39.087  31.421  33.054  1.00  0.00     0.074 A 
ATOM     45  C   UNL A   1      37.933  32.267  32.834  1.00  0.00     0.031 C 
ATOM     46  C   UNL A   1      39.659  28.280  27.477  1.00  0.00     0.029 A 
ATOM     47  C   UNL A   1      40.543  28.203  28.637  1.00  0.00     0.049 A 
ATOM     48  H   UNL A   1      40.290  29.141  30.481  1.00  0.00     0.167 HD
ATOM     49  C   UNL A   1      39.795  31.384  34.209  1.00  0.00     0.034 A 
ATOM     50  C   UNL A   1      41.682  27.484  28.712  1.00  0.00     0.034 A 
ATOM     51  C   UNL A   1      40.929  30.530  34.432  1.00  0.00     0.049 A 
ATOM     52  C   UNL A   1      42.463  27.474  30.000  1.00  0.00     0.074 A 
ATOM     53  C   UNL A   1      41.688  30.390  35.582  1.00  0.00     0.029 A 
ATOM     54  N   UNL A   1      41.477  29.678  33.486  1.00  0.00    -0.354 N 
ATOM     55  N   UNL A   1      42.198  28.082  31.132  1.00  0.00    -0.248 NA
ATOM     56  C   UNL A   1      43.681  26.650  30.035  1.00  0.00     0.031 C 
ATOM     57  C   UNL A   1      42.707  29.466  35.323  1.00  0.00     0.029 A 
ATOM     58  C   UNL A   1      42.570  29.016  34.019  1.00  0.00     0.049 A 
ATOM     59  H   UNL A   1      41.139  29.561  32.569  1.00  0.00     0.167 HD
ATOM     60  C   UNL A   1      43.194  27.691  32.019  1.00  0.00     0.074 A 
ATOM     61  C   UNL A   1      44.056  26.775  31.300  1.00  0.00     0.031 C 
ATOM     62  C   UNL A   1      43.387  28.067  33.309  1.00  0.00     0.034 A 
BRANCH  49  63
ATOM     63  C   UNL A   1      39.336  32.272  35.336  1.00  0.00     0.023 A 
ATOM     64  C   UNL A   1      38.434  31.765  36.293  1.00  0.00     0.012 A 
ATOM     65  C   UNL A   1      39.834  33.581  35.480  1.00  0.00     0.148 A 
ATOM     66  C   UNL A   1      38.010  32.557  37.360  1.00  0.00     0.002 A 
ATOM     67  C   UNL A   1      39.438  34.352  36.567  1.00  0.00     0.091 A 
ATOM     68  F   UNL A   1      40.673  34.053  34.546  1.00  0.00    -0.205 F 
ATOM     69  C   UNL A   1      38.520  33.846  37.502  1.00  0.00     0.022 A 
BRANCH  67  70
ATOM     70  S   UNL A   1      40.092  35.996  36.875  1.00  0.00     0.127 S 
ATOM     71  O   UNL A   1      39.272  36.435  38.003  1.00  0.00    -0.237 OA
ATOM     72  O   UNL A   1      41.489  35.715  37.210  1.00  0.00    -0.237 OA
ATOM     73  O   UNL A   1      39.906  36.739  35.637  1.00  0.00    -0.744 OA
ENDBRANCH  67  70
ENDBRANCH  49  63
BRANCH  50  74
ATOM     74  C   UNL A   1      42.128  26.684  27.537  1.00  0.00     0.023 A 
ATOM     75  C   UNL A   1      42.900  27.294  26.530  1.00  0.00     0.012 A 
ATOM     76  C   UNL A   1      41.819  25.314  27.430  1.00  0.00     0.148 A 
ATOM     77  C   UNL A   1      43.335  26.560  25.426  1.00  0.00     0.002 A 
ATOM     78  C   UNL A   1      42.303  24.576  26.357  1.00  0.00     0.091 A 
ATOM     79  F   UNL A   1      41.065  24.756  28.389  1.00  0.00    -0.205 F 
ATOM     80  C   UNL A   1      43.048  25.201  25.345  1.00  0.00     0.022 A 
BRANCH  78  81
ATOM     81  S   UNL A   1      42.094  22.795  26.247  1.00  0.00     0.127 S 
ATOM     82  O   UNL A   1      42.720  22.499  24.961  1.00  0.00    -0.237 OA
ATOM     83  O   UNL A   1      42.839  22.329  27.417  1.00  0.00    -0.237 OA
ATOM     84  O   UNL A   1      40.657  22.565  26.323  1.00  0.00    -0.744 OA
ENDBRANCH  78  81
ENDBRANCH  50  74
BRANCH  62  85
ATOM     85  C   UNL A   1      44.561  27.474  34.042  1.00  0.00     0.023 A 
ATOM     86  C   UNL A   1      45.804  28.139  34.024  1.00  0.00     0.012 A 
ATOM     87  C   UNL A   1      44.415  26.304  34.814  1.00  0.00     0.148 A 
ATOM     88  C   UNL A   1      46.888  27.634  34.739  1.00  0.00     0.002 A 
ATOM     89  C   UNL A   1      45.488  25.833  35.562  1.00  0.00     0.091 A 
ATOM     90  F   UNL A   1      43.231  25.675  34.804  1.00  0.00    -0.205 F 
ATOM     91  C   UNL A   1      46.727  26.490  35.517  1.00  0.00     0.022 A 
BRANCH  89  92
ATOM     92  S   UNL A   1      45.344  24.419  36.662  1.00  0.00     0.127 S 
ATOM     93  O   UNL A   1      46.684  24.357  37.243  1.00  0.00    -0.237 OA
ATOM     94  O   UNL A   1      44.297  24.850  37.590  1.00  0.00    -0.237 OA
ATOM     95  O   UNL A   1      44.974  23.292  35.818  1.00  0.00    -0.744 OA
ENDBRANCH  89  92
ENDBRANCH  62  85
ENDBRANCH  36  37
ENDBRANCH  29  31
ENDBRANCH  28  29
ENDBRANCH  27  28
ENDBRANCH  26  27
ENDBRANCH  25  26
ENDBRANCH   1  25
TORSDOF 23
ENDMDL
MODEL 3
REMARK VINA RESULT:     -10.1      2.280      7.857
REMARK SMILES CC[C@@H](C)[C@H](NC(=O)CCc1ccc(F)c(F)c1)C(=O)OCCOCCOC(=O)c1ccc(-c2c3nc(c(-c4cccc(S(=O)(=O)[O-])c4F)c4ccc([nH]4)c(-c4cccc(S(=O)(=O)[O-])c4F)c4nc(c(-c5cccc(S(=O)(=O)[O-])c5F)c5ccc2[nH]5)C=C4)C=C3)cc1
REMARK SMILES IDX 23 1 22 2 21 3 19 4 20 5 5 6 3 7 4 8 2 9 1 10 6 11 7 12 8 14
REMARK SMILES IDX 9 15 10 16 11 17 12 18 18 19 13 20 16 21 14 22 17 23 15 24
REMARK SMILES IDX 24 25 25 26 26 27 27 28 28 29 29 30 30 31 31 32 92 33 32 34
REMARK SMILES IDX 91 35 33 36 34 37 35 38 85 39 36 40 90 41 84 42 86 43 37 44
REMARK SMILES IDX 89 45 83 46 82 47 38 49 70 50 50 51 69 52 51 53 54 54 68 55
REMARK SMILES IDX 87 56 52 57 53 58 67 60 88 61 55 62 39 63 40 64 48 65 41 66
REMARK SMILES IDX 43 67 49 68 42 69 44 70 45 71 46 72 47 73 71 74 72 75 80 76
REMARK SMILES IDX 73 77 75 78 81 79 74 80 76 81 77 82 78 83 79 84 56 85 57 86
REMARK SMILES IDX 65 87 58 88 60 89 66 90 59 91 61 92 62 93 63 94 64 95
REMARK H PARENT 6 13 86 48 54 59
REMARK Flexibility Score: inf
ROOT
ATOM      1  C   UNL A   1      33.210  29.370  27.429  1.00  0.00     0.202 C 
ENDROOT
BRANCH   1   2
ATOM      2  C   UNL A   1      33.248  27.907  26.979  1.00  0.00     0.261 C 
BRANCH   2   3
ATOM      3  O   UNL A   1      34.062  27.684  25.813  1.00  0.00    -0.462 OA
BRANCH   3   4
ATOM      4  C   UNL A   1      33.435  27.925  24.631  1.00  0.00     0.328 C 
ATOM      5  O   UNL A   1      33.527  28.968  23.989  1.00  0.00    -0.250 OA
BRANCH   4   6
ATOM      6  C   UNL A   1      32.525  26.775  24.166  1.00  0.00     0.195 C 
BRANCH   6   7
ATOM      7  C   UNL A   1      32.423  26.877  22.614  1.00  0.00     0.019 C 
ATOM      8  C   UNL A   1      30.974  26.957  22.120  1.00  0.00     0.010 C 
BRANCH   7   9
ATOM      9  C   UNL A   1      33.204  25.739  21.940  1.00  0.00     0.002 C 
ATOM     10  C   UNL A   1      32.777  24.352  22.396  1.00  0.00     0.004 C 
ENDBRANCH   7   9
ENDBRANCH   6   7
BRANCH   6  11
ATOM     11  N   UNL A   1      31.205  26.614  24.791  1.00  0.00    -0.343 N 
ATOM     12  C   UNL A   1      30.659  25.584  25.490  1.00  0.00     0.221 C 
ATOM     13  H   UNL A   1      30.609  27.391  24.682  1.00  0.00     0.164 HD
ATOM     14  O   UNL A   1      29.447  25.610  25.714  1.00  0.00    -0.275 OA
BRANCH  12  15
ATOM     15  C   UNL A   1      31.502  24.454  26.044  1.00  0.00     0.105 C 
BRANCH  15  16
ATOM     16  C   UNL A   1      31.199  23.062  25.483  1.00  0.00     0.045 C 
BRANCH  16  17
ATOM     17  C   UNL A   1      32.395  22.136  25.393  1.00  0.00    -0.044 A 
ATOM     18  C   UNL A   1      32.268  20.889  24.761  1.00  0.00     0.007 A 
ATOM     19  C   UNL A   1      33.643  22.492  25.933  1.00  0.00     0.046 A 
ATOM     20  C   UNL A   1      33.387  20.068  24.576  1.00  0.00     0.043 A 
ATOM     21  C   UNL A   1      34.755  21.680  25.727  1.00  0.00     0.159 A 
ATOM     22  C   UNL A   1      34.631  20.484  25.037  1.00  0.00     0.158 A 
ATOM     23  F   UNL A   1      35.949  22.077  26.188  1.00  0.00    -0.204 F 
ATOM     24  F   UNL A   1      35.707  19.720  24.808  1.00  0.00    -0.204 F 
ENDBRANCH  16  17
ENDBRANCH  15  16
ENDBRANCH  12  15
ENDBRANCH   6  11
ENDBRANCH   4   6
ENDBRANCH   3   4
ENDBRANCH   2   3
ENDBRANCH   1   2
BRANCH   1  25
ATOM     25  O   UNL A   1      32.082  30.147  27.033  1.00  0.00    -0.374 OA
BRANCH  25  26
ATOM     26  C   UNL A   1      32.261  31.554  26.894  1.00  0.00     0.202 C 
BRANCH  26  27
ATOM     27  C   UNL A   1      33.456  32.188  27.616  1.00  0.00     0.261 C 
BRANCH  27  28
ATOM     28  O   UNL A   1      33.577  33.595  27.334  1.00  0.00    -0.460 OA
BRANCH  28  29
ATOM     29  C   UNL A   1      33.438  34.397  28.418  1.00  0.00     0.338 C 
ATOM     30  O   UNL A   1      32.494  35.134  28.669  1.00  0.00    -0.246 OA
BRANCH  29  31
ATOM     31  C   UNL A   1      34.504  34.140  29.399  1.00  0.00     0.060 A 
ATOM     32  C   UNL A   1      35.826  34.354  28.985  1.00  0.00     0.016 A 
ATOM     33  C   UNL A   1      34.231  33.569  30.642  1.00  0.00     0.016 A 
ATOM     34  C   UNL A   1      36.884  33.940  29.790  1.00  0.00     0.010 A 
ATOM     35  C   UNL A   1      35.297  33.144  31.445  1.00  0.00     0.010 A 
ATOM     36  C   UNL A   1      36.625  33.288  31.002  1.00  0.00    -0.014 A 
BRANCH  36  37
ATOM     37  C   UNL A   1      37.742  32.634  31.725  1.00  0.00     0.031 A 
ATOM     38  C   UNL A   1      38.461  31.480  31.078  1.00  0.00     0.074 A 
ATOM     39  C   UNL A   1      38.130  33.078  32.934  1.00  0.00     0.049 A 
ATOM     40  N   UNL A   1      39.468  30.777  31.524  1.00  0.00    -0.248 NA
ATOM     41  C   UNL A   1      37.981  31.065  29.749  1.00  0.00     0.031 C 
ATOM     42  C   UNL A   1      37.514  34.187  33.660  1.00  0.00     0.029 A 
ATOM     43  N   UNL A   1      39.123  32.635  33.770  1.00  0.00    -0.354 N 
ATOM     44  C   UNL A   1      39.731  29.826  30.546  1.00  0.00     0.074 A 
ATOM     45  C   UNL A   1      38.767  30.031  29.486  1.00  0.00     0.031 C 
ATOM     46  C   UNL A   1      38.125  34.319  34.850  1.00  0.00     0.029 A 
ATOM     47  C   UNL A   1      39.160  33.295  34.975  1.00  0.00     0.049 A 
ATOM     48  H   UNL A   1      39.748  31.913  33.531  1.00  0.00     0.167 HD
ATOM     49  C   UNL A   1      40.701  28.879  30.520  1.00  0.00     0.034 A 
ATOM     50  C   UNL A   1      39.932  33.086  36.061  1.00  0.00     0.034 A 
ATOM     51  C   UNL A   1      41.668  28.687  31.566  1.00  0.00     0.049 A 
ATOM     52  C   UNL A   1      40.991  32.015  36.016  1.00  0.00     0.074 A 
ATOM     53  C   UNL A   1      42.716  27.783  31.615  1.00  0.00     0.029 A 
ATOM     54  N   UNL A   1      41.705  29.404  32.752  1.00  0.00    -0.354 N 
ATOM     55  N   UNL A   1      41.307  31.208  35.032  1.00  0.00    -0.248 NA
ATOM     56  C   UNL A   1      41.823  31.850  37.218  1.00  0.00     0.031 C 
ATOM     57  C   UNL A   1      43.373  27.941  32.839  1.00  0.00     0.029 A 
ATOM     58  C   UNL A   1      42.748  28.958  33.545  1.00  0.00     0.049 A 
ATOM     59  H   UNL A   1      41.080  30.125  32.994  1.00  0.00     0.167 HD
ATOM     60  C   UNL A   1      42.391  30.462  35.482  1.00  0.00     0.074 A 
ATOM     61  C   UNL A   1      42.692  30.930  36.820  1.00  0.00     0.031 C 
ATOM     62  C   UNL A   1      43.068  29.469  34.852  1.00  0.00     0.034 A 
BRANCH  49  63
ATOM     63  C   UNL A   1      40.783  27.999  29.301  1.00  0.00     0.023 A 
ATOM     64  C   UNL A   1      39.991  26.835  29.234  1.00  0.00     0.012 A 
ATOM     65  C   UNL A   1      41.596  28.346  28.205  1.00  0.00     0.148 A 
ATOM     66  C   UNL A   1      40.028  26.013  28.107  1.00  0.00     0.002 A 
ATOM     67  C   UNL A   1      41.599  27.543  27.070  1.00  0.00     0.091 A 
ATOM     68  F   UNL A   1      42.359  29.444  28.298  1.00  0.00    -0.205 F 
ATOM     69  C   UNL A   1      40.824  26.373  27.022  1.00  0.00     0.022 A 
BRANCH  67  70
ATOM     70  S   UNL A   1      42.537  27.961  25.596  1.00  0.00     0.127 S 
ATOM     71  O   UNL A   1      42.389  26.744  24.797  1.00  0.00    -0.237 OA
ATOM     72  O   UNL A   1      41.806  29.119  25.081  1.00  0.00    -0.237 OA
ATOM     73  O   UNL A   1      43.889  28.253  26.051  1.00  0.00    -0.744 OA
ENDBRANCH  67  70
ENDBRANCH  49  63
BRANCH  50  74
ATOM     74  C   UNL A   1      39.754  33.939  37.269  1.00  0.00     0.023 A 
ATOM     75  C   UNL A   1      40.249  35.256  37.273  1.00  0.00     0.012 A 
ATOM     76  C   UNL A   1      39.065  33.461  38.402  1.00  0.00     0.148 A 
ATOM     77  C   UNL A   1      40.085  36.074  38.391  1.00  0.00     0.002 A 
ATOM     78  C   UNL A   1      38.856  34.299  39.490  1.00  0.00     0.091 A 
ATOM     79  F   UNL A   1      38.619  32.196  38.387  1.00  0.00    -0.205 F 
ATOM     80  C   UNL A   1      39.379  35.601  39.494  1.00  0.00     0.022 A 
BRANCH  78  81
ATOM     81  S   UNL A   1      37.842  33.814  40.892  1.00  0.00     0.127 S 
ATOM     82  O   UNL A   1      38.727  32.891  41.597  1.00  0.00    -0.237 OA
ATOM     83  O   UNL A   1      37.623  35.095  41.565  1.00  0.00    -0.237 OA
ATOM     84  O   UNL A   1      36.638  33.229  40.317  1.00  0.00    -0.744 OA
ENDBRANCH  78  81
ENDBRANCH  50  74
BRANCH  62  85
ATOM     85  C   UNL A   1      44.220  28.832  35.585  1.00  0.00     0.023 A 
ATOM     86  C   UNL A   1      45.523  29.340  35.414  1.00  0.00     0.012 A 
ATOM     87  C   UNL A   1      44.001  27.786  36.504  1.00  0.00     0.148 A 
ATOM     88  C   UNL A   1      46.594  28.799  36.123  1.00  0.00     0.002 A 
ATOM     89  C   UNL A   1      45.067  27.283  37.241  1.00  0.00     0.091 A 
ATOM     90  F   UNL A   1      42.757  27.304  36.640  1.00  0.00    -0.205 F 
ATOM     91  C   UNL A   1      46.364  27.780  37.044  1.00  0.00     0.022 A 
BRANCH  89  92
ATOM     92  S   UNL A   1      44.847  26.035  38.515  1.00  0.00     0.127 S 
ATOM     93  O   UNL A   1      44.194  24.960  37.770  1.00  0.00    -0.237 OA
ATOM     94  O   UNL A   1      46.226  25.749  38.915  1.00  0.00    -0.237 OA
ATOM     95  O   UNL A   1      44.038  26.660  39.551  1.00  0.00    -0.744 OA
ENDBRANCH  89  92
ENDBRANCH  62  85
ENDBRANCH  36  37
ENDBRANCH  29  31
ENDBRANCH  28  29
ENDBRANCH  27  28
ENDBRANCH  26  27
ENDBRANCH  25  26
ENDBRANCH   1  25
TORSDOF 23
ENDMDL
