MODEL 1
REMARK VINA RESULT:     -11.0      0.000      0.000
REMARK SMILES CCOC(=O)c1c(NC(=O)[C@@H]2[C@@H]3CC[C@@H](C3)[C@@H]2C(=O)OCCOCCOC(=O)c2ccc(-c3c4nc(c(-c5cccc(S(=O)(=O)[O-])c5F)c5ccc([nH]5)c(-c5cccc(S(=O)(=O)[O-])c5F)c5nc(c(-c6cccc(S(=O)(=O)[O-])c6F)c6ccc3[nH]6)C=C5)C=C4)cc2)sc2c1CCCC2
REMARK SMILES IDX 22 1 21 2 20 3 18 4 19 5 17 6 11 7 12 8 13 9 16 10 15 11
REMARK SMILES IDX 14 12 9 13 8 14 10 16 7 17 6 18 94 19 92 20 93 21 95 22
REMARK SMILES IDX 98 23 96 24 97 25 4 26 5 27 3 28 2 29 1 30 23 31 24 32 25 33
REMARK SMILES IDX 26 34 27 35 28 36 29 37 30 38 91 39 31 40 90 41 32 42 33 43
REMARK SMILES IDX 34 44 84 45 35 46 89 47 83 48 85 49 36 50 88 51 82 52 81 53
REMARK SMILES IDX 37 55 69 56 49 57 68 58 50 59 53 60 67 61 86 62 51 63 52 64
REMARK SMILES IDX 66 66 87 67 54 68 38 69 39 70 47 71 40 72 42 73 48 74 41 75
REMARK SMILES IDX 43 76 44 77 45 78 46 79 70 80 71 81 79 82 72 83 74 84 80 85
REMARK SMILES IDX 73 86 75 87 76 88 77 89 78 90 55 91 56 92 64 93 57 94 59 95
REMARK SMILES IDX 65 96 58 97 60 98 61 99 62 100 63 101
REMARK H PARENT 8 15 85 54 53 65
REMARK Flexibility Score: inf
ROOT
ATOM      1  C   UNL A   1      38.045  22.680  26.014  1.00  0.00     0.202 C 
ENDROOT
BRANCH   1   2
ATOM      2  C   UNL A   1      37.036  23.826  25.894  1.00  0.00     0.261 C 
BRANCH   2   3
ATOM      3  O   UNL A   1      35.690  23.348  26.061  1.00  0.00    -0.463 OA
BRANCH   3   4
ATOM      4  C   UNL A   1      34.734  24.155  25.536  1.00  0.00     0.310 C 
ATOM      5  O   UNL A   1      34.763  25.381  25.562  1.00  0.00    -0.252 OA
BRANCH   4   6
ATOM      6  C   UNL A   1      33.785  23.381  24.649  1.00  0.00     0.115 C 
ATOM      7  C   UNL A   1      32.316  23.330  25.105  1.00  0.00     0.096 C 
ATOM      8  C   UNL A   1      31.934  21.849  24.889  1.00  0.00     0.003 C 
ATOM      9  C   UNL A   1      32.641  20.918  25.891  1.00  0.00     0.005 C 
ATOM     10  C   UNL A   1      32.723  21.527  23.618  1.00  0.00     0.009 C 
ATOM     11  C   UNL A   1      34.073  21.922  24.245  1.00  0.00     0.004 C 
ATOM     12  C   UNL A   1      34.115  21.000  25.470  1.00  0.00     0.005 C 
BRANCH   7  13
ATOM     13  C   UNL A   1      31.987  23.849  26.480  1.00  0.00     0.229 C 
ATOM     14  N   UNL A   1      31.728  25.161  26.708  1.00  0.00    -0.317 N 
ATOM     15  H   UNL A   1      31.715  25.376  27.669  1.00  0.00     0.170 HD
ATOM     16  O   UNL A   1      31.914  23.091  27.451  1.00  0.00    -0.274 OA
BRANCH  14  17
ATOM     17  C   UNL A   1      31.478  26.263  25.925  1.00  0.00     0.110 A 
ATOM     18  C   UNL A   1      30.776  26.657  24.794  1.00  0.00     0.098 A 
ATOM     19  C   UNL A   1      30.786  28.103  24.668  1.00  0.00    -0.017 A 
ATOM     20  S   UNL A   1      32.289  27.594  26.661  1.00  0.00    -0.122 S 
ATOM     21  C   UNL A   1      31.542  28.712  25.644  1.00  0.00     0.011 A 
ATOM     22  C   UNL A   1      30.010  28.897  23.654  1.00  0.00     0.038 C 
ATOM     23  C   UNL A   1      31.716  30.187  25.809  1.00  0.00     0.047 C 
ATOM     24  C   UNL A   1      30.435  30.372  23.627  1.00  0.00     0.005 C 
ATOM     25  C   UNL A   1      30.615  30.936  25.043  1.00  0.00     0.006 C 
BRANCH  18  26
ATOM     26  C   UNL A   1      30.022  25.862  23.840  1.00  0.00     0.341 C 
ATOM     27  O   UNL A   1      28.800  25.901  23.768  1.00  0.00    -0.246 OA
BRANCH  26  28
ATOM     28  O   UNL A   1      30.839  25.217  22.955  1.00  0.00    -0.462 OA
BRANCH  28  29
ATOM     29  C   UNL A   1      31.553  26.042  22.018  1.00  0.00     0.230 C 
ATOM     30  C   UNL A   1      33.027  25.688  22.032  1.00  0.00     0.049 C 
ENDBRANCH  28  29
ENDBRANCH  26  28
ENDBRANCH  18  26
ENDBRANCH  14  17
ENDBRANCH   7  13
ENDBRANCH   4   6
ENDBRANCH   3   4
ENDBRANCH   2   3
ENDBRANCH   1   2
BRANCH   1  31
ATOM     31  O   UNL A   1      38.089  21.792  24.894  1.00  0.00    -0.374 OA
BRANCH  31  32
ATOM     32  C   UNL A   1      37.765  20.426  25.174  1.00  0.00     0.202 C 
BRANCH  32  33
ATOM     33  C   UNL A   1      38.985  19.520  25.364  1.00  0.00     0.261 C 
BRANCH  33  34
ATOM     34  O   UNL A   1      39.884  20.107  26.322  1.00  0.00    -0.460 OA
BRANCH  34  35
ATOM     35  C   UNL A   1      41.186  19.763  26.179  1.00  0.00     0.338 C 
ATOM     36  O   UNL A   1      41.627  18.703  25.765  1.00  0.00    -0.246 OA
BRANCH  35  37
ATOM     37  C   UNL A   1      42.024  20.960  26.392  1.00  0.00     0.060 A 
ATOM     38  C   UNL A   1      42.347  21.291  27.717  1.00  0.00     0.016 A 
ATOM     39  C   UNL A   1      42.485  21.744  25.332  1.00  0.00     0.016 A 
ATOM     40  C   UNL A   1      43.093  22.434  27.989  1.00  0.00     0.010 A 
ATOM     41  C   UNL A   1      43.219  22.900  25.608  1.00  0.00     0.010 A 
ATOM     42  C   UNL A   1      43.494  23.266  26.938  1.00  0.00    -0.014 A 
BRANCH  42  43
ATOM     43  C   UNL A   1      44.030  24.614  27.233  1.00  0.00     0.031 A 
ATOM     44  C   UNL A   1      43.078  25.662  27.738  1.00  0.00     0.074 A 
ATOM     45  C   UNL A   1      45.328  24.904  27.039  1.00  0.00     0.049 A 
ATOM     46  N   UNL A   1      43.296  26.923  27.997  1.00  0.00    -0.248 NA
ATOM     47  C   UNL A   1      41.690  25.228  27.977  1.00  0.00     0.031 C 
ATOM     48  C   UNL A   1      46.343  23.965  26.567  1.00  0.00     0.029 A 
ATOM     49  N   UNL A   1      46.005  26.090  27.187  1.00  0.00    -0.354 N 
ATOM     50  C   UNL A   1      42.072  27.440  28.400  1.00  0.00     0.074 A 
ATOM     51  C   UNL A   1      41.111  26.360  28.348  1.00  0.00     0.031 C 
ATOM     52  C   UNL A   1      47.509  24.621  26.426  1.00  0.00     0.029 A 
ATOM     53  C   UNL A   1      47.314  26.028  26.775  1.00  0.00     0.049 A 
ATOM     54  H   UNL A   1      45.591  26.905  27.553  1.00  0.00     0.167 HD
ATOM     55  C   UNL A   1      41.775  28.701  28.793  1.00  0.00     0.034 A 
ATOM     56  C   UNL A   1      48.238  27.004  26.668  1.00  0.00     0.034 A 
ATOM     57  C   UNL A   1      42.736  29.767  28.862  1.00  0.00     0.049 A 
ATOM     58  C   UNL A   1      47.877  28.406  27.083  1.00  0.00     0.074 A 
ATOM     59  C   UNL A   1      42.547  31.068  29.288  1.00  0.00     0.029 A 
ATOM     60  N   UNL A   1      44.065  29.654  28.486  1.00  0.00    -0.354 N 
ATOM     61  N   UNL A   1      46.747  28.857  27.575  1.00  0.00    -0.248 NA
ATOM     62  C   UNL A   1      48.923  29.433  26.957  1.00  0.00     0.031 C 
ATOM     63  C   UNL A   1      43.760  31.749  29.153  1.00  0.00     0.029 A 
ATOM     64  C   UNL A   1      44.707  30.866  28.660  1.00  0.00     0.049 A 
ATOM     65  H   UNL A   1      44.489  28.833  28.147  1.00  0.00     0.167 HD
ATOM     66  C   UNL A   1      46.957  30.203  27.850  1.00  0.00     0.074 A 
ATOM     67  C   UNL A   1      48.327  30.496  27.482  1.00  0.00     0.031 C 
ATOM     68  C   UNL A   1      46.091  31.120  28.349  1.00  0.00     0.034 A 
BRANCH  55  69
ATOM     69  C   UNL A   1      40.358  28.988  29.203  1.00  0.00     0.023 A 
ATOM     70  C   UNL A   1      39.408  29.337  28.222  1.00  0.00     0.012 A 
ATOM     71  C   UNL A   1      39.956  28.871  30.547  1.00  0.00     0.148 A 
ATOM     72  C   UNL A   1      38.083  29.586  28.576  1.00  0.00     0.002 A 
ATOM     73  C   UNL A   1      38.625  29.084  30.887  1.00  0.00     0.091 A 
ATOM     74  F   UNL A   1      40.881  28.569  31.469  1.00  0.00    -0.205 F 
ATOM     75  C   UNL A   1      37.689  29.450  29.904  1.00  0.00     0.022 A 
BRANCH  73  76
ATOM     76  S   UNL A   1      38.011  28.867  32.560  1.00  0.00     0.127 S 
ATOM     77  O   UNL A   1      38.202  27.432  32.761  1.00  0.00    -0.237 OA
ATOM     78  O   UNL A   1      38.916  29.716  33.335  1.00  0.00    -0.237 OA
ATOM     79  O   UNL A   1      36.627  29.319  32.539  1.00  0.00    -0.744 OA
ENDBRANCH  73  76
ENDBRANCH  55  69
BRANCH  56  80
ATOM     80  C   UNL A   1      49.606  26.681  26.173  1.00  0.00     0.023 A 
ATOM     81  C   UNL A   1      50.487  25.951  26.994  1.00  0.00     0.012 A 
ATOM     82  C   UNL A   1      50.031  27.070  24.887  1.00  0.00     0.148 A 
ATOM     83  C   UNL A   1      51.773  25.635  26.553  1.00  0.00     0.002 A 
ATOM     84  C   UNL A   1      51.295  26.709  24.435  1.00  0.00     0.091 A 
ATOM     85  F   UNL A   1      49.188  27.786  24.129  1.00  0.00    -0.205 F 
ATOM     86  C   UNL A   1      52.173  26.002  25.272  1.00  0.00     0.022 A 
BRANCH  84  87
ATOM     87  S   UNL A   1      51.842  27.034  22.755  1.00  0.00     0.127 S 
ATOM     88  O   UNL A   1      50.640  26.731  21.985  1.00  0.00    -0.237 OA
ATOM     89  O   UNL A   1      52.191  28.455  22.818  1.00  0.00    -0.237 OA
ATOM     90  O   UNL A   1      52.978  26.150  22.537  1.00  0.00    -0.744 OA
ENDBRANCH  84  87
ENDBRANCH  56  80
BRANCH  68  91
ATOM     91  C   UNL A   1      46.594  32.522  28.569  1.00  0.00     0.023 A 
ATOM     92  C   UNL A   1      47.143  32.877  29.816  1.00  0.00     0.012 A 
ATOM     93  C   UNL A   1      46.628  33.447  27.506  1.00  0.00     0.148 A 
ATOM     94  C   UNL A   1      47.705  34.139  30.007  1.00  0.00     0.002 A 
ATOM     95  C   UNL A   1      47.229  34.685  27.691  1.00  0.00     0.091 A 
ATOM     96  F   UNL A   1      46.085  33.091  26.333  1.00  0.00    -0.205 F 
ATOM     97  C   UNL A   1      47.760  35.036  28.943  1.00  0.00     0.022 A 
BRANCH  95  98
ATOM     98  S   UNL A   1      47.433  35.866  26.353  1.00  0.00     0.127 S 
ATOM     99  O   UNL A   1      48.025  35.033  25.307  1.00  0.00    -0.237 OA
ATOM    100  O   UNL A   1      46.054  36.282  26.092  1.00  0.00    -0.237 OA
ATOM    101  O   UNL A   1      48.293  36.920  26.874  1.00  0.00    -0.744 OA
ENDBRANCH  95  98
ENDBRANCH  68  91
ENDBRANCH  42  43
ENDBRANCH  35  37
ENDBRANCH  34  35
ENDBRANCH  33  34
ENDBRANCH  32  33
ENDBRANCH  31  32
ENDBRANCH   1  31
TORSDOF 22
ENDMDL
MODEL 2
REMARK VINA RESULT:     -11.0      2.152      7.556
REMARK SMILES CCOC(=O)c1c(NC(=O)[C@@H]2[C@@H]3CC[C@@H](C3)[C@@H]2C(=O)OCCOCCOC(=O)c2ccc(-c3c4nc(c(-c5cccc(S(=O)(=O)[O-])c5F)c5ccc([nH]5)c(-c5cccc(S(=O)(=O)[O-])c5F)c5nc(c(-c6cccc(S(=O)(=O)[O-])c6F)c6ccc3[nH]6)C=C5)C=C4)cc2)sc2c1CCCC2
REMARK SMILES IDX 22 1 21 2 20 3 18 4 19 5 17 6 11 7 12 8 13 9 16 10 15 11
REMARK SMILES IDX 14 12 9 13 8 14 10 16 7 17 6 18 94 19 92 20 93 21 95 22
REMARK SMILES IDX 98 23 96 24 97 25 4 26 5 27 3 28 2 29 1 30 23 31 24 32 25 33
REMARK SMILES IDX 26 34 27 35 28 36 29 37 30 38 91 39 31 40 90 41 32 42 33 43
REMARK SMILES IDX 34 44 84 45 35 46 89 47 83 48 85 49 36 50 88 51 82 52 81 53
REMARK SMILES IDX 37 55 69 56 49 57 68 58 50 59 53 60 67 61 86 62 51 63 52 64
REMARK SMILES IDX 66 66 87 67 54 68 38 69 39 70 47 71 40 72 42 73 48 74 41 75
REMARK SMILES IDX 43 76 44 77 45 78 46 79 70 80 71 81 79 82 72 83 74 84 80 85
REMARK SMILES IDX 73 86 75 87 76 88 77 89 78 90 55 91 56 92 64 93 57 94 59 95
REMARK SMILES IDX 65 96 58 97 60 98 61 99 62 100 63 101
REMARK H PARENT 8 15 85 54 53 65
REMARK Flexibility Score: inf
ROOT
ATOM      1  C   UNL A   1      38.013  22.376  25.893  1.00  0.00     0.202 C 
ENDROOT
BRANCH   1   2
ATOM      2  C   UNL A   1      37.031  23.530  25.666  1.00  0.00     0.261 C 
BRANCH   2   3
ATOM      3  O   UNL A   1      35.713  23.184  26.125  1.00  0.00    -0.463 OA
BRANCH   3   4
ATOM      4  C   UNL A   1      34.734  24.038  25.731  1.00  0.00     0.310 C 
ATOM      5  O   UNL A   1      34.731  25.244  25.950  1.00  0.00    -0.252 OA
BRANCH   4   6
ATOM      6  C   UNL A   1      33.805  23.386  24.732  1.00  0.00     0.115 C 
ATOM      7  C   UNL A   1      32.316  23.338  25.119  1.00  0.00     0.096 C 
ATOM      8  C   UNL A   1      31.903  21.900  24.739  1.00  0.00     0.003 C 
ATOM      9  C   UNL A   1      32.538  20.850  25.670  1.00  0.00     0.005 C 
ATOM     10  C   UNL A   1      32.739  21.681  23.475  1.00  0.00     0.009 C 
ATOM     11  C   UNL A   1      34.069  21.967  24.195  1.00  0.00     0.004 C 
ATOM     12  C   UNL A   1      34.030  20.927  25.321  1.00  0.00     0.005 C 
BRANCH   7  13
ATOM     13  C   UNL A   1      31.941  23.728  26.524  1.00  0.00     0.229 C 
ATOM     14  N   UNL A   1      31.551  24.988  26.840  1.00  0.00    -0.317 N 
ATOM     15  H   UNL A   1      31.520  25.136  27.813  1.00  0.00     0.170 HD
ATOM     16  O   UNL A   1      31.948  22.902  27.442  1.00  0.00    -0.274 OA
BRANCH  14  17
ATOM     17  C   UNL A   1      31.188  26.110  26.131  1.00  0.00     0.110 A 
ATOM     18  C   UNL A   1      31.621  27.393  25.829  1.00  0.00     0.098 A 
ATOM     19  C   UNL A   1      30.803  27.972  24.780  1.00  0.00    -0.017 A 
ATOM     20  S   UNL A   1      29.715  25.733  25.320  1.00  0.00    -0.122 S 
ATOM     21  C   UNL A   1      29.767  27.148  24.404  1.00  0.00     0.011 A 
ATOM     22  C   UNL A   1      31.062  29.285  24.093  1.00  0.00     0.038 C 
ATOM     23  C   UNL A   1      28.776  27.440  23.325  1.00  0.00     0.047 C 
ATOM     24  C   UNL A   1      29.879  29.722  23.218  1.00  0.00     0.005 C 
ATOM     25  C   UNL A   1      29.310  28.550  22.406  1.00  0.00     0.006 C 
BRANCH  18  26
ATOM     26  C   UNL A   1      32.760  28.137  26.340  1.00  0.00     0.341 C 
ATOM     27  O   UNL A   1      33.852  28.135  25.787  1.00  0.00    -0.246 OA
BRANCH  26  28
ATOM     28  O   UNL A   1      32.414  28.945  27.386  1.00  0.00    -0.462 OA
BRANCH  28  29
ATOM     29  C   UNL A   1      32.956  30.277  27.379  1.00  0.00     0.230 C 
ATOM     30  C   UNL A   1      31.950  31.245  26.787  1.00  0.00     0.049 C 
ENDBRANCH  28  29
ENDBRANCH  26  28
ENDBRANCH  18  26
ENDBRANCH  14  17
ENDBRANCH   7  13
ENDBRANCH   4   6
ENDBRANCH   3   4
ENDBRANCH   2   3
ENDBRANCH   1   2
BRANCH   1  31
ATOM     31  O   UNL A   1      38.029  21.383  24.863  1.00  0.00    -0.374 OA
BRANCH  31  32
ATOM     32  C   UNL A   1      37.967  20.026  25.312  1.00  0.00     0.202 C 
BRANCH  32  33
ATOM     33  C   UNL A   1      39.317  19.304  25.311  1.00  0.00     0.261 C 
BRANCH  33  34
ATOM     34  O   UNL A   1      39.987  19.520  26.567  1.00  0.00    -0.460 OA
BRANCH  34  35
ATOM     35  C   UNL A   1      41.279  19.912  26.472  1.00  0.00     0.338 C 
ATOM     36  O   UNL A   1      42.208  19.279  25.997  1.00  0.00    -0.246 OA
BRANCH  35  37
ATOM     37  C   UNL A   1      41.374  21.340  26.836  1.00  0.00     0.060 A 
ATOM     38  C   UNL A   1      41.284  22.276  25.795  1.00  0.00     0.016 A 
ATOM     39  C   UNL A   1      41.547  21.762  28.156  1.00  0.00     0.016 A 
ATOM     40  C   UNL A   1      41.414  23.636  26.064  1.00  0.00     0.010 A 
ATOM     41  C   UNL A   1      41.695  23.125  28.423  1.00  0.00     0.010 A 
ATOM     42  C   UNL A   1      41.664  24.062  27.373  1.00  0.00    -0.014 A 
BRANCH  42  43
ATOM     43  C   UNL A   1      42.085  25.459  27.622  1.00  0.00     0.031 A 
ATOM     44  C   UNL A   1      43.478  25.863  27.222  1.00  0.00     0.074 A 
ATOM     45  C   UNL A   1      41.258  26.341  28.209  1.00  0.00     0.049 A 
ATOM     46  N   UNL A   1      44.093  27.000  27.401  1.00  0.00    -0.248 NA
ATOM     47  C   UNL A   1      44.285  24.842  26.530  1.00  0.00     0.031 C 
ATOM     48  C   UNL A   1      39.885  26.064  28.626  1.00  0.00     0.029 A 
ATOM     49  N   UNL A   1      41.470  27.645  28.581  1.00  0.00    -0.354 N 
ATOM     50  C   UNL A   1      45.366  26.825  26.873  1.00  0.00     0.074 A 
ATOM     51  C   UNL A   1      45.439  25.471  26.371  1.00  0.00     0.031 C 
ATOM     52  C   UNL A   1      39.389  27.155  29.235  1.00  0.00     0.029 A 
ATOM     53  C   UNL A   1      40.416  28.196  29.270  1.00  0.00     0.049 A 
ATOM     54  H   UNL A   1      42.298  28.137  28.375  1.00  0.00     0.167 HD
ATOM     55  C   UNL A   1      46.381  27.717  26.800  1.00  0.00     0.034 A 
ATOM     56  C   UNL A   1      40.308  29.394  29.880  1.00  0.00     0.034 A 
ATOM     57  C   UNL A   1      46.297  29.068  27.282  1.00  0.00     0.049 A 
ATOM     58  C   UNL A   1      41.462  30.360  29.811  1.00  0.00     0.074 A 
ATOM     59  C   UNL A   1      47.253  30.064  27.216  1.00  0.00     0.029 A 
ATOM     60  N   UNL A   1      45.196  29.607  27.927  1.00  0.00    -0.354 N 
ATOM     61  N   UNL A   1      42.618  30.224  29.205  1.00  0.00    -0.248 NA
ATOM     62  C   UNL A   1      41.290  31.657  30.483  1.00  0.00     0.031 C 
ATOM     63  C   UNL A   1      46.735  31.203  27.839  1.00  0.00     0.029 A 
ATOM     64  C   UNL A   1      45.451  30.920  28.275  1.00  0.00     0.049 A 
ATOM     65  H   UNL A   1      44.356  29.127  28.109  1.00  0.00     0.167 HD
ATOM     66  C   UNL A   1      43.293  31.425  29.391  1.00  0.00     0.074 A 
ATOM     67  C   UNL A   1      42.413  32.284  30.157  1.00  0.00     0.031 C 
ATOM     68  C   UNL A   1      44.535  31.782  28.980  1.00  0.00     0.034 A 
BRANCH  55  69
ATOM     69  C   UNL A   1      47.659  27.267  26.151  1.00  0.00     0.023 A 
ATOM     70  C   UNL A   1      47.877  27.539  24.785  1.00  0.00     0.012 A 
ATOM     71  C   UNL A   1      48.661  26.617  26.898  1.00  0.00     0.148 A 
ATOM     72  C   UNL A   1      49.064  27.150  24.167  1.00  0.00     0.002 A 
ATOM     73  C   UNL A   1      49.857  26.267  26.283  1.00  0.00     0.091 A 
ATOM     74  F   UNL A   1      48.420  26.340  28.187  1.00  0.00    -0.205 F 
ATOM     75  C   UNL A   1      50.057  26.525  24.916  1.00  0.00     0.022 A 
BRANCH  73  76
ATOM     76  S   UNL A   1      51.219  25.518  27.182  1.00  0.00     0.127 S 
ATOM     77  O   UNL A   1      51.907  24.786  26.120  1.00  0.00    -0.237 OA
ATOM     78  O   UNL A   1      51.941  26.688  27.683  1.00  0.00    -0.237 OA
ATOM     79  O   UNL A   1      50.609  24.696  28.218  1.00  0.00    -0.744 OA
ENDBRANCH  73  76
ENDBRANCH  55  69
BRANCH  56  80
ATOM     80  C   UNL A   1      39.046  29.757  30.584  1.00  0.00     0.023 A 
ATOM     81  C   UNL A   1      38.776  29.208  31.851  1.00  0.00     0.012 A 
ATOM     82  C   UNL A   1      38.125  30.661  30.017  1.00  0.00     0.148 A 
ATOM     83  C   UNL A   1      37.601  29.534  32.532  1.00  0.00     0.002 A 
ATOM     84  C   UNL A   1      36.982  31.020  30.722  1.00  0.00     0.091 A 
ATOM     85  F   UNL A   1      38.388  31.155  28.798  1.00  0.00    -0.205 F 
ATOM     86  C   UNL A   1      36.711  30.447  31.974  1.00  0.00     0.022 A 
BRANCH  84  87
ATOM     87  S   UNL A   1      35.848  32.281  30.130  1.00  0.00     0.127 S 
ATOM     88  O   UNL A   1      34.763  32.189  31.102  1.00  0.00    -0.237 OA
ATOM     89  O   UNL A   1      36.662  33.494  30.230  1.00  0.00    -0.237 OA
ATOM     90  O   UNL A   1      35.514  31.896  28.765  1.00  0.00    -0.744 OA
ENDBRANCH  84  87
ENDBRANCH  56  80
BRANCH  68  91
ATOM     91  C   UNL A   1      45.018  33.170  29.305  1.00  0.00     0.023 A 
ATOM     92  C   UNL A   1      45.735  33.397  30.496  1.00  0.00     0.012 A 
ATOM     93  C   UNL A   1      44.862  34.219  28.377  1.00  0.00     0.148 A 
ATOM     94  C   UNL A   1      46.277  34.653  30.765  1.00  0.00     0.002 A 
ATOM     95  C   UNL A   1      45.442  35.455  28.632  1.00  0.00     0.091 A 
ATOM     96  F   UNL A   1      44.162  33.983  27.258  1.00  0.00    -0.205 F 
ATOM     97  C   UNL A   1      46.142  35.676  29.830  1.00  0.00     0.022 A 
BRANCH  95  98
ATOM     98  S   UNL A   1      45.404  36.801  27.443  1.00  0.00     0.127 S 
ATOM     99  O   UNL A   1      43.967  37.012  27.277  1.00  0.00    -0.237 OA
ATOM    100  O   UNL A   1      46.098  37.871  28.162  1.00  0.00    -0.237 OA
ATOM    101  O   UNL A   1      46.105  36.315  26.263  1.00  0.00    -0.744 OA
ENDBRANCH  95  98
ENDBRANCH  68  91
ENDBRANCH  42  43
ENDBRANCH  35  37
ENDBRANCH  34  35
ENDBRANCH  33  34
ENDBRANCH  32  33
ENDBRANCH  31  32
ENDBRANCH   1  31
TORSDOF 22
ENDMDL
MODEL 3
REMARK VINA RESULT:     -11.0      1.794      7.542
REMARK SMILES CCOC(=O)c1c(NC(=O)[C@@H]2[C@@H]3CC[C@@H](C3)[C@@H]2C(=O)OCCOCCOC(=O)c2ccc(-c3c4nc(c(-c5cccc(S(=O)(=O)[O-])c5F)c5ccc([nH]5)c(-c5cccc(S(=O)(=O)[O-])c5F)c5nc(c(-c6cccc(S(=O)(=O)[O-])c6F)c6ccc3[nH]6)C=C5)C=C4)cc2)sc2c1CCCC2
REMARK SMILES IDX 22 1 21 2 20 3 18 4 19 5 17 6 11 7 12 8 13 9 16 10 15 11
REMARK SMILES IDX 14 12 9 13 8 14 10 16 7 17 6 18 94 19 92 20 93 21 95 22
REMARK SMILES IDX 98 23 96 24 97 25 4 26 5 27 3 28 2 29 1 30 23 31 24 32 25 33
REMARK SMILES IDX 26 34 27 35 28 36 29 37 30 38 91 39 31 40 90 41 32 42 33 43
REMARK SMILES IDX 34 44 84 45 35 46 89 47 83 48 85 49 36 50 88 51 82 52 81 53
REMARK SMILES IDX 37 55 69 56 49 57 68 58 50 59 53 60 67 61 86 62 51 63 52 64
REMARK SMILES IDX 66 66 87 67 54 68 38 69 39 70 47 71 40 72 42 73 48 74 41 75
REMARK SMILES IDX 43 76 44 77 45 78 46 79 70 80 71 81 79 82 72 83 74 84 80 85
REMARK SMILES IDX 73 86 75 87 76 88 77 89 78 90 55 91 56 92 64 93 57 94 59 95
REMARK SMILES IDX 65 96 58 97 60 98 61 99 62 100 63 101
REMARK H PARENT 8 15 85 54 53 65
REMARK Flexibility Score: inf
ROOT
ATOM      1  C   UNL A   1      38.127  22.354  26.101  1.00  0.00     0.202 C 
ENDROOT
BRANCH   1   2
ATOM      2  C   UNL A   1      37.104  23.454  25.803  1.00  0.00     0.261 C 
BRANCH   2   3
ATOM      3  O   UNL A   1      35.790  22.900  25.617  1.00  0.00    -0.463 OA
BRANCH   3   4
ATOM      4  C   UNL A   1      34.830  23.810  25.312  1.00  0.00     0.310 C 
ATOM      5  O   UNL A   1      34.926  25.017  25.505  1.00  0.00    -0.252 OA
BRANCH   4   6
ATOM      6  C   UNL A   1      33.761  23.207  24.429  1.00  0.00     0.115 C 
ATOM      7  C   UNL A   1      32.316  23.300  24.953  1.00  0.00     0.096 C 
ATOM      8  C   UNL A   1      31.752  21.890  24.671  1.00  0.00     0.003 C 
ATOM      9  C   UNL A   1      32.384  20.822  25.584  1.00  0.00     0.005 C 
ATOM     10  C   UNL A   1      32.444  21.557  23.347  1.00  0.00     0.009 C 
ATOM     11  C   UNL A   1      33.856  21.752  23.930  1.00  0.00     0.004 C 
ATOM     12  C   UNL A   1      33.838  20.759  25.097  1.00  0.00     0.005 C 
BRANCH   7  13
ATOM     13  C   UNL A   1      32.109  23.768  26.368  1.00  0.00     0.229 C 
ATOM     14  N   UNL A   1      31.921  25.076  26.671  1.00  0.00    -0.317 N 
ATOM     15  H   UNL A   1      31.986  25.248  27.639  1.00  0.00     0.170 HD
ATOM     16  O   UNL A   1      32.073  22.969  27.309  1.00  0.00    -0.274 OA
BRANCH  14  17
ATOM     17  C   UNL A   1      31.661  26.222  25.957  1.00  0.00     0.110 A 
ATOM     18  C   UNL A   1      30.944  26.682  24.861  1.00  0.00     0.098 A 
ATOM     19  C   UNL A   1      30.955  28.132  24.818  1.00  0.00    -0.017 A 
ATOM     20  S   UNL A   1      32.487  27.508  26.755  1.00  0.00    -0.122 S 
ATOM     21  C   UNL A   1      31.727  28.683  25.815  1.00  0.00     0.011 A 
ATOM     22  C   UNL A   1      30.166  28.984  23.863  1.00  0.00     0.038 C 
ATOM     23  C   UNL A   1      31.908  30.146  26.063  1.00  0.00     0.047 C 
ATOM     24  C   UNL A   1      30.593  30.458  23.915  1.00  0.00     0.005 C 
ATOM     25  C   UNL A   1      30.796  30.940  25.358  1.00  0.00     0.006 C 
BRANCH  18  26
ATOM     26  C   UNL A   1      30.173  25.943  23.875  1.00  0.00     0.341 C 
ATOM     27  O   UNL A   1      28.954  26.020  23.798  1.00  0.00    -0.246 OA
BRANCH  26  28
ATOM     28  O   UNL A   1      30.977  25.308  22.971  1.00  0.00    -0.462 OA
BRANCH  28  29
ATOM     29  C   UNL A   1      31.609  26.134  21.977  1.00  0.00     0.230 C 
ATOM     30  C   UNL A   1      33.116  26.080  22.138  1.00  0.00     0.049 C 
ENDBRANCH  28  29
ENDBRANCH  26  28
ENDBRANCH  18  26
ENDBRANCH  14  17
ENDBRANCH   7  13
ENDBRANCH   4   6
ENDBRANCH   3   4
ENDBRANCH   2   3
ENDBRANCH   1   2
BRANCH   1  31
ATOM     31  O   UNL A   1      38.290  21.381  25.066  1.00  0.00    -0.374 OA
BRANCH  31  32
ATOM     32  C   UNL A   1      38.306  20.016  25.496  1.00  0.00     0.202 C 
BRANCH  32  33
ATOM     33  C   UNL A   1      39.700  19.383  25.517  1.00  0.00     0.261 C 
BRANCH  33  34
ATOM     34  O   UNL A   1      40.362  19.700  26.755  1.00  0.00    -0.460 OA
BRANCH  34  35
ATOM     35  C   UNL A   1      41.627  20.164  26.631  1.00  0.00     0.338 C 
ATOM     36  O   UNL A   1      42.584  19.577  26.154  1.00  0.00    -0.246 OA
BRANCH  35  37
ATOM     37  C   UNL A   1      41.644  21.603  26.964  1.00  0.00     0.060 A 
ATOM     38  C   UNL A   1      41.560  22.511  25.898  1.00  0.00     0.016 A 
ATOM     39  C   UNL A   1      41.740  22.062  28.280  1.00  0.00     0.016 A 
ATOM     40  C   UNL A   1      41.618  23.881  26.139  1.00  0.00     0.010 A 
ATOM     41  C   UNL A   1      41.816  23.435  28.519  1.00  0.00     0.010 A 
ATOM     42  C   UNL A   1      41.791  24.346  27.447  1.00  0.00    -0.014 A 
BRANCH  42  43
ATOM     43  C   UNL A   1      42.140  25.766  27.680  1.00  0.00     0.031 A 
ATOM     44  C   UNL A   1      43.518  26.230  27.299  1.00  0.00     0.074 A 
ATOM     45  C   UNL A   1      41.260  26.616  28.236  1.00  0.00     0.049 A 
ATOM     46  N   UNL A   1      44.075  27.398  27.470  1.00  0.00    -0.248 NA
ATOM     47  C   UNL A   1      44.387  25.238  26.640  1.00  0.00     0.031 C 
ATOM     48  C   UNL A   1      39.894  26.280  28.632  1.00  0.00     0.029 A 
ATOM     49  N   UNL A   1      41.402  27.935  28.590  1.00  0.00    -0.354 N 
ATOM     50  C   UNL A   1      45.365  27.277  26.969  1.00  0.00     0.074 A 
ATOM     51  C   UNL A   1      45.513  25.920  26.491  1.00  0.00     0.031 C 
ATOM     52  C   UNL A   1      39.334  27.356  29.213  1.00  0.00     0.029 A 
ATOM     53  C   UNL A   1      40.309  28.445  29.250  1.00  0.00     0.049 A 
ATOM     54  H   UNL A   1      42.208  28.463  28.392  1.00  0.00     0.167 HD
ATOM     55  C   UNL A   1      46.337  28.216  26.900  1.00  0.00     0.034 A 
ATOM     56  C   UNL A   1      40.132  29.646  29.837  1.00  0.00     0.034 A 
ATOM     57  C   UNL A   1      46.179  29.569  27.357  1.00  0.00     0.049 A 
ATOM     58  C   UNL A   1      41.239  30.666  29.773  1.00  0.00     0.074 A 
ATOM     59  C   UNL A   1      47.087  30.609  27.293  1.00  0.00     0.029 A 
ATOM     60  N   UNL A   1      45.041  30.064  27.972  1.00  0.00    -0.354 N 
ATOM     61  N   UNL A   1      42.412  30.576  29.192  1.00  0.00    -0.248 NA
ATOM     62  C   UNL A   1      40.992  31.963  30.420  1.00  0.00     0.031 C 
ATOM     63  C   UNL A   1      46.503  31.731  27.886  1.00  0.00     0.029 A 
ATOM     64  C   UNL A   1      45.225  31.394  28.303  1.00  0.00     0.049 A 
ATOM     65  H   UNL A   1      44.222  29.547  28.147  1.00  0.00     0.167 HD
ATOM     66  C   UNL A   1      43.025  31.811  29.370  1.00  0.00     0.074 A 
ATOM     67  C   UNL A   1      42.090  32.639  30.104  1.00  0.00     0.031 C 
ATOM     68  C   UNL A   1      44.256  32.221  28.976  1.00  0.00     0.034 A 
BRANCH  55  69
ATOM     69  C   UNL A   1      47.648  27.817  26.283  1.00  0.00     0.023 A 
ATOM     70  C   UNL A   1      48.707  27.398  27.114  1.00  0.00     0.012 A 
ATOM     71  C   UNL A   1      47.819  27.815  24.886  1.00  0.00     0.148 A 
ATOM     72  C   UNL A   1      49.925  27.003  26.563  1.00  0.00     0.002 A 
ATOM     73  C   UNL A   1      49.024  27.383  24.343  1.00  0.00     0.091 A 
ATOM     74  F   UNL A   1      46.811  28.246  24.116  1.00  0.00    -0.205 F 
ATOM     75  C   UNL A   1      50.080  26.986  25.180  1.00  0.00     0.022 A 
BRANCH  73  76
ATOM     76  S   UNL A   1      49.295  27.263  22.571  1.00  0.00     0.127 S 
ATOM     77  O   UNL A   1      48.443  26.129  22.219  1.00  0.00    -0.237 OA
ATOM     78  O   UNL A   1      48.810  28.560  22.095  1.00  0.00    -0.237 OA
ATOM     79  O   UNL A   1      50.725  27.053  22.400  1.00  0.00    -0.744 OA
ENDBRANCH  73  76
ENDBRANCH  55  69
BRANCH  56  80
ATOM     80  C   UNL A   1      38.840  29.959  30.511  1.00  0.00     0.023 A 
ATOM     81  C   UNL A   1      38.609  29.492  31.818  1.00  0.00     0.012 A 
ATOM     82  C   UNL A   1      37.852  30.737  29.875  1.00  0.00     0.148 A 
ATOM     83  C   UNL A   1      37.408  29.773  32.472  1.00  0.00     0.002 A 
ATOM     84  C   UNL A   1      36.679  31.055  30.550  1.00  0.00     0.091 A 
ATOM     85  F   UNL A   1      38.080  31.152  28.621  1.00  0.00    -0.205 F 
ATOM     86  C   UNL A   1      36.449  30.563  31.844  1.00  0.00     0.022 A 
BRANCH  84  87
ATOM     87  S   UNL A   1      35.449  32.168  29.861  1.00  0.00     0.127 S 
ATOM     88  O   UNL A   1      36.266  33.313  29.469  1.00  0.00    -0.237 OA
ATOM     89  O   UNL A   1      34.916  31.382  28.747  1.00  0.00    -0.237 OA
ATOM     90  O   UNL A   1      34.494  32.406  30.935  1.00  0.00    -0.744 OA
ENDBRANCH  84  87
ENDBRANCH  56  80
BRANCH  68  91
ATOM     91  C   UNL A   1      44.665  33.636  29.287  1.00  0.00     0.023 A 
ATOM     92  C   UNL A   1      45.372  33.911  30.472  1.00  0.00     0.012 A 
ATOM     93  C   UNL A   1      44.451  34.666  28.349  1.00  0.00     0.148 A 
ATOM     94  C   UNL A   1      45.848  35.197  30.728  1.00  0.00     0.002 A 
ATOM     95  C   UNL A   1      44.965  35.934  28.591  1.00  0.00     0.091 A 
ATOM     96  F   UNL A   1      43.761  34.383  27.235  1.00  0.00    -0.205 F 
ATOM     97  C   UNL A   1      45.656  36.203  29.784  1.00  0.00     0.022 A 
BRANCH  95  98
ATOM     98  S   UNL A   1      44.852  37.265  27.389  1.00  0.00     0.127 S 
ATOM     99  O   UNL A   1      45.915  36.910  26.451  1.00  0.00    -0.237 OA
ATOM    100  O   UNL A   1      43.495  37.096  26.866  1.00  0.00    -0.237 OA
ATOM    101  O   UNL A   1      45.062  38.498  28.134  1.00  0.00    -0.744 OA
ENDBRANCH  95  98
ENDBRANCH  68  91
ENDBRANCH  42  43
ENDBRANCH  35  37
ENDBRANCH  34  35
ENDBRANCH  33  34
ENDBRANCH  32  33
ENDBRANCH  31  32
ENDBRANCH   1  31
TORSDOF 22
ENDMDL
