MODEL 1
REMARK VINA RESULT:     -11.0      0.000      0.000
REMARK SMILES C[NH2+][C@]1(C(=O)OCCOCCOC(=O)c2ccc(-c3c4nc(c(-c5cccc(S(=O)(=O)[O-])c5F)c5ccc([nH]5)c(-c5cccc(S(=O)(=O)[O-])c5F)c5nc(c(-c6cccc(S(=O)(=O)[O-])c6F)c6ccc3[nH]6)C=C5)C=C4)cc2)CCC[C@@H]1CCn1nc(C)c(Cl)c1C
REMARK SMILES IDX 9 1 8 2 7 3 6 4 4 5 5 6 3 7 78 8 81 9 79 10 80 11 2 12 1 13
REMARK SMILES IDX 82 16 83 17 84 18 85 19 90 20 86 21 88 22 91 23 87 24 89 25
REMARK SMILES IDX 10 26 11 27 12 28 13 29 14 30 15 31 16 32 77 33 17 34 76 35
REMARK SMILES IDX 18 36 19 37 20 38 70 39 21 40 75 41 69 42 71 43 22 44 74 45
REMARK SMILES IDX 68 46 67 47 23 49 55 50 35 51 54 52 36 53 39 54 53 55 72 56
REMARK SMILES IDX 37 57 38 58 52 60 73 61 40 62 24 63 25 64 33 65 26 66 28 67
REMARK SMILES IDX 34 68 27 69 29 70 30 71 31 72 32 73 56 74 57 75 65 76 58 77
REMARK SMILES IDX 60 78 66 79 59 80 61 81 62 82 63 83 64 84 41 85 42 86 50 87
REMARK SMILES IDX 43 88 45 89 51 90 44 91 46 92 47 93 48 94 49 95
REMARK H PARENT 2 14 2 15 71 48 39 59
REMARK Flexibility Score: inf
ROOT
ATOM      1  O   UNL A   1      30.692  29.629  24.344  1.00  0.00    -0.374 OA
ENDROOT
BRANCH   1   2
ATOM      2  C   UNL A   1      31.087  28.983  23.133  1.00  0.00     0.202 C 
BRANCH   2   3
ATOM      3  C   UNL A   1      30.306  27.733  22.717  1.00  0.00     0.261 C 
BRANCH   3   4
ATOM      4  O   UNL A   1      30.294  26.749  23.762  1.00  0.00    -0.459 OA
BRANCH   4   5
ATOM      5  C   UNL A   1      31.082  25.664  23.543  1.00  0.00     0.368 C 
ATOM      6  O   UNL A   1      31.583  25.368  22.461  1.00  0.00    -0.245 OA
BRANCH   5   7
ATOM      7  C   UNL A   1      31.275  24.810  24.823  1.00  0.00     0.197 C 
ATOM      8  C   UNL A   1      30.266  25.021  25.974  1.00  0.00     0.081 C 
ATOM      9  C   UNL A   1      30.914  23.345  24.460  1.00  0.00     0.064 C 
ATOM     10  C   UNL A   1      30.308  23.719  26.782  1.00  0.00     0.008 C 
ATOM     11  C   UNL A   1      30.828  22.644  25.821  1.00  0.00     0.011 C 
BRANCH   7  12
ATOM     12  N   UNL A   1      32.685  24.914  25.316  1.00  0.00    -0.334 N 
ATOM     13  C   UNL A   1      32.989  26.195  25.957  1.00  0.00     0.331 C 
ATOM     14  H   UNL A   1      32.845  24.169  25.993  1.00  0.00     0.347 HD
ATOM     15  H   UNL A   1      33.293  24.836  24.501  1.00  0.00     0.347 HD
ENDBRANCH   7  12
BRANCH   9  16
ATOM     16  C   UNL A   1      31.833  22.660  23.437  1.00  0.00     0.034 C 
BRANCH  16  17
ATOM     17  C   UNL A   1      32.432  21.334  23.924  1.00  0.00     0.145 C 
BRANCH  17  18
ATOM     18  N   UNL A   1      33.844  21.412  24.270  1.00  0.00    -0.268 N 
ATOM     19  N   UNL A   1      34.432  22.630  24.290  1.00  0.00    -0.176 NA
ATOM     20  C   UNL A   1      34.709  20.387  24.566  1.00  0.00     0.054 A 
ATOM     21  C   UNL A   1      35.702  22.375  24.643  1.00  0.00     0.078 A 
ATOM     22  C   UNL A   1      35.930  20.990  24.784  1.00  0.00     0.084 A 
ATOM     23  C   UNL A   1      34.358  18.945  24.606  1.00  0.00     0.068 C 
ATOM     24  C   UNL A   1      36.662  23.490  24.834  1.00  0.00     0.070 C 
ATOM     25  Cl  UNL A   1      37.405  20.234  25.144  1.00  0.00    -0.080 Cl
ENDBRANCH  17  18
ENDBRANCH  16  17
ENDBRANCH   9  16
ENDBRANCH   5   7
ENDBRANCH   4   5
ENDBRANCH   3   4
ENDBRANCH   2   3
ENDBRANCH   1   2
BRANCH   1  26
ATOM     26  C   UNL A   1      31.682  29.799  25.358  1.00  0.00     0.202 C 
BRANCH  26  27
ATOM     27  C   UNL A   1      31.706  31.130  26.118  1.00  0.00     0.261 C 
BRANCH  27  28
ATOM     28  O   UNL A   1      32.487  31.060  27.321  1.00  0.00    -0.460 OA
BRANCH  28  29
ATOM     29  C   UNL A   1      33.312  32.115  27.514  1.00  0.00     0.338 C 
ATOM     30  O   UNL A   1      32.998  33.299  27.550  1.00  0.00    -0.246 OA
BRANCH  29  31
ATOM     31  C   UNL A   1      34.661  31.647  27.874  1.00  0.00     0.060 A 
ATOM     32  C   UNL A   1      34.830  30.267  28.054  1.00  0.00     0.016 A 
ATOM     33  C   UNL A   1      35.717  32.531  28.098  1.00  0.00     0.016 A 
ATOM     34  C   UNL A   1      36.043  29.771  28.521  1.00  0.00     0.010 A 
ATOM     35  C   UNL A   1      36.932  32.031  28.577  1.00  0.00     0.010 A 
ATOM     36  C   UNL A   1      37.083  30.655  28.831  1.00  0.00    -0.014 A 
BRANCH  36  37
ATOM     37  C   UNL A   1      38.259  30.149  29.576  1.00  0.00     0.031 A 
ATOM     38  C   UNL A   1      38.475  30.617  30.989  1.00  0.00     0.074 A 
ATOM     39  C   UNL A   1      39.103  29.269  29.010  1.00  0.00     0.049 A 
ATOM     40  N   UNL A   1      39.424  30.298  31.830  1.00  0.00    -0.248 NA
ATOM     41  C   UNL A   1      37.493  31.574  31.525  1.00  0.00     0.031 C 
ATOM     42  C   UNL A   1      38.990  28.744  27.651  1.00  0.00     0.029 A 
ATOM     43  N   UNL A   1      40.235  28.677  29.510  1.00  0.00    -0.354 N 
ATOM     44  C   UNL A   1      39.167  31.030  32.984  1.00  0.00     0.074 A 
ATOM     45  C   UNL A   1      37.983  31.819  32.732  1.00  0.00     0.031 C 
ATOM     46  C   UNL A   1      40.030  27.926  27.413  1.00  0.00     0.029 A 
ATOM     47  C   UNL A   1      40.887  27.883  28.597  1.00  0.00     0.049 A 
ATOM     48  H   UNL A   1      40.550  28.807  30.433  1.00  0.00     0.167 HD
ATOM     49  C   UNL A   1      39.848  31.029  34.154  1.00  0.00     0.034 A 
ATOM     50  C   UNL A   1      42.051  27.213  28.703  1.00  0.00     0.034 A 
ATOM     51  C   UNL A   1      41.013  30.228  34.407  1.00  0.00     0.049 A 
ATOM     52  C   UNL A   1      42.797  27.242  30.012  1.00  0.00     0.074 A 
ATOM     53  C   UNL A   1      41.748  30.122  35.574  1.00  0.00     0.029 A 
ATOM     54  N   UNL A   1      41.620  29.402  33.474  1.00  0.00    -0.354 N 
ATOM     55  N   UNL A   1      42.474  27.838  31.135  1.00  0.00    -0.248 NA
ATOM     56  C   UNL A   1      44.052  26.477  30.081  1.00  0.00     0.031 C 
ATOM     57  C   UNL A   1      42.814  29.247  35.339  1.00  0.00     0.029 A 
ATOM     58  C   UNL A   1      42.729  28.791  34.033  1.00  0.00     0.049 A 
ATOM     59  H   UNL A   1      41.309  29.270  32.549  1.00  0.00     0.167 HD
ATOM     60  C   UNL A   1      43.464  27.495  32.050  1.00  0.00     0.074 A 
ATOM     61  C   UNL A   1      44.388  26.621  31.356  1.00  0.00     0.031 C 
ATOM     62  C   UNL A   1      43.606  27.880  33.343  1.00  0.00     0.034 A 
BRANCH  49  63
ATOM     63  C   UNL A   1      39.328  31.906  35.262  1.00  0.00     0.023 A 
ATOM     64  C   UNL A   1      38.379  31.391  36.169  1.00  0.00     0.012 A 
ATOM     65  C   UNL A   1      39.810  33.218  35.436  1.00  0.00     0.148 A 
ATOM     66  C   UNL A   1      37.898  32.176  37.217  1.00  0.00     0.002 A 
ATOM     67  C   UNL A   1      39.357  33.981  36.506  1.00  0.00     0.091 A 
ATOM     68  F   UNL A   1      40.691  33.698  34.547  1.00  0.00    -0.205 F 
ATOM     69  C   UNL A   1      38.394  33.466  37.391  1.00  0.00     0.022 A 
BRANCH  67  70
ATOM     70  S   UNL A   1      39.986  35.627  36.854  1.00  0.00     0.127 S 
ATOM     71  O   UNL A   1      39.308  35.943  38.110  1.00  0.00    -0.237 OA
ATOM     72  O   UNL A   1      41.425  35.387  36.982  1.00  0.00    -0.237 OA
ATOM     73  O   UNL A   1      39.609  36.449  35.714  1.00  0.00    -0.744 OA
ENDBRANCH  67  70
ENDBRANCH  49  63
BRANCH  50  74
ATOM     74  C   UNL A   1      42.561  26.424  27.546  1.00  0.00     0.023 A 
ATOM     75  C   UNL A   1      43.437  27.030  26.625  1.00  0.00     0.012 A 
ATOM     76  C   UNL A   1      42.201  25.074  27.368  1.00  0.00     0.148 A 
ATOM     77  C   UNL A   1      43.925  26.312  25.531  1.00  0.00     0.002 A 
ATOM     78  C   UNL A   1      42.732  24.350  26.306  1.00  0.00     0.091 A 
ATOM     79  F   UNL A   1      41.351  24.522  28.244  1.00  0.00    -0.205 F 
ATOM     80  C   UNL A   1      43.582  24.971  25.378  1.00  0.00     0.022 A 
BRANCH  78  81
ATOM     81  S   UNL A   1      42.441  22.589  26.100  1.00  0.00     0.127 S 
ATOM     82  O   UNL A   1      43.022  22.045  27.325  1.00  0.00    -0.237 OA
ATOM     83  O   UNL A   1      40.980  22.530  26.032  1.00  0.00    -0.237 OA
ATOM     84  O   UNL A   1      43.115  22.221  24.862  1.00  0.00    -0.744 OA
ENDBRANCH  78  81
ENDBRANCH  50  74
BRANCH  62  85
ATOM     85  C   UNL A   1      44.785  27.340  34.110  1.00  0.00     0.023 A 
ATOM     86  C   UNL A   1      45.995  28.061  34.129  1.00  0.00     0.012 A 
ATOM     87  C   UNL A   1      44.668  26.165  34.879  1.00  0.00     0.148 A 
ATOM     88  C   UNL A   1      47.079  27.605  34.878  1.00  0.00     0.002 A 
ATOM     89  C   UNL A   1      45.736  25.743  35.660  1.00  0.00     0.091 A 
ATOM     90  F   UNL A   1      43.513  25.483  34.834  1.00  0.00    -0.205 F 
ATOM     91  C   UNL A   1      46.946  26.456  35.652  1.00  0.00     0.022 A 
BRANCH  89  92
ATOM     92  S   UNL A   1      45.622  24.327  36.761  1.00  0.00     0.127 S 
ATOM     93  O   UNL A   1      46.967  24.284  37.332  1.00  0.00    -0.237 OA
ATOM     94  O   UNL A   1      44.576  24.743  37.696  1.00  0.00    -0.237 OA
ATOM     95  O   UNL A   1      45.261  23.195  35.919  1.00  0.00    -0.744 OA
ENDBRANCH  89  92
ENDBRANCH  62  85
ENDBRANCH  36  37
ENDBRANCH  29  31
ENDBRANCH  28  29
ENDBRANCH  27  28
ENDBRANCH  26  27
ENDBRANCH   1  26
TORSDOF 21
ENDMDL
MODEL 2
REMARK VINA RESULT:     -10.6      1.144      1.991
REMARK SMILES C[NH2+][C@]1(C(=O)OCCOCCOC(=O)c2ccc(-c3c4nc(c(-c5cccc(S(=O)(=O)[O-])c5F)c5ccc([nH]5)c(-c5cccc(S(=O)(=O)[O-])c5F)c5nc(c(-c6cccc(S(=O)(=O)[O-])c6F)c6ccc3[nH]6)C=C5)C=C4)cc2)CCC[C@@H]1CCn1nc(C)c(Cl)c1C
REMARK SMILES IDX 9 1 8 2 7 3 6 4 4 5 5 6 3 7 78 8 81 9 79 10 80 11 2 12 1 13
REMARK SMILES IDX 82 16 83 17 84 18 85 19 90 20 86 21 88 22 91 23 87 24 89 25
REMARK SMILES IDX 10 26 11 27 12 28 13 29 14 30 15 31 16 32 77 33 17 34 76 35
REMARK SMILES IDX 18 36 19 37 20 38 70 39 21 40 75 41 69 42 71 43 22 44 74 45
REMARK SMILES IDX 68 46 67 47 23 49 55 50 35 51 54 52 36 53 39 54 53 55 72 56
REMARK SMILES IDX 37 57 38 58 52 60 73 61 40 62 24 63 25 64 33 65 26 66 28 67
REMARK SMILES IDX 34 68 27 69 29 70 30 71 31 72 32 73 56 74 57 75 65 76 58 77
REMARK SMILES IDX 60 78 66 79 59 80 61 81 62 82 63 83 64 84 41 85 42 86 50 87
REMARK SMILES IDX 43 88 45 89 51 90 44 91 46 92 47 93 48 94 49 95
REMARK H PARENT 2 14 2 15 71 48 39 59
REMARK Flexibility Score: inf
ROOT
ATOM      1  O   UNL A   1      33.143  29.663  24.987  1.00  0.00    -0.374 OA
ENDROOT
BRANCH   1   2
ATOM      2  C   UNL A   1      33.918  28.625  25.590  1.00  0.00     0.202 C 
BRANCH   2   3
ATOM      3  C   UNL A   1      33.160  27.529  26.345  1.00  0.00     0.261 C 
BRANCH   3   4
ATOM      4  O   UNL A   1      32.878  26.407  25.497  1.00  0.00    -0.459 OA
BRANCH   4   5
ATOM      5  C   UNL A   1      31.677  26.450  24.861  1.00  0.00     0.368 C 
ATOM      6  O   UNL A   1      30.587  26.508  25.424  1.00  0.00    -0.245 OA
BRANCH   5   7
ATOM      7  C   UNL A   1      31.828  26.402  23.319  1.00  0.00     0.197 C 
ATOM      8  C   UNL A   1      33.113  27.008  22.713  1.00  0.00     0.081 C 
ATOM      9  C   UNL A   1      32.057  24.919  22.922  1.00  0.00     0.064 C 
ATOM     10  C   UNL A   1      33.275  26.317  21.354  1.00  0.00     0.008 C 
ATOM     11  C   UNL A   1      32.500  24.999  21.456  1.00  0.00     0.011 C 
BRANCH   7  12
ATOM     12  N   UNL A   1      30.605  26.957  22.655  1.00  0.00    -0.334 N 
ATOM     13  C   UNL A   1      30.629  28.412  22.504  1.00  0.00     0.331 C 
ATOM     14  H   UNL A   1      30.523  26.538  21.729  1.00  0.00     0.347 HD
ATOM     15  H   UNL A   1      29.811  26.732  23.255  1.00  0.00     0.347 HD
ENDBRANCH   7  12
BRANCH   9  16
ATOM     16  C   UNL A   1      30.887  23.962  23.193  1.00  0.00     0.034 C 
BRANCH  16  17
ATOM     17  C   UNL A   1      31.309  22.503  23.409  1.00  0.00     0.145 C 
BRANCH  17  18
ATOM     18  N   UNL A   1      32.320  22.324  24.441  1.00  0.00    -0.268 N 
ATOM     19  N   UNL A   1      33.547  21.894  24.069  1.00  0.00    -0.176 NA
ATOM     20  C   UNL A   1      32.198  22.512  25.797  1.00  0.00     0.054 A 
ATOM     21  C   UNL A   1      34.238  21.839  25.219  1.00  0.00     0.078 A 
ATOM     22  C   UNL A   1      33.427  22.174  26.324  1.00  0.00     0.084 A 
ATOM     23  C   UNL A   1      30.971  22.963  26.499  1.00  0.00     0.068 C 
ATOM     24  C   UNL A   1      35.672  21.460  25.211  1.00  0.00     0.070 C 
ATOM     25  Cl  UNL A   1      33.879  22.157  27.959  1.00  0.00    -0.080 Cl
ENDBRANCH  17  18
ENDBRANCH  16  17
ENDBRANCH   9  16
ENDBRANCH   5   7
ENDBRANCH   4   5
ENDBRANCH   3   4
ENDBRANCH   2   3
ENDBRANCH   1   2
BRANCH   1  26
ATOM     26  C   UNL A   1      31.887  29.983  25.583  1.00  0.00     0.202 C 
BRANCH  26  27
ATOM     27  C   UNL A   1      31.746  31.349  26.264  1.00  0.00     0.261 C 
BRANCH  27  28
ATOM     28  O   UNL A   1      32.417  31.401  27.532  1.00  0.00    -0.460 OA
BRANCH  28  29
ATOM     29  C   UNL A   1      33.316  32.406  27.646  1.00  0.00     0.338 C 
ATOM     30  O   UNL A   1      33.083  33.609  27.628  1.00  0.00    -0.246 OA
BRANCH  29  31
ATOM     31  C   UNL A   1      34.640  31.867  27.996  1.00  0.00     0.060 A 
ATOM     32  C   UNL A   1      34.716  30.497  28.283  1.00  0.00     0.016 A 
ATOM     33  C   UNL A   1      35.767  32.683  28.111  1.00  0.00     0.016 A 
ATOM     34  C   UNL A   1      35.907  29.948  28.747  1.00  0.00     0.010 A 
ATOM     35  C   UNL A   1      36.961  32.132  28.587  1.00  0.00     0.010 A 
ATOM     36  C   UNL A   1      37.020  30.772  28.947  1.00  0.00    -0.014 A 
BRANCH  36  37
ATOM     37  C   UNL A   1      38.185  30.239  29.690  1.00  0.00     0.031 A 
ATOM     38  C   UNL A   1      38.420  30.707  31.100  1.00  0.00     0.074 A 
ATOM     39  C   UNL A   1      39.004  29.335  29.125  1.00  0.00     0.049 A 
ATOM     40  N   UNL A   1      39.363  30.366  31.939  1.00  0.00    -0.248 NA
ATOM     41  C   UNL A   1      37.464  31.691  31.636  1.00  0.00     0.031 C 
ATOM     42  C   UNL A   1      38.872  28.808  27.768  1.00  0.00     0.029 A 
ATOM     43  N   UNL A   1      40.122  28.715  29.623  1.00  0.00    -0.354 N 
ATOM     44  C   UNL A   1      39.129  31.109  33.091  1.00  0.00     0.074 A 
ATOM     45  C   UNL A   1      37.965  31.928  32.840  1.00  0.00     0.031 C 
ATOM     46  C   UNL A   1      39.890  27.961  27.530  1.00  0.00     0.029 A 
ATOM     47  C   UNL A   1      40.749  27.901  28.711  1.00  0.00     0.049 A 
ATOM     48  H   UNL A   1      40.444  28.841  30.544  1.00  0.00     0.167 HD
ATOM     49  C   UNL A   1      39.814  31.095  34.259  1.00  0.00     0.034 A 
ATOM     50  C   UNL A   1      41.897  27.201  28.815  1.00  0.00     0.034 A 
ATOM     51  C   UNL A   1      40.959  30.265  34.510  1.00  0.00     0.049 A 
ATOM     52  C   UNL A   1      42.648  27.216  30.121  1.00  0.00     0.074 A 
ATOM     53  C   UNL A   1      41.695  30.144  35.676  1.00  0.00     0.029 A 
ATOM     54  N   UNL A   1      41.541  29.420  33.578  1.00  0.00    -0.354 N 
ATOM     55  N   UNL A   1      42.345  27.825  31.243  1.00  0.00    -0.248 NA
ATOM     56  C   UNL A   1      43.882  26.419  30.188  1.00  0.00     0.031 C 
ATOM     57  C   UNL A   1      42.737  29.241  35.440  1.00  0.00     0.029 A 
ATOM     58  C   UNL A   1      42.635  28.782  34.136  1.00  0.00     0.049 A 
ATOM     59  H   UNL A   1      41.223  29.292  32.656  1.00  0.00     0.167 HD
ATOM     60  C   UNL A   1      43.329  27.460  32.156  1.00  0.00     0.074 A 
ATOM     61  C   UNL A   1      44.227  26.558  31.462  1.00  0.00     0.031 C 
ATOM     62  C   UNL A   1      43.486  27.845  33.446  1.00  0.00     0.034 A 
BRANCH  49  63
ATOM     63  C   UNL A   1      39.321  31.990  35.365  1.00  0.00     0.023 A 
ATOM     64  C   UNL A   1      38.377  31.497  36.289  1.00  0.00     0.012 A 
ATOM     65  C   UNL A   1      39.825  33.296  35.521  1.00  0.00     0.148 A 
ATOM     66  C   UNL A   1      37.922  32.299  37.335  1.00  0.00     0.002 A 
ATOM     67  C   UNL A   1      39.396  34.075  36.589  1.00  0.00     0.091 A 
ATOM     68  F   UNL A   1      40.701  33.754  34.616  1.00  0.00    -0.205 F 
ATOM     69  C   UNL A   1      38.438  33.583  37.491  1.00  0.00     0.022 A 
BRANCH  67  70
ATOM     70  S   UNL A   1      40.055  35.715  36.913  1.00  0.00     0.127 S 
ATOM     71  O   UNL A   1      41.488  35.444  37.007  1.00  0.00    -0.237 OA
ATOM     72  O   UNL A   1      39.651  36.453  35.715  1.00  0.00    -0.237 OA
ATOM     73  O   UNL A   1      39.420  36.164  38.144  1.00  0.00    -0.744 OA
ENDBRANCH  67  70
ENDBRANCH  49  63
BRANCH  50  74
ATOM     74  C   UNL A   1      42.382  26.395  27.659  1.00  0.00     0.023 A 
ATOM     75  C   UNL A   1      43.264  26.976  26.728  1.00  0.00     0.012 A 
ATOM     76  C   UNL A   1      41.992  25.051  27.492  1.00  0.00     0.148 A 
ATOM     77  C   UNL A   1      43.728  26.242  25.636  1.00  0.00     0.002 A 
ATOM     78  C   UNL A   1      42.500  24.310  26.431  1.00  0.00     0.091 A 
ATOM     79  F   UNL A   1      41.136  24.523  28.378  1.00  0.00    -0.205 F 
ATOM     80  C   UNL A   1      43.356  24.908  25.494  1.00  0.00     0.022 A 
BRANCH  78  81
ATOM     81  S   UNL A   1      42.169  22.554  26.237  1.00  0.00     0.127 S 
ATOM     82  O   UNL A   1      40.714  22.537  26.116  1.00  0.00    -0.237 OA
ATOM     83  O   UNL A   1      42.894  22.244  25.005  1.00  0.00    -0.237 OA
ATOM     84  O   UNL A   1      42.712  21.918  27.430  1.00  0.00    -0.744 OA
ENDBRANCH  78  81
ENDBRANCH  50  74
BRANCH  62  85
ATOM     85  C   UNL A   1      44.653  27.278  34.211  1.00  0.00     0.023 A 
ATOM     86  C   UNL A   1      45.882  27.967  34.222  1.00  0.00     0.012 A 
ATOM     87  C   UNL A   1      44.508  26.110  34.986  1.00  0.00     0.148 A 
ATOM     88  C   UNL A   1      46.957  27.486  34.969  1.00  0.00     0.002 A 
ATOM     89  C   UNL A   1      45.568  25.663  35.765  1.00  0.00     0.091 A 
ATOM     90  F   UNL A   1      43.336  25.458  34.948  1.00  0.00    -0.205 F 
ATOM     91  C   UNL A   1      46.797  26.344  35.749  1.00  0.00     0.022 A 
BRANCH  89  92
ATOM     92  S   UNL A   1      45.421  24.256  36.873  1.00  0.00     0.127 S 
ATOM     93  O   UNL A   1      45.406  23.137  35.933  1.00  0.00    -0.237 OA
ATOM     94  O   UNL A   1      46.640  24.362  37.675  1.00  0.00    -0.237 OA
ATOM     95  O   UNL A   1      44.189  24.464  37.620  1.00  0.00    -0.744 OA
ENDBRANCH  89  92
ENDBRANCH  62  85
ENDBRANCH  36  37
ENDBRANCH  29  31
ENDBRANCH  28  29
ENDBRANCH  27  28
ENDBRANCH  26  27
ENDBRANCH   1  26
TORSDOF 21
ENDMDL
MODEL 3
REMARK VINA RESULT:     -10.5      2.365      3.756
REMARK SMILES C[NH2+][C@]1(C(=O)OCCOCCOC(=O)c2ccc(-c3c4nc(c(-c5cccc(S(=O)(=O)[O-])c5F)c5ccc([nH]5)c(-c5cccc(S(=O)(=O)[O-])c5F)c5nc(c(-c6cccc(S(=O)(=O)[O-])c6F)c6ccc3[nH]6)C=C5)C=C4)cc2)CCC[C@@H]1CCn1nc(C)c(Cl)c1C
REMARK SMILES IDX 9 1 8 2 7 3 6 4 4 5 5 6 3 7 78 8 81 9 79 10 80 11 2 12 1 13
REMARK SMILES IDX 82 16 83 17 84 18 85 19 90 20 86 21 88 22 91 23 87 24 89 25
REMARK SMILES IDX 10 26 11 27 12 28 13 29 14 30 15 31 16 32 77 33 17 34 76 35
REMARK SMILES IDX 18 36 19 37 20 38 70 39 21 40 75 41 69 42 71 43 22 44 74 45
REMARK SMILES IDX 68 46 67 47 23 49 55 50 35 51 54 52 36 53 39 54 53 55 72 56
REMARK SMILES IDX 37 57 38 58 52 60 73 61 40 62 24 63 25 64 33 65 26 66 28 67
REMARK SMILES IDX 34 68 27 69 29 70 30 71 31 72 32 73 56 74 57 75 65 76 58 77
REMARK SMILES IDX 60 78 66 79 59 80 61 81 62 82 63 83 64 84 41 85 42 86 50 87
REMARK SMILES IDX 43 88 45 89 51 90 44 91 46 92 47 93 48 94 49 95
REMARK H PARENT 2 14 2 15 71 48 39 59
REMARK Flexibility Score: inf
ROOT
ATOM      1  O   UNL A   1      31.981  30.551  26.049  1.00  0.00    -0.374 OA
ENDROOT
BRANCH   1   2
ATOM      2  C   UNL A   1      33.223  30.078  26.572  1.00  0.00     0.202 C 
BRANCH   2   3
ATOM      3  C   UNL A   1      33.225  28.698  27.236  1.00  0.00     0.261 C 
BRANCH   3   4
ATOM      4  O   UNL A   1      33.042  27.651  26.271  1.00  0.00    -0.459 OA
BRANCH   4   5
ATOM      5  C   UNL A   1      32.041  26.776  26.552  1.00  0.00     0.368 C 
ATOM      6  O   UNL A   1      31.140  26.977  27.361  1.00  0.00    -0.245 OA
BRANCH   5   7
ATOM      7  C   UNL A   1      32.166  25.461  25.740  1.00  0.00     0.197 C 
ATOM      8  C   UNL A   1      31.413  24.223  26.276  1.00  0.00     0.081 C 
ATOM      9  C   UNL A   1      31.383  25.658  24.415  1.00  0.00     0.064 C 
ATOM     10  C   UNL A   1      31.211  23.321  25.053  1.00  0.00     0.008 C 
ATOM     11  C   UNL A   1      31.294  24.243  23.832  1.00  0.00     0.011 C 
BRANCH   7  12
ATOM     12  N   UNL A   1      33.605  25.142  25.476  1.00  0.00    -0.334 N 
ATOM     13  C   UNL A   1      34.115  24.024  26.272  1.00  0.00     0.331 C 
ATOM     14  H   UNL A   1      33.708  24.908  24.489  1.00  0.00     0.347 HD
ATOM     15  H   UNL A   1      34.147  25.966  25.737  1.00  0.00     0.347 HD
ENDBRANCH   7  12
BRANCH   9  16
ATOM     16  C   UNL A   1      31.942  26.719  23.455  1.00  0.00     0.034 C 
BRANCH  16  17
ATOM     17  C   UNL A   1      31.079  26.950  22.208  1.00  0.00     0.145 C 
BRANCH  17  18
ATOM     18  N   UNL A   1      30.093  28.011  22.357  1.00  0.00    -0.268 N 
ATOM     19  N   UNL A   1      30.344  29.205  21.773  1.00  0.00    -0.176 NA
ATOM     20  C   UNL A   1      28.909  27.984  23.053  1.00  0.00     0.054 A 
ATOM     21  C   UNL A   1      29.270  29.951  22.079  1.00  0.00     0.078 A 
ATOM     22  C   UNL A   1      28.372  29.246  22.908  1.00  0.00     0.084 A 
ATOM     23  C   UNL A   1      28.375  26.822  23.805  1.00  0.00     0.068 C 
ATOM     24  C   UNL A   1      29.147  31.333  21.554  1.00  0.00     0.070 C 
ATOM     25  Cl  UNL A   1      26.933  29.840  23.584  1.00  0.00    -0.080 Cl
ENDBRANCH  17  18
ENDBRANCH  16  17
ENDBRANCH   9  16
ENDBRANCH   5   7
ENDBRANCH   4   5
ENDBRANCH   3   4
ENDBRANCH   2   3
ENDBRANCH   1   2
BRANCH   1  26
ATOM     26  C   UNL A   1      31.361  31.656  26.706  1.00  0.00     0.202 C 
BRANCH  26  27
ATOM     27  C   UNL A   1      32.211  32.906  26.959  1.00  0.00     0.261 C 
BRANCH  27  28
ATOM     28  O   UNL A   1      33.035  32.781  28.128  1.00  0.00    -0.460 OA
BRANCH  28  29
ATOM     29  C   UNL A   1      34.096  33.622  28.156  1.00  0.00     0.338 C 
ATOM     30  O   UNL A   1      34.067  34.846  28.121  1.00  0.00    -0.246 OA
BRANCH  29  31
ATOM     31  C   UNL A   1      35.332  32.871  28.431  1.00  0.00     0.060 A 
ATOM     32  C   UNL A   1      35.193  31.531  28.817  1.00  0.00     0.016 A 
ATOM     33  C   UNL A   1      36.591  33.473  28.382  1.00  0.00     0.016 A 
ATOM     34  C   UNL A   1      36.308  30.803  29.219  1.00  0.00     0.010 A 
ATOM     35  C   UNL A   1      37.710  32.742  28.795  1.00  0.00     0.010 A 
ATOM     36  C   UNL A   1      37.564  31.420  29.255  1.00  0.00    -0.014 A 
BRANCH  36  37
ATOM     37  C   UNL A   1      38.685  30.729  29.934  1.00  0.00     0.031 A 
ATOM     38  C   UNL A   1      39.029  31.123  31.345  1.00  0.00     0.074 A 
ATOM     39  C   UNL A   1      39.366  29.752  29.312  1.00  0.00     0.049 A 
ATOM     40  N   UNL A   1      39.956  30.647  32.133  1.00  0.00    -0.248 NA
ATOM     41  C   UNL A   1      38.221  32.198  31.945  1.00  0.00     0.031 C 
ATOM     42  C   UNL A   1      39.118  29.286  27.949  1.00  0.00     0.029 A 
ATOM     43  N   UNL A   1      40.420  28.988  29.746  1.00  0.00    -0.354 N 
ATOM     44  C   UNL A   1      39.859  31.377  33.313  1.00  0.00     0.074 A 
ATOM     45  C   UNL A   1      38.793  32.337  33.133  1.00  0.00     0.031 C 
ATOM     46  C   UNL A   1      40.017  28.332  27.646  1.00  0.00     0.029 A 
ATOM     47  C   UNL A   1      40.909  28.133  28.787  1.00  0.00     0.049 A 
ATOM     48  H   UNL A   1      40.790  29.047  30.656  1.00  0.00     0.167 HD
ATOM     49  C   UNL A   1      40.582  31.247  34.450  1.00  0.00     0.034 A 
ATOM     50  C   UNL A   1      41.967  27.299  28.825  1.00  0.00     0.034 A 
ATOM     51  C   UNL A   1      41.628  30.279  34.631  1.00  0.00     0.049 A 
ATOM     52  C   UNL A   1      42.765  27.185  30.098  1.00  0.00     0.074 A 
ATOM     53  C   UNL A   1      42.389  30.036  35.761  1.00  0.00     0.029 A 
ATOM     54  N   UNL A   1      42.067  29.399  33.654  1.00  0.00    -0.354 N 
ATOM     55  N   UNL A   1      42.582  27.791  31.247  1.00  0.00    -0.248 NA
ATOM     56  C   UNL A   1      43.896  26.245  30.092  1.00  0.00     0.031 C 
ATOM     57  C   UNL A   1      43.306  29.023  35.458  1.00  0.00     0.029 A 
ATOM     58  C   UNL A   1      43.098  28.619  34.148  1.00  0.00     0.049 A 
ATOM     59  H   UNL A   1      41.700  29.338  32.743  1.00  0.00     0.167 HD
ATOM     60  C   UNL A   1      43.549  27.284  32.107  1.00  0.00     0.074 A 
ATOM     61  C   UNL A   1      44.304  26.304  31.353  1.00  0.00     0.031 C 
ATOM     62  C   UNL A   1      43.802  27.609  33.399  1.00  0.00     0.034 A 
BRANCH  49  63
ATOM     63  C   UNL A   1      40.245  32.160  35.598  1.00  0.00     0.023 A 
ATOM     64  C   UNL A   1      40.998  33.335  35.797  1.00  0.00     0.012 A 
ATOM     65  C   UNL A   1      39.157  31.883  36.449  1.00  0.00     0.148 A 
ATOM     66  C   UNL A   1      40.691  34.207  36.841  1.00  0.00     0.002 A 
ATOM     67  C   UNL A   1      38.832  32.777  37.463  1.00  0.00     0.091 A 
ATOM     68  F   UNL A   1      38.471  30.747  36.260  1.00  0.00    -0.205 F 
ATOM     69  C   UNL A   1      39.604  33.934  37.667  1.00  0.00     0.022 A 
BRANCH  67  70
ATOM     70  S   UNL A   1      37.408  32.547  38.534  1.00  0.00     0.127 S 
ATOM     71  O   UNL A   1      37.476  31.113  38.811  1.00  0.00    -0.237 OA
ATOM     72  O   UNL A   1      37.738  33.404  39.674  1.00  0.00    -0.237 OA
ATOM     73  O   UNL A   1      36.254  32.983  37.762  1.00  0.00    -0.744 OA
ENDBRANCH  67  70
ENDBRANCH  49  63
BRANCH  50  74
ATOM     74  C   UNL A   1      42.305  26.476  27.630  1.00  0.00     0.023 A 
ATOM     75  C   UNL A   1      43.049  27.049  26.580  1.00  0.00     0.012 A 
ATOM     76  C   UNL A   1      41.915  25.125  27.539  1.00  0.00     0.148 A 
ATOM     77  C   UNL A   1      43.375  26.299  25.449  1.00  0.00     0.002 A 
ATOM     78  C   UNL A   1      42.288  24.370  26.434  1.00  0.00     0.091 A 
ATOM     79  F   UNL A   1      41.191  24.605  28.539  1.00  0.00    -0.205 F 
ATOM     80  C   UNL A   1      43.005  24.959  25.380  1.00  0.00     0.022 A 
BRANCH  78  81
ATOM     81  S   UNL A   1      41.959  22.607  26.316  1.00  0.00     0.127 S 
ATOM     82  O   UNL A   1      42.608  22.267  25.053  1.00  0.00    -0.237 OA
ATOM     83  O   UNL A   1      42.629  22.093  27.511  1.00  0.00    -0.237 OA
ATOM     84  O   UNL A   1      40.508  22.476  26.337  1.00  0.00    -0.744 OA
ENDBRANCH  78  81
ENDBRANCH  50  74
BRANCH  62  85
ATOM     85  C   UNL A   1      44.922  26.884  34.099  1.00  0.00     0.023 A 
ATOM     86  C   UNL A   1      46.235  27.388  34.024  1.00  0.00     0.012 A 
ATOM     87  C   UNL A   1      44.660  25.753  34.899  1.00  0.00     0.148 A 
ATOM     88  C   UNL A   1      47.275  26.762  34.710  1.00  0.00     0.002 A 
ATOM     89  C   UNL A   1      45.692  25.163  35.617  1.00  0.00     0.091 A 
ATOM     90  F   UNL A   1      43.406  25.277  34.943  1.00  0.00    -0.205 F 
ATOM     91  C   UNL A   1      47.002  25.659  35.516  1.00  0.00     0.022 A 
BRANCH  89  92
ATOM     92  S   UNL A   1      45.414  23.798  36.753  1.00  0.00     0.127 S 
ATOM     93  O   UNL A   1      46.768  23.528  37.232  1.00  0.00    -0.237 OA
ATOM     94  O   UNL A   1      44.524  24.397  37.748  1.00  0.00    -0.237 OA
ATOM     95  O   UNL A   1      44.806  22.738  35.961  1.00  0.00    -0.744 OA
ENDBRANCH  89  92
ENDBRANCH  62  85
ENDBRANCH  36  37
ENDBRANCH  29  31
ENDBRANCH  28  29
ENDBRANCH  27  28
ENDBRANCH  26  27
ENDBRANCH   1  26
TORSDOF 21
ENDMDL
