MODEL 1
REMARK VINA RESULT:     -11.7      0.000      0.000
REMARK SMILES O=C(OCCOCCOC(=O)[C@@H]1[C@@H](C(=O)Nc2cccc([N+](=O)[O-])c2)[C@@H]2C=C[C@H]1O2)c1ccc(-c2c3nc(c(-c4cccc(S(=O)(=O)[O-])c4F)c4ccc([nH]4)c(-c4cccc(S(=O)(=O)[O-])c4F)c4nc(c(-c5cccc(S(=O)(=O)[O-])c5F)c5ccc2[nH]5)C=C4)C=C3)cc1
REMARK SMILES IDX 6 1 5 2 4 3 3 4 2 5 1 6 31 7 32 8 93 9 33 10 92 11 34 12
REMARK SMILES IDX 35 13 36 14 86 15 37 16 91 17 85 18 87 19 38 20 90 21 84 22
REMARK SMILES IDX 83 23 39 25 71 26 51 27 70 28 52 29 55 30 69 31 88 32 53 33
REMARK SMILES IDX 54 34 68 36 89 37 56 38 40 39 41 40 49 41 42 42 44 43 50 44
REMARK SMILES IDX 43 45 45 46 46 47 47 48 48 49 72 50 73 51 81 52 74 53 76 54
REMARK SMILES IDX 82 55 75 56 77 57 78 58 79 59 80 60 57 61 58 62 66 63 59 64
REMARK SMILES IDX 61 65 67 66 60 67 62 68 63 69 64 70 65 71 7 72 8 73 9 74
REMARK SMILES IDX 10 75 11 76 12 77 13 78 29 79 26 80 28 81 30 82 27 83 14 84
REMARK SMILES IDX 15 85 16 86 17 88 18 89 25 90 19 91 21 92 20 93 22 94 23 95
REMARK SMILES IDX 24 96
REMARK H PARENT 87 24 55 35 16 87
REMARK Flexibility Score: inf
ROOT
ATOM      1  O   UNL A   1      37.245  22.439  24.278  1.00  0.00    -0.374 OA
ENDROOT
BRANCH   1   2
ATOM      2  C   UNL A   1      37.347  21.546  25.384  1.00  0.00     0.202 C 
BRANCH   2   3
ATOM      3  C   UNL A   1      38.139  20.232  25.258  1.00  0.00     0.261 C 
BRANCH   3   4
ATOM      4  O   UNL A   1      39.568  20.434  25.309  1.00  0.00    -0.460 OA
BRANCH   4   5
ATOM      5  C   UNL A   1      40.343  20.480  26.431  1.00  0.00     0.338 C 
ATOM      6  O   UNL A   1      40.691  19.441  26.982  1.00  0.00    -0.246 OA
BRANCH   5   7
ATOM      7  C   UNL A   1      40.773  21.789  26.988  1.00  0.00     0.060 A 
ATOM      8  C   UNL A   1      40.442  22.967  26.347  1.00  0.00     0.016 A 
ATOM      9  C   UNL A   1      41.495  21.886  28.177  1.00  0.00     0.016 A 
ATOM     10  C   UNL A   1      40.968  24.175  26.673  1.00  0.00     0.010 A 
ATOM     11  C   UNL A   1      41.899  23.150  28.638  1.00  0.00     0.010 A 
ATOM     12  C   UNL A   1      41.646  24.293  27.862  1.00  0.00    -0.014 A 
BRANCH  12  13
ATOM     13  C   UNL A   1      42.117  25.655  28.124  1.00  0.00     0.031 A 
ATOM     14  C   UNL A   1      43.388  26.081  27.478  1.00  0.00     0.074 A 
ATOM     15  C   UNL A   1      41.251  26.531  28.678  1.00  0.00     0.049 A 
ATOM     16  N   UNL A   1      43.982  27.236  27.535  1.00  0.00    -0.248 NA
ATOM     17  C   UNL A   1      44.076  25.083  26.637  1.00  0.00     0.031 C 
ATOM     18  C   UNL A   1      39.894  26.201  29.150  1.00  0.00     0.029 A 
ATOM     19  N   UNL A   1      41.343  27.879  28.874  1.00  0.00    -0.354 N 
ATOM     20  C   UNL A   1      45.147  27.085  26.801  1.00  0.00     0.074 A 
ATOM     21  C   UNL A   1      45.170  25.738  26.284  1.00  0.00     0.031 C 
ATOM     22  C   UNL A   1      39.281  27.321  29.557  1.00  0.00     0.029 A 
ATOM     23  C   UNL A   1      40.232  28.416  29.483  1.00  0.00     0.049 A 
ATOM     24  H   UNL A   1      42.124  28.413  28.607  1.00  0.00     0.167 HD
ATOM     25  C   UNL A   1      46.112  28.006  26.598  1.00  0.00     0.034 A 
ATOM     26  C   UNL A   1      40.043  29.647  29.987  1.00  0.00     0.034 A 
ATOM     27  C   UNL A   1      46.034  29.335  27.128  1.00  0.00     0.049 A 
ATOM     28  C   UNL A   1      41.176  30.619  29.830  1.00  0.00     0.074 A 
ATOM     29  C   UNL A   1      46.976  30.341  27.087  1.00  0.00     0.029 A 
ATOM     30  N   UNL A   1      44.929  29.841  27.805  1.00  0.00    -0.354 N 
ATOM     31  N   UNL A   1      42.315  30.456  29.195  1.00  0.00    -0.248 NA
ATOM     32  C   UNL A   1      41.008  31.938  30.445  1.00  0.00     0.031 C 
ATOM     33  C   UNL A   1      46.452  31.447  27.763  1.00  0.00     0.029 A 
ATOM     34  C   UNL A   1      45.165  31.145  28.189  1.00  0.00     0.049 A 
ATOM     35  H   UNL A   1      44.100  29.341  27.985  1.00  0.00     0.167 HD
ATOM     36  C   UNL A   1      42.994  31.659  29.318  1.00  0.00     0.074 A 
ATOM     37  C   UNL A   1      42.116  32.550  30.055  1.00  0.00     0.031 C 
ATOM     38  C   UNL A   1      44.235  31.997  28.888  1.00  0.00     0.034 A 
BRANCH  25  39
ATOM     39  C   UNL A   1      47.329  27.560  25.840  1.00  0.00     0.023 A 
ATOM     40  C   UNL A   1      48.417  26.974  26.517  1.00  0.00     0.012 A 
ATOM     41  C   UNL A   1      47.404  27.763  24.450  1.00  0.00     0.148 A 
ATOM     42  C   UNL A   1      49.577  26.627  25.824  1.00  0.00     0.002 A 
ATOM     43  C   UNL A   1      48.543  27.372  23.758  1.00  0.00     0.091 A 
ATOM     44  F   UNL A   1      46.372  28.359  23.835  1.00  0.00    -0.205 F 
ATOM     45  C   UNL A   1      49.635  26.818  24.445  1.00  0.00     0.022 A 
BRANCH  43  46
ATOM     46  S   UNL A   1      48.694  27.525  21.977  1.00  0.00     0.127 S 
ATOM     47  O   UNL A   1      49.829  28.440  21.853  1.00  0.00    -0.237 OA
ATOM     48  O   UNL A   1      48.977  26.146  21.580  1.00  0.00    -0.237 OA
ATOM     49  O   UNL A   1      47.422  28.052  21.504  1.00  0.00    -0.744 OA
ENDBRANCH  43  46
ENDBRANCH  25  39
BRANCH  26  50
ATOM     50  C   UNL A   1      38.799  29.987  30.739  1.00  0.00     0.023 A 
ATOM     51  C   UNL A   1      38.599  29.496  32.042  1.00  0.00     0.012 A 
ATOM     52  C   UNL A   1      37.800  30.794  30.154  1.00  0.00     0.148 A 
ATOM     53  C   UNL A   1      37.412  29.765  32.728  1.00  0.00     0.002 A 
ATOM     54  C   UNL A   1      36.650  31.110  30.866  1.00  0.00     0.091 A 
ATOM     55  F   UNL A   1      37.990  31.239  28.904  1.00  0.00    -0.205 F 
ATOM     56  C   UNL A   1      36.443  30.579  32.146  1.00  0.00     0.022 A 
BRANCH  54  57
ATOM     57  S   UNL A   1      35.415  32.252  30.234  1.00  0.00     0.127 S 
ATOM     58  O   UNL A   1      36.215  33.449  29.986  1.00  0.00    -0.237 OA
ATOM     59  O   UNL A   1      34.950  31.562  29.030  1.00  0.00    -0.237 OA
ATOM     60  O   UNL A   1      34.412  32.365  31.283  1.00  0.00    -0.744 OA
ENDBRANCH  54  57
ENDBRANCH  26  50
BRANCH  38  61
ATOM     61  C   UNL A   1      44.682  33.400  29.176  1.00  0.00     0.023 A 
ATOM     62  C   UNL A   1      45.335  33.697  30.388  1.00  0.00     0.012 A 
ATOM     63  C   UNL A   1      44.501  34.409  28.211  1.00  0.00     0.148 A 
ATOM     64  C   UNL A   1      45.765  34.994  30.653  1.00  0.00     0.002 A 
ATOM     65  C   UNL A   1      44.989  35.682  28.458  1.00  0.00     0.091 A 
ATOM     66  F   UNL A   1      43.858  34.102  27.075  1.00  0.00    -0.205 F 
ATOM     67  C   UNL A   1      45.605  35.982  29.684  1.00  0.00     0.022 A 
BRANCH  65  68
ATOM     68  S   UNL A   1      44.927  36.981  27.222  1.00  0.00     0.127 S 
ATOM     69  O   UNL A   1      45.875  36.488  26.225  1.00  0.00    -0.237 OA
ATOM     70  O   UNL A   1      43.525  36.944  26.805  1.00  0.00    -0.237 OA
ATOM     71  O   UNL A   1      45.319  38.206  27.907  1.00  0.00    -0.744 OA
ENDBRANCH  65  68
ENDBRANCH  38  61
ENDBRANCH  12  13
ENDBRANCH   5   7
ENDBRANCH   4   5
ENDBRANCH   3   4
ENDBRANCH   2   3
ENDBRANCH   1   2
BRANCH   1  72
ATOM     72  C   UNL A   1      35.991  22.547  23.597  1.00  0.00     0.202 C 
BRANCH  72  73
ATOM     73  C   UNL A   1      35.503  23.985  23.689  1.00  0.00     0.261 C 
BRANCH  73  74
ATOM     74  O   UNL A   1      34.082  23.913  23.886  1.00  0.00    -0.463 OA
BRANCH  74  75
ATOM     75  C   UNL A   1      33.539  24.920  24.617  1.00  0.00     0.312 C 
ATOM     76  O   UNL A   1      33.506  26.102  24.282  1.00  0.00    -0.252 OA
BRANCH  75  77
ATOM     77  C   UNL A   1      33.028  24.438  25.944  1.00  0.00     0.147 C 
ATOM     78  C   UNL A   1      32.725  22.935  25.844  1.00  0.00     0.129 C 
ATOM     79  C   UNL A   1      31.705  24.969  26.514  1.00  0.00     0.157 C 
ATOM     80  C   UNL A   1      31.356  22.829  26.526  1.00  0.00     0.155 C 
ATOM     81  C   UNL A   1      30.515  24.737  25.620  1.00  0.00     0.004 C 
ATOM     82  O   UNL A   1      31.434  23.914  27.484  1.00  0.00    -0.365 OA
ATOM     83  C   UNL A   1      30.308  23.414  25.616  1.00  0.00     0.004 C 
BRANCH  78  84
ATOM     84  C   UNL A   1      33.800  22.147  26.541  1.00  0.00     0.231 C 
ATOM     85  O   UNL A   1      34.426  22.590  27.506  1.00  0.00    -0.274 OA
ATOM     86  N   UNL A   1      34.041  20.855  26.180  1.00  0.00    -0.325 N 
ATOM     87  H   UNL A   1      34.707  20.392  26.739  1.00  0.00     0.169 HD
BRANCH  86  88
ATOM     88  C   UNL A   1      33.504  20.075  25.150  1.00  0.00     0.048 A 
ATOM     89  C   UNL A   1      32.743  20.761  24.203  1.00  0.00     0.026 A 
ATOM     90  C   UNL A   1      33.676  18.693  25.030  1.00  0.00     0.111 A 
ATOM     91  C   UNL A   1      32.247  20.103  23.080  1.00  0.00     0.009 A 
ATOM     92  C   UNL A   1      33.182  18.034  23.896  1.00  0.00     0.271 A 
ATOM     93  C   UNL A   1      32.478  18.740  22.912  1.00  0.00     0.086 A 
BRANCH  92  94
ATOM     94  N   UNL A   1      33.425  16.596  23.719  1.00  0.00     0.062 N 
ATOM     95  O   UNL A   1      34.103  16.246  22.742  1.00  0.00    -0.258 OA
ATOM     96  O   UNL A   1      32.959  15.823  24.566  1.00  0.00    -0.258 OA
ENDBRANCH  92  94
ENDBRANCH  86  88
ENDBRANCH  78  84
ENDBRANCH  75  77
ENDBRANCH  74  75
ENDBRANCH  73  74
ENDBRANCH  72  73
ENDBRANCH   1  72
TORSDOF 20
ENDMDL
MODEL 2
REMARK VINA RESULT:     -11.7      2.923      8.735
REMARK SMILES O=C(OCCOCCOC(=O)[C@@H]1[C@@H](C(=O)Nc2cccc([N+](=O)[O-])c2)[C@@H]2C=C[C@H]1O2)c1ccc(-c2c3nc(c(-c4cccc(S(=O)(=O)[O-])c4F)c4ccc([nH]4)c(-c4cccc(S(=O)(=O)[O-])c4F)c4nc(c(-c5cccc(S(=O)(=O)[O-])c5F)c5ccc2[nH]5)C=C4)C=C3)cc1
REMARK SMILES IDX 6 1 5 2 4 3 3 4 2 5 1 6 31 7 32 8 93 9 33 10 92 11 34 12
REMARK SMILES IDX 35 13 36 14 86 15 37 16 91 17 85 18 87 19 38 20 90 21 84 22
REMARK SMILES IDX 83 23 39 25 71 26 51 27 70 28 52 29 55 30 69 31 88 32 53 33
REMARK SMILES IDX 54 34 68 36 89 37 56 38 40 39 41 40 49 41 42 42 44 43 50 44
REMARK SMILES IDX 43 45 45 46 46 47 47 48 48 49 72 50 73 51 81 52 74 53 76 54
REMARK SMILES IDX 82 55 75 56 77 57 78 58 79 59 80 60 57 61 58 62 66 63 59 64
REMARK SMILES IDX 61 65 67 66 60 67 62 68 63 69 64 70 65 71 7 72 8 73 9 74
REMARK SMILES IDX 10 75 11 76 12 77 13 78 29 79 26 80 28 81 30 82 27 83 14 84
REMARK SMILES IDX 15 85 16 86 17 88 18 89 25 90 19 91 21 92 20 93 22 94 23 95
REMARK SMILES IDX 24 96
REMARK H PARENT 87 24 55 35 16 87
REMARK Flexibility Score: inf
ROOT
ATOM      1  O   UNL A   1      34.931  22.187  25.849  1.00  0.00    -0.374 OA
ENDROOT
BRANCH   1   2
ATOM      2  C   UNL A   1      35.336  21.226  24.877  1.00  0.00     0.202 C 
BRANCH   2   3
ATOM      3  C   UNL A   1      36.716  20.552  24.973  1.00  0.00     0.261 C 
BRANCH   3   4
ATOM      4  O   UNL A   1      37.790  21.500  25.155  1.00  0.00    -0.460 OA
BRANCH   4   5
ATOM      5  C   UNL A   1      38.843  21.379  26.015  1.00  0.00     0.338 C 
ATOM      6  O   UNL A   1      39.240  20.268  26.352  1.00  0.00    -0.246 OA
BRANCH   5   7
ATOM      7  C   UNL A   1      39.518  22.593  26.544  1.00  0.00     0.060 A 
ATOM      8  C   UNL A   1      39.164  23.848  26.086  1.00  0.00     0.016 A 
ATOM      9  C   UNL A   1      40.504  22.523  27.527  1.00  0.00     0.016 A 
ATOM     10  C   UNL A   1      39.868  24.975  26.361  1.00  0.00     0.010 A 
ATOM     11  C   UNL A   1      41.127  23.703  27.966  1.00  0.00     0.010 A 
ATOM     12  C   UNL A   1      40.813  24.929  27.358  1.00  0.00    -0.014 A 
BRANCH  12  13
ATOM     13  C   UNL A   1      41.464  26.219  27.593  1.00  0.00     0.031 A 
ATOM     14  C   UNL A   1      40.750  27.206  28.450  1.00  0.00     0.074 A 
ATOM     15  C   UNL A   1      42.772  26.337  27.280  1.00  0.00     0.049 A 
ATOM     16  N   UNL A   1      41.137  28.390  28.822  1.00  0.00    -0.248 NA
ATOM     17  C   UNL A   1      39.434  26.801  28.978  1.00  0.00     0.031 C 
ATOM     18  C   UNL A   1      43.582  25.303  26.612  1.00  0.00     0.029 A 
ATOM     19  N   UNL A   1      43.670  27.333  27.540  1.00  0.00    -0.354 N 
ATOM     20  C   UNL A   1      40.087  28.901  29.565  1.00  0.00     0.074 A 
ATOM     21  C   UNL A   1      39.053  27.894  29.618  1.00  0.00     0.031 C 
ATOM     22  C   UNL A   1      44.856  25.715  26.538  1.00  0.00     0.029 A 
ATOM     23  C   UNL A   1      44.927  27.074  27.045  1.00  0.00     0.049 A 
ATOM     24  H   UNL A   1      43.441  28.153  28.033  1.00  0.00     0.167 HD
ATOM     25  C   UNL A   1      40.005  30.120  30.139  1.00  0.00     0.034 A 
ATOM     26  C   UNL A   1      45.995  27.885  26.952  1.00  0.00     0.034 A 
ATOM     27  C   UNL A   1      41.067  31.080  30.063  1.00  0.00     0.049 A 
ATOM     28  C   UNL A   1      45.838  29.269  27.513  1.00  0.00     0.074 A 
ATOM     29  C   UNL A   1      41.089  32.385  30.510  1.00  0.00     0.029 A 
ATOM     30  N   UNL A   1      42.310  30.825  29.494  1.00  0.00    -0.354 N 
ATOM     31  N   UNL A   1      44.815  29.782  28.157  1.00  0.00    -0.248 NA
ATOM     32  C   UNL A   1      46.971  30.182  27.347  1.00  0.00     0.031 C 
ATOM     33  C   UNL A   1      42.336  32.928  30.185  1.00  0.00     0.029 A 
ATOM     34  C   UNL A   1      43.108  31.948  29.575  1.00  0.00     0.049 A 
ATOM     35  H   UNL A   1      42.581  29.968  29.091  1.00  0.00     0.167 HD
ATOM     36  C   UNL A   1      45.186  31.076  28.490  1.00  0.00     0.074 A 
ATOM     37  C   UNL A   1      46.545  31.248  28.009  1.00  0.00     0.031 C 
ATOM     38  C   UNL A   1      44.470  32.046  29.112  1.00  0.00     0.034 A 
BRANCH  25  39
ATOM     39  C   UNL A   1      38.711  30.470  30.813  1.00  0.00     0.023 A 
ATOM     40  C   UNL A   1      38.453  30.041  32.131  1.00  0.00     0.012 A 
ATOM     41  C   UNL A   1      37.728  31.196  30.115  1.00  0.00     0.148 A 
ATOM     42  C   UNL A   1      37.223  30.303  32.732  1.00  0.00     0.002 A 
ATOM     43  C   UNL A   1      36.522  31.493  30.736  1.00  0.00     0.091 A 
ATOM     44  F   UNL A   1      37.981  31.558  28.849  1.00  0.00    -0.205 F 
ATOM     45  C   UNL A   1      36.262  31.036  32.038  1.00  0.00     0.022 A 
BRANCH  43  46
ATOM     46  S   UNL A   1      35.245  32.477  29.948  1.00  0.00     0.127 S 
ATOM     47  O   UNL A   1      34.775  31.569  28.901  1.00  0.00    -0.237 OA
ATOM     48  O   UNL A   1      34.301  32.680  31.048  1.00  0.00    -0.237 OA
ATOM     49  O   UNL A   1      35.899  33.686  29.470  1.00  0.00    -0.744 OA
ENDBRANCH  43  46
ENDBRANCH  25  39
BRANCH  26  50
ATOM     50  C   UNL A   1      47.234  27.446  26.247  1.00  0.00     0.023 A 
ATOM     51  C   UNL A   1      47.433  27.767  24.892  1.00  0.00     0.012 A 
ATOM     52  C   UNL A   1      48.219  26.693  26.920  1.00  0.00     0.148 A 
ATOM     53  C   UNL A   1      48.565  27.311  24.212  1.00  0.00     0.002 A 
ATOM     54  C   UNL A   1      49.373  26.296  26.255  1.00  0.00     0.091 A 
ATOM     55  F   UNL A   1      48.011  26.372  28.205  1.00  0.00    -0.205 F 
ATOM     56  C   UNL A   1      49.539  26.585  24.894  1.00  0.00     0.022 A 
BRANCH  54  57
ATOM     57  S   UNL A   1      50.727  25.467  27.097  1.00  0.00     0.127 S 
ATOM     58  O   UNL A   1      51.638  25.184  25.991  1.00  0.00    -0.237 OA
ATOM     59  O   UNL A   1      51.188  26.502  28.024  1.00  0.00    -0.237 OA
ATOM     60  O   UNL A   1      50.134  24.306  27.744  1.00  0.00    -0.744 OA
ENDBRANCH  54  57
ENDBRANCH  26  50
BRANCH  38  61
ATOM     61  C   UNL A   1      45.171  33.354  29.334  1.00  0.00     0.023 A 
ATOM     62  C   UNL A   1      45.967  33.541  30.481  1.00  0.00     0.012 A 
ATOM     63  C   UNL A   1      45.083  34.373  28.368  1.00  0.00     0.148 A 
ATOM     64  C   UNL A   1      46.632  34.747  30.684  1.00  0.00     0.002 A 
ATOM     65  C   UNL A   1      45.799  35.546  28.548  1.00  0.00     0.091 A 
ATOM     66  F   UNL A   1      44.302  34.175  27.296  1.00  0.00    -0.205 F 
ATOM     67  C   UNL A   1      46.559  35.743  29.712  1.00  0.00     0.022 A 
BRANCH  65  68
ATOM     68  S   UNL A   1      45.852  36.830  27.296  1.00  0.00     0.127 S 
ATOM     69  O   UNL A   1      46.391  36.104  26.148  1.00  0.00    -0.237 OA
ATOM     70  O   UNL A   1      44.443  37.204  27.176  1.00  0.00    -0.237 OA
ATOM     71  O   UNL A   1      46.710  37.879  27.833  1.00  0.00    -0.744 OA
ENDBRANCH  65  68
ENDBRANCH  38  61
ENDBRANCH  12  13
ENDBRANCH   5   7
ENDBRANCH   4   5
ENDBRANCH   3   4
ENDBRANCH   2   3
ENDBRANCH   1   2
BRANCH   1  72
ATOM     72  C   UNL A   1      33.904  21.831  26.779  1.00  0.00     0.202 C 
BRANCH  72  73
ATOM     73  C   UNL A   1      33.030  23.049  27.037  1.00  0.00     0.261 C 
BRANCH  73  74
ATOM     74  O   UNL A   1      33.604  24.122  26.275  1.00  0.00    -0.463 OA
BRANCH  74  75
ATOM     75  C   UNL A   1      32.761  24.748  25.414  1.00  0.00     0.312 C 
ATOM     76  O   UNL A   1      31.534  24.683  25.450  1.00  0.00    -0.252 OA
BRANCH  75  77
ATOM     77  C   UNL A   1      33.503  25.492  24.342  1.00  0.00     0.147 C 
ATOM     78  C   UNL A   1      32.554  26.513  23.697  1.00  0.00     0.129 C 
ATOM     79  C   UNL A   1      34.033  24.758  23.102  1.00  0.00     0.157 C 
ATOM     80  C   UNL A   1      32.823  26.315  22.201  1.00  0.00     0.155 C 
ATOM     81  C   UNL A   1      32.968  24.049  22.307  1.00  0.00     0.004 C 
ATOM     82  O   UNL A   1      34.212  25.903  22.217  1.00  0.00    -0.365 OA
ATOM     83  C   UNL A   1      32.212  25.010  21.762  1.00  0.00     0.004 C 
BRANCH  78  84
ATOM     84  C   UNL A   1      32.885  27.899  24.182  1.00  0.00     0.231 C 
ATOM     85  O   UNL A   1      34.009  28.212  24.576  1.00  0.00    -0.274 OA
ATOM     86  N   UNL A   1      31.953  28.890  24.100  1.00  0.00    -0.325 N 
ATOM     87  H   UNL A   1      32.279  29.781  24.367  1.00  0.00     0.169 HD
BRANCH  86  88
ATOM     88  C   UNL A   1      30.614  28.859  23.698  1.00  0.00     0.048 A 
ATOM     89  C   UNL A   1      29.990  27.613  23.763  1.00  0.00     0.026 A 
ATOM     90  C   UNL A   1      29.896  29.970  23.242  1.00  0.00     0.111 A 
ATOM     91  C   UNL A   1      28.630  27.486  23.487  1.00  0.00     0.009 A 
ATOM     92  C   UNL A   1      28.527  29.841  22.972  1.00  0.00     0.271 A 
ATOM     93  C   UNL A   1      27.889  28.601  23.106  1.00  0.00     0.086 A 
BRANCH  92  94
ATOM     94  N   UNL A   1      27.744  31.016  22.569  1.00  0.00     0.062 N 
ATOM     95  O   UNL A   1      27.098  31.602  23.450  1.00  0.00    -0.258 OA
ATOM     96  O   UNL A   1      27.796  31.365  21.383  1.00  0.00    -0.258 OA
ENDBRANCH  92  94
ENDBRANCH  86  88
ENDBRANCH  78  84
ENDBRANCH  75  77
ENDBRANCH  74  75
ENDBRANCH  73  74
ENDBRANCH  72  73
ENDBRANCH   1  72
TORSDOF 20
ENDMDL
MODEL 3
REMARK VINA RESULT:     -11.7      5.690     11.236
REMARK SMILES O=C(OCCOCCOC(=O)[C@@H]1[C@@H](C(=O)Nc2cccc([N+](=O)[O-])c2)[C@@H]2C=C[C@H]1O2)c1ccc(-c2c3nc(c(-c4cccc(S(=O)(=O)[O-])c4F)c4ccc([nH]4)c(-c4cccc(S(=O)(=O)[O-])c4F)c4nc(c(-c5cccc(S(=O)(=O)[O-])c5F)c5ccc2[nH]5)C=C4)C=C3)cc1
REMARK SMILES IDX 6 1 5 2 4 3 3 4 2 5 1 6 31 7 32 8 93 9 33 10 92 11 34 12
REMARK SMILES IDX 35 13 36 14 86 15 37 16 91 17 85 18 87 19 38 20 90 21 84 22
REMARK SMILES IDX 83 23 39 25 71 26 51 27 70 28 52 29 55 30 69 31 88 32 53 33
REMARK SMILES IDX 54 34 68 36 89 37 56 38 40 39 41 40 49 41 42 42 44 43 50 44
REMARK SMILES IDX 43 45 45 46 46 47 47 48 48 49 72 50 73 51 81 52 74 53 76 54
REMARK SMILES IDX 82 55 75 56 77 57 78 58 79 59 80 60 57 61 58 62 66 63 59 64
REMARK SMILES IDX 61 65 67 66 60 67 62 68 63 69 64 70 65 71 7 72 8 73 9 74
REMARK SMILES IDX 10 75 11 76 12 77 13 78 29 79 26 80 28 81 30 82 27 83 14 84
REMARK SMILES IDX 15 85 16 86 17 88 18 89 25 90 19 91 21 92 20 93 22 94 23 95
REMARK SMILES IDX 24 96
REMARK H PARENT 87 24 55 35 16 87
REMARK Flexibility Score: inf
ROOT
ATOM      1  O   UNL A   1      32.796  29.738  27.407  1.00  0.00    -0.374 OA
ENDROOT
BRANCH   1   2
ATOM      2  C   UNL A   1      32.923  31.061  26.892  1.00  0.00     0.202 C 
BRANCH   2   3
ATOM      3  C   UNL A   1      31.886  32.141  27.252  1.00  0.00     0.261 C 
BRANCH   3   4
ATOM      4  O   UNL A   1      32.467  33.458  27.365  1.00  0.00    -0.460 OA
BRANCH   4   5
ATOM      5  C   UNL A   1      33.152  33.956  28.435  1.00  0.00     0.338 C 
ATOM      6  O   UNL A   1      32.690  34.890  29.081  1.00  0.00    -0.246 OA
BRANCH   5   7
ATOM      7  C   UNL A   1      34.457  33.365  28.827  1.00  0.00     0.060 A 
ATOM      8  C   UNL A   1      34.506  32.229  29.612  1.00  0.00     0.016 A 
ATOM      9  C   UNL A   1      35.671  33.906  28.406  1.00  0.00     0.016 A 
ATOM     10  C   UNL A   1      35.643  31.755  30.180  1.00  0.00     0.010 A 
ATOM     11  C   UNL A   1      36.875  33.320  28.834  1.00  0.00     0.010 A 
ATOM     12  C   UNL A   1      36.848  32.250  29.743  1.00  0.00    -0.014 A 
BRANCH  12  13
ATOM     13  C   UNL A   1      38.000  31.621  30.394  1.00  0.00     0.031 A 
ATOM     14  C   UNL A   1      38.208  31.894  31.842  1.00  0.00     0.074 A 
ATOM     15  C   UNL A   1      38.626  30.617  29.744  1.00  0.00     0.049 A 
ATOM     16  N   UNL A   1      39.130  31.430  32.633  1.00  0.00    -0.248 NA
ATOM     17  C   UNL A   1      37.239  32.793  32.498  1.00  0.00     0.031 C 
ATOM     18  C   UNL A   1      38.317  30.169  28.373  1.00  0.00     0.029 A 
ATOM     19  N   UNL A   1      39.593  29.747  30.158  1.00  0.00    -0.354 N 
ATOM     20  C   UNL A   1      38.899  32.033  33.858  1.00  0.00     0.074 A 
ATOM     21  C   UNL A   1      37.736  32.877  33.721  1.00  0.00     0.031 C 
ATOM     22  C   UNL A   1      39.065  29.097  28.077  1.00  0.00     0.029 A 
ATOM     23  C   UNL A   1      39.977  28.857  29.182  1.00  0.00     0.049 A 
ATOM     24  H   UNL A   1      39.976  29.754  31.064  1.00  0.00     0.167 HD
ATOM     25  C   UNL A   1      39.618  31.890  34.991  1.00  0.00     0.034 A 
ATOM     26  C   UNL A   1      41.006  27.992  29.168  1.00  0.00     0.034 A 
ATOM     27  C   UNL A   1      40.761  31.029  35.074  1.00  0.00     0.049 A 
ATOM     28  C   UNL A   1      41.846  27.928  30.410  1.00  0.00     0.074 A 
ATOM     29  C   UNL A   1      41.642  30.858  36.122  1.00  0.00     0.029 A 
ATOM     30  N   UNL A   1      41.179  30.186  34.050  1.00  0.00    -0.354 N 
ATOM     31  N   UNL A   1      41.672  28.553  31.552  1.00  0.00    -0.248 NA
ATOM     32  C   UNL A   1      43.014  27.045  30.375  1.00  0.00     0.031 C 
ATOM     33  C   UNL A   1      42.610  29.931  35.720  1.00  0.00     0.029 A 
ATOM     34  C   UNL A   1      42.307  29.492  34.438  1.00  0.00     0.049 A 
ATOM     35  H   UNL A   1      40.736  30.098  33.175  1.00  0.00     0.167 HD
ATOM     36  C   UNL A   1      42.699  28.126  32.380  1.00  0.00     0.074 A 
ATOM     37  C   UNL A   1      43.464  27.158  31.615  1.00  0.00     0.031 C 
ATOM     38  C   UNL A   1      43.003  28.510  33.645  1.00  0.00     0.034 A 
BRANCH  25  39
ATOM     39  C   UNL A   1      39.214  32.733  36.165  1.00  0.00     0.023 A 
ATOM     40  C   UNL A   1      39.722  34.039  36.315  1.00  0.00     0.012 A 
ATOM     41  C   UNL A   1      38.354  32.206  37.146  1.00  0.00     0.148 A 
ATOM     42  C   UNL A   1      39.404  34.796  37.442  1.00  0.00     0.002 A 
ATOM     43  C   UNL A   1      38.005  32.981  38.243  1.00  0.00     0.091 A 
ATOM     44  F   UNL A   1      37.916  30.947  37.000  1.00  0.00    -0.205 F 
ATOM     45  C   UNL A   1      38.539  34.270  38.400  1.00  0.00     0.022 A 
BRANCH  43  46
ATOM     46  S   UNL A   1      36.857  32.417  39.502  1.00  0.00     0.127 S 
ATOM     47  O   UNL A   1      37.378  31.084  39.802  1.00  0.00    -0.237 OA
ATOM     48  O   UNL A   1      37.062  33.406  40.560  1.00  0.00    -0.237 OA
ATOM     49  O   UNL A   1      35.537  32.440  38.888  1.00  0.00    -0.744 OA
ENDBRANCH  43  46
ENDBRANCH  25  39
BRANCH  26  50
ATOM     50  C   UNL A   1      41.334  27.208  27.942  1.00  0.00     0.023 A 
ATOM     51  C   UNL A   1      41.917  27.839  26.828  1.00  0.00     0.012 A 
ATOM     52  C   UNL A   1      41.056  25.826  27.872  1.00  0.00     0.148 A 
ATOM     53  C   UNL A   1      42.175  27.122  25.657  1.00  0.00     0.002 A 
ATOM     54  C   UNL A   1      41.373  25.104  26.728  1.00  0.00     0.091 A 
ATOM     55  F   UNL A   1      40.480  25.237  28.930  1.00  0.00    -0.205 F 
ATOM     56  C   UNL A   1      41.912  25.754  25.610  1.00  0.00     0.022 A 
BRANCH  54  57
ATOM     57  S   UNL A   1      41.181  23.320  26.636  1.00  0.00     0.127 S 
ATOM     58  O   UNL A   1      42.016  22.989  25.485  1.00  0.00    -0.237 OA
ATOM     59  O   UNL A   1      41.716  22.890  27.929  1.00  0.00    -0.237 OA
ATOM     60  O   UNL A   1      39.753  23.087  26.473  1.00  0.00    -0.744 OA
ENDBRANCH  54  57
ENDBRANCH  26  50
BRANCH  38  61
ATOM     61  C   UNL A   1      44.191  27.843  34.276  1.00  0.00     0.023 A 
ATOM     62  C   UNL A   1      45.463  28.440  34.187  1.00  0.00     0.012 A 
ATOM     63  C   UNL A   1      44.024  26.653  35.008  1.00  0.00     0.148 A 
ATOM     64  C   UNL A   1      46.565  27.834  34.784  1.00  0.00     0.002 A 
ATOM     65  C   UNL A   1      45.114  26.091  35.652  1.00  0.00     0.091 A 
ATOM     66  F   UNL A   1      42.804  26.097  35.059  1.00  0.00    -0.205 F 
ATOM     67  C   UNL A   1      46.389  26.668  35.528  1.00  0.00     0.022 A 
BRANCH  65  68
ATOM     68  S   UNL A   1      44.955  24.659  36.720  1.00  0.00     0.127 S 
ATOM     69  O   UNL A   1      46.309  24.534  37.255  1.00  0.00    -0.237 OA
ATOM     70  O   UNL A   1      43.954  25.106  37.689  1.00  0.00    -0.237 OA
ATOM     71  O   UNL A   1      44.517  23.565  35.863  1.00  0.00    -0.744 OA
ENDBRANCH  65  68
ENDBRANCH  38  61
ENDBRANCH  12  13
ENDBRANCH   5   7
ENDBRANCH   4   5
ENDBRANCH   3   4
ENDBRANCH   2   3
ENDBRANCH   1   2
BRANCH   1  72
ATOM     72  C   UNL A   1      33.514  28.681  26.764  1.00  0.00     0.202 C 
BRANCH  72  73
ATOM     73  C   UNL A   1      32.753  27.378  26.960  1.00  0.00     0.261 C 
BRANCH  73  74
ATOM     74  O   UNL A   1      32.605  26.802  25.653  1.00  0.00    -0.463 OA
BRANCH  74  75
ATOM     75  C   UNL A   1      33.401  25.734  25.389  1.00  0.00     0.312 C 
ATOM     76  O   UNL A   1      34.211  25.242  26.171  1.00  0.00    -0.252 OA
BRANCH  75  77
ATOM     77  C   UNL A   1      33.233  25.244  23.979  1.00  0.00     0.147 C 
ATOM     78  C   UNL A   1      32.258  26.174  23.242  1.00  0.00     0.129 C 
ATOM     79  C   UNL A   1      32.604  23.872  23.697  1.00  0.00     0.157 C 
ATOM     80  C   UNL A   1      31.337  25.182  22.522  1.00  0.00     0.155 C 
ATOM     81  C   UNL A   1      31.212  23.710  24.249  1.00  0.00     0.004 C 
ATOM     82  O   UNL A   1      32.241  24.072  22.298  1.00  0.00    -0.365 OA
ATOM     83  C   UNL A   1      30.432  24.529  23.533  1.00  0.00     0.004 C 
BRANCH  78  84
ATOM     84  C   UNL A   1      33.015  27.072  22.303  1.00  0.00     0.231 C 
ATOM     85  O   UNL A   1      34.013  26.695  21.686  1.00  0.00    -0.274 OA
ATOM     86  N   UNL A   1      32.546  28.322  22.028  1.00  0.00    -0.325 N 
ATOM     87  H   UNL A   1      33.062  28.811  21.345  1.00  0.00     0.169 HD
BRANCH  86  88
ATOM     88  C   UNL A   1      31.456  29.028  22.548  1.00  0.00     0.048 A 
ATOM     89  C   UNL A   1      31.458  29.214  23.931  1.00  0.00     0.026 A 
ATOM     90  C   UNL A   1      30.399  29.531  21.783  1.00  0.00     0.111 A 
ATOM     91  C   UNL A   1      30.477  29.991  24.543  1.00  0.00     0.009 A 
ATOM     92  C   UNL A   1      29.417  30.318  22.400  1.00  0.00     0.271 A 
ATOM     93  C   UNL A   1      29.461  30.560  23.779  1.00  0.00     0.086 A 
BRANCH  92  94
ATOM     94  N   UNL A   1      28.345  30.918  21.595  1.00  0.00     0.062 N 
ATOM     95  O   UNL A   1      27.873  30.238  20.673  1.00  0.00    -0.258 OA
ATOM     96  O   UNL A   1      27.962  32.055  21.900  1.00  0.00    -0.258 OA
ENDBRANCH  92  94
ENDBRANCH  86  88
ENDBRANCH  78  84
ENDBRANCH  75  77
ENDBRANCH  74  75
ENDBRANCH  73  74
ENDBRANCH  72  73
ENDBRANCH   1  72
TORSDOF 20
ENDMDL
