MODEL 1
REMARK VINA RESULT:     -11.9      0.000      0.000
REMARK SMILES Cc1cc(Br)cc2c1O[C@H](C(F)(F)F)C(C(=O)OCCOCCOC(=O)c1ccc(-c3c4nc(c(-c5cccc(S(=O)(=O)[O-])c5F)c5ccc([nH]5)c(-c5cccc(S(=O)(=O)[O-])c5F)c5nc(c(-c6cccc(S(=O)(=O)[O-])c6F)c6ccc3[nH]6)C=C5)C=C4)cc1)=C2
REMARK SMILES IDX 22 1 21 2 20 3 19 4 18 5 16 6 17 7 15 8 1 9 2 10 3 11 8 12
REMARK SMILES IDX 4 13 7 14 9 15 5 16 6 17 90 18 10 19 11 20 12 21 13 22 14 23
REMARK SMILES IDX 23 24 24 25 25 26 26 27 27 28 28 29 89 30 29 31 88 32 30 33
REMARK SMILES IDX 31 34 32 35 82 36 33 37 87 38 81 39 83 40 34 41 86 42 80 43
REMARK SMILES IDX 79 44 35 46 67 47 47 48 66 49 48 50 51 51 65 52 84 53 49 54
REMARK SMILES IDX 50 55 64 57 85 58 52 59 36 60 37 61 45 62 38 63 40 64 46 65
REMARK SMILES IDX 39 66 41 67 42 68 43 69 44 70 68 71 69 72 77 73 70 74 72 75
REMARK SMILES IDX 78 76 71 77 73 78 74 79 75 80 76 81 53 82 54 83 62 84 55 85
REMARK SMILES IDX 57 86 63 87 56 88 58 89 59 90 60 91 61 92
REMARK H PARENT 83 45 51 56
REMARK Flexibility Score: inf
ROOT
ATOM      1  C   UNL A   1      34.979  20.803  25.251  1.00  0.00     0.202 C 
ENDROOT
BRANCH   1   2
ATOM      2  O   UNL A   1      34.269  21.407  24.169  1.00  0.00    -0.374 OA
BRANCH   2   3
ATOM      3  C   UNL A   1      32.906  21.020  23.982  1.00  0.00     0.202 C 
BRANCH   3   4
ATOM      4  C   UNL A   1      32.002  22.048  23.295  1.00  0.00     0.261 C 
BRANCH   4   5
ATOM      5  O   UNL A   1      32.198  23.360  23.847  1.00  0.00    -0.460 OA
BRANCH   5   6
ATOM      6  C   UNL A   1      31.356  23.688  24.851  1.00  0.00     0.338 C 
ATOM      7  O   UNL A   1      30.843  22.925  25.659  1.00  0.00    -0.246 OA
BRANCH   6   8
ATOM      8  C   UNL A   1      31.236  25.156  24.945  1.00  0.00     0.087 C 
ATOM      9  C   UNL A   1      31.966  30.174  25.679  1.00  0.00     0.048 C 
ATOM     10  C   UNL A   1      31.072  29.328  24.816  1.00  0.00    -0.007 A 
ATOM     11  C   UNL A   1      30.219  29.944  23.886  1.00  0.00     0.023 A 
ATOM     12  C   UNL A   1      31.065  27.928  24.930  1.00  0.00     0.130 A 
ATOM     13  C   UNL A   1      29.386  29.172  23.078  1.00  0.00     0.019 A 
ATOM     14  C   UNL A   1      30.251  27.160  24.090  1.00  0.00     0.019 A 
ATOM     15  O   UNL A   1      31.863  27.375  25.893  1.00  0.00    -0.475 OA
ATOM     16  Br  UNL A   1      28.248  30.012  21.824  1.00  0.00    -0.051 Br
ATOM     17  C   UNL A   1      29.399  27.784  23.173  1.00  0.00     0.027 A 
ATOM     18  C   UNL A   1      30.332  25.712  24.129  1.00  0.00     0.027 C 
ATOM     19  C   UNL A   1      32.109  25.940  25.886  1.00  0.00     0.316 C 
BRANCH  19  20
ATOM     20  C   UNL A   1      33.604  25.705  25.633  1.00  0.00     0.430 C 
ATOM     21  F   UNL A   1      34.016  24.538  26.180  1.00  0.00    -0.167 F 
ATOM     22  F   UNL A   1      33.886  25.648  24.313  1.00  0.00    -0.167 F 
ATOM     23  F   UNL A   1      34.361  26.693  26.168  1.00  0.00    -0.167 F 
ENDBRANCH  19  20
ENDBRANCH   6   8
ENDBRANCH   5   6
ENDBRANCH   4   5
ENDBRANCH   3   4
ENDBRANCH   2   3
ENDBRANCH   1   2
BRANCH   1  24
ATOM     24  C   UNL A   1      36.437  20.401  24.991  1.00  0.00     0.261 C 
BRANCH  24  25
ATOM     25  O   UNL A   1      37.347  21.502  25.157  1.00  0.00    -0.460 OA
BRANCH  25  26
ATOM     26  C   UNL A   1      38.527  21.175  25.734  1.00  0.00     0.338 C 
ATOM     27  O   UNL A   1      39.135  20.117  25.619  1.00  0.00    -0.246 OA
BRANCH  26  28
ATOM     28  C   UNL A   1      39.109  22.348  26.410  1.00  0.00     0.060 A 
ATOM     29  C   UNL A   1      38.554  23.602  26.120  1.00  0.00     0.016 A 
ATOM     30  C   UNL A   1      40.224  22.237  27.243  1.00  0.00     0.016 A 
ATOM     31  C   UNL A   1      39.148  24.758  26.619  1.00  0.00     0.010 A 
ATOM     32  C   UNL A   1      40.825  23.400  27.732  1.00  0.00     0.010 A 
ATOM     33  C   UNL A   1      40.313  24.665  27.391  1.00  0.00    -0.014 A 
BRANCH  33  34
ATOM     34  C   UNL A   1      41.081  25.888  27.719  1.00  0.00     0.031 A 
ATOM     35  C   UNL A   1      40.400  26.993  28.478  1.00  0.00     0.074 A 
ATOM     36  C   UNL A   1      42.367  26.010  27.345  1.00  0.00     0.049 A 
ATOM     37  N   UNL A   1      40.858  28.171  28.812  1.00  0.00    -0.248 NA
ATOM     38  C   UNL A   1      39.019  26.736  28.920  1.00  0.00     0.031 C 
ATOM     39  C   UNL A   1      43.137  24.993  26.634  1.00  0.00     0.029 A 
ATOM     40  N   UNL A   1      43.243  27.056  27.495  1.00  0.00    -0.354 N 
ATOM     41  C   UNL A   1      39.820  28.803  29.487  1.00  0.00     0.074 A 
ATOM     42  C   UNL A   1      38.703  27.884  29.503  1.00  0.00     0.031 C 
ATOM     43  C   UNL A   1      44.368  25.474  26.386  1.00  0.00     0.029 A 
ATOM     44  C   UNL A   1      44.460  26.841  26.895  1.00  0.00     0.049 A 
ATOM     45  H   UNL A   1      43.021  27.879  27.987  1.00  0.00     0.167 HD
ATOM     46  C   UNL A   1      39.806  30.031  30.056  1.00  0.00     0.034 A 
ATOM     47  C   UNL A   1      45.519  27.663  26.754  1.00  0.00     0.034 A 
ATOM     48  C   UNL A   1      40.924  30.934  30.046  1.00  0.00     0.049 A 
ATOM     49  C   UNL A   1      45.462  29.044  27.356  1.00  0.00     0.074 A 
ATOM     50  C   UNL A   1      41.010  32.199  30.601  1.00  0.00     0.029 A 
ATOM     51  N   UNL A   1      42.148  30.674  29.451  1.00  0.00    -0.354 N 
ATOM     52  N   UNL A   1      44.501  29.601  28.054  1.00  0.00    -0.248 NA
ATOM     53  C   UNL A   1      46.644  29.899  27.175  1.00  0.00     0.031 C 
ATOM     54  C   UNL A   1      42.282  32.709  30.327  1.00  0.00     0.029 A 
ATOM     55  C   UNL A   1      42.997  31.754  29.623  1.00  0.00     0.049 A 
ATOM     56  H   UNL A   1      42.380  29.844  28.976  1.00  0.00     0.167 HD
ATOM     57  C   UNL A   1      44.974  30.855  28.425  1.00  0.00     0.074 A 
ATOM     58  C   UNL A   1      46.315  30.968  27.890  1.00  0.00     0.031 C 
ATOM     59  C   UNL A   1      44.349  31.830  29.131  1.00  0.00     0.034 A 
BRANCH  46  60
ATOM     60  C   UNL A   1      38.554  30.458  30.774  1.00  0.00     0.023 A 
ATOM     61  C   UNL A   1      38.425  30.200  32.154  1.00  0.00     0.012 A 
ATOM     62  C   UNL A   1      37.546  31.185  30.110  1.00  0.00     0.148 A 
ATOM     63  C   UNL A   1      37.305  30.640  32.858  1.00  0.00     0.002 A 
ATOM     64  C   UNL A   1      36.453  31.658  30.828  1.00  0.00     0.091 A 
ATOM     65  F   UNL A   1      37.675  31.399  28.792  1.00  0.00    -0.205 F 
ATOM     66  C   UNL A   1      36.327  31.379  32.199  1.00  0.00     0.022 A 
BRANCH  64  67
ATOM     67  S   UNL A   1      35.177  32.684  30.089  1.00  0.00     0.127 S 
ATOM     68  O   UNL A   1      34.334  32.985  31.244  1.00  0.00    -0.237 OA
ATOM     69  O   UNL A   1      35.950  33.820  29.585  1.00  0.00    -0.237 OA
ATOM     70  O   UNL A   1      34.552  31.869  29.057  1.00  0.00    -0.744 OA
ENDBRANCH  64  67
ENDBRANCH  46  60
BRANCH  47  71
ATOM     71  C   UNL A   1      46.743  27.178  26.055  1.00  0.00     0.023 A 
ATOM     72  C   UNL A   1      46.886  27.407  24.673  1.00  0.00     0.012 A 
ATOM     73  C   UNL A   1      47.785  26.541  26.757  1.00  0.00     0.148 A 
ATOM     74  C   UNL A   1      48.036  26.995  23.999  1.00  0.00     0.002 A 
ATOM     75  C   UNL A   1      48.952  26.184  26.092  1.00  0.00     0.091 A 
ATOM     76  F   UNL A   1      47.621  26.313  28.068  1.00  0.00    -0.205 F 
ATOM     77  C   UNL A   1      49.074  26.396  24.710  1.00  0.00     0.022 A 
BRANCH  75  78
ATOM     78  S   UNL A   1      50.394  25.539  26.949  1.00  0.00     0.127 S 
ATOM     79  O   UNL A   1      50.724  26.641  27.849  1.00  0.00    -0.237 OA
ATOM     80  O   UNL A   1      49.847  24.350  27.603  1.00  0.00    -0.237 OA
ATOM     81  O   UNL A   1      51.375  25.255  25.910  1.00  0.00    -0.744 OA
ENDBRANCH  75  78
ENDBRANCH  47  71
BRANCH  59  82
ATOM     82  C   UNL A   1      45.109  33.105  29.397  1.00  0.00     0.023 A 
ATOM     83  C   UNL A   1      45.920  33.207  30.545  1.00  0.00     0.012 A 
ATOM     84  C   UNL A   1      45.097  34.161  28.463  1.00  0.00     0.148 A 
ATOM     85  C   UNL A   1      46.686  34.350  30.772  1.00  0.00     0.002 A 
ATOM     86  C   UNL A   1      45.901  35.276  28.673  1.00  0.00     0.091 A 
ATOM     87  F   UNL A   1      44.305  34.055  27.387  1.00  0.00    -0.205 F 
ATOM     88  C   UNL A   1      46.687  35.377  29.831  1.00  0.00     0.022 A 
BRANCH  86  89
ATOM     89  S   UNL A   1      46.043  36.596  27.462  1.00  0.00     0.127 S 
ATOM     90  O   UNL A   1      46.363  35.850  26.245  1.00  0.00    -0.237 OA
ATOM     91  O   UNL A   1      44.703  37.185  27.481  1.00  0.00    -0.237 OA
ATOM     92  O   UNL A   1      47.094  37.476  27.954  1.00  0.00    -0.744 OA
ENDBRANCH  86  89
ENDBRANCH  59  82
ENDBRANCH  33  34
ENDBRANCH  26  28
ENDBRANCH  25  26
ENDBRANCH  24  25
ENDBRANCH   1  24
TORSDOF 18
ENDMDL
MODEL 2
REMARK VINA RESULT:     -11.8      4.958     10.005
REMARK SMILES Cc1cc(Br)cc2c1O[C@H](C(F)(F)F)C(C(=O)OCCOCCOC(=O)c1ccc(-c3c4nc(c(-c5cccc(S(=O)(=O)[O-])c5F)c5ccc([nH]5)c(-c5cccc(S(=O)(=O)[O-])c5F)c5nc(c(-c6cccc(S(=O)(=O)[O-])c6F)c6ccc3[nH]6)C=C5)C=C4)cc1)=C2
REMARK SMILES IDX 22 1 21 2 20 3 19 4 18 5 16 6 17 7 15 8 1 9 2 10 3 11 8 12
REMARK SMILES IDX 4 13 7 14 9 15 5 16 6 17 90 18 10 19 11 20 12 21 13 22 14 23
REMARK SMILES IDX 23 24 24 25 25 26 26 27 27 28 28 29 89 30 29 31 88 32 30 33
REMARK SMILES IDX 31 34 32 35 82 36 33 37 87 38 81 39 83 40 34 41 86 42 80 43
REMARK SMILES IDX 79 44 35 46 67 47 47 48 66 49 48 50 51 51 65 52 84 53 49 54
REMARK SMILES IDX 50 55 64 57 85 58 52 59 36 60 37 61 45 62 38 63 40 64 46 65
REMARK SMILES IDX 39 66 41 67 42 68 43 69 44 70 68 71 69 72 77 73 70 74 72 75
REMARK SMILES IDX 78 76 71 77 73 78 74 79 75 80 76 81 53 82 54 83 62 84 55 85
REMARK SMILES IDX 57 86 63 87 56 88 58 89 59 90 60 91 61 92
REMARK H PARENT 83 45 51 56
REMARK Flexibility Score: inf
ROOT
ATOM      1  C   UNL A   1      31.108  29.605  25.020  1.00  0.00     0.202 C 
ENDROOT
BRANCH   1   2
ATOM      2  O   UNL A   1      32.149  28.717  24.609  1.00  0.00    -0.374 OA
BRANCH   2   3
ATOM      3  C   UNL A   1      32.975  29.133  23.520  1.00  0.00     0.202 C 
BRANCH   3   4
ATOM      4  C   UNL A   1      33.538  28.016  22.636  1.00  0.00     0.261 C 
BRANCH   4   5
ATOM      5  O   UNL A   1      32.503  27.101  22.238  1.00  0.00    -0.460 OA
BRANCH   5   6
ATOM      6  C   UNL A   1      32.934  25.866  21.899  1.00  0.00     0.338 C 
ATOM      7  O   UNL A   1      33.117  25.437  20.767  1.00  0.00    -0.246 OA
BRANCH   6   8
ATOM      8  C   UNL A   1      33.304  25.114  23.113  1.00  0.00     0.087 C 
ATOM      9  C   UNL A   1      33.397  22.590  27.571  1.00  0.00     0.048 C 
ATOM     10  C   UNL A   1      34.249  22.626  26.332  1.00  0.00    -0.007 A 
ATOM     11  C   UNL A   1      35.341  21.750  26.215  1.00  0.00     0.023 A 
ATOM     12  C   UNL A   1      33.980  23.531  25.292  1.00  0.00     0.130 A 
ATOM     13  C   UNL A   1      36.138  21.771  25.071  1.00  0.00     0.019 A 
ATOM     14  C   UNL A   1      34.765  23.521  24.134  1.00  0.00     0.019 A 
ATOM     15  O   UNL A   1      32.949  24.408  25.478  1.00  0.00    -0.475 OA
ATOM     16  Br  UNL A   1      37.599  20.582  24.920  1.00  0.00    -0.051 Br
ATOM     17  C   UNL A   1      35.855  22.650  24.030  1.00  0.00     0.027 A 
ATOM     18  C   UNL A   1      34.415  24.374  23.014  1.00  0.00     0.027 C 
ATOM     19  C   UNL A   1      32.448  25.179  24.348  1.00  0.00     0.316 C 
BRANCH  19  20
ATOM     20  C   UNL A   1      30.996  24.760  24.080  1.00  0.00     0.430 C 
ATOM     21  F   UNL A   1      30.835  24.341  22.803  1.00  0.00    -0.167 F 
ATOM     22  F   UNL A   1      30.612  23.744  24.884  1.00  0.00    -0.167 F 
ATOM     23  F   UNL A   1      30.136  25.786  24.282  1.00  0.00    -0.167 F 
ENDBRANCH  19  20
ENDBRANCH   6   8
ENDBRANCH   5   6
ENDBRANCH   4   5
ENDBRANCH   3   4
ENDBRANCH   2   3
ENDBRANCH   1   2
BRANCH   1  24
ATOM     24  C   UNL A   1      31.531  30.880  25.761  1.00  0.00     0.261 C 
BRANCH  24  25
ATOM     25  O   UNL A   1      32.496  30.620  26.795  1.00  0.00    -0.460 OA
BRANCH  25  26
ATOM     26  C   UNL A   1      33.143  31.718  27.250  1.00  0.00     0.338 C 
ATOM     27  O   UNL A   1      32.672  32.837  27.410  1.00  0.00    -0.246 OA
BRANCH  26  28
ATOM     28  C   UNL A   1      34.495  31.359  27.714  1.00  0.00     0.060 A 
ATOM     29  C   UNL A   1      34.738  30.012  28.019  1.00  0.00     0.016 A 
ATOM     30  C   UNL A   1      35.480  32.326  27.926  1.00  0.00     0.016 A 
ATOM     31  C   UNL A   1      35.950  29.635  28.591  1.00  0.00     0.010 A 
ATOM     32  C   UNL A   1      36.690  31.947  28.512  1.00  0.00     0.010 A 
ATOM     33  C   UNL A   1      36.915  30.608  28.882  1.00  0.00    -0.014 A 
BRANCH  33  34
ATOM     34  C   UNL A   1      38.095  30.255  29.705  1.00  0.00     0.031 A 
ATOM     35  C   UNL A   1      39.105  29.288  29.151  1.00  0.00     0.074 A 
ATOM     36  C   UNL A   1      38.262  30.790  30.927  1.00  0.00     0.049 A 
ATOM     37  N   UNL A   1      40.171  28.790  29.719  1.00  0.00    -0.248 NA
ATOM     38  C   UNL A   1      38.884  28.821  27.771  1.00  0.00     0.031 C 
ATOM     39  C   UNL A   1      37.366  31.759  31.552  1.00  0.00     0.029 A 
ATOM     40  N   UNL A   1      39.237  30.572  31.868  1.00  0.00    -0.354 N 
ATOM     41  C   UNL A   1      40.739  27.939  28.778  1.00  0.00     0.074 A 
ATOM     42  C   UNL A   1      39.892  27.977  27.606  1.00  0.00     0.031 C 
ATOM     43  C   UNL A   1      37.820  32.036  32.787  1.00  0.00     0.029 A 
ATOM     44  C   UNL A   1      39.019  31.242  33.048  1.00  0.00     0.049 A 
ATOM     45  H   UNL A   1      40.018  29.993  31.713  1.00  0.00     0.167 HD
ATOM     46  C   UNL A   1      41.872  27.206  28.877  1.00  0.00     0.034 A 
ATOM     47  C   UNL A   1      39.697  31.201  34.212  1.00  0.00     0.034 A 
ATOM     48  C   UNL A   1      42.716  27.182  30.041  1.00  0.00     0.049 A 
ATOM     49  C   UNL A   1      40.931  30.341  34.312  1.00  0.00     0.074 A 
ATOM     50  C   UNL A   1      43.890  26.477  30.236  1.00  0.00     0.029 A 
ATOM     51  N   UNL A   1      42.477  27.892  31.207  1.00  0.00    -0.354 N 
ATOM     52  N   UNL A   1      41.496  29.598  33.391  1.00  0.00    -0.248 NA
ATOM     53  C   UNL A   1      41.635  30.334  35.603  1.00  0.00     0.031 C 
ATOM     54  C   UNL A   1      44.352  26.747  31.527  1.00  0.00     0.029 A 
ATOM     55  C   UNL A   1      43.480  27.641  32.128  1.00  0.00     0.049 A 
ATOM     56  H   UNL A   1      41.708  28.487  31.359  1.00  0.00     0.167 HD
ATOM     57  C   UNL A   1      42.640  29.064  33.977  1.00  0.00     0.074 A 
ATOM     58  C   UNL A   1      42.696  29.584  35.328  1.00  0.00     0.031 C 
ATOM     59  C   UNL A   1      43.551  28.209  33.450  1.00  0.00     0.034 A 
BRANCH  46  60
ATOM     60  C   UNL A   1      42.293  26.397  27.679  1.00  0.00     0.023 A 
ATOM     61  C   UNL A   1      43.145  26.976  26.718  1.00  0.00     0.012 A 
ATOM     62  C   UNL A   1      41.917  25.045  27.546  1.00  0.00     0.148 A 
ATOM     63  C   UNL A   1      43.601  26.231  25.631  1.00  0.00     0.002 A 
ATOM     64  C   UNL A   1      42.410  24.297  26.483  1.00  0.00     0.091 A 
ATOM     65  F   UNL A   1      41.085  24.521  28.457  1.00  0.00    -0.205 F 
ATOM     66  C   UNL A   1      43.245  24.889  25.521  1.00  0.00     0.022 A 
BRANCH  64  67
ATOM     67  S   UNL A   1      42.073  22.542  26.294  1.00  0.00     0.127 S 
ATOM     68  O   UNL A   1      40.613  22.528  26.218  1.00  0.00    -0.237 OA
ATOM     69  O   UNL A   1      42.752  22.233  25.035  1.00  0.00    -0.237 OA
ATOM     70  O   UNL A   1      42.643  21.894  27.466  1.00  0.00    -0.744 OA
ENDBRANCH  64  67
ENDBRANCH  46  60
BRANCH  47  71
ATOM     71  C   UNL A   1      39.251  32.043  35.358  1.00  0.00     0.023 A 
ATOM     72  C   UNL A   1      38.394  31.491  36.328  1.00  0.00     0.012 A 
ATOM     73  C   UNL A   1      39.709  33.366  35.519  1.00  0.00     0.148 A 
ATOM     74  C   UNL A   1      37.986  32.245  37.430  1.00  0.00     0.002 A 
ATOM     75  C   UNL A   1      39.347  34.092  36.648  1.00  0.00     0.091 A 
ATOM     76  F   UNL A   1      40.508  33.881  34.574  1.00  0.00    -0.205 F 
ATOM     77  C   UNL A   1      38.473  33.539  37.597  1.00  0.00     0.022 A 
BRANCH  75  78
ATOM     78  S   UNL A   1      40.035  35.710  37.018  1.00  0.00     0.127 S 
ATOM     79  O   UNL A   1      39.358  36.044  38.268  1.00  0.00    -0.237 OA
ATOM     80  O   UNL A   1      41.460  35.406  37.150  1.00  0.00    -0.237 OA
ATOM     81  O   UNL A   1      39.704  36.549  35.875  1.00  0.00    -0.744 OA
ENDBRANCH  75  78
ENDBRANCH  47  71
BRANCH  59  82
ATOM     82  C   UNL A   1      44.711  27.792  34.318  1.00  0.00     0.023 A 
ATOM     83  C   UNL A   1      45.874  28.587  34.358  1.00  0.00     0.012 A 
ATOM     84  C   UNL A   1      44.611  26.671  35.167  1.00  0.00     0.148 A 
ATOM     85  C   UNL A   1      46.929  28.257  35.209  1.00  0.00     0.002 A 
ATOM     86  C   UNL A   1      45.647  26.377  36.046  1.00  0.00     0.091 A 
ATOM     87  F   UNL A   1      43.505  25.915  35.102  1.00  0.00    -0.205 F 
ATOM     88  C   UNL A   1      46.810  27.162  36.061  1.00  0.00     0.022 A 
BRANCH  86  89
ATOM     89  S   UNL A   1      45.533  25.049  37.252  1.00  0.00     0.127 S 
ATOM     90  O   UNL A   1      45.782  23.871  36.420  1.00  0.00    -0.237 OA
ATOM     91  O   UNL A   1      46.614  25.377  38.183  1.00  0.00    -0.237 OA
ATOM     92  O   UNL A   1      44.197  25.143  37.824  1.00  0.00    -0.744 OA
ENDBRANCH  86  89
ENDBRANCH  59  82
ENDBRANCH  33  34
ENDBRANCH  26  28
ENDBRANCH  25  26
ENDBRANCH  24  25
ENDBRANCH   1  24
TORSDOF 18
ENDMDL
MODEL 3
REMARK VINA RESULT:     -11.8      1.954      2.328
REMARK SMILES Cc1cc(Br)cc2c1O[C@H](C(F)(F)F)C(C(=O)OCCOCCOC(=O)c1ccc(-c3c4nc(c(-c5cccc(S(=O)(=O)[O-])c5F)c5ccc([nH]5)c(-c5cccc(S(=O)(=O)[O-])c5F)c5nc(c(-c6cccc(S(=O)(=O)[O-])c6F)c6ccc3[nH]6)C=C5)C=C4)cc1)=C2
REMARK SMILES IDX 22 1 21 2 20 3 19 4 18 5 16 6 17 7 15 8 1 9 2 10 3 11 8 12
REMARK SMILES IDX 4 13 7 14 9 15 5 16 6 17 90 18 10 19 11 20 12 21 13 22 14 23
REMARK SMILES IDX 23 24 24 25 25 26 26 27 27 28 28 29 89 30 29 31 88 32 30 33
REMARK SMILES IDX 31 34 32 35 82 36 33 37 87 38 81 39 83 40 34 41 86 42 80 43
REMARK SMILES IDX 79 44 35 46 67 47 47 48 66 49 48 50 51 51 65 52 84 53 49 54
REMARK SMILES IDX 50 55 64 57 85 58 52 59 36 60 37 61 45 62 38 63 40 64 46 65
REMARK SMILES IDX 39 66 41 67 42 68 43 69 44 70 68 71 69 72 77 73 70 74 72 75
REMARK SMILES IDX 78 76 71 77 73 78 74 79 75 80 76 81 53 82 54 83 62 84 55 85
REMARK SMILES IDX 57 86 63 87 56 88 58 89 59 90 60 91 61 92
REMARK H PARENT 83 45 51 56
REMARK Flexibility Score: inf
ROOT
ATOM      1  C   UNL A   1      35.351  21.854  24.636  1.00  0.00     0.202 C 
ENDROOT
BRANCH   1   2
ATOM      2  O   UNL A   1      34.183  21.280  25.226  1.00  0.00    -0.374 OA
BRANCH   2   3
ATOM      3  C   UNL A   1      34.083  21.315  26.652  1.00  0.00     0.202 C 
BRANCH   3   4
ATOM      4  C   UNL A   1      32.977  22.204  27.228  1.00  0.00     0.261 C 
BRANCH   4   5
ATOM      5  O   UNL A   1      31.918  22.395  26.275  1.00  0.00    -0.460 OA
BRANCH   5   6
ATOM      6  C   UNL A   1      31.148  23.484  26.489  1.00  0.00     0.338 C 
ATOM      7  O   UNL A   1      30.144  23.548  27.186  1.00  0.00    -0.246 OA
BRANCH   6   8
ATOM      8  C   UNL A   1      31.770  24.668  25.866  1.00  0.00     0.087 C 
ATOM      9  C   UNL A   1      33.818  28.119  22.680  1.00  0.00     0.048 C 
ATOM     10  C   UNL A   1      33.131  28.158  24.017  1.00  0.00    -0.007 A 
ATOM     11  C   UNL A   1      32.865  29.395  24.625  1.00  0.00     0.023 A 
ATOM     12  C   UNL A   1      32.758  26.975  24.677  1.00  0.00     0.130 A 
ATOM     13  C   UNL A   1      32.226  29.446  25.863  1.00  0.00     0.019 A 
ATOM     14  C   UNL A   1      32.087  27.037  25.903  1.00  0.00     0.019 A 
ATOM     15  O   UNL A   1      33.095  25.793  24.078  1.00  0.00    -0.475 OA
ATOM     16  Br  UNL A   1      31.866  31.117  26.669  1.00  0.00    -0.051 Br
ATOM     17  C   UNL A   1      31.835  28.274  26.504  1.00  0.00     0.027 A 
ATOM     18  C   UNL A   1      31.601  25.821  26.525  1.00  0.00     0.027 C 
ATOM     19  C   UNL A   1      32.511  24.549  24.562  1.00  0.00     0.316 C 
BRANCH  19  20
ATOM     20  C   UNL A   1      31.643  23.954  23.445  1.00  0.00     0.430 C 
ATOM     21  F   UNL A   1      30.326  24.129  23.701  1.00  0.00    -0.167 F 
ATOM     22  F   UNL A   1      31.898  24.534  22.251  1.00  0.00    -0.167 F 
ATOM     23  F   UNL A   1      31.856  22.624  23.303  1.00  0.00    -0.167 F 
ENDBRANCH  19  20
ENDBRANCH   6   8
ENDBRANCH   5   6
ENDBRANCH   4   5
ENDBRANCH   3   4
ENDBRANCH   2   3
ENDBRANCH   1   2
BRANCH   1  24
ATOM     24  C   UNL A   1      36.658  21.060  24.763  1.00  0.00     0.261 C 
BRANCH  24  25
ATOM     25  O   UNL A   1      37.323  21.294  26.015  1.00  0.00    -0.460 OA
BRANCH  25  26
ATOM     26  C   UNL A   1      38.675  21.254  25.952  1.00  0.00     0.338 C 
ATOM     27  O   UNL A   1      39.360  20.440  25.345  1.00  0.00    -0.246 OA
BRANCH  26  28
ATOM     28  C   UNL A   1      39.252  22.453  26.585  1.00  0.00     0.060 A 
ATOM     29  C   UNL A   1      38.683  23.693  26.261  1.00  0.00     0.016 A 
ATOM     30  C   UNL A   1      40.374  22.379  27.411  1.00  0.00     0.016 A 
ATOM     31  C   UNL A   1      39.271  24.870  26.717  1.00  0.00     0.010 A 
ATOM     32  C   UNL A   1      40.970  23.562  27.858  1.00  0.00     0.010 A 
ATOM     33  C   UNL A   1      40.444  24.811  27.481  1.00  0.00    -0.014 A 
BRANCH  33  34
ATOM     34  C   UNL A   1      41.204  26.051  27.763  1.00  0.00     0.031 A 
ATOM     35  C   UNL A   1      40.528  27.164  28.514  1.00  0.00     0.074 A 
ATOM     36  C   UNL A   1      42.478  26.179  27.355  1.00  0.00     0.049 A 
ATOM     37  N   UNL A   1      40.978  28.354  28.811  1.00  0.00    -0.248 NA
ATOM     38  C   UNL A   1      39.161  26.899  28.996  1.00  0.00     0.031 C 
ATOM     39  C   UNL A   1      43.244  25.157  26.647  1.00  0.00     0.029 A 
ATOM     40  N   UNL A   1      43.344  27.239  27.460  1.00  0.00    -0.354 N 
ATOM     41  C   UNL A   1      39.949  28.988  29.497  1.00  0.00     0.074 A 
ATOM     42  C   UNL A   1      38.845  28.056  29.561  1.00  0.00     0.031 C 
ATOM     43  C   UNL A   1      44.462  25.647  26.359  1.00  0.00     0.029 A 
ATOM     44  C   UNL A   1      44.549  27.026  26.834  1.00  0.00     0.049 A 
ATOM     45  H   UNL A   1      43.124  28.071  27.939  1.00  0.00     0.167 HD
ATOM     46  C   UNL A   1      39.933  30.228  30.039  1.00  0.00     0.034 A 
ATOM     47  C   UNL A   1      45.594  27.858  26.649  1.00  0.00     0.034 A 
ATOM     48  C   UNL A   1      41.039  31.145  29.981  1.00  0.00     0.049 A 
ATOM     49  C   UNL A   1      45.533  29.251  27.222  1.00  0.00     0.074 A 
ATOM     50  C   UNL A   1      41.123  32.423  30.506  1.00  0.00     0.029 A 
ATOM     51  N   UNL A   1      42.251  30.886  29.362  1.00  0.00    -0.354 N 
ATOM     52  N   UNL A   1      44.583  29.812  27.931  1.00  0.00    -0.248 NA
ATOM     53  C   UNL A   1      46.700  30.117  26.993  1.00  0.00     0.031 C 
ATOM     54  C   UNL A   1      42.381  32.942  30.190  1.00  0.00     0.029 A 
ATOM     55  C   UNL A   1      43.091  31.980  29.489  1.00  0.00     0.049 A 
ATOM     56  H   UNL A   1      42.482  30.049  28.900  1.00  0.00     0.167 HD
ATOM     57  C   UNL A   1      45.049  31.080  28.262  1.00  0.00     0.074 A 
ATOM     58  C   UNL A   1      46.375  31.197  27.692  1.00  0.00     0.031 C 
ATOM     59  C   UNL A   1      44.429  32.062  28.962  1.00  0.00     0.034 A 
BRANCH  46  60
ATOM     60  C   UNL A   1      38.694  30.656  30.779  1.00  0.00     0.023 A 
ATOM     61  C   UNL A   1      38.624  30.475  32.175  1.00  0.00     0.012 A 
ATOM     62  C   UNL A   1      37.638  31.310  30.112  1.00  0.00     0.148 A 
ATOM     63  C   UNL A   1      37.516  30.919  32.894  1.00  0.00     0.002 A 
ATOM     64  C   UNL A   1      36.556  31.788  30.843  1.00  0.00     0.091 A 
ATOM     65  F   UNL A   1      37.712  31.450  28.781  1.00  0.00    -0.205 F 
ATOM     66  C   UNL A   1      36.489  31.586  32.231  1.00  0.00     0.022 A 
BRANCH  64  67
ATOM     67  S   UNL A   1      35.220  32.727  30.095  1.00  0.00     0.127 S 
ATOM     68  O   UNL A   1      34.744  31.800  29.070  1.00  0.00    -0.237 OA
ATOM     69  O   UNL A   1      34.305  32.911  31.222  1.00  0.00    -0.237 OA
ATOM     70  O   UNL A   1      35.821  33.954  29.594  1.00  0.00    -0.744 OA
ENDBRANCH  64  67
ENDBRANCH  46  60
BRANCH  47  71
ATOM     71  C   UNL A   1      46.807  27.373  25.931  1.00  0.00     0.023 A 
ATOM     72  C   UNL A   1      47.669  26.462  26.571  1.00  0.00     0.012 A 
ATOM     73  C   UNL A   1      47.081  27.765  24.606  1.00  0.00     0.148 A 
ATOM     74  C   UNL A   1      48.794  25.965  25.911  1.00  0.00     0.002 A 
ATOM     75  C   UNL A   1      48.171  27.221  23.935  1.00  0.00     0.091 A 
ATOM     76  F   UNL A   1      46.259  28.648  24.022  1.00  0.00    -0.205 F 
ATOM     77  C   UNL A   1      49.037  26.333  24.590  1.00  0.00     0.022 A 
BRANCH  75  78
ATOM     78  S   UNL A   1      48.481  27.527  22.191  1.00  0.00     0.127 S 
ATOM     79  O   UNL A   1      48.717  26.177  21.688  1.00  0.00    -0.237 OA
ATOM     80  O   UNL A   1      47.219  28.133  21.764  1.00  0.00    -0.237 OA
ATOM     81  O   UNL A   1      49.624  28.428  22.147  1.00  0.00    -0.744 OA
ENDBRANCH  75  78
ENDBRANCH  47  71
BRANCH  59  82
ATOM     82  C   UNL A   1      45.179  33.352  29.182  1.00  0.00     0.023 A 
ATOM     83  C   UNL A   1      46.031  33.483  30.296  1.00  0.00     0.012 A 
ATOM     84  C   UNL A   1      45.115  34.394  28.234  1.00  0.00     0.148 A 
ATOM     85  C   UNL A   1      46.788  34.640  30.477  1.00  0.00     0.002 A 
ATOM     86  C   UNL A   1      45.909  35.523  28.398  1.00  0.00     0.091 A 
ATOM     87  F   UNL A   1      44.284  34.261  27.190  1.00  0.00    -0.205 F 
ATOM     88  C   UNL A   1      46.737  35.653  29.523  1.00  0.00     0.022 A 
BRANCH  86  89
ATOM     89  S   UNL A   1      45.984  36.828  27.163  1.00  0.00     0.127 S 
ATOM     90  O   UNL A   1      44.583  37.237  27.077  1.00  0.00    -0.237 OA
ATOM     91  O   UNL A   1      46.867  37.809  27.797  1.00  0.00    -0.237 OA
ATOM     92  O   UNL A   1      46.534  36.211  25.964  1.00  0.00    -0.744 OA
ENDBRANCH  86  89
ENDBRANCH  59  82
ENDBRANCH  33  34
ENDBRANCH  26  28
ENDBRANCH  25  26
ENDBRANCH  24  25
ENDBRANCH   1  24
TORSDOF 18
ENDMDL
