MODEL 1
REMARK VINA RESULT:     -11.9      0.000      0.000
REMARK SMILES O=C(OCCOCCOC(=O)[C@H]1[C@@H]2CC[C@@H](C2)[C@@H]1C(=O)Nc1ccc([N+](=O)[O-])cc1)c1ccc(-c2c3nc(c(-c4cccc(S(=O)(=O)[O-])c4F)c4ccc([nH]4)c(-c4cccc(S(=O)(=O)[O-])c4F)c4nc(c(-c5cccc(S(=O)(=O)[O-])c5F)c5ccc2[nH]5)C=C4)C=C3)cc1
REMARK SMILES IDX 6 1 5 2 4 3 3 4 2 5 1 6 31 7 32 8 93 9 33 10 92 11 34 12
REMARK SMILES IDX 35 13 36 14 86 15 37 16 91 17 85 18 87 19 38 20 90 21 84 22
REMARK SMILES IDX 83 23 39 25 71 26 51 27 70 28 52 29 55 30 69 31 88 32 53 33
REMARK SMILES IDX 54 34 68 36 89 37 56 38 40 39 41 40 49 41 42 42 44 43 50 44
REMARK SMILES IDX 43 45 45 46 46 47 47 48 48 49 72 50 73 51 81 52 74 53 76 54
REMARK SMILES IDX 82 55 75 56 77 57 78 58 79 59 80 60 57 61 58 62 66 63 59 64
REMARK SMILES IDX 61 65 67 66 60 67 62 68 63 69 64 70 65 71 7 72 8 73 9 74
REMARK SMILES IDX 10 75 11 76 12 77 13 78 18 79 14 80 17 81 16 82 15 83 19 84
REMARK SMILES IDX 20 85 21 86 22 88 23 89 30 90 24 91 29 92 25 93 26 94 27 95
REMARK SMILES IDX 28 96
REMARK H PARENT 87 24 55 35 21 87
REMARK Flexibility Score: inf
ROOT
ATOM      1  O   UNL A   1      31.703  30.644  26.725  1.00  0.00    -0.374 OA
ENDROOT
BRANCH   1   2
ATOM      2  C   UNL A   1      31.444  32.047  26.865  1.00  0.00     0.202 C 
BRANCH   2   3
ATOM      3  C   UNL A   1      32.657  32.952  27.113  1.00  0.00     0.261 C 
BRANCH   3   4
ATOM      4  O   UNL A   1      32.291  34.075  27.933  1.00  0.00    -0.460 OA
BRANCH   4   5
ATOM      5  C   UNL A   1      33.078  34.797  28.766  1.00  0.00     0.338 C 
ATOM      6  O   UNL A   1      32.817  35.986  28.940  1.00  0.00    -0.246 OA
BRANCH   5   7
ATOM      7  C   UNL A   1      34.252  34.215  29.483  1.00  0.00     0.060 A 
ATOM      8  C   UNL A   1      35.584  34.528  29.204  1.00  0.00     0.016 A 
ATOM      9  C   UNL A   1      33.985  33.359  30.562  1.00  0.00     0.016 A 
ATOM     10  C   UNL A   1      36.628  33.936  29.889  1.00  0.00     0.010 A 
ATOM     11  C   UNL A   1      35.031  32.797  31.299  1.00  0.00     0.010 A 
ATOM     12  C   UNL A   1      36.355  33.066  30.936  1.00  0.00    -0.014 A 
BRANCH  12  13
ATOM     13  C   UNL A   1      37.496  32.376  31.554  1.00  0.00     0.031 A 
ATOM     14  C   UNL A   1      37.900  32.782  32.934  1.00  0.00     0.074 A 
ATOM     15  C   UNL A   1      38.048  31.327  30.920  1.00  0.00     0.049 A 
ATOM     16  N   UNL A   1      38.876  32.331  33.672  1.00  0.00    -0.248 NA
ATOM     17  C   UNL A   1      37.083  33.825  33.583  1.00  0.00     0.031 C 
ATOM     18  C   UNL A   1      37.622  30.812  29.616  1.00  0.00     0.029 A 
ATOM     19  N   UNL A   1      39.070  30.499  31.289  1.00  0.00    -0.354 N 
ATOM     20  C   UNL A   1      38.828  33.071  34.845  1.00  0.00     0.074 A 
ATOM     21  C   UNL A   1      37.713  33.984  34.737  1.00  0.00     0.031 C 
ATOM     22  C   UNL A   1      38.380  29.753  29.294  1.00  0.00     0.029 A 
ATOM     23  C   UNL A   1      39.382  29.560  30.335  1.00  0.00     0.049 A 
ATOM     24  H   UNL A   1      39.536  30.568  32.153  1.00  0.00     0.167 HD
ATOM     25  C   UNL A   1      39.654  32.991  35.911  1.00  0.00     0.034 A 
ATOM     26  C   UNL A   1      40.396  28.676  30.300  1.00  0.00     0.034 A 
ATOM     27  C   UNL A   1      40.748  32.066  35.982  1.00  0.00     0.049 A 
ATOM     28  C   UNL A   1      41.333  28.648  31.475  1.00  0.00     0.074 A 
ATOM     29  C   UNL A   1      41.689  31.912  36.982  1.00  0.00     0.029 A 
ATOM     30  N   UNL A   1      41.050  31.135  34.995  1.00  0.00    -0.354 N 
ATOM     31  N   UNL A   1      41.282  29.347  32.587  1.00  0.00    -0.248 NA
ATOM     32  C   UNL A   1      42.461  27.712  31.404  1.00  0.00     0.031 C 
ATOM     33  C   UNL A   1      42.574  30.904  36.586  1.00  0.00     0.029 A 
ATOM     34  C   UNL A   1      42.167  30.407  35.355  1.00  0.00     0.049 A 
ATOM     35  H   UNL A   1      40.541  31.012  34.161  1.00  0.00     0.167 HD
ATOM     36  C   UNL A   1      42.354  28.919  33.357  1.00  0.00     0.074 A 
ATOM     37  C   UNL A   1      43.023  27.883  32.593  1.00  0.00     0.031 C 
ATOM     38  C   UNL A   1      42.766  29.351  34.576  1.00  0.00     0.034 A 
BRANCH  25  39
ATOM     39  C   UNL A   1      39.416  33.959  37.036  1.00  0.00     0.023 A 
ATOM     40  C   UNL A   1      39.808  35.307  36.907  1.00  0.00     0.012 A 
ATOM     41  C   UNL A   1      38.828  33.523  38.238  1.00  0.00     0.148 A 
ATOM     42  C   UNL A   1      39.655  36.196  37.971  1.00  0.00     0.002 A 
ATOM     43  C   UNL A   1      38.641  34.423  39.281  1.00  0.00     0.091 A 
ATOM     44  F   UNL A   1      38.492  32.230  38.353  1.00  0.00    -0.205 F 
ATOM     45  C   UNL A   1      39.065  35.756  39.154  1.00  0.00     0.022 A 
BRANCH  43  46
ATOM     46  S   UNL A   1      37.849  33.965  40.825  1.00  0.00     0.127 S 
ATOM     47  O   UNL A   1      36.601  33.367  40.352  1.00  0.00    -0.237 OA
ATOM     48  O   UNL A   1      38.807  33.013  41.389  1.00  0.00    -0.237 OA
ATOM     49  O   UNL A   1      37.701  35.199  41.583  1.00  0.00    -0.744 OA
ENDBRANCH  43  46
ENDBRANCH  25  39
BRANCH  26  50
ATOM     50  C   UNL A   1      40.571  27.778  29.124  1.00  0.00     0.023 A 
ATOM     51  C   UNL A   1      39.803  26.603  29.017  1.00  0.00     0.012 A 
ATOM     52  C   UNL A   1      41.476  28.098  28.089  1.00  0.00     0.148 A 
ATOM     53  C   UNL A   1      39.950  25.753  27.918  1.00  0.00     0.002 A 
ATOM     54  C   UNL A   1      41.577  27.277  26.972  1.00  0.00     0.091 A 
ATOM     55  F   UNL A   1      42.216  29.208  28.214  1.00  0.00    -0.205 F 
ATOM     56  C   UNL A   1      40.827  26.096  26.891  1.00  0.00     0.022 A 
BRANCH  54  57
ATOM     57  S   UNL A   1      42.588  27.713  25.551  1.00  0.00     0.127 S 
ATOM     58  O   UNL A   1      42.431  26.536  24.700  1.00  0.00    -0.237 OA
ATOM     59  O   UNL A   1      41.923  28.921  25.060  1.00  0.00    -0.237 OA
ATOM     60  O   UNL A   1      43.926  27.942  26.078  1.00  0.00    -0.744 OA
ENDBRANCH  54  57
ENDBRANCH  26  50
BRANCH  38  61
ATOM     61  C   UNL A   1      43.974  28.681  35.166  1.00  0.00     0.023 A 
ATOM     62  C   UNL A   1      45.261  29.162  34.857  1.00  0.00     0.012 A 
ATOM     63  C   UNL A   1      43.822  27.640  36.100  1.00  0.00     0.148 A 
ATOM     64  C   UNL A   1      46.385  28.597  35.455  1.00  0.00     0.002 A 
ATOM     65  C   UNL A   1      44.943  27.118  36.731  1.00  0.00     0.091 A 
ATOM     66  F   UNL A   1      42.586  27.187  36.359  1.00  0.00    -0.205 F 
ATOM     67  C   UNL A   1      46.225  27.587  36.401  1.00  0.00     0.022 A 
BRANCH  65  68
ATOM     68  S   UNL A   1      44.818  25.895  38.039  1.00  0.00     0.127 S 
ATOM     69  O   UNL A   1      43.790  24.999  37.514  1.00  0.00    -0.237 OA
ATOM     70  O   UNL A   1      46.168  25.330  38.064  1.00  0.00    -0.237 OA
ATOM     71  O   UNL A   1      44.452  26.632  39.241  1.00  0.00    -0.744 OA
ENDBRANCH  65  68
ENDBRANCH  38  61
ENDBRANCH  12  13
ENDBRANCH   5   7
ENDBRANCH   4   5
ENDBRANCH   3   4
ENDBRANCH   2   3
ENDBRANCH   1   2
BRANCH   1  72
ATOM     72  C   UNL A   1      32.953  30.187  27.272  1.00  0.00     0.202 C 
BRANCH  72  73
ATOM     73  C   UNL A   1      33.644  29.242  26.288  1.00  0.00     0.261 C 
BRANCH  73  74
ATOM     74  O   UNL A   1      33.148  29.565  24.983  1.00  0.00    -0.463 OA
BRANCH  74  75
ATOM     75  C   UNL A   1      32.991  28.473  24.183  1.00  0.00     0.310 C 
ATOM     76  O   UNL A   1      33.861  27.990  23.474  1.00  0.00    -0.252 OA
BRANCH  75  77
ATOM     77  C   UNL A   1      31.616  27.886  24.416  1.00  0.00     0.115 C 
ATOM     78  C   UNL A   1      30.782  27.920  23.123  1.00  0.00     0.004 C 
ATOM     79  C   UNL A   1      31.656  26.392  24.789  1.00  0.00     0.096 C 
ATOM     80  C   UNL A   1      29.310  27.712  23.508  1.00  0.00     0.005 C 
ATOM     81  C   UNL A   1      31.143  26.583  22.476  1.00  0.00     0.009 C 
ATOM     82  C   UNL A   1      30.728  25.769  23.707  1.00  0.00     0.003 C 
ATOM     83  C   UNL A   1      29.259  26.214  23.842  1.00  0.00     0.005 C 
BRANCH  79  84
ATOM     84  C   UNL A   1      31.198  26.109  26.225  1.00  0.00     0.228 C 
ATOM     85  O   UNL A   1      30.808  27.003  26.979  1.00  0.00    -0.274 OA
ATOM     86  N   UNL A   1      31.084  24.804  26.635  1.00  0.00    -0.326 N 
ATOM     87  H   UNL A   1      30.350  24.615  27.264  1.00  0.00     0.169 HD
BRANCH  86  88
ATOM     88  C   UNL A   1      31.878  23.706  26.274  1.00  0.00     0.041 A 
ATOM     89  C   UNL A   1      31.286  22.656  25.568  1.00  0.00     0.033 A 
ATOM     90  C   UNL A   1      33.217  23.606  26.664  1.00  0.00     0.033 A 
ATOM     91  C   UNL A   1      32.062  21.571  25.145  1.00  0.00     0.088 A 
ATOM     92  C   UNL A   1      33.998  22.519  26.265  1.00  0.00     0.088 A 
ATOM     93  C   UNL A   1      33.424  21.517  25.479  1.00  0.00     0.269 A 
BRANCH  93  94
ATOM     94  N   UNL A   1      34.257  20.419  24.972  1.00  0.00     0.062 N 
ATOM     95  O   UNL A   1      35.447  20.671  24.728  1.00  0.00    -0.258 OA
ATOM     96  O   UNL A   1      33.735  19.305  24.853  1.00  0.00    -0.258 OA
ENDBRANCH  93  94
ENDBRANCH  86  88
ENDBRANCH  79  84
ENDBRANCH  75  77
ENDBRANCH  74  75
ENDBRANCH  73  74
ENDBRANCH  72  73
ENDBRANCH   1  72
TORSDOF 20
ENDMDL
MODEL 2
REMARK VINA RESULT:     -11.9      5.535     10.837
REMARK SMILES O=C(OCCOCCOC(=O)[C@H]1[C@@H]2CC[C@@H](C2)[C@@H]1C(=O)Nc1ccc([N+](=O)[O-])cc1)c1ccc(-c2c3nc(c(-c4cccc(S(=O)(=O)[O-])c4F)c4ccc([nH]4)c(-c4cccc(S(=O)(=O)[O-])c4F)c4nc(c(-c5cccc(S(=O)(=O)[O-])c5F)c5ccc2[nH]5)C=C4)C=C3)cc1
REMARK SMILES IDX 6 1 5 2 4 3 3 4 2 5 1 6 31 7 32 8 93 9 33 10 92 11 34 12
REMARK SMILES IDX 35 13 36 14 86 15 37 16 91 17 85 18 87 19 38 20 90 21 84 22
REMARK SMILES IDX 83 23 39 25 71 26 51 27 70 28 52 29 55 30 69 31 88 32 53 33
REMARK SMILES IDX 54 34 68 36 89 37 56 38 40 39 41 40 49 41 42 42 44 43 50 44
REMARK SMILES IDX 43 45 45 46 46 47 47 48 48 49 72 50 73 51 81 52 74 53 76 54
REMARK SMILES IDX 82 55 75 56 77 57 78 58 79 59 80 60 57 61 58 62 66 63 59 64
REMARK SMILES IDX 61 65 67 66 60 67 62 68 63 69 64 70 65 71 7 72 8 73 9 74
REMARK SMILES IDX 10 75 11 76 12 77 13 78 18 79 14 80 17 81 16 82 15 83 19 84
REMARK SMILES IDX 20 85 21 86 22 88 23 89 30 90 24 91 29 92 25 93 26 94 27 95
REMARK SMILES IDX 28 96
REMARK H PARENT 87 24 55 35 21 87
REMARK Flexibility Score: inf
ROOT
ATOM      1  O   UNL A   1      34.738  22.599  24.872  1.00  0.00    -0.374 OA
ENDROOT
BRANCH   1   2
ATOM      2  C   UNL A   1      35.545  21.583  25.484  1.00  0.00     0.202 C 
BRANCH   2   3
ATOM      3  C   UNL A   1      36.958  21.391  24.920  1.00  0.00     0.261 C 
BRANCH   3   4
ATOM      4  O   UNL A   1      37.841  20.874  25.930  1.00  0.00    -0.460 OA
BRANCH   4   5
ATOM      5  C   UNL A   1      39.150  21.160  26.125  1.00  0.00     0.338 C 
ATOM      6  O   UNL A   1      39.980  20.271  25.943  1.00  0.00    -0.246 OA
BRANCH   5   7
ATOM      7  C   UNL A   1      39.634  22.506  26.553  1.00  0.00     0.060 A 
ATOM      8  C   UNL A   1      39.134  23.718  26.069  1.00  0.00     0.016 A 
ATOM      9  C   UNL A   1      40.600  22.548  27.569  1.00  0.00     0.016 A 
ATOM     10  C   UNL A   1      39.642  24.932  26.489  1.00  0.00     0.010 A 
ATOM     11  C   UNL A   1      41.083  23.771  28.042  1.00  0.00     0.010 A 
ATOM     12  C   UNL A   1      40.621  24.963  27.474  1.00  0.00    -0.014 A 
BRANCH  12  13
ATOM     13  C   UNL A   1      41.208  26.270  27.799  1.00  0.00     0.031 A 
ATOM     14  C   UNL A   1      42.578  26.573  27.288  1.00  0.00     0.074 A 
ATOM     15  C   UNL A   1      40.453  27.188  28.426  1.00  0.00     0.049 A 
ATOM     16  N   UNL A   1      43.302  27.645  27.457  1.00  0.00    -0.248 NA
ATOM     17  C   UNL A   1      43.217  25.538  26.454  1.00  0.00     0.031 C 
ATOM     18  C   UNL A   1      39.065  26.989  28.853  1.00  0.00     0.029 A 
ATOM     19  N   UNL A   1      40.735  28.473  28.798  1.00  0.00    -0.354 N 
ATOM     20  C   UNL A   1      44.499  27.392  26.803  1.00  0.00     0.074 A 
ATOM     21  C   UNL A   1      44.401  26.078  26.210  1.00  0.00     0.031 C 
ATOM     22  C   UNL A   1      38.617  28.114  29.430  1.00  0.00     0.029 A 
ATOM     23  C   UNL A   1      39.704  29.084  29.471  1.00  0.00     0.049 A 
ATOM     24  H   UNL A   1      41.592  28.916  28.602  1.00  0.00     0.167 HD
ATOM     25  C   UNL A   1      45.584  28.193  26.717  1.00  0.00     0.034 A 
ATOM     26  C   UNL A   1      39.672  30.280  30.087  1.00  0.00     0.034 A 
ATOM     27  C   UNL A   1      45.640  29.495  27.317  1.00  0.00     0.049 A 
ATOM     28  C   UNL A   1      40.912  31.127  30.024  1.00  0.00     0.074 A 
ATOM     29  C   UNL A   1      46.691  30.391  27.346  1.00  0.00     0.029 A 
ATOM     30  N   UNL A   1      44.586  30.085  28.005  1.00  0.00    -0.354 N 
ATOM     31  N   UNL A   1      42.043  30.888  29.399  1.00  0.00    -0.248 NA
ATOM     32  C   UNL A   1      40.879  32.409  30.737  1.00  0.00     0.031 C 
ATOM     33  C   UNL A   1      46.279  31.512  28.074  1.00  0.00     0.029 A 
ATOM     34  C   UNL A   1      44.962  31.329  28.472  1.00  0.00     0.049 A 
ATOM     35  H   UNL A   1      43.701  29.675  28.140  1.00  0.00     0.167 HD
ATOM     36  C   UNL A   1      42.847  31.996  29.623  1.00  0.00     0.074 A 
ATOM     37  C   UNL A   1      42.063  32.919  30.422  1.00  0.00     0.031 C 
ATOM     38  C   UNL A   1      44.124  32.230  29.225  1.00  0.00     0.034 A 
BRANCH  25  39
ATOM     39  C   UNL A   1      46.783  27.648  25.995  1.00  0.00     0.023 A 
ATOM     40  C   UNL A   1      46.860  27.723  24.589  1.00  0.00     0.012 A 
ATOM     41  C   UNL A   1      47.826  27.031  26.711  1.00  0.00     0.148 A 
ATOM     42  C   UNL A   1      47.937  27.158  23.906  1.00  0.00     0.002 A 
ATOM     43  C   UNL A   1      48.915  26.504  26.027  1.00  0.00     0.091 A 
ATOM     44  F   UNL A   1      47.719  26.940  28.045  1.00  0.00    -0.205 F 
ATOM     45  C   UNL A   1      48.967  26.555  24.625  1.00  0.00     0.022 A 
BRANCH  43  46
ATOM     46  S   UNL A   1      50.313  25.751  26.865  1.00  0.00     0.127 S 
ATOM     47  O   UNL A   1      49.764  24.450  27.247  1.00  0.00    -0.237 OA
ATOM     48  O   UNL A   1      51.316  25.701  25.801  1.00  0.00    -0.237 OA
ATOM     49  O   UNL A   1      50.645  26.636  27.972  1.00  0.00    -0.744 OA
ENDBRANCH  43  46
ENDBRANCH  25  39
BRANCH  26  50
ATOM     50  C   UNL A   1      38.445  30.722  30.809  1.00  0.00     0.023 A 
ATOM     51  C   UNL A   1      38.338  30.521  32.197  1.00  0.00     0.012 A 
ATOM     52  C   UNL A   1      37.393  31.373  30.129  1.00  0.00     0.148 A 
ATOM     53  C   UNL A   1      37.198  30.936  32.891  1.00  0.00     0.002 A 
ATOM     54  C   UNL A   1      36.287  31.832  30.834  1.00  0.00     0.091 A 
ATOM     55  F   UNL A   1      37.500  31.539  28.804  1.00  0.00    -0.205 F 
ATOM     56  C   UNL A   1      36.179  31.601  32.212  1.00  0.00     0.022 A 
BRANCH  54  57
ATOM     57  S   UNL A   1      34.993  32.808  30.057  1.00  0.00     0.127 S 
ATOM     58  O   UNL A   1      34.105  33.079  31.184  1.00  0.00    -0.237 OA
ATOM     59  O   UNL A   1      35.737  33.970  29.566  1.00  0.00    -0.237 OA
ATOM     60  O   UNL A   1      34.444  31.964  29.004  1.00  0.00    -0.744 OA
ENDBRANCH  54  57
ENDBRANCH  26  50
BRANCH  38  61
ATOM     61  C   UNL A   1      44.733  33.544  29.623  1.00  0.00     0.023 A 
ATOM     62  C   UNL A   1      45.432  33.651  30.840  1.00  0.00     0.012 A 
ATOM     63  C   UNL A   1      44.693  34.639  28.740  1.00  0.00     0.148 A 
ATOM     64  C   UNL A   1      46.064  34.843  31.185  1.00  0.00     0.002 A 
ATOM     65  C   UNL A   1      45.370  35.806  29.067  1.00  0.00     0.091 A 
ATOM     66  F   UNL A   1      44.001  34.517  27.597  1.00  0.00    -0.205 F 
ATOM     67  C   UNL A   1      46.046  35.914  30.294  1.00  0.00     0.022 A 
BRANCH  65  68
ATOM     68  S   UNL A   1      45.489  37.190  27.930  1.00  0.00     0.127 S 
ATOM     69  O   UNL A   1      46.314  38.129  28.688  1.00  0.00    -0.237 OA
ATOM     70  O   UNL A   1      46.154  36.585  26.775  1.00  0.00    -0.237 OA
ATOM     71  O   UNL A   1      44.120  37.620  27.678  1.00  0.00    -0.744 OA
ENDBRANCH  65  68
ENDBRANCH  38  61
ENDBRANCH  12  13
ENDBRANCH   5   7
ENDBRANCH   4   5
ENDBRANCH   3   4
ENDBRANCH   2   3
ENDBRANCH   1   2
BRANCH   1  72
ATOM     72  C   UNL A   1      34.594  22.498  23.444  1.00  0.00     0.202 C 
BRANCH  72  73
ATOM     73  C   UNL A   1      33.620  23.562  22.938  1.00  0.00     0.261 C 
BRANCH  73  74
ATOM     74  O   UNL A   1      34.388  24.749  22.696  1.00  0.00    -0.463 OA
BRANCH  74  75
ATOM     75  C   UNL A   1      33.636  25.884  22.698  1.00  0.00     0.310 C 
ATOM     76  O   UNL A   1      33.659  26.745  21.830  1.00  0.00    -0.252 OA
BRANCH  75  77
ATOM     77  C   UNL A   1      32.684  25.841  23.873  1.00  0.00     0.115 C 
ATOM     78  C   UNL A   1      33.389  26.294  25.164  1.00  0.00     0.004 C 
ATOM     79  C   UNL A   1      31.509  26.828  23.730  1.00  0.00     0.096 C 
ATOM     80  C   UNL A   1      32.528  25.842  26.352  1.00  0.00     0.005 C 
ATOM     81  C   UNL A   1      33.151  27.804  25.144  1.00  0.00     0.009 C 
ATOM     82  C   UNL A   1      31.629  27.658  25.041  1.00  0.00     0.003 C 
ATOM     83  C   UNL A   1      31.352  26.828  26.310  1.00  0.00     0.005 C 
BRANCH  79  84
ATOM     84  C   UNL A   1      30.149  26.137  23.565  1.00  0.00     0.228 C 
ATOM     85  O   UNL A   1      30.032  24.911  23.554  1.00  0.00    -0.274 OA
ATOM     86  N   UNL A   1      29.014  26.909  23.573  1.00  0.00    -0.326 N 
ATOM     87  H   UNL A   1      28.221  26.499  23.989  1.00  0.00     0.169 HD
BRANCH  86  88
ATOM     88  C   UNL A   1      28.838  28.204  23.067  1.00  0.00     0.041 A 
ATOM     89  C   UNL A   1      29.895  28.802  22.375  1.00  0.00     0.033 A 
ATOM     90  C   UNL A   1      27.667  28.932  23.298  1.00  0.00     0.033 A 
ATOM     91  C   UNL A   1      29.732  30.072  21.810  1.00  0.00     0.088 A 
ATOM     92  C   UNL A   1      27.499  30.208  22.756  1.00  0.00     0.088 A 
ATOM     93  C   UNL A   1      28.524  30.763  21.985  1.00  0.00     0.269 A 
BRANCH  93  94
ATOM     94  N   UNL A   1      28.324  32.061  21.329  1.00  0.00     0.062 N 
ATOM     95  O   UNL A   1      28.282  32.075  20.090  1.00  0.00    -0.258 OA
ATOM     96  O   UNL A   1      28.173  33.055  22.049  1.00  0.00    -0.258 OA
ENDBRANCH  93  94
ENDBRANCH  86  88
ENDBRANCH  79  84
ENDBRANCH  75  77
ENDBRANCH  74  75
ENDBRANCH  73  74
ENDBRANCH  72  73
ENDBRANCH   1  72
TORSDOF 20
ENDMDL
MODEL 3
REMARK VINA RESULT:     -11.8      2.063      3.893
REMARK SMILES O=C(OCCOCCOC(=O)[C@H]1[C@@H]2CC[C@@H](C2)[C@@H]1C(=O)Nc1ccc([N+](=O)[O-])cc1)c1ccc(-c2c3nc(c(-c4cccc(S(=O)(=O)[O-])c4F)c4ccc([nH]4)c(-c4cccc(S(=O)(=O)[O-])c4F)c4nc(c(-c5cccc(S(=O)(=O)[O-])c5F)c5ccc2[nH]5)C=C4)C=C3)cc1
REMARK SMILES IDX 6 1 5 2 4 3 3 4 2 5 1 6 31 7 32 8 93 9 33 10 92 11 34 12
REMARK SMILES IDX 35 13 36 14 86 15 37 16 91 17 85 18 87 19 38 20 90 21 84 22
REMARK SMILES IDX 83 23 39 25 71 26 51 27 70 28 52 29 55 30 69 31 88 32 53 33
REMARK SMILES IDX 54 34 68 36 89 37 56 38 40 39 41 40 49 41 42 42 44 43 50 44
REMARK SMILES IDX 43 45 45 46 46 47 47 48 48 49 72 50 73 51 81 52 74 53 76 54
REMARK SMILES IDX 82 55 75 56 77 57 78 58 79 59 80 60 57 61 58 62 66 63 59 64
REMARK SMILES IDX 61 65 67 66 60 67 62 68 63 69 64 70 65 71 7 72 8 73 9 74
REMARK SMILES IDX 10 75 11 76 12 77 13 78 18 79 14 80 17 81 16 82 15 83 19 84
REMARK SMILES IDX 20 85 21 86 22 88 23 89 30 90 24 91 29 92 25 93 26 94 27 95
REMARK SMILES IDX 28 96
REMARK H PARENT 87 24 55 35 21 87
REMARK Flexibility Score: inf
ROOT
ATOM      1  O   UNL A   1      32.879  30.377  26.441  1.00  0.00    -0.374 OA
ENDROOT
BRANCH   1   2
ATOM      2  C   UNL A   1      31.756  31.208  26.764  1.00  0.00     0.202 C 
BRANCH   2   3
ATOM      3  C   UNL A   1      31.910  32.711  26.501  1.00  0.00     0.261 C 
BRANCH   3   4
ATOM      4  O   UNL A   1      32.227  33.408  27.718  1.00  0.00    -0.460 OA
BRANCH   4   5
ATOM      5  C   UNL A   1      33.395  34.000  28.065  1.00  0.00     0.338 C 
ATOM      6  O   UNL A   1      33.505  35.216  27.917  1.00  0.00    -0.246 OA
BRANCH   5   7
ATOM      7  C   UNL A   1      34.557  33.244  28.619  1.00  0.00     0.060 A 
ATOM      8  C   UNL A   1      34.481  31.955  29.153  1.00  0.00     0.016 A 
ATOM      9  C   UNL A   1      35.820  33.845  28.518  1.00  0.00     0.016 A 
ATOM     10  C   UNL A   1      35.591  31.318  29.672  1.00  0.00     0.010 A 
ATOM     11  C   UNL A   1      36.960  33.188  28.990  1.00  0.00     0.010 A 
ATOM     12  C   UNL A   1      36.834  31.934  29.596  1.00  0.00    -0.014 A 
BRANCH  12  13
ATOM     13  C   UNL A   1      37.958  31.266  30.266  1.00  0.00     0.031 A 
ATOM     14  C   UNL A   1      38.209  31.582  31.704  1.00  0.00     0.074 A 
ATOM     15  C   UNL A   1      38.635  30.308  29.610  1.00  0.00     0.049 A 
ATOM     16  N   UNL A   1      39.143  31.132  32.495  1.00  0.00    -0.248 NA
ATOM     17  C   UNL A   1      37.269  32.518  32.350  1.00  0.00     0.031 C 
ATOM     18  C   UNL A   1      38.363  29.875  28.236  1.00  0.00     0.029 A 
ATOM     19  N   UNL A   1      39.673  29.515  30.011  1.00  0.00    -0.354 N 
ATOM     20  C   UNL A   1      38.940  31.771  33.711  1.00  0.00     0.074 A 
ATOM     21  C   UNL A   1      37.781  32.621  33.567  1.00  0.00     0.031 C 
ATOM     22  C   UNL A   1      39.217  28.893  27.909  1.00  0.00     0.029 A 
ATOM     23  C   UNL A   1      40.132  28.677  29.022  1.00  0.00     0.049 A 
ATOM     24  H   UNL A   1      40.054  29.541  30.918  1.00  0.00     0.167 HD
ATOM     25  C   UNL A   1      39.670  31.654  34.842  1.00  0.00     0.034 A 
ATOM     26  C   UNL A   1      41.202  27.861  29.018  1.00  0.00     0.034 A 
ATOM     27  C   UNL A   1      40.814  30.794  34.946  1.00  0.00     0.049 A 
ATOM     28  C   UNL A   1      42.030  27.794  30.270  1.00  0.00     0.074 A 
ATOM     29  C   UNL A   1      41.669  30.617  36.016  1.00  0.00     0.029 A 
ATOM     30  N   UNL A   1      41.265  29.966  33.925  1.00  0.00    -0.354 N 
ATOM     31  N   UNL A   1      41.832  28.396  31.422  1.00  0.00    -0.248 NA
ATOM     32  C   UNL A   1      43.220  26.937  30.236  1.00  0.00     0.031 C 
ATOM     33  C   UNL A   1      42.652  29.699  35.631  1.00  0.00     0.029 A 
ATOM     34  C   UNL A   1      42.391  29.280  34.334  1.00  0.00     0.049 A 
ATOM     35  H   UNL A   1      40.842  29.881  33.040  1.00  0.00     0.167 HD
ATOM     36  C   UNL A   1      42.856  27.973  32.256  1.00  0.00     0.074 A 
ATOM     37  C   UNL A   1      43.660  27.044  31.483  1.00  0.00     0.031 C 
ATOM     38  C   UNL A   1      43.127  28.328  33.538  1.00  0.00     0.034 A 
BRANCH  25  39
ATOM     39  C   UNL A   1      39.268  32.512  36.008  1.00  0.00     0.023 A 
ATOM     40  C   UNL A   1      39.763  33.827  36.127  1.00  0.00     0.012 A 
ATOM     41  C   UNL A   1      38.418  32.002  37.008  1.00  0.00     0.148 A 
ATOM     42  C   UNL A   1      39.450  34.605  37.242  1.00  0.00     0.002 A 
ATOM     43  C   UNL A   1      38.079  32.796  38.096  1.00  0.00     0.091 A 
ATOM     44  F   UNL A   1      37.984  30.738  36.893  1.00  0.00    -0.205 F 
ATOM     45  C   UNL A   1      38.603  34.093  38.222  1.00  0.00     0.022 A 
BRANCH  43  46
ATOM     46  S   UNL A   1      36.958  32.244  39.386  1.00  0.00     0.127 S 
ATOM     47  O   UNL A   1      37.458  30.897  39.656  1.00  0.00    -0.237 OA
ATOM     48  O   UNL A   1      37.216  33.215  40.450  1.00  0.00    -0.237 OA
ATOM     49  O   UNL A   1      35.621  32.310  38.813  1.00  0.00    -0.744 OA
ENDBRANCH  43  46
ENDBRANCH  25  39
BRANCH  26  50
ATOM     50  C   UNL A   1      41.542  27.073  27.799  1.00  0.00     0.023 A 
ATOM     51  C   UNL A   1      42.114  27.715  26.685  1.00  0.00     0.012 A 
ATOM     52  C   UNL A   1      41.330  25.679  27.749  1.00  0.00     0.148 A 
ATOM     53  C   UNL A   1      42.446  26.991  25.537  1.00  0.00     0.002 A 
ATOM     54  C   UNL A   1      41.714  24.955  26.626  1.00  0.00     0.091 A 
ATOM     55  F   UNL A   1      40.766  25.083  28.809  1.00  0.00    -0.205 F 
ATOM     56  C   UNL A   1      42.256  25.611  25.512  1.00  0.00     0.022 A 
BRANCH  54  57
ATOM     57  S   UNL A   1      41.621  23.161  26.564  1.00  0.00     0.127 S 
ATOM     58  O   UNL A   1      42.281  22.785  27.812  1.00  0.00    -0.237 OA
ATOM     59  O   UNL A   1      40.176  22.928  26.537  1.00  0.00    -0.237 OA
ATOM     60  O   UNL A   1      42.310  22.775  25.340  1.00  0.00    -0.744 OA
ENDBRANCH  54  57
ENDBRANCH  26  50
BRANCH  38  61
ATOM     61  C   UNL A   1      44.321  27.687  34.187  1.00  0.00     0.023 A 
ATOM     62  C   UNL A   1      45.573  28.328  34.139  1.00  0.00     0.012 A 
ATOM     63  C   UNL A   1      44.171  26.498  34.925  1.00  0.00     0.148 A 
ATOM     64  C   UNL A   1      46.669  27.780  34.799  1.00  0.00     0.002 A 
ATOM     65  C   UNL A   1      45.256  25.987  35.625  1.00  0.00     0.091 A 
ATOM     66  F   UNL A   1      42.972  25.896  34.937  1.00  0.00    -0.205 F 
ATOM     67  C   UNL A   1      46.508  26.620  35.553  1.00  0.00     0.022 A 
BRANCH  65  68
ATOM     68  S   UNL A   1      45.107  24.562  36.707  1.00  0.00     0.127 S 
ATOM     69  O   UNL A   1      46.481  24.400  37.178  1.00  0.00    -0.237 OA
ATOM     70  O   UNL A   1      44.164  25.040  37.719  1.00  0.00    -0.237 OA
ATOM     71  O   UNL A   1      44.598  23.480  35.875  1.00  0.00    -0.744 OA
ENDBRANCH  65  68
ENDBRANCH  38  61
ENDBRANCH  12  13
ENDBRANCH   5   7
ENDBRANCH   4   5
ENDBRANCH   3   4
ENDBRANCH   2   3
ENDBRANCH   1   2
BRANCH   1  72
ATOM     72  C   UNL A   1      33.012  29.182  27.230  1.00  0.00     0.202 C 
BRANCH  72  73
ATOM     73  C   UNL A   1      32.169  28.057  26.628  1.00  0.00     0.261 C 
BRANCH  73  74
ATOM     74  O   UNL A   1      33.082  27.037  26.201  1.00  0.00    -0.463 OA
BRANCH  74  75
ATOM     75  C   UNL A   1      32.577  25.778  26.329  1.00  0.00     0.310 C 
ATOM     76  O   UNL A   1      31.439  25.510  26.686  1.00  0.00    -0.252 OA
BRANCH  75  77
ATOM     77  C   UNL A   1      33.605  24.783  25.838  1.00  0.00     0.115 C 
ATOM     78  C   UNL A   1      33.697  23.577  26.790  1.00  0.00     0.004 C 
ATOM     79  C   UNL A   1      33.231  24.153  24.482  1.00  0.00     0.096 C 
ATOM     80  C   UNL A   1      35.006  22.835  26.482  1.00  0.00     0.005 C 
ATOM     81  C   UNL A   1      32.642  22.634  26.213  1.00  0.00     0.009 C 
ATOM     82  C   UNL A   1      33.272  22.634  24.816  1.00  0.00     0.003 C 
ATOM     83  C   UNL A   1      34.687  22.128  25.157  1.00  0.00     0.005 C 
BRANCH  79  84
ATOM     84  C   UNL A   1      34.174  24.556  23.342  1.00  0.00     0.228 C 
ATOM     85  O   UNL A   1      35.300  24.069  23.217  1.00  0.00    -0.274 OA
ATOM     86  N   UNL A   1      33.695  25.375  22.350  1.00  0.00    -0.326 N 
ATOM     87  H   UNL A   1      34.046  25.204  21.446  1.00  0.00     0.169 HD
BRANCH  86  88
ATOM     88  C   UNL A   1      32.772  26.425  22.459  1.00  0.00     0.041 A 
ATOM     89  C   UNL A   1      33.233  27.685  22.851  1.00  0.00     0.033 A 
ATOM     90  C   UNL A   1      31.403  26.225  22.255  1.00  0.00     0.033 A 
ATOM     91  C   UNL A   1      32.347  28.766  22.916  1.00  0.00     0.088 A 
ATOM     92  C   UNL A   1      30.506  27.292  22.335  1.00  0.00     0.088 A 
ATOM     93  C   UNL A   1      30.987  28.569  22.636  1.00  0.00     0.269 A 
BRANCH  93  94
ATOM     94  N   UNL A   1      30.069  29.716  22.628  1.00  0.00     0.062 N 
ATOM     95  O   UNL A   1      29.494  29.979  21.562  1.00  0.00    -0.258 OA
ATOM     96  O   UNL A   1      29.898  30.326  23.690  1.00  0.00    -0.258 OA
ENDBRANCH  93  94
ENDBRANCH  86  88
ENDBRANCH  79  84
ENDBRANCH  75  77
ENDBRANCH  74  75
ENDBRANCH  73  74
ENDBRANCH  72  73
ENDBRANCH   1  72
TORSDOF 20
ENDMDL
