MODEL 1
REMARK VINA RESULT:      -8.6      0.000      0.000
REMARK SMILES C=CC[N@H+](CC(=O)OCCOCCOC(=O)c1ccc(-c2c3nc(c(-c4cccc(S(=O)(=O)[O-])c4F)c4ccc([nH]4)c(-c4cccc(S(=O)(=O)[O-])c4F)c4nc(c(-c5cccc(S(=O)(=O)[O-])c5F)c5ccc2[nH]5)C=C4)C=C3)cc1)[C@H](C)c1ccc(F)cc1O
REMARK SMILES IDX 10 1 9 2 8 3 6 4 7 5 5 6 4 7 3 9 2 10 1 11 80 12 81 13 82 14
REMARK SMILES IDX 83 15 88 16 84 17 87 18 85 19 86 20 89 21 11 23 12 24 13 25
REMARK SMILES IDX 14 26 15 27 16 28 17 29 18 30 79 31 19 32 78 33 20 34 21 35
REMARK SMILES IDX 22 36 72 37 23 38 77 39 71 40 73 41 24 42 76 43 70 44 69 45
REMARK SMILES IDX 25 47 57 48 37 49 56 50 38 51 41 52 55 53 74 54 39 55 40 56
REMARK SMILES IDX 54 58 75 59 42 60 26 61 27 62 35 63 28 64 30 65 36 66 29 67
REMARK SMILES IDX 31 68 32 69 33 70 34 71 58 72 59 73 67 74 60 75 62 76 68 77
REMARK SMILES IDX 61 78 63 79 64 80 65 81 66 82 43 83 44 84 52 85 45 86 47 87
REMARK SMILES IDX 53 88 46 89 48 90 49 91 50 92 51 93
REMARK H PARENT 4 8 89 22 73 46 41 57
REMARK Flexibility Score: inf
ROOT
ATOM      1  C   UNL A   1      35.341  32.131  27.891  1.00  0.00     0.202 C 
ENDROOT
BRANCH   1   2
ATOM      2  C   UNL A   1      33.984  31.462  28.108  1.00  0.00     0.261 C 
BRANCH   2   3
ATOM      3  O   UNL A   1      33.562  30.764  26.923  1.00  0.00    -0.459 OA
BRANCH   3   4
ATOM      4  C   UNL A   1      32.228  30.611  26.755  1.00  0.00     0.361 C 
ATOM      5  O   UNL A   1      31.429  31.539  26.660  1.00  0.00    -0.245 OA
BRANCH   4   6
ATOM      6  C   UNL A   1      31.759  29.162  26.798  1.00  0.00     0.387 C 
BRANCH   6   7
ATOM      7  N   UNL A   1      31.518  28.420  25.498  1.00  0.00    -0.316 N 
ATOM      8  H   UNL A   1      30.725  27.780  25.537  1.00  0.00     0.349 HD
BRANCH   7   9
ATOM      9  C   UNL A   1      31.193  29.418  24.443  1.00  0.00     0.291 C 
BRANCH   9  10
ATOM     10  C   UNL A   1      30.443  28.923  23.242  1.00  0.00     0.025 C 
ATOM     11  C   UNL A   1      29.439  28.036  23.281  1.00  0.00     0.010 C 
ENDBRANCH   9  10
ENDBRANCH   7   9
BRANCH   7  12
ATOM     12  C   UNL A   1      32.754  27.587  25.217  1.00  0.00     0.216 C 
ATOM     13  C   UNL A   1      33.824  28.340  24.397  1.00  0.00     0.081 C 
BRANCH  12  14
ATOM     14  C   UNL A   1      32.477  26.155  24.714  1.00  0.00     0.051 A 
ATOM     15  C   UNL A   1      32.940  25.713  23.455  1.00  0.00     0.017 A 
ATOM     16  C   UNL A   1      31.783  25.211  25.498  1.00  0.00     0.127 A 
ATOM     17  C   UNL A   1      32.672  24.424  22.987  1.00  0.00     0.040 A 
ATOM     18  C   UNL A   1      31.506  23.924  25.036  1.00  0.00     0.085 A 
ATOM     19  C   UNL A   1      31.944  23.546  23.776  1.00  0.00     0.126 A 
ATOM     20  F   UNL A   1      31.663  22.323  23.308  1.00  0.00    -0.207 F 
BRANCH  16  21
ATOM     21  O   UNL A   1      31.295  25.540  26.734  1.00  0.00    -0.507 OA
ATOM     22  H   UNL A   1      31.275  26.436  27.008  1.00  0.00     0.293 HD
ENDBRANCH  16  21
ENDBRANCH  12  14
ENDBRANCH   7  12
ENDBRANCH   6   7
ENDBRANCH   4   6
ENDBRANCH   3   4
ENDBRANCH   2   3
ENDBRANCH   1   2
BRANCH   1  23
ATOM     23  O   UNL A   1      35.803  32.925  28.984  1.00  0.00    -0.374 OA
BRANCH  23  24
ATOM     24  C   UNL A   1      34.879  33.143  30.054  1.00  0.00     0.202 C 
BRANCH  24  25
ATOM     25  C   UNL A   1      35.119  32.298  31.308  1.00  0.00     0.261 C 
BRANCH  25  26
ATOM     26  O   UNL A   1      36.526  32.098  31.541  1.00  0.00    -0.460 OA
BRANCH  26  27
ATOM     27  C   UNL A   1      36.924  30.806  31.547  1.00  0.00     0.338 C 
ATOM     28  O   UNL A   1      36.229  29.820  31.771  1.00  0.00    -0.246 OA
BRANCH  27  29
ATOM     29  C   UNL A   1      38.310  30.697  31.060  1.00  0.00     0.060 A 
ATOM     30  C   UNL A   1      39.335  30.999  31.963  1.00  0.00     0.016 A 
ATOM     31  C   UNL A   1      38.609  30.382  29.733  1.00  0.00     0.016 A 
ATOM     32  C   UNL A   1      40.655  31.062  31.525  1.00  0.00     0.010 A 
ATOM     33  C   UNL A   1      39.940  30.417  29.301  1.00  0.00     0.010 A 
ATOM     34  C   UNL A   1      40.962  30.818  30.179  1.00  0.00    -0.014 A 
BRANCH  34  35
ATOM     35  C   UNL A   1      42.314  31.172  29.670  1.00  0.00     0.031 A 
ATOM     36  C   UNL A   1      42.692  32.628  29.555  1.00  0.00     0.074 A 
ATOM     37  C   UNL A   1      43.212  30.220  29.357  1.00  0.00     0.049 A 
ATOM     38  N   UNL A   1      43.827  33.162  29.180  1.00  0.00    -0.248 NA
ATOM     39  C   UNL A   1      41.654  33.614  29.899  1.00  0.00     0.031 C 
ATOM     40  C   UNL A   1      42.970  28.779  29.403  1.00  0.00     0.029 A 
ATOM     41  N   UNL A   1      44.512  30.328  28.926  1.00  0.00    -0.354 N 
ATOM     42  C   UNL A   1      43.626  34.537  29.206  1.00  0.00     0.074 A 
ATOM     43  C   UNL A   1      42.257  34.759  29.612  1.00  0.00     0.031 C 
ATOM     44  C   UNL A   1      44.081  28.136  29.002  1.00  0.00     0.029 A 
ATOM     45  C   UNL A   1      45.109  29.118  28.661  1.00  0.00     0.049 A 
ATOM     46  H   UNL A   1      44.973  31.191  28.816  1.00  0.00     0.167 HD
ATOM     47  C   UNL A   1      44.507  35.532  28.942  1.00  0.00     0.034 A 
ATOM     48  C   UNL A   1      46.342  28.835  28.194  1.00  0.00     0.034 A 
ATOM     49  C   UNL A   1      45.884  35.320  28.593  1.00  0.00     0.049 A 
ATOM     50  C   UNL A   1      47.315  29.960  27.949  1.00  0.00     0.074 A 
ATOM     51  C   UNL A   1      46.871  36.264  28.375  1.00  0.00     0.029 A 
ATOM     52  N   UNL A   1      46.471  34.078  28.410  1.00  0.00    -0.354 N 
ATOM     53  N   UNL A   1      47.148  31.249  28.115  1.00  0.00    -0.248 NA
ATOM     54  C   UNL A   1      48.664  29.587  27.495  1.00  0.00     0.031 C 
ATOM     55  C   UNL A   1      48.053  35.594  28.044  1.00  0.00     0.029 A 
ATOM     56  C   UNL A   1      47.807  34.231  28.079  1.00  0.00     0.049 A 
ATOM     57  H   UNL A   1      46.006  33.215  28.501  1.00  0.00     0.167 HD
ATOM     58  C   UNL A   1      48.376  31.835  27.827  1.00  0.00     0.074 A 
ATOM     59  C   UNL A   1      49.286  30.757  27.497  1.00  0.00     0.031 C 
ATOM     60  C   UNL A   1      48.718  33.147  27.818  1.00  0.00     0.034 A 
BRANCH  47  61
ATOM     61  C   UNL A   1      44.017  36.951  29.062  1.00  0.00     0.023 A 
ATOM     62  C   UNL A   1      44.236  37.666  30.256  1.00  0.00     0.012 A 
ATOM     63  C   UNL A   1      43.397  37.594  27.973  1.00  0.00     0.148 A 
ATOM     64  C   UNL A   1      43.818  38.991  30.376  1.00  0.00     0.002 A 
ATOM     65  C   UNL A   1      43.024  38.928  28.084  1.00  0.00     0.091 A 
ATOM     66  F   UNL A   1      43.177  36.888  26.855  1.00  0.00    -0.205 F 
ATOM     67  C   UNL A   1      43.225  39.624  29.288  1.00  0.00     0.022 A 
BRANCH  65  68
ATOM     68  S   UNL A   1      42.327  39.856  26.714  1.00  0.00     0.127 S 
ATOM     69  O   UNL A   1      41.835  41.056  27.390  1.00  0.00    -0.237 OA
ATOM     70  O   UNL A   1      43.497  40.072  25.862  1.00  0.00    -0.237 OA
ATOM     71  O   UNL A   1      41.300  39.003  26.132  1.00  0.00    -0.744 OA
ENDBRANCH  65  68
ENDBRANCH  47  61
BRANCH  48  72
ATOM     72  C   UNL A   1      46.751  27.418  27.976  1.00  0.00     0.023 A 
ATOM     73  C   UNL A   1      47.371  26.701  29.017  1.00  0.00     0.012 A 
ATOM     74  C   UNL A   1      46.524  26.776  26.743  1.00  0.00     0.148 A 
ATOM     75  C   UNL A   1      47.792  25.385  28.823  1.00  0.00     0.002 A 
ATOM     76  C   UNL A   1      46.893  25.446  26.574  1.00  0.00     0.091 A 
ATOM     77  F   UNL A   1      45.950  27.479  25.756  1.00  0.00    -0.205 F 
ATOM     78  C   UNL A   1      47.544  24.755  27.607  1.00  0.00     0.022 A 
BRANCH  76  79
ATOM     79  S   UNL A   1      46.490  24.522  25.088  1.00  0.00     0.127 S 
ATOM     80  O   UNL A   1      47.501  25.002  24.152  1.00  0.00    -0.237 OA
ATOM     81  O   UNL A   1      46.668  23.139  25.533  1.00  0.00    -0.237 OA
ATOM     82  O   UNL A   1      45.111  24.873  24.774  1.00  0.00    -0.744 OA
ENDBRANCH  76  79
ENDBRANCH  48  72
BRANCH  60  83
ATOM     83  C   UNL A   1      50.145  33.501  27.488  1.00  0.00     0.023 A 
ATOM     84  C   UNL A   1      51.143  33.390  28.477  1.00  0.00     0.012 A 
ATOM     85  C   UNL A   1      50.510  33.877  26.180  1.00  0.00     0.148 A 
ATOM     86  C   UNL A   1      52.473  33.685  28.180  1.00  0.00     0.002 A 
ATOM     87  C   UNL A   1      51.845  34.124  25.879  1.00  0.00     0.091 A 
ATOM     88  F   UNL A   1      49.546  33.998  25.255  1.00  0.00    -0.205 F 
ATOM     89  C   UNL A   1      52.826  34.040  26.879  1.00  0.00     0.022 A 
BRANCH  87  90
ATOM     90  S   UNL A   1      52.392  34.491  24.207  1.00  0.00     0.127 S 
ATOM     91  O   UNL A   1      51.594  35.672  23.885  1.00  0.00    -0.237 OA
ATOM     92  O   UNL A   1      53.820  34.753  24.394  1.00  0.00    -0.237 OA
ATOM     93  O   UNL A   1      52.099  33.297  23.425  1.00  0.00    -0.744 OA
ENDBRANCH  87  90
ENDBRANCH  60  83
ENDBRANCH  34  35
ENDBRANCH  27  29
ENDBRANCH  26  27
ENDBRANCH  25  26
ENDBRANCH  24  25
ENDBRANCH  23  24
ENDBRANCH   1  23
TORSDOF 23
ENDMDL
MODEL 2
REMARK VINA RESULT:      -8.4      3.605      9.846
REMARK SMILES C=CC[N@H+](CC(=O)OCCOCCOC(=O)c1ccc(-c2c3nc(c(-c4cccc(S(=O)(=O)[O-])c4F)c4ccc([nH]4)c(-c4cccc(S(=O)(=O)[O-])c4F)c4nc(c(-c5cccc(S(=O)(=O)[O-])c5F)c5ccc2[nH]5)C=C4)C=C3)cc1)[C@H](C)c1ccc(F)cc1O
REMARK SMILES IDX 10 1 9 2 8 3 6 4 7 5 5 6 4 7 3 9 2 10 1 11 80 12 81 13 82 14
REMARK SMILES IDX 83 15 88 16 84 17 87 18 85 19 86 20 89 21 11 23 12 24 13 25
REMARK SMILES IDX 14 26 15 27 16 28 17 29 18 30 79 31 19 32 78 33 20 34 21 35
REMARK SMILES IDX 22 36 72 37 23 38 77 39 71 40 73 41 24 42 76 43 70 44 69 45
REMARK SMILES IDX 25 47 57 48 37 49 56 50 38 51 41 52 55 53 74 54 39 55 40 56
REMARK SMILES IDX 54 58 75 59 42 60 26 61 27 62 35 63 28 64 30 65 36 66 29 67
REMARK SMILES IDX 31 68 32 69 33 70 34 71 58 72 59 73 67 74 60 75 62 76 68 77
REMARK SMILES IDX 61 78 63 79 64 80 65 81 66 82 43 83 44 84 52 85 45 86 47 87
REMARK SMILES IDX 53 88 46 89 48 90 49 91 50 92 51 93
REMARK H PARENT 4 8 89 22 73 46 41 57
REMARK Flexibility Score: inf
ROOT
ATOM      1  C   UNL A   1      44.222  18.858  24.557  1.00  0.00     0.202 C 
ENDROOT
BRANCH   1   2
ATOM      2  C   UNL A   1      43.285  18.939  25.762  1.00  0.00     0.261 C 
BRANCH   2   3
ATOM      3  O   UNL A   1      42.018  19.509  25.387  1.00  0.00    -0.459 OA
BRANCH   3   4
ATOM      4  C   UNL A   1      41.312  20.112  26.372  1.00  0.00     0.361 C 
ATOM      5  O   UNL A   1      41.075  19.606  27.466  1.00  0.00    -0.245 OA
BRANCH   4   6
ATOM      6  C   UNL A   1      40.726  21.462  25.978  1.00  0.00     0.387 C 
BRANCH   6   7
ATOM      7  N   UNL A   1      39.646  22.082  26.843  1.00  0.00    -0.316 N 
ATOM      8  H   UNL A   1      39.050  21.395  27.303  1.00  0.00     0.349 HD
BRANCH   7   9
ATOM      9  C   UNL A   1      40.303  22.856  27.930  1.00  0.00     0.291 C 
BRANCH   9  10
ATOM     10  C   UNL A   1      41.611  23.517  27.603  1.00  0.00     0.025 C 
ATOM     11  C   UNL A   1      42.078  24.621  28.202  1.00  0.00     0.010 C 
ENDBRANCH   9  10
ENDBRANCH   7   9
BRANCH   7  12
ATOM     12  C   UNL A   1      38.756  22.908  25.932  1.00  0.00     0.216 C 
ATOM     13  C   UNL A   1      38.828  24.424  26.219  1.00  0.00     0.081 C 
BRANCH  12  14
ATOM     14  C   UNL A   1      37.319  22.372  25.761  1.00  0.00     0.051 A 
ATOM     15  C   UNL A   1      36.194  23.174  26.056  1.00  0.00     0.017 A 
ATOM     16  C   UNL A   1      37.060  21.077  25.270  1.00  0.00     0.127 A 
ATOM     17  C   UNL A   1      34.892  22.685  25.925  1.00  0.00     0.040 A 
ATOM     18  C   UNL A   1      35.763  20.579  25.140  1.00  0.00     0.085 A 
ATOM     19  C   UNL A   1      34.689  21.387  25.482  1.00  0.00     0.126 A 
ATOM     20  F   UNL A   1      33.439  20.914  25.388  1.00  0.00    -0.207 F 
BRANCH  16  21
ATOM     21  O   UNL A   1      38.081  20.223  24.952  1.00  0.00    -0.507 OA
ATOM     22  H   UNL A   1      38.638  20.408  24.222  1.00  0.00     0.293 HD
ENDBRANCH  16  21
ENDBRANCH  12  14
ENDBRANCH   7  12
ENDBRANCH   6   7
ENDBRANCH   4   6
ENDBRANCH   3   4
ENDBRANCH   2   3
ENDBRANCH   1   2
BRANCH   1  23
ATOM     23  O   UNL A   1      45.161  19.929  24.451  1.00  0.00    -0.374 OA
BRANCH  23  24
ATOM     24  C   UNL A   1      44.679  21.238  24.765  1.00  0.00     0.202 C 
BRANCH  24  25
ATOM     25  C   UNL A   1      45.009  22.321  23.735  1.00  0.00     0.261 C 
BRANCH  25  26
ATOM     26  O   UNL A   1      44.899  23.637  24.310  1.00  0.00    -0.460 OA
BRANCH  26  27
ATOM     27  C   UNL A   1      45.779  23.901  25.302  1.00  0.00     0.338 C 
ATOM     28  O   UNL A   1      46.889  23.404  25.456  1.00  0.00    -0.246 OA
BRANCH  27  29
ATOM     29  C   UNL A   1      45.306  25.035  26.115  1.00  0.00     0.060 A 
ATOM     30  C   UNL A   1      44.551  26.019  25.468  1.00  0.00     0.016 A 
ATOM     31  C   UNL A   1      45.652  25.181  27.459  1.00  0.00     0.016 A 
ATOM     32  C   UNL A   1      44.204  27.188  26.142  1.00  0.00     0.010 A 
ATOM     33  C   UNL A   1      45.277  26.343  28.144  1.00  0.00     0.010 A 
ATOM     34  C   UNL A   1      44.605  27.379  27.472  1.00  0.00    -0.014 A 
BRANCH  34  35
ATOM     35  C   UNL A   1      44.484  28.733  28.075  1.00  0.00     0.031 A 
ATOM     36  C   UNL A   1      45.682  29.649  28.058  1.00  0.00     0.074 A 
ATOM     37  C   UNL A   1      43.319  29.164  28.592  1.00  0.00     0.049 A 
ATOM     38  N   UNL A   1      45.789  30.881  28.486  1.00  0.00    -0.248 NA
ATOM     39  C   UNL A   1      46.928  29.105  27.492  1.00  0.00     0.031 C 
ATOM     40  C   UNL A   1      42.092  28.374  28.690  1.00  0.00     0.029 A 
ATOM     41  N   UNL A   1      42.982  30.376  29.142  1.00  0.00    -0.354 N 
ATOM     42  C   UNL A   1      47.115  31.243  28.277  1.00  0.00     0.074 A 
ATOM     43  C   UNL A   1      47.782  30.095  27.705  1.00  0.00     0.031 C 
ATOM     44  C   UNL A   1      41.139  29.118  29.279  1.00  0.00     0.029 A 
ATOM     45  C   UNL A   1      41.690  30.432  29.610  1.00  0.00     0.049 A 
ATOM     46  H   UNL A   1      43.607  31.135  29.199  1.00  0.00     0.167 HD
ATOM     47  C   UNL A   1      47.722  32.429  28.514  1.00  0.00     0.034 A 
ATOM     48  C   UNL A   1      41.028  31.427  30.235  1.00  0.00     0.034 A 
ATOM     49  C   UNL A   1      47.052  33.591  29.030  1.00  0.00     0.049 A 
ATOM     50  C   UNL A   1      41.716  32.751  30.448  1.00  0.00     0.074 A 
ATOM     51  C   UNL A   1      47.566  34.859  29.238  1.00  0.00     0.029 A 
ATOM     52  N   UNL A   1      45.723  33.629  29.419  1.00  0.00    -0.354 N 
ATOM     53  N   UNL A   1      42.930  33.116  30.114  1.00  0.00    -0.248 NA
ATOM     54  C   UNL A   1      40.926  33.818  31.083  1.00  0.00     0.031 C 
ATOM     55  C   UNL A   1      46.551  35.660  29.769  1.00  0.00     0.029 A 
ATOM     56  C   UNL A   1      45.398  34.898  29.869  1.00  0.00     0.049 A 
ATOM     57  H   UNL A   1      45.101  32.866  29.381  1.00  0.00     0.167 HD
ATOM     58  C   UNL A   1      43.035  34.460  30.460  1.00  0.00     0.074 A 
ATOM     59  C   UNL A   1      41.752  34.851  31.009  1.00  0.00     0.031 C 
ATOM     60  C   UNL A   1      44.100  35.291  30.351  1.00  0.00     0.034 A 
BRANCH  47  61
ATOM     61  C   UNL A   1      49.185  32.548  28.177  1.00  0.00     0.023 A 
ATOM     62  C   UNL A   1      50.154  32.153  29.122  1.00  0.00     0.012 A 
ATOM     63  C   UNL A   1      49.599  32.991  26.906  1.00  0.00     0.148 A 
ATOM     64  C   UNL A   1      51.512  32.225  28.818  1.00  0.00     0.002 A 
ATOM     65  C   UNL A   1      50.953  33.018  26.594  1.00  0.00     0.091 A 
ATOM     66  F   UNL A   1      48.662  33.383  26.030  1.00  0.00    -0.205 F 
ATOM     67  C   UNL A   1      51.910  32.645  27.552  1.00  0.00     0.022 A 
BRANCH  65  68
ATOM     68  S   UNL A   1      51.562  33.464  24.964  1.00  0.00     0.127 S 
ATOM     69  O   UNL A   1      51.461  32.191  24.253  1.00  0.00    -0.237 OA
ATOM     70  O   UNL A   1      50.595  34.478  24.542  1.00  0.00    -0.237 OA
ATOM     71  O   UNL A   1      52.916  33.962  25.164  1.00  0.00    -0.744 OA
ENDBRANCH  65  68
ENDBRANCH  47  61
BRANCH  48  72
ATOM     72  C   UNL A   1      39.613  31.230  30.661  1.00  0.00     0.023 A 
ATOM     73  C   UNL A   1      39.317  30.354  31.723  1.00  0.00     0.012 A 
ATOM     74  C   UNL A   1      38.560  31.912  30.021  1.00  0.00     0.148 A 
ATOM     75  C   UNL A   1      37.997  30.130  32.114  1.00  0.00     0.002 A 
ATOM     76  C   UNL A   1      37.251  31.729  30.454  1.00  0.00     0.091 A 
ATOM     77  F   UNL A   1      38.857  32.728  28.999  1.00  0.00    -0.205 F 
ATOM     78  C   UNL A   1      36.965  30.825  31.488  1.00  0.00     0.022 A 
BRANCH  76  79
ATOM     79  S   UNL A   1      35.881  32.684  29.791  1.00  0.00     0.127 S 
ATOM     80  O   UNL A   1      36.437  34.033  29.772  1.00  0.00    -0.237 OA
ATOM     81  O   UNL A   1      35.696  32.074  28.474  1.00  0.00    -0.237 OA
ATOM     82  O   UNL A   1      34.773  32.463  30.711  1.00  0.00    -0.744 OA
ENDBRANCH  76  79
ENDBRANCH  48  72
BRANCH  60  83
ATOM     83  C   UNL A   1      43.923  36.723  30.786  1.00  0.00     0.023 A 
ATOM     84  C   UNL A   1      44.191  37.090  32.120  1.00  0.00     0.012 A 
ATOM     85  C   UNL A   1      43.556  37.718  29.858  1.00  0.00     0.148 A 
ATOM     86  C   UNL A   1      44.059  38.416  32.532  1.00  0.00     0.002 A 
ATOM     87  C   UNL A   1      43.474  39.045  30.264  1.00  0.00     0.091 A 
ATOM     88  F   UNL A   1      43.285  37.350  28.597  1.00  0.00    -0.205 F 
ATOM     89  C   UNL A   1      43.713  39.394  31.602  1.00  0.00     0.022 A 
BRANCH  87  90
ATOM     90  S   UNL A   1      43.129  40.376  29.107  1.00  0.00     0.127 S 
ATOM     91  O   UNL A   1      44.168  40.171  28.099  1.00  0.00    -0.237 OA
ATOM     92  O   UNL A   1      41.773  40.058  28.656  1.00  0.00    -0.237 OA
ATOM     93  O   UNL A   1      43.230  41.607  29.879  1.00  0.00    -0.744 OA
ENDBRANCH  87  90
ENDBRANCH  60  83
ENDBRANCH  34  35
ENDBRANCH  27  29
ENDBRANCH  26  27
ENDBRANCH  25  26
ENDBRANCH  24  25
ENDBRANCH  23  24
ENDBRANCH   1  23
TORSDOF 23
ENDMDL
MODEL 3
REMARK VINA RESULT:      -8.3      4.877     11.319
REMARK SMILES C=CC[N@H+](CC(=O)OCCOCCOC(=O)c1ccc(-c2c3nc(c(-c4cccc(S(=O)(=O)[O-])c4F)c4ccc([nH]4)c(-c4cccc(S(=O)(=O)[O-])c4F)c4nc(c(-c5cccc(S(=O)(=O)[O-])c5F)c5ccc2[nH]5)C=C4)C=C3)cc1)[C@H](C)c1ccc(F)cc1O
REMARK SMILES IDX 10 1 9 2 8 3 6 4 7 5 5 6 4 7 3 9 2 10 1 11 80 12 81 13 82 14
REMARK SMILES IDX 83 15 88 16 84 17 87 18 85 19 86 20 89 21 11 23 12 24 13 25
REMARK SMILES IDX 14 26 15 27 16 28 17 29 18 30 79 31 19 32 78 33 20 34 21 35
REMARK SMILES IDX 22 36 72 37 23 38 77 39 71 40 73 41 24 42 76 43 70 44 69 45
REMARK SMILES IDX 25 47 57 48 37 49 56 50 38 51 41 52 55 53 74 54 39 55 40 56
REMARK SMILES IDX 54 58 75 59 42 60 26 61 27 62 35 63 28 64 30 65 36 66 29 67
REMARK SMILES IDX 31 68 32 69 33 70 34 71 58 72 59 73 67 74 60 75 62 76 68 77
REMARK SMILES IDX 61 78 63 79 64 80 65 81 66 82 43 83 44 84 52 85 45 86 47 87
REMARK SMILES IDX 53 88 46 89 48 90 49 91 50 92 51 93
REMARK H PARENT 4 8 89 22 73 46 41 57
REMARK Flexibility Score: inf
ROOT
ATOM      1  C   UNL A   1      42.510  41.288  30.184  1.00  0.00     0.202 C 
ENDROOT
BRANCH   1   2
ATOM      2  C   UNL A   1      41.838  40.482  29.073  1.00  0.00     0.261 C 
BRANCH   2   3
ATOM      3  O   UNL A   1      42.678  39.392  28.651  1.00  0.00    -0.459 OA
BRANCH   3   4
ATOM      4  C   UNL A   1      42.529  38.975  27.372  1.00  0.00     0.361 C 
ATOM      5  O   UNL A   1      41.513  39.144  26.701  1.00  0.00    -0.245 OA
BRANCH   4   6
ATOM      6  C   UNL A   1      43.704  38.165  26.842  1.00  0.00     0.387 C 
BRANCH   6   7
ATOM      7  N   UNL A   1      44.032  36.829  27.479  1.00  0.00    -0.316 N 
ATOM      8  H   UNL A   1      44.128  36.875  28.493  1.00  0.00     0.349 HD
BRANCH   7   9
ATOM      9  C   UNL A   1      42.907  35.894  27.211  1.00  0.00     0.291 C 
BRANCH   9  10
ATOM     10  C   UNL A   1      42.212  35.301  28.402  1.00  0.00     0.025 C 
ATOM     11  C   UNL A   1      40.913  35.463  28.686  1.00  0.00     0.010 C 
ENDBRANCH   9  10
ENDBRANCH   7   9
BRANCH   7  12
ATOM     12  C   UNL A   1      45.370  36.379  26.923  1.00  0.00     0.216 C 
ATOM     13  C   UNL A   1      45.664  34.884  27.174  1.00  0.00     0.081 C 
BRANCH  12  14
ATOM     14  C   UNL A   1      46.558  37.311  27.242  1.00  0.00     0.051 A 
ATOM     15  C   UNL A   1      47.042  37.463  28.560  1.00  0.00     0.017 A 
ATOM     16  C   UNL A   1      47.238  38.023  26.234  1.00  0.00     0.127 A 
ATOM     17  C   UNL A   1      48.102  38.323  28.857  1.00  0.00     0.040 A 
ATOM     18  C   UNL A   1      48.295  38.888  26.522  1.00  0.00     0.085 A 
ATOM     19  C   UNL A   1      48.709  39.039  27.836  1.00  0.00     0.126 A 
ATOM     20  F   UNL A   1      49.704  39.885  28.132  1.00  0.00    -0.207 F 
BRANCH  16  21
ATOM     21  O   UNL A   1      46.849  37.942  24.924  1.00  0.00    -0.507 OA
ATOM     22  H   UNL A   1      47.302  38.435  24.269  1.00  0.00     0.293 HD
ENDBRANCH  16  21
ENDBRANCH  12  14
ENDBRANCH   7  12
ENDBRANCH   6   7
ENDBRANCH   4   6
ENDBRANCH   3   4
ENDBRANCH   2   3
ENDBRANCH   1   2
BRANCH   1  23
ATOM     23  O   UNL A   1      41.644  41.691  31.245  1.00  0.00    -0.374 OA
BRANCH  23  24
ATOM     24  C   UNL A   1      42.233  42.457  32.299  1.00  0.00     0.202 C 
BRANCH  24  25
ATOM     25  C   UNL A   1      42.375  41.729  33.638  1.00  0.00     0.261 C 
BRANCH  25  26
ATOM     26  O   UNL A   1      42.522  40.309  33.446  1.00  0.00    -0.460 OA
BRANCH  26  27
ATOM     27  C   UNL A   1      43.531  39.741  34.142  1.00  0.00     0.338 C 
ATOM     28  O   UNL A   1      44.000  40.124  35.209  1.00  0.00    -0.246 OA
BRANCH  27  29
ATOM     29  C   UNL A   1      43.906  38.451  33.538  1.00  0.00     0.060 A 
ATOM     30  C   UNL A   1      43.896  38.368  32.141  1.00  0.00     0.016 A 
ATOM     31  C   UNL A   1      44.185  37.322  34.309  1.00  0.00     0.016 A 
ATOM     32  C   UNL A   1      44.092  37.140  31.513  1.00  0.00     0.010 A 
ATOM     33  C   UNL A   1      44.410  36.093  33.676  1.00  0.00     0.010 A 
ATOM     34  C   UNL A   1      44.304  35.985  32.278  1.00  0.00    -0.014 A 
BRANCH  34  35
ATOM     35  C   UNL A   1      44.218  34.655  31.617  1.00  0.00     0.031 A 
ATOM     36  C   UNL A   1      42.881  33.960  31.546  1.00  0.00     0.074 A 
ATOM     37  C   UNL A   1      45.298  34.090  31.047  1.00  0.00     0.049 A 
ATOM     38  N   UNL A   1      42.568  32.822  30.982  1.00  0.00    -0.248 NA
ATOM     39  C   UNL A   1      41.747  34.630  32.205  1.00  0.00     0.031 C 
ATOM     40  C   UNL A   1      46.651  34.643  31.062  1.00  0.00     0.029 A 
ATOM     41  N   UNL A   1      45.424  32.912  30.352  1.00  0.00    -0.354 N 
ATOM     42  C   UNL A   1      41.218  32.623  31.250  1.00  0.00     0.074 A 
ATOM     43  C   UNL A   1      40.774  33.745  32.045  1.00  0.00     0.031 C 
ATOM     44  C   UNL A   1      47.475  33.798  30.417  1.00  0.00     0.029 A 
ATOM     45  C   UNL A   1      46.713  32.640  29.955  1.00  0.00     0.049 A 
ATOM     46  H   UNL A   1      44.665  32.316  30.158  1.00  0.00     0.167 HD
ATOM     47  C   UNL A   1      40.410  31.613  30.850  1.00  0.00     0.034 A 
ATOM     48  C   UNL A   1      47.219  31.578  29.295  1.00  0.00     0.034 A 
ATOM     49  C   UNL A   1      40.831  30.525  30.012  1.00  0.00     0.049 A 
ATOM     50  C   UNL A   1      46.288  30.488  28.826  1.00  0.00     0.074 A 
ATOM     51  C   UNL A   1      40.069  29.492  29.496  1.00  0.00     0.029 A 
ATOM     52  N   UNL A   1      42.128  30.327  29.566  1.00  0.00    -0.354 N 
ATOM     53  N   UNL A   1      44.989  30.391  28.970  1.00  0.00    -0.248 NA
ATOM     54  C   UNL A   1      46.889  29.384  28.061  1.00  0.00     0.031 C 
ATOM     55  C   UNL A   1      40.909  28.658  28.751  1.00  0.00     0.029 A 
ATOM     56  C   UNL A   1      42.189  29.186  28.783  1.00  0.00     0.049 A 
ATOM     57  H   UNL A   1      42.892  30.910  29.775  1.00  0.00     0.167 HD
ATOM     58  C   UNL A   1      44.613  29.241  28.283  1.00  0.00     0.074 A 
ATOM     59  C   UNL A   1      45.820  28.688  27.702  1.00  0.00     0.031 C 
ATOM     60  C   UNL A   1      43.384  28.683  28.156  1.00  0.00     0.034 A 
BRANCH  47  61
ATOM     61  C   UNL A   1      38.967  31.658  31.280  1.00  0.00     0.023 A 
ATOM     62  C   UNL A   1      38.618  31.276  32.592  1.00  0.00     0.012 A 
ATOM     63  C   UNL A   1      37.969  32.135  30.409  1.00  0.00     0.148 A 
ATOM     64  C   UNL A   1      37.293  31.339  33.019  1.00  0.00     0.002 A 
ATOM     65  C   UNL A   1      36.658  32.238  30.857  1.00  0.00     0.091 A 
ATOM     66  F   UNL A   1      38.319  32.471  29.160  1.00  0.00    -0.205 F 
ATOM     67  C   UNL A   1      36.317  31.832  32.157  1.00  0.00     0.022 A 
BRANCH  65  68
ATOM     68  S   UNL A   1      35.344  32.936  29.851  1.00  0.00     0.127 S 
ATOM     69  O   UNL A   1      35.040  31.824  28.951  1.00  0.00    -0.237 OA
ATOM     70  O   UNL A   1      34.309  33.215  30.847  1.00  0.00    -0.237 OA
ATOM     71  O   UNL A   1      35.909  34.117  29.214  1.00  0.00    -0.744 OA
ENDBRANCH  65  68
ENDBRANCH  47  61
BRANCH  48  72
ATOM     72  C   UNL A   1      48.677  31.514  28.989  1.00  0.00     0.023 A 
ATOM     73  C   UNL A   1      49.510  30.658  29.734  1.00  0.00     0.012 A 
ATOM     74  C   UNL A   1      49.239  32.294  27.961  1.00  0.00     0.148 A 
ATOM     75  C   UNL A   1      50.882  30.608  29.487  1.00  0.00     0.002 A 
ATOM     76  C   UNL A   1      50.597  32.197  27.680  1.00  0.00     0.091 A 
ATOM     77  F   UNL A   1      48.434  33.118  27.274  1.00  0.00    -0.205 F 
ATOM     78  C   UNL A   1      51.424  31.369  28.454  1.00  0.00     0.022 A 
BRANCH  76  79
ATOM     79  S   UNL A   1      51.349  33.039  26.283  1.00  0.00     0.127 S 
ATOM     80  O   UNL A   1      52.731  32.577  26.361  1.00  0.00    -0.237 OA
ATOM     81  O   UNL A   1      50.581  32.504  25.157  1.00  0.00    -0.237 OA
ATOM     82  O   UNL A   1      51.137  34.460  26.526  1.00  0.00    -0.744 OA
ENDBRANCH  76  79
ENDBRANCH  48  72
BRANCH  60  83
ATOM     83  C   UNL A   1      43.260  27.433  27.323  1.00  0.00     0.023 A 
ATOM     84  C   UNL A   1      43.027  27.534  25.937  1.00  0.00     0.012 A 
ATOM     85  C   UNL A   1      43.444  26.162  27.901  1.00  0.00     0.148 A 
ATOM     86  C   UNL A   1      42.939  26.388  25.148  1.00  0.00     0.002 A 
ATOM     87  C   UNL A   1      43.403  25.026  27.100  1.00  0.00     0.091 A 
ATOM     88  F   UNL A   1      43.646  26.082  29.225  1.00  0.00    -0.205 F 
ATOM     89  C   UNL A   1      43.139  25.136  25.726  1.00  0.00     0.022 A 
BRANCH  87  90
ATOM     90  S   UNL A   1      43.746  23.387  27.752  1.00  0.00     0.127 S 
ATOM     91  O   UNL A   1      42.644  23.204  28.694  1.00  0.00    -0.237 OA
ATOM     92  O   UNL A   1      43.669  22.549  26.554  1.00  0.00    -0.237 OA
ATOM     93  O   UNL A   1      45.076  23.468  28.342  1.00  0.00    -0.744 OA
ENDBRANCH  87  90
ENDBRANCH  60  83
ENDBRANCH  34  35
ENDBRANCH  27  29
ENDBRANCH  26  27
ENDBRANCH  25  26
ENDBRANCH  24  25
ENDBRANCH  23  24
ENDBRANCH   1  23
TORSDOF 23
ENDMDL
