MODEL 1
REMARK VINA RESULT:     -10.6      0.000      0.000
REMARK SMILES COc1ccc(CCc2nnc(NC(=O)[C@@H]3[C@@H](C(=O)OCCOCCOC(=O)c4ccc(-c5c6nc(c(-c7cccc(S(=O)(=O)[O-])c7F)c7ccc([nH]7)c(-c7cccc(S(=O)(=O)[O-])c7F)c7nc(c(-c8cccc(S(=O)(=O)[O-])c8F)c8ccc5[nH]8)C=C7)C=C6)cc4)C3(C)C)s2)cc1
REMARK SMILES IDX 21 1 20 2 18 3 19 4 17 5 16 6 92 7 93 8 94 9 14 10 13 11
REMARK SMILES IDX 15 13 12 14 9 15 10 16 95 17 11 18 8 19 7 20 6 21 3 22 4 23
REMARK SMILES IDX 97 24 5 25 96 26 2 27 1 28 22 29 23 30 24 31 25 32 26 33
REMARK SMILES IDX 27 34 28 35 29 36 30 37 91 38 31 39 90 40 32 41 33 42 34 43
REMARK SMILES IDX 84 44 35 45 89 46 83 47 85 48 36 49 88 50 82 51 81 52 37 54
REMARK SMILES IDX 69 55 49 56 68 57 50 58 53 59 67 60 86 61 51 62 52 63 66 65
REMARK SMILES IDX 87 66 54 67 38 68 39 69 47 70 40 71 42 72 48 73 41 74 43 75
REMARK SMILES IDX 44 76 45 77 46 78 70 79 71 80 79 81 72 82 74 83 80 84 73 85
REMARK SMILES IDX 75 86 76 87 77 88 78 89 55 90 56 91 64 92 57 93 59 94 65 95
REMARK SMILES IDX 58 96 60 97 61 98 62 99 63 100
REMARK H PARENT 13 12 85 53 53 64
REMARK Flexibility Score: inf
ROOT
ATOM      1  C   UNL A   1      37.177  21.580  24.648  1.00  0.00     0.261 C 
ENDROOT
BRANCH   1   2
ATOM      2  O   UNL A   1      36.885  22.434  23.535  1.00  0.00    -0.463 OA
BRANCH   2   3
ATOM      3  C   UNL A   1      35.601  22.852  23.477  1.00  0.00     0.310 C 
ATOM      4  O   UNL A   1      35.160  23.750  22.771  1.00  0.00    -0.252 OA
BRANCH   3   5
ATOM      5  C   UNL A   1      34.649  22.044  24.268  1.00  0.00     0.118 C 
ATOM      6  C   UNL A   1      33.272  22.692  24.486  1.00  0.00     0.100 C 
ATOM      7  C   UNL A   1      34.051  22.116  25.646  1.00  0.00    -0.009 C 
ATOM      8  C   UNL A   1      34.566  23.106  26.665  1.00  0.00     0.013 C 
ATOM      9  C   UNL A   1      33.560  20.833  26.271  1.00  0.00     0.013 C 
BRANCH   6  10
ATOM     10  C   UNL A   1      32.284  22.103  23.546  1.00  0.00     0.230 C 
ATOM     11  N   UNL A   1      31.485  22.973  22.835  1.00  0.00    -0.300 N 
ATOM     12  H   UNL A   1      31.024  22.628  22.037  1.00  0.00     0.172 HD
ATOM     13  O   UNL A   1      32.277  20.898  23.313  1.00  0.00    -0.274 OA
BRANCH  11  14
ATOM     14  C   UNL A   1      31.294  24.287  23.172  1.00  0.00     0.212 A 
ATOM     15  C   UNL A   1      31.225  26.643  23.064  1.00  0.00     0.119 A 
ATOM     16  N   UNL A   1      30.377  26.161  23.948  1.00  0.00    -0.142 NA
ATOM     17  S   UNL A   1      32.283  25.441  22.398  1.00  0.00    -0.080 S 
ATOM     18  N   UNL A   1      30.411  24.796  23.992  1.00  0.00    -0.120 NA
BRANCH  15  19
ATOM     19  C   UNL A   1      31.235  28.077  22.648  1.00  0.00     0.074 C 
BRANCH  19  20
ATOM     20  C   UNL A   1      30.842  29.079  23.740  1.00  0.00     0.043 C 
BRANCH  20  21
ATOM     21  C   UNL A   1      31.800  29.311  24.895  1.00  0.00    -0.047 A 
ATOM     22  C   UNL A   1      33.717  29.953  26.864  1.00  0.00     0.118 A 
ATOM     23  C   UNL A   1      32.410  30.400  26.992  1.00  0.00     0.046 A 
ATOM     24  C   UNL A   1      34.061  29.127  25.796  1.00  0.00     0.046 A 
ATOM     25  C   UNL A   1      31.468  30.094  26.009  1.00  0.00     0.007 A 
ATOM     26  C   UNL A   1      33.109  28.813  24.817  1.00  0.00     0.007 A 
BRANCH  22  27
ATOM     27  O   UNL A   1      34.586  30.339  27.846  1.00  0.00    -0.497 OA
ATOM     28  C   UNL A   1      34.981  31.702  27.727  1.00  0.00     0.278 C 
ENDBRANCH  22  27
ENDBRANCH  20  21
ENDBRANCH  19  20
ENDBRANCH  15  19
ENDBRANCH  11  14
ENDBRANCH   6  10
ENDBRANCH   3   5
ENDBRANCH   2   3
ENDBRANCH   1   2
BRANCH   1  29
ATOM     29  C   UNL A   1      38.139  22.260  25.624  1.00  0.00     0.202 C 
BRANCH  29  30
ATOM     30  O   UNL A   1      39.231  21.481  26.116  1.00  0.00    -0.374 OA
BRANCH  30  31
ATOM     31  C   UNL A   1      39.338  20.123  25.690  1.00  0.00     0.202 C 
BRANCH  31  32
ATOM     32  C   UNL A   1      40.456  19.261  26.290  1.00  0.00     0.261 C 
BRANCH  32  33
ATOM     33  O   UNL A   1      41.547  19.024  25.386  1.00  0.00    -0.460 OA
BRANCH  33  34
ATOM     34  C   UNL A   1      42.767  19.337  25.894  1.00  0.00     0.338 C 
ATOM     35  O   UNL A   1      43.729  18.593  25.998  1.00  0.00    -0.246 OA
BRANCH  34  36
ATOM     36  C   UNL A   1      42.864  20.783  26.166  1.00  0.00     0.060 A 
ATOM     37  C   UNL A   1      43.075  21.622  25.065  1.00  0.00     0.016 A 
ATOM     38  C   UNL A   1      42.841  21.306  27.461  1.00  0.00     0.016 A 
ATOM     39  C   UNL A   1      43.321  22.979  25.258  1.00  0.00     0.010 A 
ATOM     40  C   UNL A   1      43.093  22.671  27.653  1.00  0.00     0.010 A 
ATOM     41  C   UNL A   1      43.374  23.505  26.556  1.00  0.00    -0.014 A 
BRANCH  41  42
ATOM     42  C   UNL A   1      43.828  24.906  26.736  1.00  0.00     0.031 A 
ATOM     43  C   UNL A   1      42.884  25.926  27.314  1.00  0.00     0.074 A 
ATOM     44  C   UNL A   1      45.094  25.253  26.447  1.00  0.00     0.049 A 
ATOM     45  N   UNL A   1      43.126  27.156  27.688  1.00  0.00    -0.248 NA
ATOM     46  C   UNL A   1      41.487  25.504  27.497  1.00  0.00     0.031 C 
ATOM     47  C   UNL A   1      46.098  24.364  25.864  1.00  0.00     0.029 A 
ATOM     48  N   UNL A   1      45.751  26.448  26.607  1.00  0.00    -0.354 N 
ATOM     49  C   UNL A   1      41.913  27.660  28.143  1.00  0.00     0.074 A 
ATOM     50  C   UNL A   1      40.930  26.610  27.971  1.00  0.00     0.031 C 
ATOM     51  C   UNL A   1      47.247  25.045  25.716  1.00  0.00     0.029 A 
ATOM     52  C   UNL A   1      47.060  26.414  26.191  1.00  0.00     0.049 A 
ATOM     53  H   UNL A   1      45.324  27.250  26.984  1.00  0.00     0.167 HD
ATOM     54  C   UNL A   1      41.645  28.874  28.682  1.00  0.00     0.034 A 
ATOM     55  C   UNL A   1      48.005  27.375  26.206  1.00  0.00     0.034 A 
ATOM     56  C   UNL A   1      42.622  29.913  28.866  1.00  0.00     0.049 A 
ATOM     57  C   UNL A   1      47.683  28.718  26.810  1.00  0.00     0.074 A 
ATOM     58  C   UNL A   1      42.460  31.158  29.449  1.00  0.00     0.029 A 
ATOM     59  N   UNL A   1      43.946  29.836  28.455  1.00  0.00    -0.354 N 
ATOM     60  N   UNL A   1      46.573  29.124  27.379  1.00  0.00    -0.248 NA
ATOM     61  C   UNL A   1      48.760  29.718  26.812  1.00  0.00     0.031 C 
ATOM     62  C   UNL A   1      43.681  31.840  29.374  1.00  0.00     0.029 A 
ATOM     63  C   UNL A   1      44.608  31.013  28.761  1.00  0.00     0.049 A 
ATOM     64  H   UNL A   1      44.353  29.058  28.012  1.00  0.00     0.167 HD
ATOM     65  C   UNL A   1      46.827  30.414  27.833  1.00  0.00     0.074 A 
ATOM     66  C   UNL A   1      48.206  30.709  27.497  1.00  0.00     0.031 C 
ATOM     67  C   UNL A   1      45.992  31.282  28.459  1.00  0.00     0.034 A 
BRANCH  54  68
ATOM     68  C   UNL A   1      40.236  29.124  29.153  1.00  0.00     0.023 A 
ATOM     69  C   UNL A   1      39.247  29.486  28.214  1.00  0.00     0.012 A 
ATOM     70  C   UNL A   1      39.878  28.971  30.506  1.00  0.00     0.148 A 
ATOM     71  C   UNL A   1      37.934  29.725  28.618  1.00  0.00     0.002 A 
ATOM     72  C   UNL A   1      38.558  29.174  30.895  1.00  0.00     0.091 A 
ATOM     73  F   UNL A   1      40.833  28.653  31.390  1.00  0.00    -0.205 F 
ATOM     74  C   UNL A   1      37.588  29.561  29.956  1.00  0.00     0.022 A 
BRANCH  72  75
ATOM     75  S   UNL A   1      38.008  28.915  32.586  1.00  0.00     0.127 S 
ATOM     76  O   UNL A   1      38.920  29.782  33.331  1.00  0.00    -0.237 OA
ATOM     77  O   UNL A   1      36.623  29.385  32.541  1.00  0.00    -0.237 OA
ATOM     78  O   UNL A   1      38.150  27.487  32.834  1.00  0.00    -0.744 OA
ENDBRANCH  72  75
ENDBRANCH  54  68
BRANCH  55  79
ATOM     79  C   UNL A   1      49.376  27.069  25.711  1.00  0.00     0.023 A 
ATOM     80  C   UNL A   1      50.259  26.338  26.529  1.00  0.00     0.012 A 
ATOM     81  C   UNL A   1      49.795  27.459  24.424  1.00  0.00     0.148 A 
ATOM     82  C   UNL A   1      51.543  26.019  26.085  1.00  0.00     0.002 A 
ATOM     83  C   UNL A   1      51.055  27.093  23.967  1.00  0.00     0.091 A 
ATOM     84  F   UNL A   1      48.944  28.167  23.667  1.00  0.00    -0.205 F 
ATOM     85  C   UNL A   1      51.936  26.387  24.801  1.00  0.00     0.022 A 
BRANCH  83  86
ATOM     86  S   UNL A   1      51.606  27.408  22.286  1.00  0.00     0.127 S 
ATOM     87  O   UNL A   1      51.253  28.814  22.114  1.00  0.00    -0.237 OA
ATOM     88  O   UNL A   1      53.041  27.140  22.385  1.00  0.00    -0.237 OA
ATOM     89  O   UNL A   1      50.873  26.466  21.451  1.00  0.00    -0.744 OA
ENDBRANCH  83  86
ENDBRANCH  55  79
BRANCH  67  90
ATOM     90  C   UNL A   1      46.547  32.634  28.831  1.00  0.00     0.023 A 
ATOM     91  C   UNL A   1      47.232  32.794  30.053  1.00  0.00     0.012 A 
ATOM     92  C   UNL A   1      46.435  33.732  27.956  1.00  0.00     0.148 A 
ATOM     93  C   UNL A   1      47.761  34.032  30.415  1.00  0.00     0.002 A 
ATOM     94  C   UNL A   1      47.004  34.954  28.304  1.00  0.00     0.091 A 
ATOM     95  F   UNL A   1      45.762  33.573  26.806  1.00  0.00    -0.205 F 
ATOM     96  C   UNL A   1      47.655  35.109  29.537  1.00  0.00     0.022 A 
BRANCH  94  97
ATOM     97  S   UNL A   1      46.990  36.361  27.187  1.00  0.00     0.127 S 
ATOM     98  O   UNL A   1      46.722  35.720  25.901  1.00  0.00    -0.237 OA
ATOM     99  O   UNL A   1      45.886  37.169  27.705  1.00  0.00    -0.237 OA
ATOM    100  O   UNL A   1      48.301  36.982  27.325  1.00  0.00    -0.744 OA
ENDBRANCH  94  97
ENDBRANCH  67  90
ENDBRANCH  41  42
ENDBRANCH  34  36
ENDBRANCH  33  34
ENDBRANCH  32  33
ENDBRANCH  31  32
ENDBRANCH  30  31
ENDBRANCH  29  30
ENDBRANCH   1  29
TORSDOF 23
ENDMDL
MODEL 2
REMARK VINA RESULT:     -10.5      1.419      7.616
REMARK SMILES COc1ccc(CCc2nnc(NC(=O)[C@@H]3[C@@H](C(=O)OCCOCCOC(=O)c4ccc(-c5c6nc(c(-c7cccc(S(=O)(=O)[O-])c7F)c7ccc([nH]7)c(-c7cccc(S(=O)(=O)[O-])c7F)c7nc(c(-c8cccc(S(=O)(=O)[O-])c8F)c8ccc5[nH]8)C=C7)C=C6)cc4)C3(C)C)s2)cc1
REMARK SMILES IDX 21 1 20 2 18 3 19 4 17 5 16 6 92 7 93 8 94 9 14 10 13 11
REMARK SMILES IDX 15 13 12 14 9 15 10 16 95 17 11 18 8 19 7 20 6 21 3 22 4 23
REMARK SMILES IDX 97 24 5 25 96 26 2 27 1 28 22 29 23 30 24 31 25 32 26 33
REMARK SMILES IDX 27 34 28 35 29 36 30 37 91 38 31 39 90 40 32 41 33 42 34 43
REMARK SMILES IDX 84 44 35 45 89 46 83 47 85 48 36 49 88 50 82 51 81 52 37 54
REMARK SMILES IDX 69 55 49 56 68 57 50 58 53 59 67 60 86 61 51 62 52 63 66 65
REMARK SMILES IDX 87 66 54 67 38 68 39 69 47 70 40 71 42 72 48 73 41 74 43 75
REMARK SMILES IDX 44 76 45 77 46 78 70 79 71 80 79 81 72 82 74 83 80 84 73 85
REMARK SMILES IDX 75 86 76 87 77 88 78 89 55 90 56 91 64 92 57 93 59 94 65 95
REMARK SMILES IDX 58 96 60 97 61 98 62 99 63 100
REMARK H PARENT 13 12 85 53 53 64
REMARK Flexibility Score: inf
ROOT
ATOM      1  C   UNL A   1      36.207  24.284  25.520  1.00  0.00     0.261 C 
ENDROOT
BRANCH   1   2
ATOM      2  O   UNL A   1      35.128  23.341  25.502  1.00  0.00    -0.463 OA
BRANCH   2   3
ATOM      3  C   UNL A   1      34.896  22.787  24.291  1.00  0.00     0.310 C 
ATOM      4  O   UNL A   1      35.280  23.215  23.210  1.00  0.00    -0.252 OA
BRANCH   3   5
ATOM      5  C   UNL A   1      34.210  21.478  24.329  1.00  0.00     0.118 C 
ATOM      6  C   UNL A   1      32.677  21.549  24.407  1.00  0.00     0.100 C 
ATOM      7  C   UNL A   1      33.461  20.677  25.358  1.00  0.00    -0.009 C 
ATOM      8  C   UNL A   1      33.453  21.092  26.811  1.00  0.00     0.013 C 
ATOM      9  C   UNL A   1      33.394  19.180  25.177  1.00  0.00     0.013 C 
BRANCH   6  10
ATOM     10  C   UNL A   1      32.093  21.303  23.063  1.00  0.00     0.230 C 
ATOM     11  N   UNL A   1      31.637  22.395  22.357  1.00  0.00    -0.300 N 
ATOM     12  H   UNL A   1      31.495  22.292  21.389  1.00  0.00     0.172 HD
ATOM     13  O   UNL A   1      32.142  20.189  22.551  1.00  0.00    -0.274 OA
BRANCH  11  14
ATOM     14  C   UNL A   1      31.368  23.615  22.921  1.00  0.00     0.212 A 
ATOM     15  C   UNL A   1      31.184  25.945  23.246  1.00  0.00     0.119 A 
ATOM     16  N   UNL A   1      30.332  25.271  23.988  1.00  0.00    -0.142 NA
ATOM     17  S   UNL A   1      32.324  24.934  22.416  1.00  0.00    -0.080 S 
ATOM     18  N   UNL A   1      30.433  23.923  23.782  1.00  0.00    -0.120 NA
BRANCH  15  19
ATOM     19  C   UNL A   1      31.136  27.430  23.101  1.00  0.00     0.074 C 
BRANCH  19  20
ATOM     20  C   UNL A   1      30.588  28.189  24.315  1.00  0.00     0.043 C 
BRANCH  20  21
ATOM     21  C   UNL A   1      31.563  28.677  25.370  1.00  0.00    -0.047 A 
ATOM     22  C   UNL A   1      33.598  29.539  27.125  1.00  0.00     0.118 A 
ATOM     23  C   UNL A   1      32.754  30.464  26.529  1.00  0.00     0.046 A 
ATOM     24  C   UNL A   1      33.390  28.179  26.909  1.00  0.00     0.046 A 
ATOM     25  C   UNL A   1      31.758  30.037  25.649  1.00  0.00     0.007 A 
ATOM     26  C   UNL A   1      32.382  27.753  26.035  1.00  0.00     0.007 A 
BRANCH  22  27
ATOM     27  O   UNL A   1      34.576  30.047  27.934  1.00  0.00    -0.497 OA
ATOM     28  C   UNL A   1      34.739  31.454  27.785  1.00  0.00     0.278 C 
ENDBRANCH  22  27
ENDBRANCH  20  21
ENDBRANCH  19  20
ENDBRANCH  15  19
ENDBRANCH  11  14
ENDBRANCH   6  10
ENDBRANCH   3   5
ENDBRANCH   2   3
ENDBRANCH   1   2
BRANCH   1  29
ATOM     29  C   UNL A   1      37.529  23.597  25.869  1.00  0.00     0.202 C 
BRANCH  29  30
ATOM     30  O   UNL A   1      37.467  22.231  26.284  1.00  0.00    -0.374 OA
BRANCH  30  31
ATOM     31  C   UNL A   1      38.161  21.256  25.506  1.00  0.00     0.202 C 
BRANCH  31  32
ATOM     32  C   UNL A   1      39.690  21.194  25.618  1.00  0.00     0.261 C 
BRANCH  32  33
ATOM     33  O   UNL A   1      40.168  20.025  26.302  1.00  0.00    -0.460 OA
BRANCH  33  34
ATOM     34  C   UNL A   1      41.504  19.817  26.176  1.00  0.00     0.338 C 
ATOM     35  O   UNL A   1      42.052  18.810  25.756  1.00  0.00    -0.246 OA
BRANCH  34  36
ATOM     36  C   UNL A   1      42.254  21.056  26.456  1.00  0.00     0.060 A 
ATOM     37  C   UNL A   1      42.421  21.406  27.802  1.00  0.00     0.016 A 
ATOM     38  C   UNL A   1      42.708  21.903  25.441  1.00  0.00     0.016 A 
ATOM     39  C   UNL A   1      42.990  22.631  28.138  1.00  0.00     0.010 A 
ATOM     40  C   UNL A   1      43.276  23.137  25.784  1.00  0.00     0.010 A 
ATOM     41  C   UNL A   1      43.383  23.524  27.131  1.00  0.00    -0.014 A 
BRANCH  41  42
ATOM     42  C   UNL A   1      43.804  24.893  27.520  1.00  0.00     0.031 A 
ATOM     43  C   UNL A   1      45.240  25.306  27.351  1.00  0.00     0.074 A 
ATOM     44  C   UNL A   1      42.898  25.782  27.961  1.00  0.00     0.049 A 
ATOM     45  N   UNL A   1      45.781  26.489  27.489  1.00  0.00    -0.248 NA
ATOM     46  C   UNL A   1      46.193  24.249  26.976  1.00  0.00     0.031 C 
ATOM     47  C   UNL A   1      41.481  25.500  28.187  1.00  0.00     0.029 A 
ATOM     48  N   UNL A   1      43.037  27.106  28.295  1.00  0.00    -0.354 N 
ATOM     49  C   UNL A   1      47.135  26.321  27.226  1.00  0.00     0.074 A 
ATOM     50  C   UNL A   1      47.339  24.914  26.948  1.00  0.00     0.031 C 
ATOM     51  C   UNL A   1      40.879  26.619  28.622  1.00  0.00     0.029 A 
ATOM     52  C   UNL A   1      41.865  27.695  28.707  1.00  0.00     0.049 A 
ATOM     53  H   UNL A   1      43.894  27.588  28.244  1.00  0.00     0.167 HD
ATOM     54  C   UNL A   1      48.117  27.255  27.189  1.00  0.00     0.034 A 
ATOM     55  C   UNL A   1      41.614  28.961  29.093  1.00  0.00     0.034 A 
ATOM     56  C   UNL A   1      47.914  28.654  27.451  1.00  0.00     0.049 A 
ATOM     57  C   UNL A   1      42.721  29.981  29.045  1.00  0.00     0.074 A 
ATOM     58  C   UNL A   1      48.834  29.686  27.389  1.00  0.00     0.029 A 
ATOM     59  N   UNL A   1      46.709  29.220  27.842  1.00  0.00    -0.354 N 
ATOM     60  N   UNL A   1      43.961  29.838  28.642  1.00  0.00    -0.248 NA
ATOM     61  C   UNL A   1      42.381  31.349  29.462  1.00  0.00     0.031 C 
ATOM     62  C   UNL A   1      48.189  30.873  27.760  1.00  0.00     0.029 A 
ATOM     63  C   UNL A   1      46.862  30.583  28.035  1.00  0.00     0.049 A 
ATOM     64  H   UNL A   1      45.867  28.724  27.963  1.00  0.00     0.167 HD
ATOM     65  C   UNL A   1      44.540  31.100  28.729  1.00  0.00     0.074 A 
ATOM     66  C   UNL A   1      43.505  32.000  29.197  1.00  0.00     0.031 C 
ATOM     67  C   UNL A   1      45.816  31.478  28.460  1.00  0.00     0.034 A 
BRANCH  54  68
ATOM     68  C   UNL A   1      49.498  26.790  26.808  1.00  0.00     0.023 A 
ATOM     69  C   UNL A   1      50.224  25.974  27.701  1.00  0.00     0.012 A 
ATOM     70  C   UNL A   1      50.065  27.124  25.563  1.00  0.00     0.148 A 
ATOM     71  C   UNL A   1      51.505  25.528  27.376  1.00  0.00     0.002 A 
ATOM     72  C   UNL A   1      51.328  26.644  25.231  1.00  0.00     0.091 A 
ATOM     73  F   UNL A   1      49.375  27.922  24.737  1.00  0.00    -0.205 F 
ATOM     74  C   UNL A   1      52.053  25.855  26.140  1.00  0.00     0.022 A 
BRANCH  72  75
ATOM     75  S   UNL A   1      52.081  26.958  23.630  1.00  0.00     0.127 S 
ATOM     76  O   UNL A   1      50.950  26.758  22.726  1.00  0.00    -0.237 OA
ATOM     77  O   UNL A   1      52.520  28.349  23.758  1.00  0.00    -0.237 OA
ATOM     78  O   UNL A   1      53.166  25.995  23.509  1.00  0.00    -0.744 OA
ENDBRANCH  72  75
ENDBRANCH  54  68
BRANCH  55  79
ATOM     79  C   UNL A   1      40.228  29.354  29.475  1.00  0.00     0.023 A 
ATOM     80  C   UNL A   1      39.336  29.795  28.478  1.00  0.00     0.012 A 
ATOM     81  C   UNL A   1      39.778  29.255  30.805  1.00  0.00     0.148 A 
ATOM     82  C   UNL A   1      38.027  30.152  28.802  1.00  0.00     0.002 A 
ATOM     83  C   UNL A   1      38.458  29.561  31.113  1.00  0.00     0.091 A 
ATOM     84  F   UNL A   1      40.648  28.847  31.741  1.00  0.00    -0.205 F 
ATOM     85  C   UNL A   1      37.585  30.024  30.117  1.00  0.00     0.022 A 
BRANCH  83  86
ATOM     86  S   UNL A   1      37.761  29.307  32.749  1.00  0.00     0.127 S 
ATOM     87  O   UNL A   1      38.678  30.074  33.588  1.00  0.00    -0.237 OA
ATOM     88  O   UNL A   1      36.427  29.891  32.601  1.00  0.00    -0.237 OA
ATOM     89  O   UNL A   1      37.768  27.866  32.960  1.00  0.00    -0.744 OA
ENDBRANCH  83  86
ENDBRANCH  55  79
BRANCH  67  90
ATOM     90  C   UNL A   1      46.165  32.931  28.657  1.00  0.00     0.023 A 
ATOM     91  C   UNL A   1      46.010  33.836  27.587  1.00  0.00     0.012 A 
ATOM     92  C   UNL A   1      46.600  33.413  29.907  1.00  0.00     0.148 A 
ATOM     93  C   UNL A   1      46.319  35.187  27.747  1.00  0.00     0.002 A 
ATOM     94  C   UNL A   1      46.864  34.769  30.072  1.00  0.00     0.091 A 
ATOM     95  F   UNL A   1      46.764  32.539  30.912  1.00  0.00    -0.205 F 
ATOM     96  C   UNL A   1      46.736  35.655  28.990  1.00  0.00     0.022 A 
BRANCH  94  97
ATOM     97  S   UNL A   1      47.316  35.463  31.666  1.00  0.00     0.127 S 
ATOM     98  O   UNL A   1      47.432  36.886  31.352  1.00  0.00    -0.237 OA
ATOM     99  O   UNL A   1      46.166  35.117  32.503  1.00  0.00    -0.237 OA
ATOM    100  O   UNL A   1      48.554  34.795  32.047  1.00  0.00    -0.744 OA
ENDBRANCH  94  97
ENDBRANCH  67  90
ENDBRANCH  41  42
ENDBRANCH  34  36
ENDBRANCH  33  34
ENDBRANCH  32  33
ENDBRANCH  31  32
ENDBRANCH  30  31
ENDBRANCH  29  30
ENDBRANCH   1  29
TORSDOF 23
ENDMDL
MODEL 3
REMARK VINA RESULT:      -9.6      2.187      7.635
REMARK SMILES COc1ccc(CCc2nnc(NC(=O)[C@@H]3[C@@H](C(=O)OCCOCCOC(=O)c4ccc(-c5c6nc(c(-c7cccc(S(=O)(=O)[O-])c7F)c7ccc([nH]7)c(-c7cccc(S(=O)(=O)[O-])c7F)c7nc(c(-c8cccc(S(=O)(=O)[O-])c8F)c8ccc5[nH]8)C=C7)C=C6)cc4)C3(C)C)s2)cc1
REMARK SMILES IDX 21 1 20 2 18 3 19 4 17 5 16 6 92 7 93 8 94 9 14 10 13 11
REMARK SMILES IDX 15 13 12 14 9 15 10 16 95 17 11 18 8 19 7 20 6 21 3 22 4 23
REMARK SMILES IDX 97 24 5 25 96 26 2 27 1 28 22 29 23 30 24 31 25 32 26 33
REMARK SMILES IDX 27 34 28 35 29 36 30 37 91 38 31 39 90 40 32 41 33 42 34 43
REMARK SMILES IDX 84 44 35 45 89 46 83 47 85 48 36 49 88 50 82 51 81 52 37 54
REMARK SMILES IDX 69 55 49 56 68 57 50 58 53 59 67 60 86 61 51 62 52 63 66 65
REMARK SMILES IDX 87 66 54 67 38 68 39 69 47 70 40 71 42 72 48 73 41 74 43 75
REMARK SMILES IDX 44 76 45 77 46 78 70 79 71 80 79 81 72 82 74 83 80 84 73 85
REMARK SMILES IDX 75 86 76 87 77 88 78 89 55 90 56 91 64 92 57 93 59 94 65 95
REMARK SMILES IDX 58 96 60 97 61 98 62 99 63 100
REMARK H PARENT 13 12 85 53 53 64
REMARK Flexibility Score: inf
ROOT
ATOM      1  C   UNL A   1      35.795  24.264  25.352  1.00  0.00     0.261 C 
ENDROOT
BRANCH   1   2
ATOM      2  O   UNL A   1      34.903  23.143  25.374  1.00  0.00    -0.463 OA
BRANCH   2   3
ATOM      3  C   UNL A   1      34.884  22.426  24.228  1.00  0.00     0.310 C 
ATOM      4  O   UNL A   1      35.459  22.709  23.184  1.00  0.00    -0.252 OA
BRANCH   3   5
ATOM      5  C   UNL A   1      34.189  21.125  24.320  1.00  0.00     0.118 C 
ATOM      6  C   UNL A   1      32.654  21.210  24.353  1.00  0.00     0.100 C 
ATOM      7  C   UNL A   1      33.407  20.388  25.372  1.00  0.00    -0.009 C 
ATOM      8  C   UNL A   1      33.364  20.883  26.799  1.00  0.00     0.013 C 
ATOM      9  C   UNL A   1      33.334  18.883  25.272  1.00  0.00     0.013 C 
BRANCH   6  10
ATOM     10  C   UNL A   1      32.104  20.893  23.011  1.00  0.00     0.230 C 
ATOM     11  N   UNL A   1      31.734  21.950  22.208  1.00  0.00    -0.300 N 
ATOM     12  H   UNL A   1      31.620  21.780  21.245  1.00  0.00     0.172 HD
ATOM     13  O   UNL A   1      32.107  19.741  22.585  1.00  0.00    -0.274 OA
BRANCH  11  14
ATOM     14  C   UNL A   1      31.515  23.222  22.667  1.00  0.00     0.212 A 
ATOM     15  C   UNL A   1      31.423  25.576  22.796  1.00  0.00     0.119 A 
ATOM     16  N   UNL A   1      30.548  25.001  23.593  1.00  0.00    -0.142 NA
ATOM     17  S   UNL A   1      32.519  24.456  22.053  1.00  0.00    -0.080 S 
ATOM     18  N   UNL A   1      30.596  23.638  23.501  1.00  0.00    -0.120 NA
BRANCH  15  19
ATOM     19  C   UNL A   1      31.433  27.045  22.527  1.00  0.00     0.074 C 
BRANCH  19  20
ATOM     20  C   UNL A   1      30.776  27.912  23.608  1.00  0.00     0.043 C 
BRANCH  20  21
ATOM     21  C   UNL A   1      31.632  28.418  24.755  1.00  0.00    -0.047 A 
ATOM     22  C   UNL A   1      33.444  29.403  26.681  1.00  0.00     0.118 A 
ATOM     23  C   UNL A   1      32.394  30.196  26.242  1.00  0.00     0.046 A 
ATOM     24  C   UNL A   1      33.557  28.094  26.220  1.00  0.00     0.046 A 
ATOM     25  C   UNL A   1      31.509  29.712  25.278  1.00  0.00     0.007 A 
ATOM     26  C   UNL A   1      32.659  27.608  25.261  1.00  0.00     0.007 A 
BRANCH  22  27
ATOM     27  O   UNL A   1      34.293  29.973  27.589  1.00  0.00    -0.497 OA
ATOM     28  C   UNL A   1      35.525  29.271  27.708  1.00  0.00     0.278 C 
ENDBRANCH  22  27
ENDBRANCH  20  21
ENDBRANCH  19  20
ENDBRANCH  15  19
ENDBRANCH  11  14
ENDBRANCH   6  10
ENDBRANCH   3   5
ENDBRANCH   2   3
ENDBRANCH   1   2
BRANCH   1  29
ATOM     29  C   UNL A   1      37.158  23.892  25.939  1.00  0.00     0.202 C 
BRANCH  29  30
ATOM     30  O   UNL A   1      37.304  22.573  26.469  1.00  0.00    -0.374 OA
BRANCH  30  31
ATOM     31  C   UNL A   1      38.181  21.669  25.798  1.00  0.00     0.202 C 
BRANCH  31  32
ATOM     32  C   UNL A   1      39.690  21.808  26.041  1.00  0.00     0.261 C 
BRANCH  32  33
ATOM     33  O   UNL A   1      40.166  21.035  27.155  1.00  0.00    -0.460 OA
BRANCH  33  34
ATOM     34  C   UNL A   1      41.519  20.966  27.244  1.00  0.00     0.338 C 
ATOM     35  O   UNL A   1      42.220  19.997  27.001  1.00  0.00    -0.246 OA
BRANCH  34  36
ATOM     36  C   UNL A   1      42.093  22.298  27.516  1.00  0.00     0.060 A 
ATOM     37  C   UNL A   1      42.332  22.622  28.858  1.00  0.00     0.016 A 
ATOM     38  C   UNL A   1      42.311  23.240  26.509  1.00  0.00     0.016 A 
ATOM     39  C   UNL A   1      42.736  23.909  29.202  1.00  0.00     0.010 A 
ATOM     40  C   UNL A   1      42.713  24.536  26.860  1.00  0.00     0.010 A 
ATOM     41  C   UNL A   1      42.888  24.888  28.210  1.00  0.00    -0.014 A 
BRANCH  41  42
ATOM     42  C   UNL A   1      43.129  26.291  28.627  1.00  0.00     0.031 A 
ATOM     43  C   UNL A   1      44.517  26.866  28.539  1.00  0.00     0.074 A 
ATOM     44  C   UNL A   1      42.105  27.068  29.021  1.00  0.00     0.049 A 
ATOM     45  N   UNL A   1      44.911  28.101  28.712  1.00  0.00    -0.248 NA
ATOM     46  C   UNL A   1      45.602  25.927  28.214  1.00  0.00     0.031 C 
ATOM     47  C   UNL A   1      40.720  26.624  29.167  1.00  0.00     0.029 A 
ATOM     48  N   UNL A   1      42.075  28.395  29.367  1.00  0.00    -0.354 N 
ATOM     49  C   UNL A   1      46.288  28.090  28.523  1.00  0.00     0.074 A 
ATOM     50  C   UNL A   1      46.665  26.718  28.252  1.00  0.00     0.031 C 
ATOM     51  C   UNL A   1      39.972  27.664  29.573  1.00  0.00     0.029 A 
ATOM     52  C   UNL A   1      40.823  28.843  29.716  1.00  0.00     0.049 A 
ATOM     53  H   UNL A   1      42.873  28.971  29.366  1.00  0.00     0.167 HD
ATOM     54  C   UNL A   1      47.158  29.129  28.545  1.00  0.00     0.034 A 
ATOM     55  C   UNL A   1      40.409  30.069  30.093  1.00  0.00     0.034 A 
ATOM     56  C   UNL A   1      46.783  30.494  28.801  1.00  0.00     0.049 A 
ATOM     57  C   UNL A   1      41.395  31.208  30.110  1.00  0.00     0.074 A 
ATOM     58  C   UNL A   1      47.583  31.624  28.794  1.00  0.00     0.029 A 
ATOM     59  N   UNL A   1      45.502  30.915  29.126  1.00  0.00    -0.354 N 
ATOM     60  N   UNL A   1      42.663  31.210  29.776  1.00  0.00    -0.248 NA
ATOM     61  C   UNL A   1      40.879  32.524  30.514  1.00  0.00     0.031 C 
ATOM     62  C   UNL A   1      46.788  32.726  29.133  1.00  0.00     0.029 A 
ATOM     63  C   UNL A   1      45.489  32.285  29.334  1.00  0.00     0.049 A 
ATOM     64  H   UNL A   1      44.717  30.326  29.199  1.00  0.00     0.167 HD
ATOM     65  C   UNL A   1      43.089  32.529  29.900  1.00  0.00     0.074 A 
ATOM     66  C   UNL A   1      41.935  33.301  30.313  1.00  0.00     0.031 C 
ATOM     67  C   UNL A   1      44.327  33.051  29.704  1.00  0.00     0.034 A 
BRANCH  54  68
ATOM     68  C   UNL A   1      48.602  28.827  28.238  1.00  0.00     0.023 A 
ATOM     69  C   UNL A   1      49.526  28.725  29.298  1.00  0.00     0.012 A 
ATOM     70  C   UNL A   1      49.040  28.611  26.918  1.00  0.00     0.148 A 
ATOM     71  C   UNL A   1      50.870  28.447  29.047  1.00  0.00     0.002 A 
ATOM     72  C   UNL A   1      50.374  28.297  26.678  1.00  0.00     0.091 A 
ATOM     73  F   UNL A   1      48.155  28.739  25.919  1.00  0.00    -0.205 F 
ATOM     74  C   UNL A   1      51.291  28.225  27.739  1.00  0.00     0.022 A 
BRANCH  72  75
ATOM     75  S   UNL A   1      50.989  27.925  25.031  1.00  0.00     0.127 S 
ATOM     76  O   UNL A   1      50.011  26.945  24.563  1.00  0.00    -0.237 OA
ATOM     77  O   UNL A   1      50.911  29.227  24.367  1.00  0.00    -0.237 OA
ATOM     78  O   UNL A   1      52.344  27.427  25.219  1.00  0.00    -0.744 OA
ENDBRANCH  72  75
ENDBRANCH  54  68
BRANCH  55  79
ATOM     79  C   UNL A   1      38.969  30.299  30.399  1.00  0.00     0.023 A 
ATOM     80  C   UNL A   1      38.364  29.581  31.449  1.00  0.00     0.012 A 
ATOM     81  C   UNL A   1      38.210  31.248  29.688  1.00  0.00     0.148 A 
ATOM     82  C   UNL A   1      37.022  29.788  31.772  1.00  0.00     0.002 A 
ATOM     83  C   UNL A   1      36.890  31.488  30.048  1.00  0.00     0.091 A 
ATOM     84  F   UNL A   1      38.802  31.909  28.682  1.00  0.00    -0.205 F 
ATOM     85  C   UNL A   1      36.290  30.749  31.079  1.00  0.00     0.022 A 
BRANCH  83  86
ATOM     86  S   UNL A   1      35.903  32.791  29.303  1.00  0.00     0.127 S 
ATOM     87  O   UNL A   1      34.569  32.484  29.811  1.00  0.00    -0.237 OA
ATOM     88  O   UNL A   1      36.517  33.993  29.869  1.00  0.00    -0.237 OA
ATOM     89  O   UNL A   1      36.081  32.644  27.865  1.00  0.00    -0.744 OA
ENDBRANCH  83  86
ENDBRANCH  55  79
BRANCH  67  90
ATOM     90  C   UNL A   1      44.497  34.533  29.925  1.00  0.00     0.023 A 
ATOM     91  C   UNL A   1      44.920  35.006  31.184  1.00  0.00     0.012 A 
ATOM     92  C   UNL A   1      44.287  35.454  28.880  1.00  0.00     0.148 A 
ATOM     93  C   UNL A   1      45.092  36.371  31.410  1.00  0.00     0.002 A 
ATOM     94  C   UNL A   1      44.504  36.811  29.100  1.00  0.00     0.091 A 
ATOM     95  F   UNL A   1      43.864  34.995  27.692  1.00  0.00    -0.205 F 
ATOM     96  C   UNL A   1      44.894  37.272  30.367  1.00  0.00     0.022 A 
BRANCH  94  97
ATOM     97  S   UNL A   1      44.359  38.023  27.782  1.00  0.00     0.127 S 
ATOM     98  O   UNL A   1      45.604  37.815  27.045  1.00  0.00    -0.237 OA
ATOM     99  O   UNL A   1      43.154  37.584  27.076  1.00  0.00    -0.237 OA
ATOM    100  O   UNL A   1      44.224  39.311  28.448  1.00  0.00    -0.744 OA
ENDBRANCH  94  97
ENDBRANCH  67  90
ENDBRANCH  41  42
ENDBRANCH  34  36
ENDBRANCH  33  34
ENDBRANCH  32  33
ENDBRANCH  31  32
ENDBRANCH  30  31
ENDBRANCH  29  30
ENDBRANCH   1  29
TORSDOF 23
ENDMDL
