MODEL 1
REMARK VINA RESULT:     -11.3      0.000      0.000
REMARK SMILES O=C(OCCOCCOC(=O)[C@@]1([NH2+]C2CC2)CC[C@@H]([N@@H+]2CC[N@@H+]3CCC[C@@H]3C2)C1)c1ccc(-c2c3nc(c(-c4cccc(S(=O)(=O)[O-])c4F)c4ccc([nH]4)c(-c4cccc(S(=O)(=O)[O-])c4F)c4nc(c(-c5cccc(S(=O)(=O)[O-])c5F)c5ccc2[nH]5)C=C4)C=C3)cc1
REMARK SMILES IDX 5 1 4 2 3 3 2 4 1 5 30 6 31 7 92 8 32 9 91 10 33 11 34 12
REMARK SMILES IDX 35 13 85 14 36 15 90 16 84 17 86 18 37 19 89 20 83 21 82 22
REMARK SMILES IDX 38 24 70 25 50 26 69 27 51 28 54 29 68 30 87 31 52 32 53 33
REMARK SMILES IDX 67 35 88 36 55 37 39 38 40 39 48 40 41 41 43 42 49 43 42 44
REMARK SMILES IDX 44 45 45 46 46 47 47 48 71 49 72 50 80 51 73 52 75 53 81 54
REMARK SMILES IDX 74 55 76 56 77 57 78 58 79 59 56 60 57 61 65 62 58 63 60 64
REMARK SMILES IDX 66 65 59 66 61 67 62 68 63 69 64 70 6 71 7 72 8 73 9 74
REMARK SMILES IDX 10 75 11 76 12 77 17 78 29 79 18 80 19 81 13 82 14 85 15 86
REMARK SMILES IDX 16 87 20 88 21 89 28 90 22 92 27 93 23 94 26 95 24 96 25 98
REMARK H PARENT 86 23 54 34 13 83 13 84 20 91 23 97
REMARK Flexibility Score: inf
ROOT
ATOM      1  C   UNL A   1      38.534  20.983  25.555  1.00  0.00     0.202 C 
ENDROOT
BRANCH   1   2
ATOM      2  C   UNL A   1      39.065  19.554  25.660  1.00  0.00     0.261 C 
BRANCH   2   3
ATOM      3  O   UNL A   1      40.493  19.551  25.628  1.00  0.00    -0.460 OA
BRANCH   3   4
ATOM      4  C   UNL A   1      41.290  19.944  26.656  1.00  0.00     0.338 C 
ATOM      5  O   UNL A   1      41.793  19.081  27.373  1.00  0.00    -0.246 OA
BRANCH   4   6
ATOM      6  C   UNL A   1      41.661  21.375  26.884  1.00  0.00     0.060 A 
ATOM      7  C   UNL A   1      41.555  22.395  25.935  1.00  0.00     0.016 A 
ATOM      8  C   UNL A   1      42.087  21.725  28.174  1.00  0.00     0.016 A 
ATOM      9  C   UNL A   1      41.875  23.701  26.216  1.00  0.00     0.010 A 
ATOM     10  C   UNL A   1      42.384  23.055  28.485  1.00  0.00     0.010 A 
ATOM     11  C   UNL A   1      42.271  24.037  27.498  1.00  0.00    -0.014 A 
BRANCH  11  12
ATOM     12  C   UNL A   1      42.639  25.438  27.697  1.00  0.00     0.031 A 
ATOM     13  C   UNL A   1      43.927  25.907  27.113  1.00  0.00     0.074 A 
ATOM     14  C   UNL A   1      41.729  26.271  28.233  1.00  0.00     0.049 A 
ATOM     15  N   UNL A   1      44.484  27.079  27.199  1.00  0.00    -0.248 NA
ATOM     16  C   UNL A   1      44.683  24.930  26.306  1.00  0.00     0.031 C 
ATOM     17  C   UNL A   1      40.382  25.884  28.669  1.00  0.00     0.029 A 
ATOM     18  N   UNL A   1      41.783  27.613  28.478  1.00  0.00    -0.354 N 
ATOM     19  C   UNL A   1      45.692  26.961  26.529  1.00  0.00     0.074 A 
ATOM     20  C   UNL A   1      45.770  25.621  25.997  1.00  0.00     0.031 C 
ATOM     21  C   UNL A   1      39.741  26.967  29.136  1.00  0.00     0.029 A 
ATOM     22  C   UNL A   1      40.660  28.094  29.109  1.00  0.00     0.049 A 
ATOM     23  H   UNL A   1      42.548  28.180  28.228  1.00  0.00     0.167 HD
ATOM     24  C   UNL A   1      46.653  27.900  26.403  1.00  0.00     0.034 A 
ATOM     25  C   UNL A   1      40.443  29.302  29.659  1.00  0.00     0.034 A 
ATOM     26  C   UNL A   1      46.513  29.222  26.942  1.00  0.00     0.049 A 
ATOM     27  C   UNL A   1      41.558  30.305  29.556  1.00  0.00     0.074 A 
ATOM     28  C   UNL A   1      47.423  30.259  26.933  1.00  0.00     0.029 A 
ATOM     29  N   UNL A   1      45.377  29.681  27.598  1.00  0.00    -0.354 N 
ATOM     30  N   UNL A   1      42.713  30.192  28.940  1.00  0.00    -0.248 NA
ATOM     31  C   UNL A   1      41.349  31.598  30.216  1.00  0.00     0.031 C 
ATOM     32  C   UNL A   1      46.847  31.338  27.613  1.00  0.00     0.029 A 
ATOM     33  C   UNL A   1      45.564  30.985  28.009  1.00  0.00     0.049 A 
ATOM     34  H   UNL A   1      44.559  29.154  27.746  1.00  0.00     0.167 HD
ATOM     35  C   UNL A   1      43.361  31.404  29.116  1.00  0.00     0.074 A 
ATOM     36  C   UNL A   1      42.453  32.248  29.873  1.00  0.00     0.031 C 
ATOM     37  C   UNL A   1      44.598  31.790  28.716  1.00  0.00     0.034 A 
BRANCH  24  38
ATOM     38  C   UNL A   1      47.933  27.495  25.734  1.00  0.00     0.023 A 
ATOM     39  C   UNL A   1      49.010  26.993  26.490  1.00  0.00     0.012 A 
ATOM     40  C   UNL A   1      48.065  27.622  24.338  1.00  0.00     0.148 A 
ATOM     41  C   UNL A   1      50.210  26.648  25.867  1.00  0.00     0.002 A 
ATOM     42  C   UNL A   1      49.247  27.239  23.720  1.00  0.00     0.091 A 
ATOM     43  F   UNL A   1      47.039  28.137  23.645  1.00  0.00    -0.205 F 
ATOM     44  C   UNL A   1      50.325  26.762  24.483  1.00  0.00     0.022 A 
BRANCH  42  45
ATOM     45  S   UNL A   1      49.474  27.296  21.940  1.00  0.00     0.127 S 
ATOM     46  O   UNL A   1      49.039  28.658  21.629  1.00  0.00    -0.237 OA
ATOM     47  O   UNL A   1      50.913  27.070  21.811  1.00  0.00    -0.237 OA
ATOM     48  O   UNL A   1      48.635  26.241  21.390  1.00  0.00    -0.744 OA
ENDBRANCH  42  45
ENDBRANCH  24  38
BRANCH  25  49
ATOM     49  C   UNL A   1      39.172  29.600  30.379  1.00  0.00     0.023 A 
ATOM     50  C   UNL A   1      38.944  29.054  31.656  1.00  0.00     0.012 A 
ATOM     51  C   UNL A   1      38.180  30.422  29.803  1.00  0.00     0.148 A 
ATOM     52  C   UNL A   1      37.740  29.288  32.327  1.00  0.00     0.002 A 
ATOM     53  C   UNL A   1      37.011  30.700  30.500  1.00  0.00     0.091 A 
ATOM     54  F   UNL A   1      38.398  30.918  28.576  1.00  0.00    -0.205 F 
ATOM     55  C   UNL A   1      36.780  30.118  31.754  1.00  0.00     0.022 A 
BRANCH  53  56
ATOM     56  S   UNL A   1      35.781  31.858  29.886  1.00  0.00     0.127 S 
ATOM     57  O   UNL A   1      35.200  31.114  28.773  1.00  0.00    -0.237 OA
ATOM     58  O   UNL A   1      34.905  32.019  31.044  1.00  0.00    -0.237 OA
ATOM     59  O   UNL A   1      36.526  33.061  29.529  1.00  0.00    -0.744 OA
ENDBRANCH  53  56
ENDBRANCH  25  49
BRANCH  37  60
ATOM     60  C   UNL A   1      45.010  33.194  29.049  1.00  0.00     0.023 A 
ATOM     61  C   UNL A   1      45.612  33.472  30.290  1.00  0.00     0.012 A 
ATOM     62  C   UNL A   1      44.881  34.212  28.086  1.00  0.00     0.148 A 
ATOM     63  C   UNL A   1      46.054  34.759  30.581  1.00  0.00     0.002 A 
ATOM     64  C   UNL A   1      45.378  35.476  28.361  1.00  0.00     0.091 A 
ATOM     65  F   UNL A   1      44.285  33.920  26.921  1.00  0.00    -0.205 F 
ATOM     66  C   UNL A   1      45.952  35.757  29.612  1.00  0.00     0.022 A 
BRANCH  64  67
ATOM     67  S   UNL A   1      45.393  36.783  27.132  1.00  0.00     0.127 S 
ATOM     68  O   UNL A   1      46.185  36.177  26.063  1.00  0.00    -0.237 OA
ATOM     69  O   UNL A   1      43.971  36.937  26.827  1.00  0.00    -0.237 OA
ATOM     70  O   UNL A   1      45.999  37.938  27.781  1.00  0.00    -0.744 OA
ENDBRANCH  64  67
ENDBRANCH  37  60
ENDBRANCH  11  12
ENDBRANCH   4   6
ENDBRANCH   3   4
ENDBRANCH   2   3
ENDBRANCH   1   2
BRANCH   1  71
ATOM     71  O   UNL A   1      37.592  21.200  24.510  1.00  0.00    -0.374 OA
BRANCH  71  72
ATOM     72  C   UNL A   1      36.915  22.449  24.507  1.00  0.00     0.202 C 
BRANCH  72  73
ATOM     73  C   UNL A   1      36.220  22.690  23.165  1.00  0.00     0.261 C 
BRANCH  73  74
ATOM     74  O   UNL A   1      35.427  23.892  23.215  1.00  0.00    -0.459 OA
BRANCH  74  75
ATOM     75  C   UNL A   1      34.090  23.736  22.955  1.00  0.00     0.368 C 
ATOM     76  O   UNL A   1      33.669  23.231  21.922  1.00  0.00    -0.245 OA
BRANCH  75  77
ATOM     77  C   UNL A   1      33.197  24.231  24.145  1.00  0.00     0.200 C 
ATOM     78  C   UNL A   1      33.715  25.460  24.922  1.00  0.00     0.087 C 
ATOM     79  C   UNL A   1      31.865  24.837  23.599  1.00  0.00     0.146 C 
ATOM     80  C   UNL A   1      32.494  26.041  25.623  1.00  0.00     0.072 C 
ATOM     81  C   UNL A   1      31.365  25.906  24.593  1.00  0.00     0.191 C 
BRANCH  77  82
ATOM     82  N   UNL A   1      32.937  23.110  25.084  1.00  0.00    -0.329 N 
ATOM     83  H   UNL A   1      33.013  22.247  24.546  1.00  0.00     0.347 HD
ATOM     84  H   UNL A   1      32.020  23.329  25.474  1.00  0.00     0.347 HD
BRANCH  82  85
ATOM     85  C   UNL A   1      33.798  22.951  26.278  1.00  0.00     0.183 C 
ATOM     86  C   UNL A   1      33.377  22.575  27.676  1.00  0.00     0.071 C 
ATOM     87  C   UNL A   1      34.035  21.554  26.812  1.00  0.00     0.071 C 
ENDBRANCH  82  85
ENDBRANCH  77  82
BRANCH  81  88
ATOM     88  N   UNL A   1      30.934  27.184  24.000  1.00  0.00    -0.323 N 
ATOM     89  C   UNL A   1      31.632  28.364  24.551  1.00  0.00     0.324 C 
ATOM     90  C   UNL A   1      29.499  27.445  23.832  1.00  0.00     0.328 C 
ATOM     91  H   UNL A   1      31.242  27.025  23.041  1.00  0.00     0.348 HD
ATOM     92  C   UNL A   1      30.843  29.707  24.515  1.00  0.00     0.324 C 
ATOM     93  C   UNL A   1      29.282  28.687  22.926  1.00  0.00     0.240 C 
ATOM     94  N   UNL A   1      30.017  29.908  23.320  1.00  0.00    -0.323 N 
ATOM     95  C   UNL A   1      27.815  29.101  22.801  1.00  0.00     0.077 C 
ATOM     96  C   UNL A   1      29.047  30.998  23.483  1.00  0.00     0.263 C 
ATOM     97  H   UNL A   1      30.680  30.156  22.586  1.00  0.00     0.348 HD
ATOM     98  C   UNL A   1      27.890  30.601  22.585  1.00  0.00     0.068 C 
ENDBRANCH  81  88
ENDBRANCH  75  77
ENDBRANCH  74  75
ENDBRANCH  73  74
ENDBRANCH  72  73
ENDBRANCH  71  72
ENDBRANCH   1  71
TORSDOF 20
ENDMDL
MODEL 2
REMARK VINA RESULT:     -11.2      5.405     10.900
REMARK SMILES O=C(OCCOCCOC(=O)[C@@]1([NH2+]C2CC2)CC[C@@H]([N@@H+]2CC[N@@H+]3CCC[C@@H]3C2)C1)c1ccc(-c2c3nc(c(-c4cccc(S(=O)(=O)[O-])c4F)c4ccc([nH]4)c(-c4cccc(S(=O)(=O)[O-])c4F)c4nc(c(-c5cccc(S(=O)(=O)[O-])c5F)c5ccc2[nH]5)C=C4)C=C3)cc1
REMARK SMILES IDX 5 1 4 2 3 3 2 4 1 5 30 6 31 7 92 8 32 9 91 10 33 11 34 12
REMARK SMILES IDX 35 13 85 14 36 15 90 16 84 17 86 18 37 19 89 20 83 21 82 22
REMARK SMILES IDX 38 24 70 25 50 26 69 27 51 28 54 29 68 30 87 31 52 32 53 33
REMARK SMILES IDX 67 35 88 36 55 37 39 38 40 39 48 40 41 41 43 42 49 43 42 44
REMARK SMILES IDX 44 45 45 46 46 47 47 48 71 49 72 50 80 51 73 52 75 53 81 54
REMARK SMILES IDX 74 55 76 56 77 57 78 58 79 59 56 60 57 61 65 62 58 63 60 64
REMARK SMILES IDX 66 65 59 66 61 67 62 68 63 69 64 70 6 71 7 72 8 73 9 74
REMARK SMILES IDX 10 75 11 76 12 77 17 78 29 79 18 80 19 81 13 82 14 85 15 86
REMARK SMILES IDX 16 87 20 88 21 89 28 90 22 92 27 93 23 94 26 95 24 96 25 98
REMARK H PARENT 86 23 54 34 13 83 13 84 20 91 23 97
REMARK Flexibility Score: inf
ROOT
ATOM      1  C   UNL A   1      31.616  31.674  26.879  1.00  0.00     0.202 C 
ENDROOT
BRANCH   1   2
ATOM      2  C   UNL A   1      32.361  32.991  26.663  1.00  0.00     0.261 C 
BRANCH   2   3
ATOM      3  O   UNL A   1      32.260  33.816  27.824  1.00  0.00    -0.460 OA
BRANCH   3   4
ATOM      4  C   UNL A   1      33.305  34.454  28.413  1.00  0.00     0.338 C 
ATOM      5  O   UNL A   1      33.270  35.680  28.504  1.00  0.00    -0.246 OA
BRANCH   4   6
ATOM      6  C   UNL A   1      34.445  33.718  29.043  1.00  0.00     0.060 A 
ATOM      7  C   UNL A   1      34.348  32.476  29.676  1.00  0.00     0.016 A 
ATOM      8  C   UNL A   1      35.717  34.296  28.929  1.00  0.00     0.016 A 
ATOM      9  C   UNL A   1      35.439  31.830  30.204  1.00  0.00     0.010 A 
ATOM     10  C   UNL A   1      36.842  33.636  29.432  1.00  0.00     0.010 A 
ATOM     11  C   UNL A   1      36.692  32.399  30.065  1.00  0.00    -0.014 A 
BRANCH  11  12
ATOM     12  C   UNL A   1      37.790  31.670  30.697  1.00  0.00     0.031 A 
ATOM     13  C   UNL A   1      38.018  31.886  32.153  1.00  0.00     0.074 A 
ATOM     14  C   UNL A   1      38.419  30.714  29.989  1.00  0.00     0.049 A 
ATOM     15  N   UNL A   1      38.950  31.395  32.916  1.00  0.00    -0.248 NA
ATOM     16  C   UNL A   1      37.056  32.759  32.853  1.00  0.00     0.031 C 
ATOM     17  C   UNL A   1      38.112  30.353  28.600  1.00  0.00     0.029 A 
ATOM     18  N   UNL A   1      39.422  29.858  30.340  1.00  0.00    -0.354 N 
ATOM     19  C   UNL A   1      38.739  31.959  34.165  1.00  0.00     0.074 A 
ATOM     20  C   UNL A   1      37.563  32.791  34.076  1.00  0.00     0.031 C 
ATOM     21  C   UNL A   1      38.919  29.351  28.216  1.00  0.00     0.029 A 
ATOM     22  C   UNL A   1      39.848  29.067  29.299  1.00  0.00     0.049 A 
ATOM     23  H   UNL A   1      39.803  29.812  31.248  1.00  0.00     0.167 HD
ATOM     24  C   UNL A   1      39.494  31.801  35.272  1.00  0.00     0.034 A 
ATOM     25  C   UNL A   1      40.918  28.254  29.229  1.00  0.00     0.034 A 
ATOM     26  C   UNL A   1      40.646  30.948  35.304  1.00  0.00     0.049 A 
ATOM     27  C   UNL A   1      41.773  28.150  30.461  1.00  0.00     0.074 A 
ATOM     28  C   UNL A   1      41.531  30.730  36.340  1.00  0.00     0.029 A 
ATOM     29  N   UNL A   1      41.073  30.173  34.232  1.00  0.00    -0.354 N 
ATOM     30  N   UNL A   1      41.589  28.699  31.640  1.00  0.00    -0.248 NA
ATOM     31  C   UNL A   1      42.977  27.319  30.362  1.00  0.00     0.031 C 
ATOM     32  C   UNL A   1      42.514  29.846  35.882  1.00  0.00     0.029 A 
ATOM     33  C   UNL A   1      42.217  29.482  34.576  1.00  0.00     0.049 A 
ATOM     34  H   UNL A   1      40.625  30.124  33.357  1.00  0.00     0.167 HD
ATOM     35  C   UNL A   1      42.639  28.263  32.433  1.00  0.00     0.074 A 
ATOM     36  C   UNL A   1      43.439  27.380  31.604  1.00  0.00     0.031 C 
ATOM     37  C   UNL A   1      42.939  28.574  33.718  1.00  0.00     0.034 A 
BRANCH  24  38
ATOM     38  C   UNL A   1      39.132  32.618  36.478  1.00  0.00     0.023 A 
ATOM     39  C   UNL A   1      39.673  33.905  36.662  1.00  0.00     0.012 A 
ATOM     40  C   UNL A   1      38.248  32.093  37.441  1.00  0.00     0.148 A 
ATOM     41  C   UNL A   1      39.359  34.648  37.801  1.00  0.00     0.002 A 
ATOM     42  C   UNL A   1      37.908  32.853  38.551  1.00  0.00     0.091 A 
ATOM     43  F   UNL A   1      37.775  30.851  37.261  1.00  0.00    -0.205 F 
ATOM     44  C   UNL A   1      38.471  34.126  38.739  1.00  0.00     0.022 A 
BRANCH  42  45
ATOM     45  S   UNL A   1      36.732  32.293  39.786  1.00  0.00     0.127 S 
ATOM     46  O   UNL A   1      35.504  32.188  39.000  1.00  0.00    -0.237 OA
ATOM     47  O   UNL A   1      37.308  31.012  40.194  1.00  0.00    -0.237 OA
ATOM     48  O   UNL A   1      36.714  33.316  40.822  1.00  0.00    -0.744 OA
ENDBRANCH  42  45
ENDBRANCH  24  38
BRANCH  25  49
ATOM     49  C   UNL A   1      41.255  27.539  27.965  1.00  0.00     0.023 A 
ATOM     50  C   UNL A   1      41.706  28.265  26.847  1.00  0.00     0.012 A 
ATOM     51  C   UNL A   1      41.129  26.138  27.862  1.00  0.00     0.148 A 
ATOM     52  C   UNL A   1      41.986  27.616  25.641  1.00  0.00     0.002 A 
ATOM     53  C   UNL A   1      41.467  25.491  26.679  1.00  0.00     0.091 A 
ATOM     54  F   UNL A   1      40.677  25.458  28.927  1.00  0.00    -0.205 F 
ATOM     55  C   UNL A   1      41.877  26.230  25.561  1.00  0.00     0.022 A 
BRANCH  53  56
ATOM     56  S   UNL A   1      41.472  23.700  26.535  1.00  0.00     0.127 S 
ATOM     57  O   UNL A   1      42.260  23.500  25.323  1.00  0.00    -0.237 OA
ATOM     58  O   UNL A   1      42.132  23.293  27.773  1.00  0.00    -0.237 OA
ATOM     59  O   UNL A   1      40.068  23.313  26.453  1.00  0.00    -0.744 OA
ENDBRANCH  53  56
ENDBRANCH  25  49
BRANCH  37  60
ATOM     60  C   UNL A   1      44.151  27.916  34.309  1.00  0.00     0.023 A 
ATOM     61  C   UNL A   1      45.390  28.584  34.293  1.00  0.00     0.012 A 
ATOM     62  C   UNL A   1      44.030  26.675  34.961  1.00  0.00     0.148 A 
ATOM     63  C   UNL A   1      46.505  28.007  34.895  1.00  0.00     0.002 A 
ATOM     64  C   UNL A   1      45.130  26.135  35.609  1.00  0.00     0.091 A 
ATOM     65  F   UNL A   1      42.842  26.054  34.942  1.00  0.00    -0.205 F 
ATOM     66  C   UNL A   1      46.372  26.792  35.566  1.00  0.00     0.022 A 
BRANCH  64  67
ATOM     67  S   UNL A   1      45.019  24.638  36.591  1.00  0.00     0.127 S 
ATOM     68  O   UNL A   1      46.356  24.567  37.178  1.00  0.00    -0.237 OA
ATOM     69  O   UNL A   1      43.953  24.968  37.537  1.00  0.00    -0.237 OA
ATOM     70  O   UNL A   1      44.687  23.569  35.658  1.00  0.00    -0.744 OA
ENDBRANCH  64  67
ENDBRANCH  37  60
ENDBRANCH  11  12
ENDBRANCH   4   6
ENDBRANCH   3   4
ENDBRANCH   2   3
ENDBRANCH   1   2
BRANCH   1  71
ATOM     71  O   UNL A   1      32.448  30.541  27.102  1.00  0.00    -0.374 OA
BRANCH  71  72
ATOM     72  C   UNL A   1      31.825  29.266  27.035  1.00  0.00     0.202 C 
BRANCH  72  73
ATOM     73  C   UNL A   1      32.805  28.158  27.428  1.00  0.00     0.261 C 
BRANCH  73  74
ATOM     74  O   UNL A   1      32.305  26.872  27.017  1.00  0.00    -0.459 OA
BRANCH  74  75
ATOM     75  C   UNL A   1      32.833  26.369  25.856  1.00  0.00     0.368 C 
ATOM     76  O   UNL A   1      34.017  26.083  25.734  1.00  0.00    -0.245 OA
BRANCH  75  77
ATOM     77  C   UNL A   1      31.739  26.163  24.751  1.00  0.00     0.200 C 
ATOM     78  C   UNL A   1      30.297  26.558  25.137  1.00  0.00     0.087 C 
ATOM     79  C   UNL A   1      31.960  27.175  23.583  1.00  0.00     0.146 C 
ATOM     80  C   UNL A   1      29.568  26.770  23.816  1.00  0.00     0.072 C 
ATOM     81  C   UNL A   1      30.597  27.473  22.923  1.00  0.00     0.191 C 
BRANCH  77  82
ATOM     82  N   UNL A   1      31.768  24.760  24.265  1.00  0.00    -0.329 N 
ATOM     83  H   UNL A   1      32.551  24.686  23.616  1.00  0.00     0.347 HD
ATOM     84  H   UNL A   1      30.835  24.620  23.877  1.00  0.00     0.347 HD
BRANCH  82  85
ATOM     85  C   UNL A   1      31.910  23.657  25.242  1.00  0.00     0.183 C 
ATOM     86  C   UNL A   1      31.532  22.209  25.062  1.00  0.00     0.071 C 
ATOM     87  C   UNL A   1      32.968  22.603  24.987  1.00  0.00     0.071 C 
ENDBRANCH  82  85
ENDBRANCH  77  82
BRANCH  81  88
ATOM     88  N   UNL A   1      30.304  28.894  22.667  1.00  0.00    -0.323 N 
ATOM     89  C   UNL A   1      30.362  29.743  23.876  1.00  0.00     0.324 C 
ATOM     90  C   UNL A   1      29.155  29.246  21.825  1.00  0.00     0.328 C 
ATOM     91  H   UNL A   1      31.095  29.112  22.062  1.00  0.00     0.348 HD
ATOM     92  C   UNL A   1      29.467  31.017  23.862  1.00  0.00     0.324 C 
ATOM     93  C   UNL A   1      29.211  30.749  21.441  1.00  0.00     0.240 C 
ATOM     94  N   UNL A   1      29.373  31.696  22.565  1.00  0.00    -0.323 N 
ATOM     95  C   UNL A   1      27.983  31.226  20.664  1.00  0.00     0.077 C 
ATOM     96  C   UNL A   1      28.272  32.665  22.515  1.00  0.00     0.263 C 
ATOM     97  H   UNL A   1      30.260  32.189  22.467  1.00  0.00     0.348 HD
ATOM     98  C   UNL A   1      27.866  32.688  21.053  1.00  0.00     0.068 C 
ENDBRANCH  81  88
ENDBRANCH  75  77
ENDBRANCH  74  75
ENDBRANCH  73  74
ENDBRANCH  72  73
ENDBRANCH  71  72
ENDBRANCH   1  71
TORSDOF 20
ENDMDL
MODEL 3
REMARK VINA RESULT:     -10.8      2.031      7.933
REMARK SMILES O=C(OCCOCCOC(=O)[C@@]1([NH2+]C2CC2)CC[C@@H]([N@@H+]2CC[N@@H+]3CCC[C@@H]3C2)C1)c1ccc(-c2c3nc(c(-c4cccc(S(=O)(=O)[O-])c4F)c4ccc([nH]4)c(-c4cccc(S(=O)(=O)[O-])c4F)c4nc(c(-c5cccc(S(=O)(=O)[O-])c5F)c5ccc2[nH]5)C=C4)C=C3)cc1
REMARK SMILES IDX 5 1 4 2 3 3 2 4 1 5 30 6 31 7 92 8 32 9 91 10 33 11 34 12
REMARK SMILES IDX 35 13 85 14 36 15 90 16 84 17 86 18 37 19 89 20 83 21 82 22
REMARK SMILES IDX 38 24 70 25 50 26 69 27 51 28 54 29 68 30 87 31 52 32 53 33
REMARK SMILES IDX 67 35 88 36 55 37 39 38 40 39 48 40 41 41 43 42 49 43 42 44
REMARK SMILES IDX 44 45 45 46 46 47 47 48 71 49 72 50 80 51 73 52 75 53 81 54
REMARK SMILES IDX 74 55 76 56 77 57 78 58 79 59 56 60 57 61 65 62 58 63 60 64
REMARK SMILES IDX 66 65 59 66 61 67 62 68 63 69 64 70 6 71 7 72 8 73 9 74
REMARK SMILES IDX 10 75 11 76 12 77 17 78 29 79 18 80 19 81 13 82 14 85 15 86
REMARK SMILES IDX 16 87 20 88 21 89 28 90 22 92 27 93 23 94 26 95 24 96 25 98
REMARK H PARENT 86 23 54 34 13 83 13 84 20 91 23 97
REMARK Flexibility Score: inf
ROOT
ATOM      1  C   UNL A   1      39.090  21.146  25.775  1.00  0.00     0.202 C 
ENDROOT
BRANCH   1   2
ATOM      2  C   UNL A   1      39.388  19.658  25.594  1.00  0.00     0.261 C 
BRANCH   2   3
ATOM      3  O   UNL A   1      40.523  19.280  26.375  1.00  0.00    -0.460 OA
BRANCH   3   4
ATOM      4  C   UNL A   1      41.806  19.629  26.094  1.00  0.00     0.338 C 
ATOM      5  O   UNL A   1      42.517  18.823  25.496  1.00  0.00    -0.246 OA
BRANCH   4   6
ATOM      6  C   UNL A   1      42.352  20.990  26.391  1.00  0.00     0.060 A 
ATOM      7  C   UNL A   1      42.612  21.490  27.669  1.00  0.00     0.016 A 
ATOM      8  C   UNL A   1      42.687  21.795  25.293  1.00  0.00     0.016 A 
ATOM      9  C   UNL A   1      43.151  22.736  27.878  1.00  0.00     0.010 A 
ATOM     10  C   UNL A   1      43.268  23.052  25.488  1.00  0.00     0.010 A 
ATOM     11  C   UNL A   1      43.499  23.511  26.787  1.00  0.00    -0.014 A 
BRANCH  11  12
ATOM     12  C   UNL A   1      44.021  24.841  27.098  1.00  0.00     0.031 A 
ATOM     13  C   UNL A   1      43.088  25.825  27.716  1.00  0.00     0.074 A 
ATOM     14  C   UNL A   1      45.344  25.056  26.984  1.00  0.00     0.049 A 
ATOM     15  N   UNL A   1      43.305  27.068  28.033  1.00  0.00    -0.248 NA
ATOM     16  C   UNL A   1      41.733  25.341  28.040  1.00  0.00     0.031 C 
ATOM     17  C   UNL A   1      46.326  24.060  26.537  1.00  0.00     0.029 A 
ATOM     18  N   UNL A   1      46.095  26.162  27.255  1.00  0.00    -0.354 N 
ATOM     19  C   UNL A   1      42.094  27.539  28.518  1.00  0.00     0.074 A 
ATOM     20  C   UNL A   1      41.158  26.440  28.502  1.00  0.00     0.031 C 
ATOM     21  C   UNL A   1      47.551  24.607  26.559  1.00  0.00     0.029 A 
ATOM     22  C   UNL A   1      47.424  26.006  26.936  1.00  0.00     0.049 A 
ATOM     23  H   UNL A   1      45.724  26.989  27.640  1.00  0.00     0.167 HD
ATOM     24  C   UNL A   1      41.804  28.797  28.912  1.00  0.00     0.034 A 
ATOM     25  C   UNL A   1      48.405  26.927  26.896  1.00  0.00     0.034 A 
ATOM     26  C   UNL A   1      42.782  29.846  28.919  1.00  0.00     0.049 A 
ATOM     27  C   UNL A   1      48.033  28.332  27.282  1.00  0.00     0.074 A 
ATOM     28  C   UNL A   1      42.618  31.177  29.246  1.00  0.00     0.029 A 
ATOM     29  N   UNL A   1      44.116  29.672  28.570  1.00  0.00    -0.354 N 
ATOM     30  N   UNL A   1      46.882  28.788  27.721  1.00  0.00    -0.248 NA
ATOM     31  C   UNL A   1      49.084  29.348  27.171  1.00  0.00     0.031 C 
ATOM     32  C   UNL A   1      43.850  31.815  29.064  1.00  0.00     0.029 A 
ATOM     33  C   UNL A   1      44.789  30.874  28.663  1.00  0.00     0.049 A 
ATOM     34  H   UNL A   1      44.521  28.818  28.298  1.00  0.00     0.167 HD
ATOM     35  C   UNL A   1      47.074  30.139  27.963  1.00  0.00     0.074 A 
ATOM     36  C   UNL A   1      48.463  30.419  27.648  1.00  0.00     0.031 C 
ATOM     37  C   UNL A   1      46.189  31.076  28.384  1.00  0.00     0.034 A 
BRANCH  24  38
ATOM     38  C   UNL A   1      40.381  29.095  29.282  1.00  0.00     0.023 A 
ATOM     39  C   UNL A   1      39.450  29.483  28.299  1.00  0.00     0.012 A 
ATOM     40  C   UNL A   1      39.970  28.994  30.626  1.00  0.00     0.148 A 
ATOM     41  C   UNL A   1      38.136  29.792  28.653  1.00  0.00     0.002 A 
ATOM     42  C   UNL A   1      38.651  29.262  30.964  1.00  0.00     0.091 A 
ATOM     43  F   UNL A   1      40.884  28.658  31.547  1.00  0.00    -0.205 F 
ATOM     44  C   UNL A   1      37.735  29.672  29.982  1.00  0.00     0.022 A 
BRANCH  42  45
ATOM     45  S   UNL A   1      38.024  29.084  32.638  1.00  0.00     0.127 S 
ATOM     46  O   UNL A   1      38.147  27.642  32.848  1.00  0.00    -0.237 OA
ATOM     47  O   UNL A   1      38.971  29.896  33.403  1.00  0.00    -0.237 OA
ATOM     48  O   UNL A   1      36.660  29.590  32.615  1.00  0.00    -0.744 OA
ENDBRANCH  42  45
ENDBRANCH  24  38
BRANCH  25  49
ATOM     49  C   UNL A   1      49.776  26.565  26.438  1.00  0.00     0.023 A 
ATOM     50  C   UNL A   1      50.608  25.783  27.261  1.00  0.00     0.012 A 
ATOM     51  C   UNL A   1      50.266  26.995  25.187  1.00  0.00     0.148 A 
ATOM     52  C   UNL A   1      51.912  25.469  26.865  1.00  0.00     0.002 A 
ATOM     53  C   UNL A   1      51.542  26.630  24.773  1.00  0.00     0.091 A 
ATOM     54  F   UNL A   1      49.474  27.758  24.420  1.00  0.00    -0.205 F 
ATOM     55  C   UNL A   1      52.374  25.884  25.618  1.00  0.00     0.022 A 
BRANCH  53  56
ATOM     56  S   UNL A   1      52.164  27.018  23.132  1.00  0.00     0.127 S 
ATOM     57  O   UNL A   1      51.018  26.689  22.292  1.00  0.00    -0.237 OA
ATOM     58  O   UNL A   1      52.458  28.445  23.243  1.00  0.00    -0.237 OA
ATOM     59  O   UNL A   1      53.345  26.178  22.957  1.00  0.00    -0.744 OA
ENDBRANCH  53  56
ENDBRANCH  25  49
BRANCH  37  60
ATOM     60  C   UNL A   1      46.715  32.469  28.570  1.00  0.00     0.023 A 
ATOM     61  C   UNL A   1      47.230  32.864  29.819  1.00  0.00     0.012 A 
ATOM     62  C   UNL A   1      46.778  33.348  27.474  1.00  0.00     0.148 A 
ATOM     63  C   UNL A   1      47.776  34.134  29.981  1.00  0.00     0.002 A 
ATOM     64  C   UNL A   1      47.378  34.589  27.628  1.00  0.00     0.091 A 
ATOM     65  F   UNL A   1      46.261  32.951  26.302  1.00  0.00    -0.205 F 
ATOM     66  C   UNL A   1      47.865  34.989  28.884  1.00  0.00     0.022 A 
BRANCH  64  67
ATOM     67  S   UNL A   1      47.638  35.702  26.246  1.00  0.00     0.127 S 
ATOM     68  O   UNL A   1      48.376  36.794  26.877  1.00  0.00    -0.237 OA
ATOM     69  O   UNL A   1      48.427  34.878  25.330  1.00  0.00    -0.237 OA
ATOM     70  O   UNL A   1      46.310  36.046  25.753  1.00  0.00    -0.744 OA
ENDBRANCH  64  67
ENDBRANCH  37  60
ENDBRANCH  11  12
ENDBRANCH   4   6
ENDBRANCH   3   4
ENDBRANCH   2   3
ENDBRANCH   1   2
BRANCH   1  71
ATOM     71  O   UNL A   1      37.734  21.519  25.555  1.00  0.00    -0.374 OA
BRANCH  71  72
ATOM     72  C   UNL A   1      37.482  22.893  25.297  1.00  0.00     0.202 C 
BRANCH  72  73
ATOM     73  C   UNL A   1      36.262  23.381  26.081  1.00  0.00     0.261 C 
BRANCH  73  74
ATOM     74  O   UNL A   1      35.048  22.886  25.485  1.00  0.00    -0.459 OA
BRANCH  74  75
ATOM     75  C   UNL A   1      34.253  22.120  26.298  1.00  0.00     0.368 C 
ATOM     76  O   UNL A   1      34.685  21.515  27.271  1.00  0.00    -0.245 OA
BRANCH  75  77
ATOM     77  C   UNL A   1      32.748  22.161  25.859  1.00  0.00     0.200 C 
ATOM     78  C   UNL A   1      31.823  23.086  26.680  1.00  0.00     0.087 C 
ATOM     79  C   UNL A   1      32.614  22.861  24.470  1.00  0.00     0.146 C 
ATOM     80  C   UNL A   1      30.621  23.356  25.784  1.00  0.00     0.072 C 
ATOM     81  C   UNL A   1      31.223  23.523  24.383  1.00  0.00     0.191 C 
BRANCH  77  82
ATOM     82  N   UNL A   1      32.191  20.784  25.829  1.00  0.00    -0.329 N 
ATOM     83  H   UNL A   1      31.176  20.873  25.876  1.00  0.00     0.347 HD
ATOM     84  H   UNL A   1      32.650  20.321  26.612  1.00  0.00     0.347 HD
BRANCH  82  85
ATOM     85  C   UNL A   1      32.494  19.906  24.675  1.00  0.00     0.183 C 
ATOM     86  C   UNL A   1      33.777  19.168  24.390  1.00  0.00     0.071 C 
ATOM     87  C   UNL A   1      32.603  18.415  24.917  1.00  0.00     0.071 C 
ENDBRANCH  82  85
ENDBRANCH  77  82
BRANCH  81  88
ATOM     88  N   UNL A   1      31.200  24.907  23.878  1.00  0.00    -0.323 N 
ATOM     89  C   UNL A   1      32.390  25.700  24.256  1.00  0.00     0.324 C 
ATOM     90  C   UNL A   1      29.971  25.697  24.011  1.00  0.00     0.328 C 
ATOM     91  H   UNL A   1      31.228  24.711  22.878  1.00  0.00     0.348 HD
ATOM     92  C   UNL A   1      32.180  27.239  24.370  1.00  0.00     0.324 C 
ATOM     93  C   UNL A   1      30.067  26.989  23.156  1.00  0.00     0.240 C 
ATOM     94  N   UNL A   1      31.273  27.817  23.373  1.00  0.00    -0.323 N 
ATOM     95  C   UNL A   1      28.874  27.929  23.336  1.00  0.00     0.077 C 
ATOM     96  C   UNL A   1      30.843  29.176  23.723  1.00  0.00     0.263 C 
ATOM     97  H   UNL A   1      31.820  27.849  22.513  1.00  0.00     0.348 HD
ATOM     98  C   UNL A   1      29.469  29.304  23.092  1.00  0.00     0.068 C 
ENDBRANCH  81  88
ENDBRANCH  75  77
ENDBRANCH  74  75
ENDBRANCH  73  74
ENDBRANCH  72  73
ENDBRANCH  71  72
ENDBRANCH   1  71
TORSDOF 20
ENDMDL
