MODEL 1
REMARK VINA RESULT:     -12.3      0.000      0.000
REMARK SMILES Cc1ccccc1-c1c(Cl)ccc2c1C=C(C(=O)OCCOCCOC(=O)c1ccc(-c3c4nc(c(-c5cccc(S(=O)(=O)[O-])c5F)c5ccc([nH]5)c(-c5cccc(S(=O)(=O)[O-])c5F)c5nc(c(-c6cccc(S(=O)(=O)[O-])c6F)c6ccc3[nH]6)C=C5)C=C4)cc1)[C@@H](C(F)(F)F)O2
REMARK SMILES IDX 23 1 22 2 21 3 20 4 19 5 17 6 18 7 16 8 8 9 9 10 14 11 10 12
REMARK SMILES IDX 11 13 13 14 15 15 12 16 96 17 91 18 7 19 1 20 2 21 3 22 4 23
REMARK SMILES IDX 6 24 5 25 92 26 93 27 94 28 95 29 24 30 25 31 26 32 27 33
REMARK SMILES IDX 28 34 29 35 90 36 30 37 89 38 31 39 32 40 33 41 83 42 34 43
REMARK SMILES IDX 88 44 82 45 84 46 35 47 87 48 81 49 80 50 36 52 68 53 48 54
REMARK SMILES IDX 67 55 49 56 52 57 66 58 85 59 50 60 51 61 65 63 86 64 53 65
REMARK SMILES IDX 37 66 38 67 46 68 39 69 41 70 47 71 40 72 42 73 43 74 44 75
REMARK SMILES IDX 45 76 69 77 70 78 78 79 71 80 73 81 79 82 72 83 74 84 75 85
REMARK SMILES IDX 76 86 77 87 54 88 55 89 63 90 56 91 58 92 64 93 57 94 59 95
REMARK SMILES IDX 60 96 61 97 62 98
REMARK H PARENT 84 51 52 62
REMARK Flexibility Score: inf
ROOT
ATOM      1  C   UNL A   1      33.194  30.768  27.280  1.00  0.00     0.202 C 
ENDROOT
BRANCH   1   2
ATOM      2  O   UNL A   1      31.841  30.804  26.889  1.00  0.00    -0.374 OA
BRANCH   2   3
ATOM      3  C   UNL A   1      31.644  30.106  25.690  1.00  0.00     0.202 C 
BRANCH   3   4
ATOM      4  C   UNL A   1      32.915  29.683  24.919  1.00  0.00     0.261 C 
BRANCH   4   5
ATOM      5  O   UNL A   1      32.735  28.458  24.232  1.00  0.00    -0.460 OA
BRANCH   5   6
ATOM      6  C   UNL A   1      33.620  27.557  24.702  1.00  0.00     0.338 C 
ATOM      7  O   UNL A   1      34.058  27.486  25.835  1.00  0.00    -0.246 OA
BRANCH   6   8
ATOM      8  C   UNL A   1      33.683  26.483  23.680  1.00  0.00     0.087 C 
ATOM      9  C   UNL A   1      33.866  23.545  25.880  1.00  0.00     0.012 A 
ATOM     10  C   UNL A   1      32.948  23.059  26.851  1.00  0.00     0.049 A 
ATOM     11  C   UNL A   1      33.357  24.540  25.004  1.00  0.00     0.027 A 
ATOM     12  Cl  UNL A   1      33.394  21.901  28.069  1.00  0.00    -0.084 Cl
ATOM     13  C   UNL A   1      31.616  23.502  26.911  1.00  0.00     0.025 A 
ATOM     14  C   UNL A   1      31.977  24.886  25.002  1.00  0.00     0.128 A 
ATOM     15  C   UNL A   1      34.233  25.337  24.116  1.00  0.00     0.028 C 
ATOM     16  C   UNL A   1      31.126  24.409  25.984  1.00  0.00     0.049 A 
ATOM     17  O   UNL A   1      31.389  25.722  24.076  1.00  0.00    -0.475 OA
ATOM     18  C   UNL A   1      32.277  26.378  23.141  1.00  0.00     0.316 C 
BRANCH   9  19
ATOM     19  C   UNL A   1      35.250  22.964  25.743  1.00  0.00    -0.013 A 
ATOM     20  C   UNL A   1      34.588  20.699  24.688  1.00  0.00     0.045 C 
ATOM     21  C   UNL A   1      35.567  21.665  25.279  1.00  0.00    -0.043 A 
ATOM     22  C   UNL A   1      36.908  21.233  25.196  1.00  0.00     0.004 A 
ATOM     23  C   UNL A   1      37.960  22.089  25.479  1.00  0.00     0.000 A 
ATOM     24  C   UNL A   1      36.354  23.782  26.088  1.00  0.00     0.009 A 
ATOM     25  C   UNL A   1      37.682  23.374  25.912  1.00  0.00     0.001 A 
ENDBRANCH   9  19
BRANCH  18  26
ATOM     26  C   UNL A   1      32.289  25.687  21.781  1.00  0.00     0.430 C 
ATOM     27  F   UNL A   1      31.266  26.090  20.995  1.00  0.00    -0.167 F 
ATOM     28  F   UNL A   1      33.435  25.968  21.103  1.00  0.00    -0.167 F 
ATOM     29  F   UNL A   1      32.218  24.338  21.880  1.00  0.00    -0.167 F 
ENDBRANCH  18  26
ENDBRANCH   6   8
ENDBRANCH   5   6
ENDBRANCH   4   5
ENDBRANCH   3   4
ENDBRANCH   2   3
ENDBRANCH   1   2
BRANCH   1  30
ATOM     30  C   UNL A   1      34.022  32.053  27.775  1.00  0.00     0.261 C 
BRANCH  30  31
ATOM     31  O   UNL A   1      35.548  32.162  28.005  1.00  0.00    -0.460 OA
BRANCH  31  32
ATOM     32  C   UNL A   1      36.732  31.858  28.631  1.00  0.00     0.338 C 
ATOM     33  O   UNL A   1      37.619  32.711  28.862  1.00  0.00    -0.246 OA
BRANCH  32  34
ATOM     34  C   UNL A   1      37.207  30.402  28.486  1.00  0.00     0.060 A 
ATOM     35  C   UNL A   1      37.109  29.436  29.492  1.00  0.00     0.016 A 
ATOM     36  C   UNL A   1      37.877  29.957  27.378  1.00  0.00     0.016 A 
ATOM     37  C   UNL A   1      38.155  28.517  29.701  1.00  0.00     0.010 A 
ATOM     38  C   UNL A   1      38.997  29.177  27.613  1.00  0.00     0.010 A 
ATOM     39  C   UNL A   1      39.235  28.613  28.868  1.00  0.00    -0.014 A 
BRANCH  39  40
ATOM     40  C   UNL A   1      40.601  28.151  29.106  1.00  0.00     0.031 A 
ATOM     41  C   UNL A   1      40.838  26.706  28.855  1.00  0.00     0.074 A 
ATOM     42  C   UNL A   1      41.641  29.026  29.210  1.00  0.00     0.049 A 
ATOM     43  N   UNL A   1      41.931  26.073  29.082  1.00  0.00    -0.248 NA
ATOM     44  C   UNL A   1      39.803  25.829  28.310  1.00  0.00     0.031 C 
ATOM     45  C   UNL A   1      43.025  28.732  28.847  1.00  0.00     0.029 A 
ATOM     46  N   UNL A   1      41.717  30.350  29.659  1.00  0.00    -0.354 N 
ATOM     47  C   UNL A   1      41.867  24.873  28.399  1.00  0.00     0.074 A 
ATOM     48  C   UNL A   1      40.489  24.720  28.044  1.00  0.00     0.031 C 
ATOM     49  C   UNL A   1      43.839  29.687  29.313  1.00  0.00     0.029 A 
ATOM     50  C   UNL A   1      43.031  30.643  30.050  1.00  0.00     0.049 A 
ATOM     51  H   UNL A   1      40.961  30.979  29.695  1.00  0.00     0.167 HD
ATOM     52  C   UNL A   1      43.034  24.246  28.083  1.00  0.00     0.034 A 
ATOM     53  C   UNL A   1      43.370  31.100  31.293  1.00  0.00     0.034 A 
ATOM     54  C   UNL A   1      44.160  25.001  28.673  1.00  0.00     0.049 A 
ATOM     55  C   UNL A   1      44.061  29.972  32.028  1.00  0.00     0.074 A 
ATOM     56  C   UNL A   1      45.093  25.858  28.119  1.00  0.00     0.029 A 
ATOM     57  N   UNL A   1      44.198  25.234  30.052  1.00  0.00    -0.354 N 
ATOM     58  N   UNL A   1      43.919  28.726  31.654  1.00  0.00    -0.248 NA
ATOM     59  C   UNL A   1      45.100  30.131  33.044  1.00  0.00     0.031 C 
ATOM     60  C   UNL A   1      45.609  26.682  29.162  1.00  0.00     0.029 A 
ATOM     61  C   UNL A   1      45.005  26.323  30.360  1.00  0.00     0.049 A 
ATOM     62  H   UNL A   1      43.714  24.696  30.719  1.00  0.00     0.167 HD
ATOM     63  C   UNL A   1      44.932  27.982  32.161  1.00  0.00     0.074 A 
ATOM     64  C   UNL A   1      45.600  28.880  33.095  1.00  0.00     0.031 C 
ATOM     65  C   UNL A   1      45.241  26.719  31.748  1.00  0.00     0.034 A 
BRANCH  52  66
ATOM     66  C   UNL A   1      43.224  23.123  27.053  1.00  0.00     0.023 A 
ATOM     67  C   UNL A   1      43.936  23.462  25.878  1.00  0.00     0.012 A 
ATOM     68  C   UNL A   1      42.749  21.782  27.098  1.00  0.00     0.148 A 
ATOM     69  C   UNL A   1      44.140  22.564  24.820  1.00  0.00     0.002 A 
ATOM     70  C   UNL A   1      42.962  20.877  26.046  1.00  0.00     0.091 A 
ATOM     71  F   UNL A   1      42.086  21.334  28.160  1.00  0.00    -0.205 F 
ATOM     72  C   UNL A   1      43.652  21.270  24.901  1.00  0.00     0.022 A 
BRANCH  70  73
ATOM     73  S   UNL A   1      42.378  19.165  26.078  1.00  0.00     0.127 S 
ATOM     74  O   UNL A   1      42.585  18.794  27.479  1.00  0.00    -0.237 OA
ATOM     75  O   UNL A   1      40.975  19.307  25.690  1.00  0.00    -0.237 OA
ATOM     76  O   UNL A   1      43.207  18.425  25.134  1.00  0.00    -0.744 OA
ENDBRANCH  70  73
ENDBRANCH  52  66
BRANCH  53  77
ATOM     77  C   UNL A   1      42.463  32.172  31.786  1.00  0.00     0.023 A 
ATOM     78  C   UNL A   1      42.297  33.275  30.897  1.00  0.00     0.012 A 
ATOM     79  C   UNL A   1      41.428  31.845  32.665  1.00  0.00     0.148 A 
ATOM     80  C   UNL A   1      41.057  33.889  30.731  1.00  0.00     0.002 A 
ATOM     81  C   UNL A   1      40.179  32.413  32.440  1.00  0.00     0.091 A 
ATOM     82  F   UNL A   1      41.632  30.892  33.582  1.00  0.00    -0.205 F 
ATOM     83  C   UNL A   1      39.986  33.419  31.469  1.00  0.00     0.022 A 
BRANCH  81  84
ATOM     84  S   UNL A   1      38.689  31.540  32.910  1.00  0.00     0.127 S 
ATOM     85  O   UNL A   1      38.997  30.149  32.607  1.00  0.00    -0.237 OA
ATOM     86  O   UNL A   1      38.691  31.852  34.336  1.00  0.00    -0.237 OA
ATOM     87  O   UNL A   1      37.613  32.135  32.135  1.00  0.00    -0.744 OA
ENDBRANCH  81  84
ENDBRANCH  53  77
BRANCH  65  88
ATOM     88  C   UNL A   1      45.851  25.734  32.700  1.00  0.00     0.023 A 
ATOM     89  C   UNL A   1      47.238  25.748  32.950  1.00  0.00     0.012 A 
ATOM     90  C   UNL A   1      45.040  24.942  33.541  1.00  0.00     0.148 A 
ATOM     91  C   UNL A   1      47.808  24.948  33.932  1.00  0.00     0.002 A 
ATOM     92  C   UNL A   1      45.598  24.271  34.615  1.00  0.00     0.091 A 
ATOM     93  F   UNL A   1      43.725  24.835  33.308  1.00  0.00    -0.205 F 
ATOM     94  C   UNL A   1      46.984  24.231  34.785  1.00  0.00     0.022 A 
BRANCH  92  95
ATOM     95  S   UNL A   1      44.574  23.595  35.924  1.00  0.00     0.127 S 
ATOM     96  O   UNL A   1      45.429  22.530  36.444  1.00  0.00    -0.237 OA
ATOM     97  O   UNL A   1      44.420  24.749  36.811  1.00  0.00    -0.237 OA
ATOM     98  O   UNL A   1      43.340  23.164  35.283  1.00  0.00    -0.744 OA
ENDBRANCH  92  95
ENDBRANCH  65  88
ENDBRANCH  39  40
ENDBRANCH  32  34
ENDBRANCH  31  32
ENDBRANCH  30  31
ENDBRANCH   1  30
TORSDOF 19
ENDMDL
MODEL 2
REMARK VINA RESULT:     -11.9      2.837      3.792
REMARK SMILES Cc1ccccc1-c1c(Cl)ccc2c1C=C(C(=O)OCCOCCOC(=O)c1ccc(-c3c4nc(c(-c5cccc(S(=O)(=O)[O-])c5F)c5ccc([nH]5)c(-c5cccc(S(=O)(=O)[O-])c5F)c5nc(c(-c6cccc(S(=O)(=O)[O-])c6F)c6ccc3[nH]6)C=C5)C=C4)cc1)[C@@H](C(F)(F)F)O2
REMARK SMILES IDX 23 1 22 2 21 3 20 4 19 5 17 6 18 7 16 8 8 9 9 10 14 11 10 12
REMARK SMILES IDX 11 13 13 14 15 15 12 16 96 17 91 18 7 19 1 20 2 21 3 22 4 23
REMARK SMILES IDX 6 24 5 25 92 26 93 27 94 28 95 29 24 30 25 31 26 32 27 33
REMARK SMILES IDX 28 34 29 35 90 36 30 37 89 38 31 39 32 40 33 41 83 42 34 43
REMARK SMILES IDX 88 44 82 45 84 46 35 47 87 48 81 49 80 50 36 52 68 53 48 54
REMARK SMILES IDX 67 55 49 56 52 57 66 58 85 59 50 60 51 61 65 63 86 64 53 65
REMARK SMILES IDX 37 66 38 67 46 68 39 69 41 70 47 71 40 72 42 73 43 74 44 75
REMARK SMILES IDX 45 76 69 77 70 78 78 79 71 80 73 81 79 82 72 83 74 84 75 85
REMARK SMILES IDX 76 86 77 87 54 88 55 89 63 90 56 91 58 92 64 93 57 94 59 95
REMARK SMILES IDX 60 96 61 97 62 98
REMARK H PARENT 84 51 52 62
REMARK Flexibility Score: inf
ROOT
ATOM      1  C   UNL A   1      32.668  34.047  27.644  1.00  0.00     0.202 C 
ENDROOT
BRANCH   1   2
ATOM      2  O   UNL A   1      32.777  32.650  27.785  1.00  0.00    -0.374 OA
BRANCH   2   3
ATOM      3  C   UNL A   1      31.964  31.985  26.857  1.00  0.00     0.202 C 
BRANCH   3   4
ATOM      4  C   UNL A   1      32.190  30.464  26.704  1.00  0.00     0.261 C 
BRANCH   4   5
ATOM      5  O   UNL A   1      33.255  30.173  25.818  1.00  0.00    -0.460 OA
BRANCH   5   6
ATOM      6  C   UNL A   1      33.560  28.863  25.911  1.00  0.00     0.338 C 
ATOM      7  O   UNL A   1      33.628  28.200  26.930  1.00  0.00    -0.246 OA
BRANCH   6   8
ATOM      8  C   UNL A   1      33.451  28.324  24.533  1.00  0.00     0.087 C 
ATOM      9  C   UNL A   1      33.163  24.739  25.291  1.00  0.00     0.012 A 
ATOM     10  C   UNL A   1      32.179  24.028  26.030  1.00  0.00     0.049 A 
ATOM     11  C   UNL A   1      32.819  26.073  24.945  1.00  0.00     0.027 A 
ATOM     12  Cl  UNL A   1      32.434  22.413  26.621  1.00  0.00    -0.084 Cl
ATOM     13  C   UNL A   1      30.934  24.592  26.357  1.00  0.00     0.025 A 
ATOM     14  C   UNL A   1      31.512  26.583  25.180  1.00  0.00     0.128 A 
ATOM     15  C   UNL A   1      33.811  27.035  24.414  1.00  0.00     0.028 C 
ATOM     16  C   UNL A   1      30.596  25.866  25.928  1.00  0.00     0.049 A 
ATOM     17  O   UNL A   1      31.065  27.808  24.728  1.00  0.00    -0.475 OA
ATOM     18  C   UNL A   1      32.046  28.661  24.094  1.00  0.00     0.316 C 
BRANCH   9  19
ATOM     19  C   UNL A   1      34.437  24.077  24.832  1.00  0.00    -0.013 A 
ATOM     20  C   UNL A   1      33.627  23.313  22.499  1.00  0.00     0.045 C 
ATOM     21  C   UNL A   1      34.622  23.377  23.616  1.00  0.00    -0.043 A 
ATOM     22  C   UNL A   1      35.868  22.796  23.298  1.00  0.00     0.004 A 
ATOM     23  C   UNL A   1      36.973  22.965  24.116  1.00  0.00     0.000 A 
ATOM     24  C   UNL A   1      35.574  24.167  25.671  1.00  0.00     0.009 A 
ATOM     25  C   UNL A   1      36.829  23.668  25.301  1.00  0.00     0.001 A 
ENDBRANCH   9  19
BRANCH  18  26
ATOM     26  C   UNL A   1      31.949  28.615  22.573  1.00  0.00     0.430 C 
ATOM     27  F   UNL A   1      31.584  27.394  22.121  1.00  0.00    -0.167 F 
ATOM     28  F   UNL A   1      31.015  29.494  22.118  1.00  0.00    -0.167 F 
ATOM     29  F   UNL A   1      33.115  28.941  21.965  1.00  0.00    -0.167 F 
ENDBRANCH  18  26
ENDBRANCH   6   8
ENDBRANCH   5   6
ENDBRANCH   4   5
ENDBRANCH   3   4
ENDBRANCH   2   3
ENDBRANCH   1   2
BRANCH   1  30
ATOM     30  C   UNL A   1      32.996  35.098  28.815  1.00  0.00     0.261 C 
BRANCH  30  31
ATOM     31  O   UNL A   1      33.926  34.893  30.035  1.00  0.00    -0.460 OA
BRANCH  31  32
ATOM     32  C   UNL A   1      34.924  34.270  30.741  1.00  0.00     0.338 C 
ATOM     33  O   UNL A   1      35.537  34.821  31.684  1.00  0.00    -0.246 OA
BRANCH  32  34
ATOM     34  C   UNL A   1      35.683  33.165  29.987  1.00  0.00     0.060 A 
ATOM     35  C   UNL A   1      35.363  31.805  30.048  1.00  0.00     0.016 A 
ATOM     36  C   UNL A   1      36.823  33.417  29.272  1.00  0.00     0.016 A 
ATOM     37  C   UNL A   1      36.382  30.835  30.102  1.00  0.00     0.010 A 
ATOM     38  C   UNL A   1      37.871  32.531  29.458  1.00  0.00     0.010 A 
ATOM     39  C   UNL A   1      37.670  31.293  30.073  1.00  0.00    -0.014 A 
BRANCH  39  40
ATOM     40  C   UNL A   1      38.876  30.625  30.559  1.00  0.00     0.031 A 
ATOM     41  C   UNL A   1      39.225  29.357  29.868  1.00  0.00     0.074 A 
ATOM     42  C   UNL A   1      39.788  31.277  31.333  1.00  0.00     0.049 A 
ATOM     43  N   UNL A   1      40.183  28.566  30.188  1.00  0.00    -0.248 NA
ATOM     44  C   UNL A   1      38.472  28.865  28.715  1.00  0.00     0.031 C 
ATOM     45  C   UNL A   1      41.219  30.983  31.374  1.00  0.00     0.029 A 
ATOM     46  N   UNL A   1      39.665  32.325  32.253  1.00  0.00    -0.354 N 
ATOM     47  C   UNL A   1      40.397  27.716  29.119  1.00  0.00     0.074 A 
ATOM     48  C   UNL A   1      39.237  27.861  28.291  1.00  0.00     0.031 C 
ATOM     49  C   UNL A   1      41.790  31.601  32.414  1.00  0.00     0.029 A 
ATOM     50  C   UNL A   1      40.749  32.304  33.143  1.00  0.00     0.049 A 
ATOM     51  H   UNL A   1      38.929  32.978  32.272  1.00  0.00     0.167 HD
ATOM     52  C   UNL A   1      41.616  27.122  28.998  1.00  0.00     0.034 A 
ATOM     53  C   UNL A   1      40.615  32.231  34.502  1.00  0.00     0.034 A 
ATOM     54  C   UNL A   1      42.441  27.475  30.174  1.00  0.00     0.049 A 
ATOM     55  C   UNL A   1      41.031  30.842  34.934  1.00  0.00     0.074 A 
ATOM     56  C   UNL A   1      43.486  28.365  30.339  1.00  0.00     0.029 A 
ATOM     57  N   UNL A   1      41.983  27.179  31.462  1.00  0.00    -0.354 N 
ATOM     58  N   UNL A   1      41.063  29.845  34.085  1.00  0.00    -0.248 NA
ATOM     59  C   UNL A   1      41.639  30.497  36.217  1.00  0.00     0.031 C 
ATOM     60  C   UNL A   1      43.579  28.684  31.726  1.00  0.00     0.029 A 
ATOM     61  C   UNL A   1      42.599  27.980  32.416  1.00  0.00     0.049 A 
ATOM     62  H   UNL A   1      41.309  26.491  31.667  1.00  0.00     0.167 HD
ATOM     63  C   UNL A   1      41.851  28.858  34.577  1.00  0.00     0.074 A 
ATOM     64  C   UNL A   1      42.122  29.268  35.949  1.00  0.00     0.031 C 
ATOM     65  C   UNL A   1      42.320  27.809  33.841  1.00  0.00     0.034 A 
BRANCH  52  66
ATOM     66  C   UNL A   1      42.187  26.442  27.745  1.00  0.00     0.023 A 
ATOM     67  C   UNL A   1      42.662  27.302  26.725  1.00  0.00     0.012 A 
ATOM     68  C   UNL A   1      42.276  25.054  27.445  1.00  0.00     0.148 A 
ATOM     69  C   UNL A   1      43.157  26.836  25.499  1.00  0.00     0.002 A 
ATOM     70  C   UNL A   1      42.782  24.583  26.224  1.00  0.00     0.091 A 
ATOM     71  F   UNL A   1      41.884  24.144  28.332  1.00  0.00    -0.205 F 
ATOM     72  C   UNL A   1      43.217  25.475  25.245  1.00  0.00     0.022 A 
BRANCH  70  73
ATOM     73  S   UNL A   1      42.915  22.826  25.817  1.00  0.00     0.127 S 
ATOM     74  O   UNL A   1      43.253  22.863  24.393  1.00  0.00    -0.237 OA
ATOM     75  O   UNL A   1      44.007  22.387  26.686  1.00  0.00    -0.237 OA
ATOM     76  O   UNL A   1      41.617  22.230  26.110  1.00  0.00    -0.744 OA
ENDBRANCH  70  73
ENDBRANCH  52  66
BRANCH  53  77
ATOM     77  C   UNL A   1      39.564  33.141  35.033  1.00  0.00     0.023 A 
ATOM     78  C   UNL A   1      38.337  32.503  35.384  1.00  0.00     0.012 A 
ATOM     79  C   UNL A   1      39.940  34.308  35.702  1.00  0.00     0.148 A 
ATOM     80  C   UNL A   1      37.623  32.887  36.518  1.00  0.00     0.002 A 
ATOM     81  C   UNL A   1      39.262  34.636  36.870  1.00  0.00     0.091 A 
ATOM     82  F   UNL A   1      41.025  34.973  35.287  1.00  0.00    -0.205 F 
ATOM     83  C   UNL A   1      38.118  33.923  37.288  1.00  0.00     0.022 A 
BRANCH  81  84
ATOM     84  S   UNL A   1      40.088  35.543  38.173  1.00  0.00     0.127 S 
ATOM     85  O   UNL A   1      41.412  34.935  38.228  1.00  0.00    -0.237 OA
ATOM     86  O   UNL A   1      40.069  36.870  37.565  1.00  0.00    -0.237 OA
ATOM     87  O   UNL A   1      39.267  35.380  39.361  1.00  0.00    -0.744 OA
ENDBRANCH  81  84
ENDBRANCH  53  77
BRANCH  65  88
ATOM     88  C   UNL A   1      42.580  26.480  34.487  1.00  0.00     0.023 A 
ATOM     89  C   UNL A   1      41.597  25.878  35.297  1.00  0.00     0.012 A 
ATOM     90  C   UNL A   1      43.694  25.698  34.114  1.00  0.00     0.148 A 
ATOM     91  C   UNL A   1      41.750  24.587  35.788  1.00  0.00     0.002 A 
ATOM     92  C   UNL A   1      43.761  24.365  34.477  1.00  0.00     0.091 A 
ATOM     93  F   UNL A   1      44.692  26.239  33.402  1.00  0.00    -0.205 F 
ATOM     94  C   UNL A   1      42.820  23.819  35.353  1.00  0.00     0.022 A 
BRANCH  92  95
ATOM     95  S   UNL A   1      44.929  23.246  33.701  1.00  0.00     0.127 S 
ATOM     96  O   UNL A   1      46.206  23.830  34.103  1.00  0.00    -0.237 OA
ATOM     97  O   UNL A   1      44.603  21.975  34.349  1.00  0.00    -0.237 OA
ATOM     98  O   UNL A   1      44.633  23.285  32.276  1.00  0.00    -0.744 OA
ENDBRANCH  92  95
ENDBRANCH  65  88
ENDBRANCH  39  40
ENDBRANCH  32  34
ENDBRANCH  31  32
ENDBRANCH  30  31
ENDBRANCH   1  30
TORSDOF 19
ENDMDL
MODEL 3
REMARK VINA RESULT:     -11.7      4.908      7.997
REMARK SMILES Cc1ccccc1-c1c(Cl)ccc2c1C=C(C(=O)OCCOCCOC(=O)c1ccc(-c3c4nc(c(-c5cccc(S(=O)(=O)[O-])c5F)c5ccc([nH]5)c(-c5cccc(S(=O)(=O)[O-])c5F)c5nc(c(-c6cccc(S(=O)(=O)[O-])c6F)c6ccc3[nH]6)C=C5)C=C4)cc1)[C@@H](C(F)(F)F)O2
REMARK SMILES IDX 23 1 22 2 21 3 20 4 19 5 17 6 18 7 16 8 8 9 9 10 14 11 10 12
REMARK SMILES IDX 11 13 13 14 15 15 12 16 96 17 91 18 7 19 1 20 2 21 3 22 4 23
REMARK SMILES IDX 6 24 5 25 92 26 93 27 94 28 95 29 24 30 25 31 26 32 27 33
REMARK SMILES IDX 28 34 29 35 90 36 30 37 89 38 31 39 32 40 33 41 83 42 34 43
REMARK SMILES IDX 88 44 82 45 84 46 35 47 87 48 81 49 80 50 36 52 68 53 48 54
REMARK SMILES IDX 67 55 49 56 52 57 66 58 85 59 50 60 51 61 65 63 86 64 53 65
REMARK SMILES IDX 37 66 38 67 46 68 39 69 41 70 47 71 40 72 42 73 43 74 44 75
REMARK SMILES IDX 45 76 69 77 70 78 78 79 71 80 73 81 79 82 72 83 74 84 75 85
REMARK SMILES IDX 76 86 77 87 54 88 55 89 63 90 56 91 58 92 64 93 57 94 59 95
REMARK SMILES IDX 60 96 61 97 62 98
REMARK H PARENT 84 51 52 62
REMARK Flexibility Score: inf
ROOT
ATOM      1  C   UNL A   1      40.722  19.947  26.231  1.00  0.00     0.202 C 
ENDROOT
BRANCH   1   2
ATOM      2  O   UNL A   1      39.763  20.728  26.907  1.00  0.00    -0.374 OA
BRANCH   2   3
ATOM      3  C   UNL A   1      39.457  21.889  26.184  1.00  0.00     0.202 C 
BRANCH   3   4
ATOM      4  C   UNL A   1      38.211  21.828  25.273  1.00  0.00     0.261 C 
BRANCH   4   5
ATOM      5  O   UNL A   1      37.008  21.848  26.019  1.00  0.00    -0.460 OA
BRANCH   5   6
ATOM      6  C   UNL A   1      36.384  23.024  25.816  1.00  0.00     0.338 C 
ATOM      7  O   UNL A   1      36.758  23.936  25.100  1.00  0.00    -0.246 OA
BRANCH   6   8
ATOM      8  C   UNL A   1      35.010  22.850  26.348  1.00  0.00     0.087 C 
ATOM      9  C   UNL A   1      33.295  25.546  24.531  1.00  0.00     0.012 A 
ATOM     10  C   UNL A   1      33.113  25.750  23.136  1.00  0.00     0.049 A 
ATOM     11  C   UNL A   1      33.753  24.254  24.904  1.00  0.00     0.027 A 
ATOM     12  Cl  UNL A   1      32.639  27.282  22.465  1.00  0.00    -0.084 Cl
ATOM     13  C   UNL A   1      33.329  24.729  22.195  1.00  0.00     0.025 A 
ATOM     14  C   UNL A   1      33.850  23.202  23.952  1.00  0.00     0.128 A 
ATOM     15  C   UNL A   1      34.242  23.950  26.268  1.00  0.00     0.028 C 
ATOM     16  C   UNL A   1      33.691  23.453  22.601  1.00  0.00     0.049 A 
ATOM     17  O   UNL A   1      34.132  21.891  24.272  1.00  0.00    -0.475 OA
ATOM     18  C   UNL A   1      34.477  21.621  25.651  1.00  0.00     0.316 C 
BRANCH   9  19
ATOM     19  C   UNL A   1      32.931  26.608  25.537  1.00  0.00    -0.013 A 
ATOM     20  C   UNL A   1      30.522  25.817  26.041  1.00  0.00     0.045 C 
ATOM     21  C   UNL A   1      31.669  26.772  26.157  1.00  0.00    -0.043 A 
ATOM     22  C   UNL A   1      31.449  27.810  27.087  1.00  0.00     0.004 A 
ATOM     23  C   UNL A   1      32.476  28.645  27.492  1.00  0.00     0.000 A 
ATOM     24  C   UNL A   1      33.934  27.527  25.930  1.00  0.00     0.009 A 
ATOM     25  C   UNL A   1      33.729  28.493  26.922  1.00  0.00     0.001 A 
ENDBRANCH   9  19
BRANCH  18  26
ATOM     26  C   UNL A   1      33.301  21.045  26.434  1.00  0.00     0.430 C 
ATOM     27  F   UNL A   1      33.188  19.708  26.274  1.00  0.00    -0.167 F 
ATOM     28  F   UNL A   1      33.451  21.266  27.769  1.00  0.00    -0.167 F 
ATOM     29  F   UNL A   1      32.117  21.598  26.081  1.00  0.00    -0.167 F 
ENDBRANCH  18  26
ENDBRANCH   6   8
ENDBRANCH   5   6
ENDBRANCH   4   5
ENDBRANCH   3   4
ENDBRANCH   2   3
ENDBRANCH   1   2
BRANCH   1  30
ATOM     30  C   UNL A   1      42.288  20.299  26.171  1.00  0.00     0.261 C 
BRANCH  30  31
ATOM     31  O   UNL A   1      42.957  21.527  25.509  1.00  0.00    -0.460 OA
BRANCH  31  32
ATOM     32  C   UNL A   1      43.120  22.868  25.268  1.00  0.00     0.338 C 
ATOM     33  O   UNL A   1      43.685  23.312  24.242  1.00  0.00    -0.246 OA
BRANCH  32  34
ATOM     34  C   UNL A   1      43.164  23.769  26.514  1.00  0.00     0.060 A 
ATOM     35  C   UNL A   1      43.333  25.157  26.479  1.00  0.00     0.016 A 
ATOM     36  C   UNL A   1      43.154  23.261  27.785  1.00  0.00     0.016 A 
ATOM     37  C   UNL A   1      44.143  25.800  27.434  1.00  0.00     0.010 A 
ATOM     38  C   UNL A   1      44.068  23.806  28.670  1.00  0.00     0.010 A 
ATOM     39  C   UNL A   1      44.725  25.006  28.383  1.00  0.00    -0.014 A 
BRANCH  39  40
ATOM     40  C   UNL A   1      45.921  25.278  29.178  1.00  0.00     0.031 A 
ATOM     41  C   UNL A   1      47.213  25.075  28.474  1.00  0.00     0.074 A 
ATOM     42  C   UNL A   1      45.858  25.987  30.340  1.00  0.00     0.049 A 
ATOM     43  N   UNL A   1      48.379  25.168  29.002  1.00  0.00    -0.248 NA
ATOM     44  C   UNL A   1      47.282  24.726  27.056  1.00  0.00     0.031 C 
ATOM     45  C   UNL A   1      46.934  26.814  30.880  1.00  0.00     0.029 A 
ATOM     46  N   UNL A   1      44.851  26.130  31.303  1.00  0.00    -0.354 N 
ATOM     47  C   UNL A   1      49.297  25.264  27.973  1.00  0.00     0.074 A 
ATOM     48  C   UNL A   1      48.581  24.862  26.799  1.00  0.00     0.031 C 
ATOM     49  C   UNL A   1      46.668  27.152  32.147  1.00  0.00     0.029 A 
ATOM     50  C   UNL A   1      45.415  26.524  32.524  1.00  0.00     0.049 A 
ATOM     51  H   UNL A   1      43.891  25.977  31.145  1.00  0.00     0.167 HD
ATOM     52  C   UNL A   1      50.505  25.834  28.234  1.00  0.00     0.034 A 
ATOM     53  C   UNL A   1      45.253  25.834  33.694  1.00  0.00     0.034 A 
ATOM     54  C   UNL A   1      50.587  26.145  29.677  1.00  0.00     0.049 A 
ATOM     55  C   UNL A   1      46.565  25.153  34.015  1.00  0.00     0.074 A 
ATOM     56  C   UNL A   1      50.476  27.331  30.378  1.00  0.00     0.029 A 
ATOM     57  N   UNL A   1      50.419  25.126  30.621  1.00  0.00    -0.354 N 
ATOM     58  N   UNL A   1      47.470  24.945  33.092  1.00  0.00    -0.248 NA
ATOM     59  C   UNL A   1      47.066  24.864  35.357  1.00  0.00     0.031 C 
ATOM     60  C   UNL A   1      50.131  27.018  31.726  1.00  0.00     0.029 A 
ATOM     61  C   UNL A   1      50.043  25.637  31.858  1.00  0.00     0.049 A 
ATOM     62  H   UNL A   1      50.550  24.169  30.433  1.00  0.00     0.167 HD
ATOM     63  C   UNL A   1      48.674  24.735  33.677  1.00  0.00     0.074 A 
ATOM     64  C   UNL A   1      48.363  24.605  35.095  1.00  0.00     0.031 C 
ATOM     65  C   UNL A   1      49.866  24.761  33.016  1.00  0.00     0.034 A 
BRANCH  52  66
ATOM     66  C   UNL A   1      51.517  26.357  27.203  1.00  0.00     0.023 A 
ATOM     67  C   UNL A   1      52.859  25.943  27.376  1.00  0.00     0.012 A 
ATOM     68  C   UNL A   1      51.299  27.236  26.106  1.00  0.00     0.148 A 
ATOM     69  C   UNL A   1      53.908  26.382  26.554  1.00  0.00     0.002 A 
ATOM     70  C   UNL A   1      52.343  27.668  25.274  1.00  0.00     0.091 A 
ATOM     71  F   UNL A   1      50.076  27.677  25.825  1.00  0.00    -0.205 F 
ATOM     72  C   UNL A   1      53.652  27.246  25.502  1.00  0.00     0.022 A 
BRANCH  70  73
ATOM     73  S   UNL A   1      52.097  28.778  23.867  1.00  0.00     0.127 S 
ATOM     74  O   UNL A   1      51.594  29.991  24.516  1.00  0.00    -0.237 OA
ATOM     75  O   UNL A   1      53.450  28.899  23.326  1.00  0.00    -0.237 OA
ATOM     76  O   UNL A   1      51.136  28.127  22.985  1.00  0.00    -0.744 OA
ENDBRANCH  70  73
ENDBRANCH  52  66
BRANCH  53  77
ATOM     77  C   UNL A   1      43.848  25.399  33.922  1.00  0.00     0.023 A 
ATOM     78  C   UNL A   1      43.666  23.988  34.029  1.00  0.00     0.012 A 
ATOM     79  C   UNL A   1      42.965  26.251  34.588  1.00  0.00     0.148 A 
ATOM     80  C   UNL A   1      42.773  23.443  34.951  1.00  0.00     0.002 A 
ATOM     81  C   UNL A   1      42.131  25.700  35.554  1.00  0.00     0.091 A 
ATOM     82  F   UNL A   1      43.060  27.571  34.386  1.00  0.00    -0.205 F 
ATOM     83  C   UNL A   1      42.043  24.305  35.749  1.00  0.00     0.022 A 
BRANCH  81  84
ATOM     84  S   UNL A   1      41.594  26.679  36.952  1.00  0.00     0.127 S 
ATOM     85  O   UNL A   1      40.765  25.758  37.719  1.00  0.00    -0.237 OA
ATOM     86  O   UNL A   1      42.898  26.944  37.551  1.00  0.00    -0.237 OA
ATOM     87  O   UNL A   1      40.908  27.834  36.395  1.00  0.00    -0.744 OA
ENDBRANCH  81  84
ENDBRANCH  53  77
BRANCH  65  88
ATOM     88  C   UNL A   1      51.015  23.917  33.481  1.00  0.00     0.023 A 
ATOM     89  C   UNL A   1      52.222  24.518  33.890  1.00  0.00     0.012 A 
ATOM     90  C   UNL A   1      50.843  22.542  33.749  1.00  0.00     0.148 A 
ATOM     91  C   UNL A   1      53.248  23.775  34.462  1.00  0.00     0.002 A 
ATOM     92  C   UNL A   1      51.804  21.845  34.458  1.00  0.00     0.091 A 
ATOM     93  F   UNL A   1      49.745  21.901  33.321  1.00  0.00    -0.205 F 
ATOM     94  C   UNL A   1      53.027  22.443  34.773  1.00  0.00     0.022 A 
BRANCH  92  95
ATOM     95  S   UNL A   1      51.455  20.232  35.162  1.00  0.00     0.127 S 
ATOM     96  O   UNL A   1      51.804  19.346  34.054  1.00  0.00    -0.237 OA
ATOM     97  O   UNL A   1      52.380  20.193  36.296  1.00  0.00    -0.237 OA
ATOM     98  O   UNL A   1      50.048  20.257  35.539  1.00  0.00    -0.744 OA
ENDBRANCH  92  95
ENDBRANCH  65  88
ENDBRANCH  39  40
ENDBRANCH  32  34
ENDBRANCH  31  32
ENDBRANCH  30  31
ENDBRANCH   1  30
TORSDOF 19
ENDMDL
