MODEL 1
REMARK VINA RESULT:     -10.2      0.000      0.000
REMARK SMILES COc1cc([C@@H]2CC(=O)Nc3c(C(=O)OCCOCCOC(=O)c4ccc(-c5c6nc(c(-c7cccc(S(=O)(=O)[O-])c7F)c7ccc([nH]7)c(-c7cccc(S(=O)(=O)[O-])c7F)c7nc(c(-c8cccc(S(=O)(=O)[O-])c8F)c8ccc5[nH]8)C=C7)C=C6)cc4)cn(-c4ccc(F)cc4)c32)c(OC)c2c1OCO2
REMARK SMILES IDX 19 1 18 2 17 3 16 4 15 5 13 6 14 7 12 8 6 9 7 10 96 11 8 12
REMARK SMILES IDX 11 13 88 14 9 15 10 16 87 17 5 19 3 20 4 21 101 22 100 23
REMARK SMILES IDX 102 24 97 25 104 26 103 27 2 28 1 29 98 30 99 31 89 32 90 33
REMARK SMILES IDX 95 34 91 35 94 36 92 37 93 38 20 39 21 40 22 41 23 42 24 43
REMARK SMILES IDX 25 44 86 45 26 46 85 47 27 48 28 49 29 50 79 51 30 52 84 53
REMARK SMILES IDX 78 54 80 55 31 56 83 57 77 58 76 59 32 61 64 62 44 63 63 64
REMARK SMILES IDX 45 65 48 66 62 67 81 68 46 69 47 70 61 72 82 73 49 74 33 75
REMARK SMILES IDX 34 76 42 77 35 78 37 79 43 80 36 81 38 82 39 83 40 84 41 85
REMARK SMILES IDX 65 86 66 87 74 88 67 89 69 90 75 91 68 92 70 93 71 94 72 95
REMARK SMILES IDX 73 96 50 97 51 98 59 99 52 100 54 101 60 102 53 103 55 104
REMARK SMILES IDX 56 105 57 106 58 107
REMARK H PARENT 10 18 80 60 48 71
REMARK Flexibility Score: inf
ROOT
ATOM      1  C   UNL A   1      46.701  39.505  25.859  1.00  0.00     0.202 C 
ENDROOT
BRANCH   1   2
ATOM      2  O   UNL A   1      46.748  40.909  25.631  1.00  0.00    -0.374 OA
BRANCH   2   3
ATOM      3  C   UNL A   1      47.379  41.775  26.573  1.00  0.00     0.202 C 
BRANCH   3   4
ATOM      4  C   UNL A   1      46.647  43.054  26.988  1.00  0.00     0.261 C 
BRANCH   4   5
ATOM      5  O   UNL A   1      46.221  43.831  25.860  1.00  0.00    -0.460 OA
BRANCH   5   6
ATOM      6  C   UNL A   1      47.147  44.729  25.414  1.00  0.00     0.341 C 
ATOM      7  O   UNL A   1      47.938  45.330  26.127  1.00  0.00    -0.246 OA
BRANCH   6   8
ATOM      8  C   UNL A   1      47.180  44.822  23.966  1.00  0.00     0.102 A 
ATOM      9  C   UNL A   1      46.390  43.653  20.573  1.00  0.00     0.082 C 
ATOM     10  C   UNL A   1      46.962  42.225  20.634  1.00  0.00     0.115 C 
ATOM     11  C   UNL A   1      46.840  44.413  21.784  1.00  0.00     0.055 A 
ATOM     12  C   UNL A   1      46.987  41.608  22.027  1.00  0.00     0.225 C 
ATOM     13  C   UNL A   1      47.159  43.814  22.982  1.00  0.00     0.078 A 
ATOM     14  N   UNL A   1      46.981  45.774  21.936  1.00  0.00    -0.317 N 
ATOM     15  O   UNL A   1      46.886  40.393  22.203  1.00  0.00    -0.275 OA
ATOM     16  N   UNL A   1      47.210  42.444  23.096  1.00  0.00    -0.324 N 
ATOM     17  C   UNL A   1      47.205  46.025  23.271  1.00  0.00     0.109 A 
ATOM     18  H   UNL A   1      47.416  42.049  23.974  1.00  0.00     0.170 HD
BRANCH   9  19
ATOM     19  C   UNL A   1      44.858  43.669  20.396  1.00  0.00     0.012 A 
ATOM     20  C   UNL A   1      42.710  42.724  21.129  1.00  0.00     0.165 A 
ATOM     21  C   UNL A   1      44.087  42.886  21.297  1.00  0.00     0.059 A 
ATOM     22  C   UNL A   1      42.092  43.443  20.125  1.00  0.00     0.211 A 
ATOM     23  C   UNL A   1      42.814  44.247  19.266  1.00  0.00     0.211 A 
ATOM     24  O   UNL A   1      40.757  43.466  19.846  1.00  0.00    -0.449 OA
ATOM     25  C   UNL A   1      44.192  44.370  19.358  1.00  0.00     0.168 A 
ATOM     26  O   UNL A   1      42.004  44.841  18.341  1.00  0.00    -0.449 OA
ATOM     27  C   UNL A   1      40.707  44.448  18.802  1.00  0.00     0.468 C 
BRANCH  20  28
ATOM     28  O   UNL A   1      42.083  41.874  21.995  1.00  0.00    -0.493 OA
ATOM     29  C   UNL A   1      41.591  42.520  23.167  1.00  0.00     0.278 C 
ENDBRANCH  20  28
BRANCH  25  30
ATOM     30  O   UNL A   1      44.968  45.082  18.503  1.00  0.00    -0.492 OA
ATOM     31  C   UNL A   1      44.553  45.307  17.168  1.00  0.00     0.278 C 
ENDBRANCH  25  30
ENDBRANCH   9  19
BRANCH  14  32
ATOM     32  C   UNL A   1      46.829  46.777  20.962  1.00  0.00     0.046 A 
ATOM     33  C   UNL A   1      47.884  47.046  20.087  1.00  0.00     0.029 A 
ATOM     34  C   UNL A   1      45.624  47.481  20.874  1.00  0.00     0.029 A 
ATOM     35  C   UNL A   1      47.770  48.086  19.169  1.00  0.00     0.041 A 
ATOM     36  C   UNL A   1      45.515  48.523  19.948  1.00  0.00     0.041 A 
ATOM     37  C   UNL A   1      46.592  48.823  19.117  1.00  0.00     0.123 A 
ATOM     38  F   UNL A   1      46.490  49.832  18.242  1.00  0.00    -0.207 F 
ENDBRANCH  14  32
ENDBRANCH   6   8
ENDBRANCH   5   6
ENDBRANCH   4   5
ENDBRANCH   3   4
ENDBRANCH   2   3
ENDBRANCH   1   2
BRANCH   1  39
ATOM     39  C   UNL A   1      45.788  38.947  26.938  1.00  0.00     0.261 C 
BRANCH  39  40
ATOM     40  O   UNL A   1      45.800  37.533  26.995  1.00  0.00    -0.460 OA
BRANCH  40  41
ATOM     41  C   UNL A   1      45.962  37.057  28.253  1.00  0.00     0.338 C 
ATOM     42  O   UNL A   1      46.983  37.068  28.916  1.00  0.00    -0.246 OA
BRANCH  41  43
ATOM     43  C   UNL A   1      44.735  36.369  28.652  1.00  0.00     0.060 A 
ATOM     44  C   UNL A   1      44.579  36.107  30.014  1.00  0.00     0.016 A 
ATOM     45  C   UNL A   1      43.930  35.763  27.675  1.00  0.00     0.016 A 
ATOM     46  C   UNL A   1      43.742  35.081  30.385  1.00  0.00     0.010 A 
ATOM     47  C   UNL A   1      43.110  34.729  28.046  1.00  0.00     0.010 A 
ATOM     48  C   UNL A   1      43.089  34.351  29.385  1.00  0.00    -0.014 A 
BRANCH  48  49
ATOM     49  C   UNL A   1      42.221  33.265  29.782  1.00  0.00     0.031 A 
ATOM     50  C   UNL A   1      40.919  33.783  30.254  1.00  0.00     0.074 A 
ATOM     51  C   UNL A   1      42.561  31.971  29.620  1.00  0.00     0.049 A 
ATOM     52  N   UNL A   1      40.513  33.853  31.478  1.00  0.00    -0.248 NA
ATOM     53  C   UNL A   1      40.085  34.540  29.305  1.00  0.00     0.031 C 
ATOM     54  C   UNL A   1      43.740  31.438  28.925  1.00  0.00     0.029 A 
ATOM     55  N   UNL A   1      41.862  30.847  29.936  1.00  0.00    -0.354 N 
ATOM     56  C   UNL A   1      39.226  34.374  31.389  1.00  0.00     0.074 A 
ATOM     57  C   UNL A   1      39.138  35.023  30.112  1.00  0.00     0.031 C 
ATOM     58  C   UNL A   1      43.549  30.124  28.664  1.00  0.00     0.029 A 
ATOM     59  C   UNL A   1      42.314  29.694  29.295  1.00  0.00     0.049 A 
ATOM     60  H   UNL A   1      41.103  30.847  30.564  1.00  0.00     0.167 HD
ATOM     61  C   UNL A   1      38.244  33.883  32.192  1.00  0.00     0.034 A 
ATOM     62  C   UNL A   1      41.687  28.492  29.264  1.00  0.00     0.034 A 
ATOM     63  C   UNL A   1      38.809  33.122  33.277  1.00  0.00     0.049 A 
ATOM     64  C   UNL A   1      40.768  28.458  30.420  1.00  0.00     0.074 A 
ATOM     65  C   UNL A   1      39.511  33.389  34.431  1.00  0.00     0.029 A 
ATOM     66  N   UNL A   1      39.021  31.805  32.956  1.00  0.00    -0.354 N 
ATOM     67  N   UNL A   1      41.189  28.433  31.652  1.00  0.00    -0.248 NA
ATOM     68  C   UNL A   1      39.368  28.821  30.240  1.00  0.00     0.031 C 
ATOM     69  C   UNL A   1      40.294  32.227  34.692  1.00  0.00     0.029 A 
ATOM     70  C   UNL A   1      40.012  31.263  33.724  1.00  0.00     0.049 A 
ATOM     71  H   UNL A   1      38.524  31.314  32.262  1.00  0.00     0.167 HD
ATOM     72  C   UNL A   1      40.276  29.223  32.324  1.00  0.00     0.074 A 
ATOM     73  C   UNL A   1      39.094  29.261  31.471  1.00  0.00     0.031 C 
ATOM     74  C   UNL A   1      40.682  30.043  33.334  1.00  0.00     0.034 A 
BRANCH  61  75
ATOM     75  C   UNL A   1      36.817  33.621  31.743  1.00  0.00     0.023 A 
ATOM     76  C   UNL A   1      36.623  32.579  30.810  1.00  0.00     0.012 A 
ATOM     77  C   UNL A   1      35.730  34.506  31.942  1.00  0.00     0.148 A 
ATOM     78  C   UNL A   1      35.429  32.447  30.092  1.00  0.00     0.002 A 
ATOM     79  C   UNL A   1      34.519  34.327  31.282  1.00  0.00     0.091 A 
ATOM     80  F   UNL A   1      35.888  35.617  32.661  1.00  0.00    -0.205 F 
ATOM     81  C   UNL A   1      34.372  33.315  30.333  1.00  0.00     0.022 A 
BRANCH  79  82
ATOM     82  S   UNL A   1      33.114  35.409  31.582  1.00  0.00     0.127 S 
ATOM     83  O   UNL A   1      32.432  35.365  30.292  1.00  0.00    -0.237 OA
ATOM     84  O   UNL A   1      32.431  34.710  32.671  1.00  0.00    -0.237 OA
ATOM     85  O   UNL A   1      33.681  36.697  31.960  1.00  0.00    -0.744 OA
ENDBRANCH  79  82
ENDBRANCH  61  75
BRANCH  62  86
ATOM     86  C   UNL A   1      41.667  27.408  28.255  1.00  0.00     0.023 A 
ATOM     87  C   UNL A   1      41.118  27.648  26.978  1.00  0.00     0.012 A 
ATOM     88  C   UNL A   1      42.473  26.264  28.432  1.00  0.00     0.148 A 
ATOM     89  C   UNL A   1      41.401  26.802  25.898  1.00  0.00     0.002 A 
ATOM     90  C   UNL A   1      42.759  25.430  27.353  1.00  0.00     0.091 A 
ATOM     91  F   UNL A   1      43.026  26.052  29.634  1.00  0.00    -0.205 F 
ATOM     92  C   UNL A   1      42.235  25.704  26.081  1.00  0.00     0.022 A 
BRANCH  90  93
ATOM     93  S   UNL A   1      43.872  24.022  27.484  1.00  0.00     0.127 S 
ATOM     94  O   UNL A   1      43.010  23.017  28.105  1.00  0.00    -0.237 OA
ATOM     95  O   UNL A   1      44.200  23.767  26.085  1.00  0.00    -0.237 OA
ATOM     96  O   UNL A   1      44.979  24.467  28.319  1.00  0.00    -0.744 OA
ENDBRANCH  90  93
ENDBRANCH  62  86
BRANCH  74  97
ATOM     97  C   UNL A   1      42.001  29.737  33.979  1.00  0.00     0.023 A 
ATOM     98  C   UNL A   1      42.185  28.690  34.905  1.00  0.00     0.012 A 
ATOM     99  C   UNL A   1      43.114  30.478  33.551  1.00  0.00     0.148 A 
ATOM    100  C   UNL A   1      43.460  28.400  35.403  1.00  0.00     0.002 A 
ATOM    101  C   UNL A   1      44.381  30.158  34.012  1.00  0.00     0.091 A 
ATOM    102  F   UNL A   1      42.909  31.472  32.675  1.00  0.00    -0.205 F 
ATOM    103  C   UNL A   1      44.559  29.126  34.947  1.00  0.00     0.022 A 
BRANCH 101 104
ATOM    104  S   UNL A   1      45.840  30.978  33.373  1.00  0.00     0.127 S 
ATOM    105  O   UNL A   1      46.372  29.978  32.448  1.00  0.00    -0.237 OA
ATOM    106  O   UNL A   1      45.274  32.166  32.734  1.00  0.00    -0.237 OA
ATOM    107  O   UNL A   1      46.681  31.266  34.529  1.00  0.00    -0.744 OA
ENDBRANCH 101 104
ENDBRANCH  74  97
ENDBRANCH  48  49
ENDBRANCH  41  43
ENDBRANCH  40  41
ENDBRANCH  39  40
ENDBRANCH   1  39
TORSDOF 21
ENDMDL
MODEL 2
REMARK VINA RESULT:     -10.1      7.198     11.338
REMARK SMILES COc1cc([C@@H]2CC(=O)Nc3c(C(=O)OCCOCCOC(=O)c4ccc(-c5c6nc(c(-c7cccc(S(=O)(=O)[O-])c7F)c7ccc([nH]7)c(-c7cccc(S(=O)(=O)[O-])c7F)c7nc(c(-c8cccc(S(=O)(=O)[O-])c8F)c8ccc5[nH]8)C=C7)C=C6)cc4)cn(-c4ccc(F)cc4)c32)c(OC)c2c1OCO2
REMARK SMILES IDX 19 1 18 2 17 3 16 4 15 5 13 6 14 7 12 8 6 9 7 10 96 11 8 12
REMARK SMILES IDX 11 13 88 14 9 15 10 16 87 17 5 19 3 20 4 21 101 22 100 23
REMARK SMILES IDX 102 24 97 25 104 26 103 27 2 28 1 29 98 30 99 31 89 32 90 33
REMARK SMILES IDX 95 34 91 35 94 36 92 37 93 38 20 39 21 40 22 41 23 42 24 43
REMARK SMILES IDX 25 44 86 45 26 46 85 47 27 48 28 49 29 50 79 51 30 52 84 53
REMARK SMILES IDX 78 54 80 55 31 56 83 57 77 58 76 59 32 61 64 62 44 63 63 64
REMARK SMILES IDX 45 65 48 66 62 67 81 68 46 69 47 70 61 72 82 73 49 74 33 75
REMARK SMILES IDX 34 76 42 77 35 78 37 79 43 80 36 81 38 82 39 83 40 84 41 85
REMARK SMILES IDX 65 86 66 87 74 88 67 89 69 90 75 91 68 92 70 93 71 94 72 95
REMARK SMILES IDX 73 96 50 97 51 98 59 99 52 100 54 101 60 102 53 103 55 104
REMARK SMILES IDX 56 105 57 106 58 107
REMARK H PARENT 10 18 80 60 48 71
REMARK Flexibility Score: inf
ROOT
ATOM      1  C   UNL A   1      47.871  34.587  27.459  1.00  0.00     0.202 C 
ENDROOT
BRANCH   1   2
ATOM      2  O   UNL A   1      46.796  34.364  26.553  1.00  0.00    -0.374 OA
BRANCH   2   3
ATOM      3  C   UNL A   1      46.087  33.125  26.563  1.00  0.00     0.202 C 
BRANCH   3   4
ATOM      4  C   UNL A   1      46.778  31.896  27.159  1.00  0.00     0.261 C 
BRANCH   4   5
ATOM      5  O   UNL A   1      47.395  31.076  26.159  1.00  0.00    -0.460 OA
BRANCH   5   6
ATOM      6  C   UNL A   1      46.834  29.839  26.021  1.00  0.00     0.341 C 
ATOM      7  O   UNL A   1      46.208  29.460  25.043  1.00  0.00    -0.246 OA
BRANCH   6   8
ATOM      8  C   UNL A   1      47.155  28.956  27.129  1.00  0.00     0.102 A 
ATOM      9  C   UNL A   1      49.124  27.929  30.057  1.00  0.00     0.082 C 
ATOM     10  C   UNL A   1      50.535  27.902  29.443  1.00  0.00     0.115 C 
ATOM     11  C   UNL A   1      48.115  28.074  28.958  1.00  0.00     0.055 A 
ATOM     12  C   UNL A   1      50.736  28.848  28.264  1.00  0.00     0.225 C 
ATOM     13  C   UNL A   1      48.388  28.676  27.750  1.00  0.00     0.078 A 
ATOM     14  N   UNL A   1      46.793  27.691  28.954  1.00  0.00    -0.317 N 
ATOM     15  O   UNL A   1      51.832  29.350  28.013  1.00  0.00    -0.275 OA
ATOM     16  N   UNL A   1      49.667  29.066  27.427  1.00  0.00    -0.324 N 
ATOM     17  C   UNL A   1      46.207  28.217  27.826  1.00  0.00     0.109 A 
ATOM     18  H   UNL A   1      49.823  29.517  26.566  1.00  0.00     0.170 HD
BRANCH   9  19
ATOM     19  C   UNL A   1      48.975  29.008  31.148  1.00  0.00     0.012 A 
ATOM     20  C   UNL A   1      48.550  31.383  31.624  1.00  0.00     0.165 A 
ATOM     21  C   UNL A   1      48.575  30.307  30.733  1.00  0.00     0.059 A 
ATOM     22  C   UNL A   1      48.816  31.126  32.955  1.00  0.00     0.211 A 
ATOM     23  C   UNL A   1      49.161  29.863  33.389  1.00  0.00     0.211 A 
ATOM     24  O   UNL A   1      48.780  32.027  33.979  1.00  0.00    -0.449 OA
ATOM     25  C   UNL A   1      49.269  28.790  32.518  1.00  0.00     0.168 A 
ATOM     26  O   UNL A   1      49.402  29.847  34.733  1.00  0.00    -0.449 OA
ATOM     27  C   UNL A   1      49.028  31.177  35.107  1.00  0.00     0.468 C 
BRANCH  20  28
ATOM     28  O   UNL A   1      48.243  32.606  31.100  1.00  0.00    -0.493 OA
ATOM     29  C   UNL A   1      46.889  32.714  30.667  1.00  0.00     0.278 C 
ENDBRANCH  20  28
BRANCH  25  30
ATOM     30  O   UNL A   1      49.675  27.542  32.866  1.00  0.00    -0.492 OA
ATOM     31  C   UNL A   1      50.936  27.338  33.476  1.00  0.00     0.278 C 
ENDBRANCH  25  30
ENDBRANCH   9  19
BRANCH  14  32
ATOM     32  C   UNL A   1      46.092  26.981  29.946  1.00  0.00     0.046 A 
ATOM     33  C   UNL A   1      44.709  27.143  30.056  1.00  0.00     0.029 A 
ATOM     34  C   UNL A   1      46.785  26.117  30.799  1.00  0.00     0.029 A 
ATOM     35  C   UNL A   1      44.020  26.502  31.081  1.00  0.00     0.041 A 
ATOM     36  C   UNL A   1      46.086  25.474  31.825  1.00  0.00     0.041 A 
ATOM     37  C   UNL A   1      44.716  25.684  31.964  1.00  0.00     0.123 A 
ATOM     38  F   UNL A   1      44.052  25.080  32.957  1.00  0.00    -0.207 F 
ENDBRANCH  14  32
ENDBRANCH   6   8
ENDBRANCH   5   6
ENDBRANCH   4   5
ENDBRANCH   3   4
ENDBRANCH   2   3
ENDBRANCH   1   2
BRANCH   1  39
ATOM     39  C   UNL A   1      47.929  35.883  28.252  1.00  0.00     0.261 C 
BRANCH  39  40
ATOM     40  O   UNL A   1      47.223  35.812  29.477  1.00  0.00    -0.460 OA
BRANCH  40  41
ATOM     41  C   UNL A   1      46.271  36.768  29.592  1.00  0.00     0.338 C 
ATOM     42  O   UNL A   1      46.445  37.969  29.698  1.00  0.00    -0.246 OA
BRANCH  41  43
ATOM     43  C   UNL A   1      44.971  36.116  29.731  1.00  0.00     0.060 A 
ATOM     44  C   UNL A   1      44.645  35.634  31.000  1.00  0.00     0.016 A 
ATOM     45  C   UNL A   1      44.251  35.751  28.583  1.00  0.00     0.016 A 
ATOM     46  C   UNL A   1      43.715  34.624  31.091  1.00  0.00     0.010 A 
ATOM     47  C   UNL A   1      43.338  34.733  28.674  1.00  0.00     0.010 A 
ATOM     48  C   UNL A   1      43.141  34.131  29.913  1.00  0.00    -0.014 A 
BRANCH  48  49
ATOM     49  C   UNL A   1      42.174  33.061  30.014  1.00  0.00     0.031 A 
ATOM     50  C   UNL A   1      40.855  33.587  30.424  1.00  0.00     0.074 A 
ATOM     51  C   UNL A   1      42.461  31.791  29.666  1.00  0.00     0.049 A 
ATOM     52  N   UNL A   1      40.307  33.480  31.589  1.00  0.00    -0.248 NA
ATOM     53  C   UNL A   1      40.184  34.552  29.537  1.00  0.00     0.031 C 
ATOM     54  C   UNL A   1      43.685  31.296  29.023  1.00  0.00     0.029 A 
ATOM     55  N   UNL A   1      41.669  30.685  29.701  1.00  0.00    -0.354 N 
ATOM     56  C   UNL A   1      39.070  34.103  31.451  1.00  0.00     0.074 A 
ATOM     57  C   UNL A   1      39.174  34.962  30.306  1.00  0.00     0.031 C 
ATOM     58  C   UNL A   1      43.457  30.063  28.515  1.00  0.00     0.029 A 
ATOM     59  C   UNL A   1      42.133  29.626  28.920  1.00  0.00     0.049 A 
ATOM     60  H   UNL A   1      40.841  30.635  30.231  1.00  0.00     0.167 HD
ATOM     61  C   UNL A   1      37.973  33.557  32.042  1.00  0.00     0.034 A 
ATOM     62  C   UNL A   1      41.450  28.496  28.610  1.00  0.00     0.034 A 
ATOM     63  C   UNL A   1      38.361  32.585  33.032  1.00  0.00     0.049 A 
ATOM     64  C   UNL A   1      40.398  28.336  29.634  1.00  0.00     0.074 A 
ATOM     65  C   UNL A   1      38.931  32.602  34.285  1.00  0.00     0.029 A 
ATOM     66  N   UNL A   1      38.538  31.329  32.510  1.00  0.00    -0.354 N 
ATOM     67  N   UNL A   1      40.664  28.073  30.881  1.00  0.00    -0.248 NA
ATOM     68  C   UNL A   1      39.052  28.827  29.366  1.00  0.00     0.031 C 
ATOM     69  C   UNL A   1      39.612  31.357  34.422  1.00  0.00     0.029 A 
ATOM     70  C   UNL A   1      39.398  30.593  33.275  1.00  0.00     0.049 A 
ATOM     71  H   UNL A   1      38.104  30.999  31.690  1.00  0.00     0.167 HD
ATOM     72  C   UNL A   1      39.720  28.805  31.576  1.00  0.00     0.074 A 
ATOM     73  C   UNL A   1      38.654  29.072  30.618  1.00  0.00     0.031 C 
ATOM     74  C   UNL A   1      40.044  29.410  32.753  1.00  0.00     0.034 A 
BRANCH  61  75
ATOM     75  C   UNL A   1      36.600  33.481  31.399  1.00  0.00     0.023 A 
ATOM     76  C   UNL A   1      36.471  32.652  30.264  1.00  0.00     0.012 A 
ATOM     77  C   UNL A   1      35.536  34.382  31.650  1.00  0.00     0.148 A 
ATOM     78  C   UNL A   1      35.366  32.738  29.409  1.00  0.00     0.002 A 
ATOM     79  C   UNL A   1      34.405  34.413  30.842  1.00  0.00     0.091 A 
ATOM     80  F   UNL A   1      35.657  35.323  32.587  1.00  0.00    -0.205 F 
ATOM     81  C   UNL A   1      34.327  33.613  29.702  1.00  0.00     0.022 A 
BRANCH  79  82
ATOM     82  S   UNL A   1      33.024  35.509  31.196  1.00  0.00     0.127 S 
ATOM     83  O   UNL A   1      32.525  34.954  32.451  1.00  0.00    -0.237 OA
ATOM     84  O   UNL A   1      33.697  36.803  31.311  1.00  0.00    -0.237 OA
ATOM     85  O   UNL A   1      32.129  35.400  30.051  1.00  0.00    -0.744 OA
ENDBRANCH  79  82
ENDBRANCH  61  75
BRANCH  62  86
ATOM     86  C   UNL A   1      41.495  27.602  27.431  1.00  0.00     0.023 A 
ATOM     87  C   UNL A   1      41.667  28.149  26.142  1.00  0.00     0.012 A 
ATOM     88  C   UNL A   1      41.698  26.216  27.602  1.00  0.00     0.148 A 
ATOM     89  C   UNL A   1      42.078  27.351  25.066  1.00  0.00     0.002 A 
ATOM     90  C   UNL A   1      42.115  25.428  26.530  1.00  0.00     0.091 A 
ATOM     91  F   UNL A   1      41.572  25.699  28.831  1.00  0.00    -0.205 F 
ATOM     92  C   UNL A   1      42.318  25.995  25.264  1.00  0.00     0.022 A 
BRANCH  90  93
ATOM     93  S   UNL A   1      42.504  23.680  26.707  1.00  0.00     0.127 S 
ATOM     94  O   UNL A   1      42.787  23.296  25.324  1.00  0.00    -0.237 OA
ATOM     95  O   UNL A   1      43.673  23.719  27.582  1.00  0.00    -0.237 OA
ATOM     96  O   UNL A   1      41.313  23.063  27.274  1.00  0.00    -0.744 OA
ENDBRANCH  90  93
ENDBRANCH  62  86
BRANCH  74  97
ATOM     97  C   UNL A   1      41.257  28.904  33.476  1.00  0.00     0.023 A 
ATOM     98  C   UNL A   1      41.280  27.688  34.190  1.00  0.00     0.012 A 
ATOM     99  C   UNL A   1      42.442  29.640  33.338  1.00  0.00     0.148 A 
ATOM    100  C   UNL A   1      42.467  27.228  34.768  1.00  0.00     0.002 A 
ATOM    101  C   UNL A   1      43.627  29.159  33.873  1.00  0.00     0.091 A 
ATOM    102  F   UNL A   1      42.390  30.796  32.659  1.00  0.00    -0.205 F 
ATOM    103  C   UNL A   1      43.643  27.957  34.598  1.00  0.00     0.022 A 
BRANCH 101 104
ATOM    104  S   UNL A   1      45.187  29.992  33.587  1.00  0.00     0.127 S 
ATOM    105  O   UNL A   1      44.926  31.324  34.131  1.00  0.00    -0.237 OA
ATOM    106  O   UNL A   1      46.120  29.181  34.369  1.00  0.00    -0.237 OA
ATOM    107  O   UNL A   1      45.415  29.941  32.148  1.00  0.00    -0.744 OA
ENDBRANCH 101 104
ENDBRANCH  74  97
ENDBRANCH  48  49
ENDBRANCH  41  43
ENDBRANCH  40  41
ENDBRANCH  39  40
ENDBRANCH   1  39
TORSDOF 21
ENDMDL
MODEL 3
REMARK VINA RESULT:      -9.9      5.046      7.178
REMARK SMILES COc1cc([C@@H]2CC(=O)Nc3c(C(=O)OCCOCCOC(=O)c4ccc(-c5c6nc(c(-c7cccc(S(=O)(=O)[O-])c7F)c7ccc([nH]7)c(-c7cccc(S(=O)(=O)[O-])c7F)c7nc(c(-c8cccc(S(=O)(=O)[O-])c8F)c8ccc5[nH]8)C=C7)C=C6)cc4)cn(-c4ccc(F)cc4)c32)c(OC)c2c1OCO2
REMARK SMILES IDX 19 1 18 2 17 3 16 4 15 5 13 6 14 7 12 8 6 9 7 10 96 11 8 12
REMARK SMILES IDX 11 13 88 14 9 15 10 16 87 17 5 19 3 20 4 21 101 22 100 23
REMARK SMILES IDX 102 24 97 25 104 26 103 27 2 28 1 29 98 30 99 31 89 32 90 33
REMARK SMILES IDX 95 34 91 35 94 36 92 37 93 38 20 39 21 40 22 41 23 42 24 43
REMARK SMILES IDX 25 44 86 45 26 46 85 47 27 48 28 49 29 50 79 51 30 52 84 53
REMARK SMILES IDX 78 54 80 55 31 56 83 57 77 58 76 59 32 61 64 62 44 63 63 64
REMARK SMILES IDX 45 65 48 66 62 67 81 68 46 69 47 70 61 72 82 73 49 74 33 75
REMARK SMILES IDX 34 76 42 77 35 78 37 79 43 80 36 81 38 82 39 83 40 84 41 85
REMARK SMILES IDX 65 86 66 87 74 88 67 89 69 90 75 91 68 92 70 93 71 94 72 95
REMARK SMILES IDX 73 96 50 97 51 98 59 99 52 100 54 101 60 102 53 103 55 104
REMARK SMILES IDX 56 105 57 106 58 107
REMARK H PARENT 10 18 80 60 48 71
REMARK Flexibility Score: inf
ROOT
ATOM      1  C   UNL A   1      48.473  39.572  32.216  1.00  0.00     0.202 C 
ENDROOT
BRANCH   1   2
ATOM      2  O   UNL A   1      49.735  39.638  31.561  1.00  0.00    -0.374 OA
BRANCH   2   3
ATOM      3  C   UNL A   1      49.883  39.163  30.224  1.00  0.00     0.202 C 
BRANCH   3   4
ATOM      4  C   UNL A   1      49.789  40.174  29.079  1.00  0.00     0.261 C 
BRANCH   4   5
ATOM      5  O   UNL A   1      49.686  41.525  29.548  1.00  0.00    -0.460 OA
BRANCH   5   6
ATOM      6  C   UNL A   1      49.208  42.407  28.623  1.00  0.00     0.341 C 
ATOM      7  O   UNL A   1      49.894  43.000  27.803  1.00  0.00    -0.246 OA
BRANCH   6   8
ATOM      8  C   UNL A   1      47.758  42.491  28.630  1.00  0.00     0.102 A 
ATOM      9  C   UNL A   1      44.415  41.843  27.250  1.00  0.00     0.082 C 
ATOM     10  C   UNL A   1      44.581  42.435  25.839  1.00  0.00     0.115 C 
ATOM     11  C   UNL A   1      45.594  42.237  28.088  1.00  0.00     0.055 A 
ATOM     12  C   UNL A   1      46.009  42.419  25.305  1.00  0.00     0.225 C 
ATOM     13  C   UNL A   1      46.836  42.521  27.566  1.00  0.00     0.078 A 
ATOM     14  N   UNL A   1      45.670  42.350  29.457  1.00  0.00    -0.317 N 
ATOM     15  O   UNL A   1      46.252  42.331  24.101  1.00  0.00    -0.275 OA
ATOM     16  N   UNL A   1      47.033  42.590  26.207  1.00  0.00    -0.324 N 
ATOM     17  C   UNL A   1      46.994  42.521  29.791  1.00  0.00     0.109 A 
ATOM     18  H   UNL A   1      47.940  42.770  25.867  1.00  0.00     0.170 HD
BRANCH   9  19
ATOM     19  C   UNL A   1      44.183  40.319  27.227  1.00  0.00     0.012 A 
ATOM     20  C   UNL A   1      45.217  38.101  26.983  1.00  0.00     0.165 A 
ATOM     21  C   UNL A   1      45.330  39.483  27.152  1.00  0.00     0.059 A 
ATOM     22  C   UNL A   1      43.952  37.548  27.008  1.00  0.00     0.211 A 
ATOM     23  C   UNL A   1      42.825  38.335  27.129  1.00  0.00     0.211 A 
ATOM     24  O   UNL A   1      43.644  36.222  26.923  1.00  0.00    -0.449 OA
ATOM     25  C   UNL A   1      42.899  39.717  27.220  1.00  0.00     0.168 A 
ATOM     26  O   UNL A   1      41.687  37.581  27.107  1.00  0.00    -0.449 OA
ATOM     27  C   UNL A   1      42.222  36.253  27.114  1.00  0.00     0.468 C 
BRANCH  20  28
ATOM     28  O   UNL A   1      46.383  37.406  26.826  1.00  0.00    -0.493 OA
ATOM     29  C   UNL A   1      46.970  36.998  28.060  1.00  0.00     0.278 C 
ENDBRANCH  20  28
BRANCH  25  30
ATOM     30  O   UNL A   1      41.830  40.552  27.266  1.00  0.00    -0.492 OA
ATOM     31  C   UNL A   1      41.155  40.925  26.079  1.00  0.00     0.278 C 
ENDBRANCH  25  30
ENDBRANCH   9  19
BRANCH  14  32
ATOM     32  C   UNL A   1      44.633  42.217  30.399  1.00  0.00     0.046 A 
ATOM     33  C   UNL A   1      43.984  43.362  30.868  1.00  0.00     0.029 A 
ATOM     34  C   UNL A   1      44.257  40.945  30.842  1.00  0.00     0.029 A 
ATOM     35  C   UNL A   1      43.009  43.246  31.853  1.00  0.00     0.041 A 
ATOM     36  C   UNL A   1      43.275  40.836  31.829  1.00  0.00     0.041 A 
ATOM     37  C   UNL A   1      42.672  41.985  32.334  1.00  0.00     0.123 A 
ATOM     38  F   UNL A   1      41.742  41.878  33.292  1.00  0.00    -0.207 F 
ENDBRANCH  14  32
ENDBRANCH   6   8
ENDBRANCH   5   6
ENDBRANCH   4   5
ENDBRANCH   3   4
ENDBRANCH   2   3
ENDBRANCH   1   2
BRANCH   1  39
ATOM     39  C   UNL A   1      47.928  38.226  32.666  1.00  0.00     0.261 C 
BRANCH  39  40
ATOM     40  O   UNL A   1      46.632  37.958  32.163  1.00  0.00    -0.460 OA
BRANCH  40  41
ATOM     41  C   UNL A   1      45.657  38.169  33.078  1.00  0.00     0.338 C 
ATOM     42  O   UNL A   1      45.737  38.831  34.097  1.00  0.00    -0.246 OA
BRANCH  41  43
ATOM     43  C   UNL A   1      44.508  37.333  32.736  1.00  0.00     0.060 A 
ATOM     44  C   UNL A   1      43.389  37.438  33.563  1.00  0.00     0.016 A 
ATOM     45  C   UNL A   1      44.659  36.290  31.809  1.00  0.00     0.016 A 
ATOM     46  C   UNL A   1      42.509  36.381  33.602  1.00  0.00     0.010 A 
ATOM     47  C   UNL A   1      43.792  35.231  31.861  1.00  0.00     0.010 A 
ATOM     48  C   UNL A   1      42.776  35.256  32.813  1.00  0.00    -0.014 A 
BRANCH  48  49
ATOM     49  C   UNL A   1      41.854  34.144  32.867  1.00  0.00     0.031 A 
ATOM     50  C   UNL A   1      40.749  34.334  31.905  1.00  0.00     0.074 A 
ATOM     51  C   UNL A   1      42.077  33.056  33.631  1.00  0.00     0.049 A 
ATOM     52  N   UNL A   1      39.532  34.669  32.180  1.00  0.00    -0.248 NA
ATOM     53  C   UNL A   1      41.079  34.415  30.472  1.00  0.00     0.031 C 
ATOM     54  C   UNL A   1      43.288  32.738  34.400  1.00  0.00     0.029 A 
ATOM     55  N   UNL A   1      41.317  31.938  33.788  1.00  0.00    -0.354 N 
ATOM     56  C   UNL A   1      38.886  34.680  30.948  1.00  0.00     0.074 A 
ATOM     57  C   UNL A   1      39.913  34.801  29.952  1.00  0.00     0.031 C 
ATOM     58  C   UNL A   1      43.276  31.426  34.733  1.00  0.00     0.029 A 
ATOM     59  C   UNL A   1      42.004  30.853  34.332  1.00  0.00     0.049 A 
ATOM     60  H   UNL A   1      40.366  31.899  33.540  1.00  0.00     0.167 HD
ATOM     61  C   UNL A   1      37.621  34.191  30.847  1.00  0.00     0.034 A 
ATOM     62  C   UNL A   1      41.558  29.574  34.406  1.00  0.00     0.034 A 
ATOM     63  C   UNL A   1      37.022  34.063  32.152  1.00  0.00     0.049 A 
ATOM     64  C   UNL A   1      40.085  29.628  34.318  1.00  0.00     0.074 A 
ATOM     65  C   UNL A   1      36.533  34.913  33.119  1.00  0.00     0.029 A 
ATOM     66  N   UNL A   1      37.295  32.861  32.752  1.00  0.00    -0.354 N 
ATOM     67  N   UNL A   1      39.343  30.153  35.251  1.00  0.00    -0.248 NA
ATOM     68  C   UNL A   1      39.432  29.431  33.030  1.00  0.00     0.031 C 
ATOM     69  C   UNL A   1      36.690  34.227  34.359  1.00  0.00     0.029 A 
ATOM     70  C   UNL A   1      37.219  32.960  34.113  1.00  0.00     0.049 A 
ATOM     71  H   UNL A   1      37.517  32.033  32.267  1.00  0.00     0.167 HD
ATOM     72  C   UNL A   1      38.330  30.777  34.548  1.00  0.00     0.074 A 
ATOM     73  C   UNL A   1      38.318  30.140  33.237  1.00  0.00     0.031 C 
ATOM     74  C   UNL A   1      37.828  31.971  34.973  1.00  0.00     0.034 A 
BRANCH  61  75
ATOM     75  C   UNL A   1      37.116  33.344  29.693  1.00  0.00     0.023 A 
ATOM     76  C   UNL A   1      35.969  33.810  29.013  1.00  0.00     0.012 A 
ATOM     77  C   UNL A   1      37.505  32.007  29.438  1.00  0.00     0.148 A 
ATOM     78  C   UNL A   1      35.233  32.983  28.158  1.00  0.00     0.002 A 
ATOM     79  C   UNL A   1      36.815  31.211  28.531  1.00  0.00     0.091 A 
ATOM     80  F   UNL A   1      38.458  31.431  30.170  1.00  0.00    -0.205 F 
ATOM     81  C   UNL A   1      35.660  31.685  27.908  1.00  0.00     0.022 A 
BRANCH  79  82
ATOM     82  S   UNL A   1      37.344  29.534  28.155  1.00  0.00     0.127 S 
ATOM     83  O   UNL A   1      37.421  28.946  29.489  1.00  0.00    -0.237 OA
ATOM     84  O   UNL A   1      36.238  29.054  27.326  1.00  0.00    -0.237 OA
ATOM     85  O   UNL A   1      38.609  29.668  27.444  1.00  0.00    -0.744 OA
ENDBRANCH  79  82
ENDBRANCH  61  75
BRANCH  62  86
ATOM     86  C   UNL A   1      42.266  28.274  34.389  1.00  0.00     0.023 A 
ATOM     87  C   UNL A   1      42.841  27.804  33.189  1.00  0.00     0.012 A 
ATOM     88  C   UNL A   1      42.655  27.664  35.600  1.00  0.00     0.148 A 
ATOM     89  C   UNL A   1      43.811  26.794  33.199  1.00  0.00     0.002 A 
ATOM     90  C   UNL A   1      43.627  26.665  35.605  1.00  0.00     0.091 A 
ATOM     91  F   UNL A   1      42.139  28.132  36.744  1.00  0.00    -0.205 F 
ATOM     92  C   UNL A   1      44.216  26.237  34.407  1.00  0.00     0.022 A 
BRANCH  90  93
ATOM     93  S   UNL A   1      44.252  25.930  37.124  1.00  0.00     0.127 S 
ATOM     94  O   UNL A   1      44.839  27.089  37.797  1.00  0.00    -0.237 OA
ATOM     95  O   UNL A   1      43.029  25.421  37.738  1.00  0.00    -0.237 OA
ATOM     96  O   UNL A   1      45.216  24.920  36.710  1.00  0.00    -0.744 OA
ENDBRANCH  90  93
ENDBRANCH  62  86
BRANCH  74  97
ATOM     97  C   UNL A   1      38.065  32.346  36.406  1.00  0.00     0.023 A 
ATOM     98  C   UNL A   1      37.350  31.781  37.482  1.00  0.00     0.012 A 
ATOM     99  C   UNL A   1      39.122  33.229  36.673  1.00  0.00     0.148 A 
ATOM    100  C   UNL A   1      37.681  32.107  38.801  1.00  0.00     0.002 A 
ATOM    101  C   UNL A   1      39.476  33.514  37.982  1.00  0.00     0.091 A 
ATOM    102  F   UNL A   1      39.780  33.756  35.630  1.00  0.00    -0.205 F 
ATOM    103  C   UNL A   1      38.751  32.964  39.051  1.00  0.00     0.022 A 
BRANCH 101 104
ATOM    104  S   UNL A   1      40.913  34.514  38.364  1.00  0.00     0.127 S 
ATOM    105  O   UNL A   1      41.969  33.826  37.622  1.00  0.00    -0.237 OA
ATOM    106  O   UNL A   1      40.535  35.820  37.824  1.00  0.00    -0.237 OA
ATOM    107  O   UNL A   1      41.050  34.487  39.815  1.00  0.00    -0.744 OA
ENDBRANCH 101 104
ENDBRANCH  74  97
ENDBRANCH  48  49
ENDBRANCH  41  43
ENDBRANCH  40  41
ENDBRANCH  39  40
ENDBRANCH   1  39
TORSDOF 21
ENDMDL
