MODEL 1
REMARK VINA RESULT:     -11.0      0.000      0.000
REMARK SMILES CCSc1cccc(-c2ccc([C@@H](C)C(=O)OCCOCCOC(=O)c3ccc(-c4c5nc(c(-c6cccc(S(=O)(=O)[O-])c6F)c6ccc([nH]6)c(-c6cccc(S(=O)(=O)[O-])c6F)c6nc(c(-c7cccc(S(=O)(=O)[O-])c7F)c7ccc4[nH]7)C=C6)C=C5)cc3)cc2)c1
REMARK SMILES IDX 19 1 18 2 17 3 15 4 16 5 13 6 14 7 12 8 9 9 10 10 90 11
REMARK SMILES IDX 11 12 89 13 8 14 4 15 5 16 91 17 6 18 7 19 3 20 2 21 1 22
REMARK SMILES IDX 20 23 21 24 22 25 23 26 24 27 25 28 26 29 27 30 88 31 28 32
REMARK SMILES IDX 87 33 29 34 30 35 31 36 81 37 32 38 86 39 80 40 82 41 33 42
REMARK SMILES IDX 85 43 79 44 78 45 34 47 66 48 46 49 65 50 47 51 50 52 64 53
REMARK SMILES IDX 83 54 48 55 49 56 63 58 84 59 51 60 35 61 36 62 44 63 37 64
REMARK SMILES IDX 39 65 45 66 38 67 40 68 41 69 42 70 43 71 67 72 68 73 76 74
REMARK SMILES IDX 69 75 71 76 77 77 70 78 72 79 73 80 74 81 75 82 52 83 53 84
REMARK SMILES IDX 61 85 54 86 56 87 62 88 55 89 57 90 58 91 59 92 60 93
REMARK H PARENT 82 46 50 57
REMARK Flexibility Score: inf
ROOT
ATOM      1  C   UNL A   1      32.294  29.414  26.426  1.00  0.00     0.202 C 
ENDROOT
BRANCH   1   2
ATOM      2  C   UNL A   1      31.535  29.789  25.150  1.00  0.00     0.261 C 
BRANCH   2   3
ATOM      3  O   UNL A   1      30.802  28.669  24.625  1.00  0.00    -0.463 OA
BRANCH   3   4
ATOM      4  C   UNL A   1      31.221  28.189  23.426  1.00  0.00     0.313 C 
ATOM      5  O   UNL A   1      32.128  28.681  22.759  1.00  0.00    -0.252 OA
BRANCH   4   6
ATOM      6  C   UNL A   1      30.443  26.974  22.944  1.00  0.00     0.126 C 
ATOM      7  C   UNL A   1      29.028  27.019  23.515  1.00  0.00     0.025 C 
BRANCH   6   8
ATOM      8  C   UNL A   1      31.094  25.605  23.113  1.00  0.00    -0.034 A 
ATOM      9  C   UNL A   1      32.399  23.126  23.652  1.00  0.00    -0.018 A 
ATOM     10  C   UNL A   1      32.857  23.987  22.642  1.00  0.00     0.009 A 
ATOM     11  C   UNL A   1      31.248  23.508  24.355  1.00  0.00     0.009 A 
ATOM     12  C   UNL A   1      32.217  25.208  22.378  1.00  0.00     0.005 A 
ATOM     13  C   UNL A   1      30.605  24.724  24.091  1.00  0.00     0.005 A 
BRANCH   9  14
ATOM     14  C   UNL A   1      33.131  21.895  24.008  1.00  0.00    -0.017 A 
ATOM     15  C   UNL A   1      33.244  19.458  24.203  1.00  0.00     0.008 A 
ATOM     16  C   UNL A   1      34.506  19.556  24.790  1.00  0.00     0.015 A 
ATOM     17  C   UNL A   1      32.563  20.622  23.822  1.00  0.00     0.023 A 
ATOM     18  C   UNL A   1      35.089  20.808  24.981  1.00  0.00     0.002 A 
ATOM     19  C   UNL A   1      34.407  21.963  24.592  1.00  0.00     0.009 A 
BRANCH  15  20
ATOM     20  S   UNL A   1      32.461  17.869  23.988  1.00  0.00    -0.126 SA
BRANCH  20  21
ATOM     21  C   UNL A   1      33.067  17.006  25.480  1.00  0.00     0.071 C 
ATOM     22  C   UNL A   1      32.704  15.530  25.460  1.00  0.00     0.016 C 
ENDBRANCH  20  21
ENDBRANCH  15  20
ENDBRANCH   9  14
ENDBRANCH   6   8
ENDBRANCH   4   6
ENDBRANCH   3   4
ENDBRANCH   2   3
ENDBRANCH   1   2
BRANCH   1  23
ATOM     23  O   UNL A   1      32.730  30.497  27.250  1.00  0.00    -0.374 OA
BRANCH  23  24
ATOM     24  C   UNL A   1      32.057  31.747  27.091  1.00  0.00     0.202 C 
BRANCH  24  25
ATOM     25  C   UNL A   1      32.927  33.011  27.124  1.00  0.00     0.261 C 
BRANCH  25  26
ATOM     26  O   UNL A   1      32.439  33.991  28.056  1.00  0.00    -0.460 OA
BRANCH  26  27
ATOM     27  C   UNL A   1      33.391  34.724  28.676  1.00  0.00     0.338 C 
ATOM     28  O   UNL A   1      33.322  35.904  29.005  1.00  0.00    -0.246 OA
BRANCH  27  29
ATOM     29  C   UNL A   1      34.501  33.851  29.094  1.00  0.00     0.060 A 
ATOM     30  C   UNL A   1      34.195  32.757  29.915  1.00  0.00     0.016 A 
ATOM     31  C   UNL A   1      35.822  34.119  28.732  1.00  0.00     0.016 A 
ATOM     32  C   UNL A   1      35.215  31.940  30.401  1.00  0.00     0.010 A 
ATOM     33  C   UNL A   1      36.845  33.306  29.233  1.00  0.00     0.010 A 
ATOM     34  C   UNL A   1      36.550  32.227  30.087  1.00  0.00    -0.014 A 
BRANCH  34  35
ATOM     35  C   UNL A   1      37.645  31.450  30.716  1.00  0.00     0.031 A 
ATOM     36  C   UNL A   1      38.019  31.725  32.146  1.00  0.00     0.074 A 
ATOM     37  C   UNL A   1      38.314  30.522  30.009  1.00  0.00     0.049 A 
ATOM     38  N   UNL A   1      38.982  31.206  32.861  1.00  0.00    -0.248 NA
ATOM     39  C   UNL A   1      37.201  32.716  32.864  1.00  0.00     0.031 C 
ATOM     40  C   UNL A   1      38.040  30.163  28.619  1.00  0.00     0.029 A 
ATOM     41  N   UNL A   1      39.386  29.738  30.355  1.00  0.00    -0.354 N 
ATOM     42  C   UNL A   1      38.909  31.825  34.103  1.00  0.00     0.074 A 
ATOM     43  C   UNL A   1      37.807  32.762  34.042  1.00  0.00     0.031 C 
ATOM     44  C   UNL A   1      38.946  29.255  28.217  1.00  0.00     0.029 A 
ATOM     45  C   UNL A   1      39.880  28.993  29.309  1.00  0.00     0.049 A 
ATOM     46  H   UNL A   1      39.764  29.711  31.264  1.00  0.00     0.167 HD
ATOM     47  C   UNL A   1      39.681  31.622  35.197  1.00  0.00     0.034 A 
ATOM     48  C   UNL A   1      40.980  28.218  29.233  1.00  0.00     0.034 A 
ATOM     49  C   UNL A   1      40.761  30.676  35.261  1.00  0.00     0.049 A 
ATOM     50  C   UNL A   1      41.847  28.044  30.452  1.00  0.00     0.074 A 
ATOM     51  C   UNL A   1      41.558  30.354  36.346  1.00  0.00     0.029 A 
ATOM     52  N   UNL A   1      41.214  29.917  34.194  1.00  0.00    -0.354 N 
ATOM     53  N   UNL A   1      41.685  28.532  31.657  1.00  0.00    -0.248 NA
ATOM     54  C   UNL A   1      43.038  27.192  30.307  1.00  0.00     0.031 C 
ATOM     55  C   UNL A   1      42.513  29.422  35.925  1.00  0.00     0.029 A 
ATOM     56  C   UNL A   1      42.295  29.146  34.586  1.00  0.00     0.049 A 
ATOM     57  H   UNL A   1      40.824  29.924  33.290  1.00  0.00     0.167 HD
ATOM     58  C   UNL A   1      42.735  28.029  32.420  1.00  0.00     0.074 A 
ATOM     59  C   UNL A   1      43.514  27.176  31.545  1.00  0.00     0.031 C 
ATOM     60  C   UNL A   1      43.037  28.265  33.720  1.00  0.00     0.034 A 
BRANCH  47  61
ATOM     61  C   UNL A   1      39.371  32.424  36.432  1.00  0.00     0.023 A 
ATOM     62  C   UNL A   1      39.993  33.673  36.627  1.00  0.00     0.012 A 
ATOM     63  C   UNL A   1      38.413  31.974  37.363  1.00  0.00     0.148 A 
ATOM     64  C   UNL A   1      39.684  34.453  37.742  1.00  0.00     0.002 A 
ATOM     65  C   UNL A   1      38.081  32.774  38.449  1.00  0.00     0.091 A 
ATOM     66  F   UNL A   1      37.851  30.772  37.170  1.00  0.00    -0.205 F 
ATOM     67  C   UNL A   1      38.722  34.008  38.645  1.00  0.00     0.022 A 
BRANCH  65  68
ATOM     68  S   UNL A   1      36.804  32.324  39.630  1.00  0.00     0.127 S 
ATOM     69  O   UNL A   1      37.018  33.313  40.685  1.00  0.00    -0.237 OA
ATOM     70  O   UNL A   1      35.582  32.518  38.851  1.00  0.00    -0.237 OA
ATOM     71  O   UNL A   1      37.073  30.943  40.005  1.00  0.00    -0.744 OA
ENDBRANCH  65  68
ENDBRANCH  47  61
BRANCH  48  72
ATOM     72  C   UNL A   1      41.320  27.536  27.951  1.00  0.00     0.023 A 
ATOM     73  C   UNL A   1      41.762  28.297  26.853  1.00  0.00     0.012 A 
ATOM     74  C   UNL A   1      41.221  26.137  27.824  1.00  0.00     0.148 A 
ATOM     75  C   UNL A   1      42.076  27.679  25.641  1.00  0.00     0.002 A 
ATOM     76  C   UNL A   1      41.590  25.522  26.632  1.00  0.00     0.091 A 
ATOM     77  F   UNL A   1      40.777  25.431  28.873  1.00  0.00    -0.205 F 
ATOM     78  C   UNL A   1      42.000  26.293  25.535  1.00  0.00     0.022 A 
BRANCH  76  79
ATOM     79  S   UNL A   1      41.651  23.736  26.453  1.00  0.00     0.127 S 
ATOM     80  O   UNL A   1      40.233  23.388  26.435  1.00  0.00    -0.237 OA
ATOM     81  O   UNL A   1      42.341  23.585  25.170  1.00  0.00    -0.237 OA
ATOM     82  O   UNL A   1      42.409  23.252  27.599  1.00  0.00    -0.744 OA
ENDBRANCH  76  79
ENDBRANCH  48  72
BRANCH  60  83
ATOM     83  C   UNL A   1      44.254  27.587  34.294  1.00  0.00     0.023 A 
ATOM     84  C   UNL A   1      45.516  28.203  34.174  1.00  0.00     0.012 A 
ATOM     85  C   UNL A   1      44.137  26.387  35.025  1.00  0.00     0.148 A 
ATOM     86  C   UNL A   1      46.646  27.624  34.751  1.00  0.00     0.002 A 
ATOM     87  C   UNL A   1      45.259  25.840  35.635  1.00  0.00     0.091 A 
ATOM     88  F   UNL A   1      42.930  25.809  35.115  1.00  0.00    -0.205 F 
ATOM     89  C   UNL A   1      46.516  26.450  35.490  1.00  0.00     0.022 A 
BRANCH  87  90
ATOM     90  S   UNL A   1      45.177  24.383  36.685  1.00  0.00     0.127 S 
ATOM     91  O   UNL A   1      46.563  24.261  37.134  1.00  0.00    -0.237 OA
ATOM     92  O   UNL A   1      44.234  24.803  37.722  1.00  0.00    -0.237 OA
ATOM     93  O   UNL A   1      44.700  23.301  35.835  1.00  0.00    -0.744 OA
ENDBRANCH  87  90
ENDBRANCH  60  83
ENDBRANCH  34  35
ENDBRANCH  27  29
ENDBRANCH  26  27
ENDBRANCH  25  26
ENDBRANCH  24  25
ENDBRANCH  23  24
ENDBRANCH   1  23
TORSDOF 21
ENDMDL
MODEL 2
REMARK VINA RESULT:     -10.9      5.423     11.333
REMARK SMILES CCSc1cccc(-c2ccc([C@@H](C)C(=O)OCCOCCOC(=O)c3ccc(-c4c5nc(c(-c6cccc(S(=O)(=O)[O-])c6F)c6ccc([nH]6)c(-c6cccc(S(=O)(=O)[O-])c6F)c6nc(c(-c7cccc(S(=O)(=O)[O-])c7F)c7ccc4[nH]7)C=C6)C=C5)cc3)cc2)c1
REMARK SMILES IDX 19 1 18 2 17 3 15 4 16 5 13 6 14 7 12 8 9 9 10 10 90 11
REMARK SMILES IDX 11 12 89 13 8 14 4 15 5 16 91 17 6 18 7 19 3 20 2 21 1 22
REMARK SMILES IDX 20 23 21 24 22 25 23 26 24 27 25 28 26 29 27 30 88 31 28 32
REMARK SMILES IDX 87 33 29 34 30 35 31 36 81 37 32 38 86 39 80 40 82 41 33 42
REMARK SMILES IDX 85 43 79 44 78 45 34 47 66 48 46 49 65 50 47 51 50 52 64 53
REMARK SMILES IDX 83 54 48 55 49 56 63 58 84 59 51 60 35 61 36 62 44 63 37 64
REMARK SMILES IDX 39 65 45 66 38 67 40 68 41 69 42 70 43 71 67 72 68 73 76 74
REMARK SMILES IDX 69 75 71 76 77 77 70 78 72 79 73 80 74 81 75 82 52 83 53 84
REMARK SMILES IDX 61 85 54 86 56 87 62 88 55 89 57 90 58 91 59 92 60 93
REMARK H PARENT 82 46 50 57
REMARK Flexibility Score: inf
ROOT
ATOM      1  C   UNL A   1      36.570  21.601  24.902  1.00  0.00     0.202 C 
ENDROOT
BRANCH   1   2
ATOM      2  C   UNL A   1      35.319  21.056  25.597  1.00  0.00     0.261 C 
BRANCH   2   3
ATOM      3  O   UNL A   1      34.637  20.092  24.775  1.00  0.00    -0.463 OA
BRANCH   3   4
ATOM      4  C   UNL A   1      33.361  19.798  25.133  1.00  0.00     0.313 C 
ATOM      5  O   UNL A   1      33.050  19.148  26.128  1.00  0.00    -0.252 OA
BRANCH   4   6
ATOM      6  C   UNL A   1      32.314  20.328  24.165  1.00  0.00     0.126 C 
ATOM      7  C   UNL A   1      32.395  19.550  22.855  1.00  0.00     0.025 C 
BRANCH   6   8
ATOM      8  C   UNL A   1      32.257  21.835  23.942  1.00  0.00    -0.034 A 
ATOM      9  C   UNL A   1      32.401  24.650  23.497  1.00  0.00    -0.018 A 
ATOM     10  C   UNL A   1      32.068  24.127  24.756  1.00  0.00     0.009 A 
ATOM     11  C   UNL A   1      32.615  23.739  22.453  1.00  0.00     0.009 A 
ATOM     12  C   UNL A   1      31.999  22.743  24.977  1.00  0.00     0.005 A 
ATOM     13  C   UNL A   1      32.543  22.356  22.670  1.00  0.00     0.005 A 
BRANCH   9  14
ATOM     14  C   UNL A   1      32.583  26.099  23.286  1.00  0.00    -0.017 A 
ATOM     15  C   UNL A   1      31.762  28.400  23.441  1.00  0.00     0.008 A 
ATOM     16  C   UNL A   1      32.902  28.859  22.782  1.00  0.00     0.015 A 
ATOM     17  C   UNL A   1      31.605  27.029  23.683  1.00  0.00     0.023 A 
ATOM     18  C   UNL A   1      33.886  27.956  22.381  1.00  0.00     0.002 A 
ATOM     19  C   UNL A   1      33.726  26.591  22.633  1.00  0.00     0.009 A 
BRANCH  15  20
ATOM     20  S   UNL A   1      30.471  29.534  23.925  1.00  0.00    -0.126 SA
BRANCH  20  21
ATOM     21  C   UNL A   1      29.167  29.065  22.735  1.00  0.00     0.071 C 
ATOM     22  C   UNL A   1      29.083  30.047  21.578  1.00  0.00     0.016 C 
ENDBRANCH  20  21
ENDBRANCH  15  20
ENDBRANCH   9  14
ENDBRANCH   6   8
ENDBRANCH   4   6
ENDBRANCH   3   4
ENDBRANCH   2   3
ENDBRANCH   1   2
BRANCH   1  23
ATOM     23  O   UNL A   1      37.827  21.126  25.387  1.00  0.00    -0.374 OA
BRANCH  23  24
ATOM     24  C   UNL A   1      38.308  19.893  24.849  1.00  0.00     0.202 C 
BRANCH  24  25
ATOM     25  C   UNL A   1      39.405  19.172  25.642  1.00  0.00     0.261 C 
BRANCH  25  26
ATOM     26  O   UNL A   1      39.835  19.920  26.792  1.00  0.00    -0.460 OA
BRANCH  26  27
ATOM     27  C   UNL A   1      41.153  20.227  26.823  1.00  0.00     0.338 C 
ATOM     28  O   UNL A   1      42.088  19.512  26.482  1.00  0.00    -0.246 OA
BRANCH  27  29
ATOM     29  C   UNL A   1      41.325  21.651  27.156  1.00  0.00     0.060 A 
ATOM     30  C   UNL A   1      40.987  22.595  26.176  1.00  0.00     0.016 A 
ATOM     31  C   UNL A   1      41.853  22.059  28.382  1.00  0.00     0.016 A 
ATOM     32  C   UNL A   1      41.201  23.953  26.410  1.00  0.00     0.010 A 
ATOM     33  C   UNL A   1      42.080  23.421  28.608  1.00  0.00     0.010 A 
ATOM     34  C   UNL A   1      41.776  24.373  27.616  1.00  0.00    -0.014 A 
BRANCH  34  35
ATOM     35  C   UNL A   1      42.137  25.798  27.811  1.00  0.00     0.031 A 
ATOM     36  C   UNL A   1      43.504  26.275  27.409  1.00  0.00     0.074 A 
ATOM     37  C   UNL A   1      41.257  26.653  28.362  1.00  0.00     0.049 A 
ATOM     38  N   UNL A   1      44.040  27.459  27.552  1.00  0.00    -0.248 NA
ATOM     39  C   UNL A   1      44.386  25.289  26.763  1.00  0.00     0.031 C 
ATOM     40  C   UNL A   1      39.901  26.310  28.786  1.00  0.00     0.029 A 
ATOM     41  N   UNL A   1      41.389  27.979  28.692  1.00  0.00    -0.354 N 
ATOM     42  C   UNL A   1      45.329  27.357  27.042  1.00  0.00     0.074 A 
ATOM     43  C   UNL A   1      45.496  25.992  26.590  1.00  0.00     0.031 C 
ATOM     44  C   UNL A   1      39.337  27.389  29.356  1.00  0.00     0.029 A 
ATOM     45  C   UNL A   1      40.301  28.486  29.364  1.00  0.00     0.049 A 
ATOM     46  H   UNL A   1      42.184  28.515  28.468  1.00  0.00     0.167 HD
ATOM     47  C   UNL A   1      46.281  28.315  26.950  1.00  0.00     0.034 A 
ATOM     48  C   UNL A   1      40.119  29.687  29.950  1.00  0.00     0.034 A 
ATOM     49  C   UNL A   1      46.105  29.675  27.382  1.00  0.00     0.049 A 
ATOM     50  C   UNL A   1      41.211  30.721  29.871  1.00  0.00     0.074 A 
ATOM     51  C   UNL A   1      46.990  30.733  27.268  1.00  0.00     0.029 A 
ATOM     52  N   UNL A   1      44.981  30.162  28.029  1.00  0.00    -0.354 N 
ATOM     53  N   UNL A   1      42.373  30.650  29.267  1.00  0.00    -0.248 NA
ATOM     54  C   UNL A   1      40.960  32.009  30.534  1.00  0.00     0.031 C 
ATOM     55  C   UNL A   1      46.412  31.853  27.876  1.00  0.00     0.029 A 
ATOM     56  C   UNL A   1      45.158  31.498  28.346  1.00  0.00     0.049 A 
ATOM     57  H   UNL A   1      44.174  29.635  28.233  1.00  0.00     0.167 HD
ATOM     58  C   UNL A   1      42.979  31.889  29.455  1.00  0.00     0.074 A 
ATOM     59  C   UNL A   1      42.044  32.701  30.208  1.00  0.00     0.031 C 
ATOM     60  C   UNL A   1      44.204  32.311  29.056  1.00  0.00     0.034 A 
BRANCH  47  61
ATOM     61  C   UNL A   1      47.600  27.935  26.333  1.00  0.00     0.023 A 
ATOM     62  C   UNL A   1      48.687  27.599  27.164  1.00  0.00     0.012 A 
ATOM     63  C   UNL A   1      47.742  27.843  24.934  1.00  0.00     0.148 A 
ATOM     64  C   UNL A   1      49.904  27.199  26.612  1.00  0.00     0.002 A 
ATOM     65  C   UNL A   1      48.945  27.406  24.393  1.00  0.00     0.091 A 
ATOM     66  F   UNL A   1      46.702  28.189  24.162  1.00  0.00    -0.205 F 
ATOM     67  C   UNL A   1      50.029  27.093  25.229  1.00  0.00     0.022 A 
BRANCH  65  68
ATOM     68  S   UNL A   1      49.183  27.166  22.628  1.00  0.00     0.127 S 
ATOM     69  O   UNL A   1      48.374  25.974  22.381  1.00  0.00    -0.237 OA
ATOM     70  O   UNL A   1      48.633  28.402  22.072  1.00  0.00    -0.237 OA
ATOM     71  O   UNL A   1      50.616  26.999  22.436  1.00  0.00    -0.744 OA
ENDBRANCH  65  68
ENDBRANCH  47  61
BRANCH  48  72
ATOM     72  C   UNL A   1      38.841  29.981  30.659  1.00  0.00     0.023 A 
ATOM     73  C   UNL A   1      38.637  29.489  31.961  1.00  0.00     0.012 A 
ATOM     74  C   UNL A   1      37.835  30.759  30.051  1.00  0.00     0.148 A 
ATOM     75  C   UNL A   1      37.444  29.745  32.638  1.00  0.00     0.002 A 
ATOM     76  C   UNL A   1      36.673  31.057  30.753  1.00  0.00     0.091 A 
ATOM     77  F   UNL A   1      38.038  31.200  28.802  1.00  0.00    -0.205 F 
ATOM     78  C   UNL A   1      36.468  30.536  32.039  1.00  0.00     0.022 A 
BRANCH  76  79
ATOM     79  S   UNL A   1      35.426  32.178  30.110  1.00  0.00     0.127 S 
ATOM     80  O   UNL A   1      34.907  31.427  28.970  1.00  0.00    -0.237 OA
ATOM     81  O   UNL A   1      34.507  32.291  31.245  1.00  0.00    -0.237 OA
ATOM     82  O   UNL A   1      36.133  33.410  29.790  1.00  0.00    -0.744 OA
ENDBRANCH  76  79
ENDBRANCH  48  72
BRANCH  60  83
ATOM     83  C   UNL A   1      44.613  33.718  29.408  1.00  0.00     0.023 A 
ATOM     84  C   UNL A   1      45.253  33.969  30.639  1.00  0.00     0.012 A 
ATOM     85  C   UNL A   1      44.443  34.773  28.489  1.00  0.00     0.148 A 
ATOM     86  C   UNL A   1      45.695  35.252  30.959  1.00  0.00     0.002 A 
ATOM     87  C   UNL A   1      44.928  36.039  28.797  1.00  0.00     0.091 A 
ATOM     88  F   UNL A   1      43.819  34.517  27.331  1.00  0.00    -0.205 F 
ATOM     89  C   UNL A   1      45.543  36.283  30.035  1.00  0.00     0.022 A 
BRANCH  87  90
ATOM     90  S   UNL A   1      44.863  37.409  27.635  1.00  0.00     0.127 S 
ATOM     91  O   UNL A   1      43.425  37.531  27.399  1.00  0.00    -0.237 OA
ATOM     92  O   UNL A   1      45.449  38.501  28.412  1.00  0.00    -0.237 OA
ATOM     93  O   UNL A   1      45.651  36.996  26.481  1.00  0.00    -0.744 OA
ENDBRANCH  87  90
ENDBRANCH  60  83
ENDBRANCH  34  35
ENDBRANCH  27  29
ENDBRANCH  26  27
ENDBRANCH  25  26
ENDBRANCH  24  25
ENDBRANCH  23  24
ENDBRANCH   1  23
TORSDOF 21
ENDMDL
MODEL 3
REMARK VINA RESULT:     -10.8      5.916      9.994
REMARK SMILES CCSc1cccc(-c2ccc([C@@H](C)C(=O)OCCOCCOC(=O)c3ccc(-c4c5nc(c(-c6cccc(S(=O)(=O)[O-])c6F)c6ccc([nH]6)c(-c6cccc(S(=O)(=O)[O-])c6F)c6nc(c(-c7cccc(S(=O)(=O)[O-])c7F)c7ccc4[nH]7)C=C6)C=C5)cc3)cc2)c1
REMARK SMILES IDX 19 1 18 2 17 3 15 4 16 5 13 6 14 7 12 8 9 9 10 10 90 11
REMARK SMILES IDX 11 12 89 13 8 14 4 15 5 16 91 17 6 18 7 19 3 20 2 21 1 22
REMARK SMILES IDX 20 23 21 24 22 25 23 26 24 27 25 28 26 29 27 30 88 31 28 32
REMARK SMILES IDX 87 33 29 34 30 35 31 36 81 37 32 38 86 39 80 40 82 41 33 42
REMARK SMILES IDX 85 43 79 44 78 45 34 47 66 48 46 49 65 50 47 51 50 52 64 53
REMARK SMILES IDX 83 54 48 55 49 56 63 58 84 59 51 60 35 61 36 62 44 63 37 64
REMARK SMILES IDX 39 65 45 66 38 67 40 68 41 69 42 70 43 71 67 72 68 73 76 74
REMARK SMILES IDX 69 75 71 76 77 77 70 78 72 79 73 80 74 81 75 82 52 83 53 84
REMARK SMILES IDX 61 85 54 86 56 87 62 88 55 89 57 90 58 91 59 92 60 93
REMARK H PARENT 82 46 50 57
REMARK Flexibility Score: inf
ROOT
ATOM      1  C   UNL A   1      36.268  23.124  24.925  1.00  0.00     0.202 C 
ENDROOT
BRANCH   1   2
ATOM      2  C   UNL A   1      35.280  23.150  26.094  1.00  0.00     0.261 C 
BRANCH   2   3
ATOM      3  O   UNL A   1      34.358  22.048  26.030  1.00  0.00    -0.463 OA
BRANCH   3   4
ATOM      4  C   UNL A   1      33.199  22.197  26.721  1.00  0.00     0.313 C 
ATOM      5  O   UNL A   1      33.133  22.420  27.927  1.00  0.00    -0.252 OA
BRANCH   4   6
ATOM      6  C   UNL A   1      31.950  22.038  25.868  1.00  0.00     0.126 C 
ATOM      7  C   UNL A   1      32.191  20.963  24.811  1.00  0.00     0.025 C 
BRANCH   6   8
ATOM      8  C   UNL A   1      31.330  23.300  25.279  1.00  0.00    -0.034 A 
ATOM      9  C   UNL A   1      29.949  25.590  24.281  1.00  0.00    -0.018 A 
ATOM     10  C   UNL A   1      30.405  24.580  23.419  1.00  0.00     0.009 A 
ATOM     11  C   UNL A   1      30.237  25.454  25.646  1.00  0.00     0.009 A 
ATOM     12  C   UNL A   1      31.082  23.453  23.909  1.00  0.00     0.005 A 
ATOM     13  C   UNL A   1      30.916  24.331  26.138  1.00  0.00     0.005 A 
BRANCH   9  14
ATOM     14  C   UNL A   1      29.141  26.721  23.786  1.00  0.00    -0.017 A 
ATOM     15  C   UNL A   1      28.966  28.898  22.680  1.00  0.00     0.008 A 
ATOM     16  C   UNL A   1      27.595  28.926  22.937  1.00  0.00     0.015 A 
ATOM     17  C   UNL A   1      29.730  27.804  23.109  1.00  0.00     0.023 A 
ATOM     18  C   UNL A   1      26.990  27.862  23.604  1.00  0.00     0.002 A 
ATOM     19  C   UNL A   1      27.757  26.772  24.022  1.00  0.00     0.009 A 
BRANCH  15  20
ATOM     20  S   UNL A   1      29.768  30.268  21.865  1.00  0.00    -0.126 SA
BRANCH  20  21
ATOM     21  C   UNL A   1      28.331  31.042  21.045  1.00  0.00     0.071 C 
ATOM     22  C   UNL A   1      28.083  32.450  21.558  1.00  0.00     0.016 C 
ENDBRANCH  20  21
ENDBRANCH  15  20
ENDBRANCH   9  14
ENDBRANCH   6   8
ENDBRANCH   4   6
ENDBRANCH   3   4
ENDBRANCH   2   3
ENDBRANCH   1   2
BRANCH   1  23
ATOM     23  O   UNL A   1      37.639  22.889  25.254  1.00  0.00    -0.374 OA
BRANCH  23  24
ATOM     24  C   UNL A   1      38.047  21.529  25.407  1.00  0.00     0.202 C 
BRANCH  24  25
ATOM     25  C   UNL A   1      39.361  21.281  26.159  1.00  0.00     0.261 C 
BRANCH  25  26
ATOM     26  O   UNL A   1      39.821  19.924  26.031  1.00  0.00    -0.460 OA
BRANCH  26  27
ATOM     27  C   UNL A   1      41.158  19.754  26.147  1.00  0.00     0.338 C 
ATOM     28  O   UNL A   1      41.802  18.745  25.881  1.00  0.00    -0.246 OA
BRANCH  27  29
ATOM     29  C   UNL A   1      41.799  21.039  26.470  1.00  0.00     0.060 A 
ATOM     30  C   UNL A   1      41.933  21.378  27.824  1.00  0.00     0.016 A 
ATOM     31  C   UNL A   1      42.218  21.921  25.473  1.00  0.00     0.016 A 
ATOM     32  C   UNL A   1      42.464  22.616  28.185  1.00  0.00     0.010 A 
ATOM     33  C   UNL A   1      42.737  23.168  25.839  1.00  0.00     0.010 A 
ATOM     34  C   UNL A   1      42.843  23.530  27.195  1.00  0.00    -0.014 A 
BRANCH  34  35
ATOM     35  C   UNL A   1      43.272  24.899  27.572  1.00  0.00     0.031 A 
ATOM     36  C   UNL A   1      42.258  25.870  28.111  1.00  0.00     0.074 A 
ATOM     37  C   UNL A   1      44.553  25.277  27.414  1.00  0.00     0.049 A 
ATOM     38  N   UNL A   1      42.412  27.125  28.438  1.00  0.00    -0.248 NA
ATOM     39  C   UNL A   1      40.891  25.358  28.304  1.00  0.00     0.031 C 
ATOM     40  C   UNL A   1      45.627  24.425  26.908  1.00  0.00     0.029 A 
ATOM     41  N   UNL A   1      45.158  26.491  27.631  1.00  0.00    -0.354 N 
ATOM     42  C   UNL A   1      41.159  27.567  28.849  1.00  0.00     0.074 A 
ATOM     43  C   UNL A   1      40.256  26.443  28.724  1.00  0.00     0.031 C 
ATOM     44  C   UNL A   1      46.754  25.153  26.816  1.00  0.00     0.029 A 
ATOM     45  C   UNL A   1      46.473  26.526  27.228  1.00  0.00     0.049 A 
ATOM     46  H   UNL A   1      44.696  27.259  28.037  1.00  0.00     0.167 HD
ATOM     47  C   UNL A   1      40.799  28.792  29.298  1.00  0.00     0.034 A 
ATOM     48  C   UNL A   1      47.339  27.557  27.165  1.00  0.00     0.034 A 
ATOM     49  C   UNL A   1      41.703  29.901  29.439  1.00  0.00     0.049 A 
ATOM     50  C   UNL A   1      46.899  28.920  27.630  1.00  0.00     0.074 A 
ATOM     51  C   UNL A   1      41.443  31.161  29.948  1.00  0.00     0.029 A 
ATOM     52  N   UNL A   1      43.033  29.893  29.051  1.00  0.00    -0.354 N 
ATOM     53  N   UNL A   1      45.750  29.288  28.141  1.00  0.00    -0.248 NA
ATOM     54  C   UNL A   1      47.884  30.009  27.530  1.00  0.00     0.031 C 
ATOM     55  C   UNL A   1      42.610  31.926  29.837  1.00  0.00     0.029 A 
ATOM     56  C   UNL A   1      43.602  31.133  29.283  1.00  0.00     0.049 A 
ATOM     57  H   UNL A   1      43.505  29.118  28.667  1.00  0.00     0.167 HD
ATOM     58  C   UNL A   1      45.880  30.639  28.448  1.00  0.00     0.074 A 
ATOM     59  C   UNL A   1      47.231  31.020  28.088  1.00  0.00     0.031 C 
ATOM     60  C   UNL A   1      44.960  31.491  28.963  1.00  0.00     0.034 A 
BRANCH  47  61
ATOM     61  C   UNL A   1      39.363  28.997  29.697  1.00  0.00     0.023 A 
ATOM     62  C   UNL A   1      38.944  28.652  30.998  1.00  0.00     0.012 A 
ATOM     63  C   UNL A   1      38.446  29.596  28.810  1.00  0.00     0.148 A 
ATOM     64  C   UNL A   1      37.628  28.878  31.402  1.00  0.00     0.002 A 
ATOM     65  C   UNL A   1      37.148  29.855  29.234  1.00  0.00     0.091 A 
ATOM     66  F   UNL A   1      38.859  29.895  27.570  1.00  0.00    -0.205 F 
ATOM     67  C   UNL A   1      36.735  29.488  30.525  1.00  0.00     0.022 A 
BRANCH  65  68
ATOM     68  S   UNL A   1      35.943  30.701  28.204  1.00  0.00     0.127 S 
ATOM     69  O   UNL A   1      35.744  29.731  27.128  1.00  0.00    -0.237 OA
ATOM     70  O   UNL A   1      34.807  30.844  29.114  1.00  0.00    -0.237 OA
ATOM     71  O   UNL A   1      36.566  31.955  27.806  1.00  0.00    -0.744 OA
ENDBRANCH  65  68
ENDBRANCH  47  61
BRANCH  48  72
ATOM     72  C   UNL A   1      48.719  27.337  26.646  1.00  0.00     0.023 A 
ATOM     73  C   UNL A   1      49.721  26.858  27.511  1.00  0.00     0.012 A 
ATOM     74  C   UNL A   1      49.037  27.585  25.297  1.00  0.00     0.148 A 
ATOM     75  C   UNL A   1      51.022  26.654  27.049  1.00  0.00     0.002 A 
ATOM     76  C   UNL A   1      50.321  27.327  24.829  1.00  0.00     0.091 A 
ATOM     77  F   UNL A   1      48.076  28.062  24.493  1.00  0.00    -0.205 F 
ATOM     78  C   UNL A   1      51.318  26.878  25.707  1.00  0.00     0.022 A 
BRANCH  76  79
ATOM     79  S   UNL A   1      50.753  27.458  23.091  1.00  0.00     0.127 S 
ATOM     80  O   UNL A   1      49.613  26.809  22.448  1.00  0.00    -0.237 OA
ATOM     81  O   UNL A   1      50.822  28.909  22.905  1.00  0.00    -0.237 OA
ATOM     82  O   UNL A   1      52.032  26.777  22.951  1.00  0.00    -0.744 OA
ENDBRANCH  76  79
ENDBRANCH  48  72
BRANCH  60  83
ATOM     83  C   UNL A   1      45.375  32.923  29.188  1.00  0.00     0.023 A 
ATOM     84  C   UNL A   1      45.956  33.293  30.417  1.00  0.00     0.012 A 
ATOM     85  C   UNL A   1      45.270  33.877  28.156  1.00  0.00     0.148 A 
ATOM     86  C   UNL A   1      46.404  34.597  30.625  1.00  0.00     0.002 A 
ATOM     87  C   UNL A   1      45.760  35.162  28.355  1.00  0.00     0.091 A 
ATOM     88  F   UNL A   1      44.701  33.508  27.000  1.00  0.00    -0.205 F 
ATOM     89  C   UNL A   1      46.317  35.528  29.591  1.00  0.00     0.022 A 
BRANCH  87  90
ATOM     90  S   UNL A   1      45.778  36.404  27.055  1.00  0.00     0.127 S 
ATOM     91  O   UNL A   1      44.361  36.748  26.953  1.00  0.00    -0.237 OA
ATOM     92  O   UNL A   1      46.620  37.448  27.637  1.00  0.00    -0.237 OA
ATOM     93  O   UNL A   1      46.345  35.751  25.882  1.00  0.00    -0.744 OA
ENDBRANCH  87  90
ENDBRANCH  60  83
ENDBRANCH  34  35
ENDBRANCH  27  29
ENDBRANCH  26  27
ENDBRANCH  25  26
ENDBRANCH  24  25
ENDBRANCH  23  24
ENDBRANCH   1  23
TORSDOF 21
ENDMDL
