MODEL 1
REMARK VINA RESULT:      -9.9      0.000      0.000
REMARK SMILES COc1cccc([C@@H]2CN(C(=O)c3cnn(C)c3)C[C@H]2C(=O)OCCOCCOC(=O)c2ccc(-c3c4nc(c(-c5cccc(S(=O)(=O)[O-])c5F)c5ccc([nH]5)c(-c5cccc(S(=O)(=O)[O-])c5F)c5nc(c(-c6cccc(S(=O)(=O)[O-])c6F)c6ccc3[nH]6)C=C5)C=C4)cc2)c1OC
REMARK SMILES IDX 27 1 26 2 25 3 24 4 23 5 21 6 22 7 20 8 8 9 9 10 10 11 19 12
REMARK SMILES IDX 7 13 3 14 4 15 95 16 5 17 6 18 2 19 1 20 96 21 97 22 11 23
REMARK SMILES IDX 12 24 13 25 14 26 18 27 15 28 16 29 17 30 28 31 29 32 30 33
REMARK SMILES IDX 31 34 32 35 33 36 94 37 34 38 93 39 35 40 36 41 37 42 87 43
REMARK SMILES IDX 38 44 92 45 86 46 88 47 39 48 91 49 85 50 84 51 40 53 72 54
REMARK SMILES IDX 52 55 71 56 53 57 56 58 70 59 89 60 54 61 55 62 69 64 90 65
REMARK SMILES IDX 57 66 41 67 42 68 50 69 43 70 45 71 51 72 44 73 46 74 47 75
REMARK SMILES IDX 48 76 49 77 73 78 74 79 82 80 75 81 77 82 83 83 76 84 78 85
REMARK SMILES IDX 79 86 80 87 81 88 58 89 59 90 67 91 60 92 62 93 68 94 61 95
REMARK SMILES IDX 63 96 64 97 65 98 66 99
REMARK H PARENT 88 52 56 63
REMARK Flexibility Score: inf
ROOT
ATOM      1  C   UNL A   1      40.071  21.730  26.966  1.00  0.00     0.202 C 
ENDROOT
BRANCH   1   2
ATOM      2  O   UNL A   1      39.180  22.551  26.207  1.00  0.00    -0.374 OA
BRANCH   2   3
ATOM      3  C   UNL A   1      38.201  21.892  25.407  1.00  0.00     0.202 C 
BRANCH   3   4
ATOM      4  C   UNL A   1      36.751  22.357  25.568  1.00  0.00     0.261 C 
BRANCH   4   5
ATOM      5  O   UNL A   1      36.432  23.543  24.821  1.00  0.00    -0.463 OA
BRANCH   5   6
ATOM      6  C   UNL A   1      35.985  23.325  23.557  1.00  0.00     0.311 C 
ATOM      7  O   UNL A   1      36.704  23.111  22.586  1.00  0.00    -0.252 OA
BRANCH   6   8
ATOM      8  C   UNL A   1      34.489  23.449  23.417  1.00  0.00     0.128 C 
ATOM      9  C   UNL A   1      33.590  22.838  24.515  1.00  0.00     0.059 C 
ATOM     10  C   UNL A   1      32.385  23.783  24.559  1.00  0.00     0.129 C 
ATOM     11  N   UNL A   1      32.874  25.065  24.092  1.00  0.00    -0.337 N 
ATOM     12  C   UNL A   1      34.143  24.932  23.407  1.00  0.00     0.135 C 
BRANCH   9  13
ATOM     13  C   UNL A   1      33.112  21.393  24.373  1.00  0.00     0.004 A 
ATOM     14  C   UNL A   1      32.764  19.115  25.164  1.00  0.00     0.161 A 
ATOM     15  C   UNL A   1      32.225  18.757  23.924  1.00  0.00     0.050 A 
ATOM     16  C   UNL A   1      33.263  20.412  25.383  1.00  0.00     0.164 A 
ATOM     17  C   UNL A   1      32.144  19.697  22.903  1.00  0.00     0.004 A 
ATOM     18  C   UNL A   1      32.571  21.005  23.131  1.00  0.00     0.008 A 
BRANCH  14  19
ATOM     19  O   UNL A   1      32.869  18.130  26.112  1.00  0.00    -0.493 OA
ATOM     20  C   UNL A   1      32.613  16.845  25.540  1.00  0.00     0.278 C 
ENDBRANCH  14  19
BRANCH  16  21
ATOM     21  O   UNL A   1      33.992  20.813  26.469  1.00  0.00    -0.493 OA
ATOM     22  C   UNL A   1      33.361  21.557  27.498  1.00  0.00     0.278 C 
ENDBRANCH  16  21
ENDBRANCH   9  13
BRANCH  11  23
ATOM     23  C   UNL A   1      32.168  26.257  24.010  1.00  0.00     0.257 C 
ATOM     24  O   UNL A   1      31.314  26.434  23.144  1.00  0.00    -0.269 OA
BRANCH  23  25
ATOM     25  C   UNL A   1      32.405  27.261  25.031  1.00  0.00     0.077 A 
ATOM     26  C   UNL A   1      33.317  27.170  26.106  1.00  0.00     0.149 A 
ATOM     27  C   UNL A   1      31.769  28.469  25.243  1.00  0.00     0.122 A 
ATOM     28  N   UNL A   1      33.341  28.271  26.862  1.00  0.00    -0.181 NA
ATOM     29  N   UNL A   1      32.375  29.038  26.324  1.00  0.00    -0.275 N 
ATOM     30  C   UNL A   1      32.098  30.336  26.886  1.00  0.00     0.173 C 
ENDBRANCH  23  25
ENDBRANCH  11  23
ENDBRANCH   6   8
ENDBRANCH   5   6
ENDBRANCH   4   5
ENDBRANCH   3   4
ENDBRANCH   2   3
ENDBRANCH   1   2
BRANCH   1  31
ATOM     31  C   UNL A   1      41.195  21.054  26.175  1.00  0.00     0.261 C 
BRANCH  31  32
ATOM     32  O   UNL A   1      42.005  22.027  25.484  1.00  0.00    -0.460 OA
BRANCH  32  33
ATOM     33  C   UNL A   1      43.066  22.466  26.207  1.00  0.00     0.338 C 
ATOM     34  O   UNL A   1      44.186  21.984  26.230  1.00  0.00    -0.246 OA
BRANCH  33  35
ATOM     35  C   UNL A   1      42.751  23.748  26.863  1.00  0.00     0.060 A 
ATOM     36  C   UNL A   1      42.540  24.861  26.041  1.00  0.00     0.016 A 
ATOM     37  C   UNL A   1      42.816  23.888  28.250  1.00  0.00     0.016 A 
ATOM     38  C   UNL A   1      42.453  26.134  26.601  1.00  0.00     0.010 A 
ATOM     39  C   UNL A   1      42.732  25.170  28.809  1.00  0.00     0.010 A 
ATOM     40  C   UNL A   1      42.596  26.303  27.985  1.00  0.00    -0.014 A 
BRANCH  40  41
ATOM     41  C   UNL A   1      42.743  27.671  28.544  1.00  0.00     0.031 A 
ATOM     42  C   UNL A   1      44.120  28.260  28.703  1.00  0.00     0.074 A 
ATOM     43  C   UNL A   1      41.662  28.390  28.893  1.00  0.00     0.049 A 
ATOM     44  N   UNL A   1      44.471  29.432  29.166  1.00  0.00    -0.248 NA
ATOM     45  C   UNL A   1      45.253  27.417  28.285  1.00  0.00     0.031 C 
ATOM     46  C   UNL A   1      40.276  27.936  28.787  1.00  0.00     0.029 A 
ATOM     47  N   UNL A   1      41.564  29.652  29.426  1.00  0.00    -0.354 N 
ATOM     48  C   UNL A   1      45.860  29.462  29.117  1.00  0.00     0.074 A 
ATOM     49  C   UNL A   1      46.290  28.183  28.593  1.00  0.00     0.031 C 
ATOM     50  C   UNL A   1      39.466  28.896  29.266  1.00  0.00     0.029 A 
ATOM     51  C   UNL A   1      40.275  30.023  29.728  1.00  0.00     0.049 A 
ATOM     52  H   UNL A   1      42.342  30.235  29.578  1.00  0.00     0.167 HD
ATOM     53  C   UNL A   1      46.701  30.466  29.460  1.00  0.00     0.034 A 
ATOM     54  C   UNL A   1      39.803  31.136  30.322  1.00  0.00     0.034 A 
ATOM     55  C   UNL A   1      46.275  31.746  29.957  1.00  0.00     0.049 A 
ATOM     56  C   UNL A   1      40.761  32.230  30.713  1.00  0.00     0.074 A 
ATOM     57  C   UNL A   1      47.052  32.845  30.281  1.00  0.00     0.029 A 
ATOM     58  N   UNL A   1      44.958  32.099  30.211  1.00  0.00    -0.354 N 
ATOM     59  N   UNL A   1      42.059  32.291  30.544  1.00  0.00    -0.248 NA
ATOM     60  C   UNL A   1      40.184  33.426  31.350  1.00  0.00     0.031 C 
ATOM     61  C   UNL A   1      46.206  33.856  30.753  1.00  0.00     0.029 A 
ATOM     62  C   UNL A   1      44.902  33.393  30.701  1.00  0.00     0.049 A 
ATOM     63  H   UNL A   1      44.180  31.516  30.065  1.00  0.00     0.167 HD
ATOM     64  C   UNL A   1      42.450  33.539  31.018  1.00  0.00     0.074 A 
ATOM     65  C   UNL A   1      41.247  34.211  31.465  1.00  0.00     0.031 C 
ATOM     66  C   UNL A   1      43.694  34.075  31.090  1.00  0.00     0.034 A 
BRANCH  53  67
ATOM     67  C   UNL A   1      48.177  30.235  29.277  1.00  0.00     0.023 A 
ATOM     68  C   UNL A   1      48.951  29.790  30.367  1.00  0.00     0.012 A 
ATOM     69  C   UNL A   1      48.786  30.399  28.017  1.00  0.00     0.148 A 
ATOM     70  C   UNL A   1      50.314  29.536  30.213  1.00  0.00     0.002 A 
ATOM     71  C   UNL A   1      50.136  30.107  27.863  1.00  0.00     0.091 A 
ATOM     72  F   UNL A   1      48.038  30.846  26.999  1.00  0.00    -0.205 F 
ATOM     73  C   UNL A   1      50.903  29.684  28.960  1.00  0.00     0.022 A 
BRANCH  71  74
ATOM     74  S   UNL A   1      50.969  30.200  26.274  1.00  0.00     0.127 S 
ATOM     75  O   UNL A   1      50.210  29.229  25.487  1.00  0.00    -0.237 OA
ATOM     76  O   UNL A   1      50.753  31.596  25.891  1.00  0.00    -0.237 OA
ATOM     77  O   UNL A   1      52.359  29.850  26.529  1.00  0.00    -0.744 OA
ENDBRANCH  71  74
ENDBRANCH  53  67
BRANCH  54  78
ATOM     78  C   UNL A   1      38.338  31.289  30.554  1.00  0.00     0.023 A 
ATOM     79  C   UNL A   1      37.753  30.732  31.706  1.00  0.00     0.012 A 
ATOM     80  C   UNL A   1      37.530  32.000  29.646  1.00  0.00     0.148 A 
ATOM     81  C   UNL A   1      36.383  30.860  31.939  1.00  0.00     0.002 A 
ATOM     82  C   UNL A   1      36.176  32.169  29.912  1.00  0.00     0.091 A 
ATOM     83  F   UNL A   1      38.103  32.502  28.543  1.00  0.00    -0.205 F 
ATOM     84  C   UNL A   1      35.597  31.587  31.049  1.00  0.00     0.022 A 
BRANCH  82  85
ATOM     85  S   UNL A   1      35.121  33.199  28.886  1.00  0.00     0.127 S 
ATOM     86  O   UNL A   1      35.073  32.432  27.645  1.00  0.00    -0.237 OA
ATOM     87  O   UNL A   1      33.874  33.212  29.652  1.00  0.00    -0.237 OA
ATOM     88  O   UNL A   1      35.792  34.489  28.811  1.00  0.00    -0.744 OA
ENDBRANCH  82  85
ENDBRANCH  54  78
BRANCH  66  89
ATOM     89  C   UNL A   1      43.828  35.468  31.646  1.00  0.00     0.023 A 
ATOM     90  C   UNL A   1      43.868  36.569  30.769  1.00  0.00     0.012 A 
ATOM     91  C   UNL A   1      43.829  35.692  33.038  1.00  0.00     0.148 A 
ATOM     92  C   UNL A   1      43.936  37.870  31.268  1.00  0.00     0.002 A 
ATOM     93  C   UNL A   1      43.852  36.992  33.528  1.00  0.00     0.091 A 
ATOM     94  F   UNL A   1      43.810  34.630  33.857  1.00  0.00    -0.205 F 
ATOM     95  C   UNL A   1      43.915  38.082  32.644  1.00  0.00     0.022 A 
BRANCH  93  96
ATOM     96  S   UNL A   1      43.732  37.362  35.282  1.00  0.00     0.127 S 
ATOM     97  O   UNL A   1      43.980  38.802  35.300  1.00  0.00    -0.237 OA
ATOM     98  O   UNL A   1      42.355  36.976  35.590  1.00  0.00    -0.237 OA
ATOM     99  O   UNL A   1      44.747  36.542  35.932  1.00  0.00    -0.744 OA
ENDBRANCH  93  96
ENDBRANCH  66  89
ENDBRANCH  40  41
ENDBRANCH  33  35
ENDBRANCH  32  33
ENDBRANCH  31  32
ENDBRANCH   1  31
TORSDOF 22
ENDMDL
MODEL 2
REMARK VINA RESULT:      -9.7      3.645      9.112
REMARK SMILES COc1cccc([C@@H]2CN(C(=O)c3cnn(C)c3)C[C@H]2C(=O)OCCOCCOC(=O)c2ccc(-c3c4nc(c(-c5cccc(S(=O)(=O)[O-])c5F)c5ccc([nH]5)c(-c5cccc(S(=O)(=O)[O-])c5F)c5nc(c(-c6cccc(S(=O)(=O)[O-])c6F)c6ccc3[nH]6)C=C5)C=C4)cc2)c1OC
REMARK SMILES IDX 27 1 26 2 25 3 24 4 23 5 21 6 22 7 20 8 8 9 9 10 10 11 19 12
REMARK SMILES IDX 7 13 3 14 4 15 95 16 5 17 6 18 2 19 1 20 96 21 97 22 11 23
REMARK SMILES IDX 12 24 13 25 14 26 18 27 15 28 16 29 17 30 28 31 29 32 30 33
REMARK SMILES IDX 31 34 32 35 33 36 94 37 34 38 93 39 35 40 36 41 37 42 87 43
REMARK SMILES IDX 38 44 92 45 86 46 88 47 39 48 91 49 85 50 84 51 40 53 72 54
REMARK SMILES IDX 52 55 71 56 53 57 56 58 70 59 89 60 54 61 55 62 69 64 90 65
REMARK SMILES IDX 57 66 41 67 42 68 50 69 43 70 45 71 51 72 44 73 46 74 47 75
REMARK SMILES IDX 48 76 49 77 73 78 74 79 82 80 75 81 77 82 83 83 76 84 78 85
REMARK SMILES IDX 79 86 80 87 81 88 58 89 59 90 67 91 60 92 62 93 68 94 61 95
REMARK SMILES IDX 63 96 64 97 65 98 66 99
REMARK H PARENT 88 52 56 63
REMARK Flexibility Score: inf
ROOT
ATOM      1  C   UNL A   1      39.311  22.158  26.174  1.00  0.00     0.202 C 
ENDROOT
BRANCH   1   2
ATOM      2  O   UNL A   1      38.039  22.768  25.941  1.00  0.00    -0.374 OA
BRANCH   2   3
ATOM      3  C   UNL A   1      37.142  22.099  25.058  1.00  0.00     0.202 C 
BRANCH   3   4
ATOM      4  C   UNL A   1      35.867  21.521  25.677  1.00  0.00     0.261 C 
BRANCH   4   5
ATOM      5  O   UNL A   1      35.127  22.462  26.472  1.00  0.00    -0.463 OA
BRANCH   5   6
ATOM      6  C   UNL A   1      34.832  23.636  25.853  1.00  0.00     0.311 C 
ATOM      7  O   UNL A   1      35.433  24.691  26.030  1.00  0.00    -0.252 OA
BRANCH   6   8
ATOM      8  C   UNL A   1      33.620  23.559  24.960  1.00  0.00     0.128 C 
ATOM      9  C   UNL A   1      33.684  24.225  23.567  1.00  0.00     0.059 C 
ATOM     10  C   UNL A   1      32.804  23.321  22.697  1.00  0.00     0.129 C 
ATOM     11  N   UNL A   1      32.848  22.013  23.319  1.00  0.00    -0.337 N 
ATOM     12  C   UNL A   1      33.342  22.087  24.679  1.00  0.00     0.135 C 
BRANCH   9  13
ATOM     13  C   UNL A   1      33.246  25.681  23.414  1.00  0.00     0.004 A 
ATOM     14  C   UNL A   1      32.006  27.674  24.066  1.00  0.00     0.161 A 
ATOM     15  C   UNL A   1      32.502  28.358  22.952  1.00  0.00     0.050 A 
ATOM     16  C   UNL A   1      32.323  26.320  24.277  1.00  0.00     0.164 A 
ATOM     17  C   UNL A   1      33.349  27.712  22.059  1.00  0.00     0.004 A 
ATOM     18  C   UNL A   1      33.727  26.391  22.296  1.00  0.00     0.008 A 
BRANCH  14  19
ATOM     19  O   UNL A   1      31.131  28.347  24.879  1.00  0.00    -0.493 OA
ATOM     20  C   UNL A   1      31.836  29.159  25.821  1.00  0.00     0.278 C 
ENDBRANCH  14  19
BRANCH  16  21
ATOM     21  O   UNL A   1      31.739  25.499  25.202  1.00  0.00    -0.493 OA
ATOM     22  C   UNL A   1      30.337  25.290  25.167  1.00  0.00     0.278 C 
ENDBRANCH  16  21
ENDBRANCH   9  13
BRANCH  11  23
ATOM     23  C   UNL A   1      32.255  20.844  22.864  1.00  0.00     0.257 C 
ATOM     24  O   UNL A   1      31.674  20.802  21.782  1.00  0.00    -0.269 OA
BRANCH  23  25
ATOM     25  C   UNL A   1      32.411  19.644  23.665  1.00  0.00     0.077 A 
ATOM     26  C   UNL A   1      32.279  19.545  25.068  1.00  0.00     0.149 A 
ATOM     27  C   UNL A   1      32.791  18.372  23.282  1.00  0.00     0.122 A 
ATOM     28  N   UNL A   1      32.444  18.297  25.519  1.00  0.00    -0.181 NA
ATOM     29  N   UNL A   1      32.773  17.609  24.412  1.00  0.00    -0.275 N 
ATOM     30  C   UNL A   1      33.034  16.193  24.502  1.00  0.00     0.173 C 
ENDBRANCH  23  25
ENDBRANCH  11  23
ENDBRANCH   6   8
ENDBRANCH   5   6
ENDBRANCH   4   5
ENDBRANCH   3   4
ENDBRANCH   2   3
ENDBRANCH   1   2
BRANCH   1  31
ATOM     31  C   UNL A   1      39.428  20.685  25.775  1.00  0.00     0.261 C 
BRANCH  31  32
ATOM     32  O   UNL A   1      40.205  19.943  26.739  1.00  0.00    -0.460 OA
BRANCH  32  33
ATOM     33  C   UNL A   1      41.459  19.645  26.316  1.00  0.00     0.338 C 
ATOM     34  O   UNL A   1      41.811  18.644  25.717  1.00  0.00    -0.246 OA
BRANCH  33  35
ATOM     35  C   UNL A   1      42.361  20.792  26.522  1.00  0.00     0.060 A 
ATOM     36  C   UNL A   1      42.502  21.279  27.828  1.00  0.00     0.016 A 
ATOM     37  C   UNL A   1      42.930  21.471  25.444  1.00  0.00     0.016 A 
ATOM     38  C   UNL A   1      43.164  22.484  28.054  1.00  0.00     0.010 A 
ATOM     39  C   UNL A   1      43.591  22.684  25.675  1.00  0.00     0.010 A 
ATOM     40  C   UNL A   1      43.672  23.219  26.974  1.00  0.00    -0.014 A 
BRANCH  40  41
ATOM     41  C   UNL A   1      44.157  24.605  27.196  1.00  0.00     0.031 A 
ATOM     42  C   UNL A   1      43.196  25.655  27.690  1.00  0.00     0.074 A 
ATOM     43  C   UNL A   1      45.445  24.925  26.978  1.00  0.00     0.049 A 
ATOM     44  N   UNL A   1      43.412  26.918  27.950  1.00  0.00    -0.248 NA
ATOM     45  C   UNL A   1      41.807  25.223  27.920  1.00  0.00     0.031 C 
ATOM     46  C   UNL A   1      46.475  24.002  26.502  1.00  0.00     0.029 A 
ATOM     47  N   UNL A   1      46.101  26.124  27.109  1.00  0.00    -0.354 N 
ATOM     48  C   UNL A   1      42.188  27.439  28.352  1.00  0.00     0.074 A 
ATOM     49  C   UNL A   1      41.228  26.358  28.288  1.00  0.00     0.031 C 
ATOM     50  C   UNL A   1      47.629  24.676  26.357  1.00  0.00     0.029 A 
ATOM     51  C   UNL A   1      47.416  26.078  26.711  1.00  0.00     0.049 A 
ATOM     52  H   UNL A   1      45.671  26.939  27.455  1.00  0.00     0.167 HD
ATOM     53  C   UNL A   1      41.892  28.698  28.755  1.00  0.00     0.034 A 
ATOM     54  C   UNL A   1      48.338  27.058  26.626  1.00  0.00     0.034 A 
ATOM     55  C   UNL A   1      42.848  29.767  28.845  1.00  0.00     0.049 A 
ATOM     56  C   UNL A   1      47.978  28.454  27.062  1.00  0.00     0.074 A 
ATOM     57  C   UNL A   1      42.652  31.062  29.293  1.00  0.00     0.029 A 
ATOM     58  N   UNL A   1      44.180  29.672  28.471  1.00  0.00    -0.354 N 
ATOM     59  N   UNL A   1      46.849  28.898  27.558  1.00  0.00    -0.248 NA
ATOM     60  C   UNL A   1      49.029  29.478  26.955  1.00  0.00     0.031 C 
ATOM     61  C   UNL A   1      43.861  31.757  29.170  1.00  0.00     0.029 A 
ATOM     62  C   UNL A   1      44.814  30.887  28.665  1.00  0.00     0.049 A 
ATOM     63  H   UNL A   1      44.611  28.860  28.120  1.00  0.00     0.167 HD
ATOM     64  C   UNL A   1      47.064  30.241  27.855  1.00  0.00     0.074 A 
ATOM     65  C   UNL A   1      48.437  30.532  27.500  1.00  0.00     0.031 C 
ATOM     66  C   UNL A   1      46.197  31.153  28.362  1.00  0.00     0.034 A 
BRANCH  53  67
ATOM     67  C   UNL A   1      40.472  28.984  29.168  1.00  0.00     0.023 A 
ATOM     68  C   UNL A   1      39.524  29.346  28.191  1.00  0.00     0.012 A 
ATOM     69  C   UNL A   1      40.063  28.835  30.508  1.00  0.00     0.148 A 
ATOM     70  C   UNL A   1      38.196  29.582  28.543  1.00  0.00     0.002 A 
ATOM     71  C   UNL A   1      38.729  29.035  30.845  1.00  0.00     0.091 A 
ATOM     72  F   UNL A   1      40.984  28.513  31.426  1.00  0.00    -0.205 F 
ATOM     73  C   UNL A   1      37.796  29.416  29.867  1.00  0.00     0.022 A 
BRANCH  71  74
ATOM     74  S   UNL A   1      38.105  28.778  32.510  1.00  0.00     0.127 S 
ATOM     75  O   UNL A   1      38.284  27.336  32.671  1.00  0.00    -0.237 OA
ATOM     76  O   UNL A   1      39.014  29.598  33.312  1.00  0.00    -0.237 OA
ATOM     77  O   UNL A   1      36.724  29.241  32.496  1.00  0.00    -0.744 OA
ENDBRANCH  71  74
ENDBRANCH  53  67
BRANCH  54  78
ATOM     78  C   UNL A   1      49.711  26.743  26.139  1.00  0.00     0.023 A 
ATOM     79  C   UNL A   1      50.600  26.035  26.969  1.00  0.00     0.012 A 
ATOM     80  C   UNL A   1      50.129  27.126  24.850  1.00  0.00     0.148 A 
ATOM     81  C   UNL A   1      51.891  25.734  26.534  1.00  0.00     0.002 A 
ATOM     82  C   UNL A   1      51.398  26.776  24.403  1.00  0.00     0.091 A 
ATOM     83  F   UNL A   1      49.275  27.820  24.085  1.00  0.00    -0.205 F 
ATOM     84  C   UNL A   1      52.287  26.095  25.248  1.00  0.00     0.022 A 
BRANCH  82  85
ATOM     85  S   UNL A   1      51.938  27.088  22.719  1.00  0.00     0.127 S 
ATOM     86  O   UNL A   1      53.044  26.145  22.581  1.00  0.00    -0.237 OA
ATOM     87  O   UNL A   1      50.739  26.751  21.950  1.00  0.00    -0.237 OA
ATOM     88  O   UNL A   1      52.297  28.499  22.682  1.00  0.00    -0.744 OA
ENDBRANCH  82  85
ENDBRANCH  54  78
BRANCH  66  89
ATOM     89  C   UNL A   1      46.706  32.551  28.595  1.00  0.00     0.023 A 
ATOM     90  C   UNL A   1      47.228  32.903  29.855  1.00  0.00     0.012 A 
ATOM     91  C   UNL A   1      46.744  33.490  27.545  1.00  0.00     0.148 A 
ATOM     92  C   UNL A   1      47.755  34.176  30.074  1.00  0.00     0.002 A 
ATOM     93  C   UNL A   1      47.311  34.741  27.757  1.00  0.00     0.091 A 
ATOM     94  F   UNL A   1      46.225  33.143  26.358  1.00  0.00    -0.205 F 
ATOM     95  C   UNL A   1      47.807  35.089  29.023  1.00  0.00     0.022 A 
BRANCH  93  96
ATOM     96  S   UNL A   1      47.506  35.945  26.438  1.00  0.00     0.127 S 
ATOM     97  O   UNL A   1      48.329  36.964  27.084  1.00  0.00    -0.237 OA
ATOM     98  O   UNL A   1      48.195  35.169  25.406  1.00  0.00    -0.237 OA
ATOM     99  O   UNL A   1      46.158  36.363  26.076  1.00  0.00    -0.744 OA
ENDBRANCH  93  96
ENDBRANCH  66  89
ENDBRANCH  40  41
ENDBRANCH  33  35
ENDBRANCH  32  33
ENDBRANCH  31  32
ENDBRANCH   1  31
TORSDOF 22
ENDMDL
MODEL 3
REMARK VINA RESULT:      -9.7      6.380      9.797
REMARK SMILES COc1cccc([C@@H]2CN(C(=O)c3cnn(C)c3)C[C@H]2C(=O)OCCOCCOC(=O)c2ccc(-c3c4nc(c(-c5cccc(S(=O)(=O)[O-])c5F)c5ccc([nH]5)c(-c5cccc(S(=O)(=O)[O-])c5F)c5nc(c(-c6cccc(S(=O)(=O)[O-])c6F)c6ccc3[nH]6)C=C5)C=C4)cc2)c1OC
REMARK SMILES IDX 27 1 26 2 25 3 24 4 23 5 21 6 22 7 20 8 8 9 9 10 10 11 19 12
REMARK SMILES IDX 7 13 3 14 4 15 95 16 5 17 6 18 2 19 1 20 96 21 97 22 11 23
REMARK SMILES IDX 12 24 13 25 14 26 18 27 15 28 16 29 17 30 28 31 29 32 30 33
REMARK SMILES IDX 31 34 32 35 33 36 94 37 34 38 93 39 35 40 36 41 37 42 87 43
REMARK SMILES IDX 38 44 92 45 86 46 88 47 39 48 91 49 85 50 84 51 40 53 72 54
REMARK SMILES IDX 52 55 71 56 53 57 56 58 70 59 89 60 54 61 55 62 69 64 90 65
REMARK SMILES IDX 57 66 41 67 42 68 50 69 43 70 45 71 51 72 44 73 46 74 47 75
REMARK SMILES IDX 48 76 49 77 73 78 74 79 82 80 75 81 77 82 83 83 76 84 78 85
REMARK SMILES IDX 79 86 80 87 81 88 58 89 59 90 67 91 60 92 62 93 68 94 61 95
REMARK SMILES IDX 63 96 64 97 65 98 66 99
REMARK H PARENT 88 52 56 63
REMARK Flexibility Score: inf
ROOT
ATOM      1  C   UNL A   1      35.571  29.718  28.832  1.00  0.00     0.202 C 
ENDROOT
BRANCH   1   2
ATOM      2  O   UNL A   1      35.608  29.574  27.410  1.00  0.00    -0.374 OA
BRANCH   2   3
ATOM      3  C   UNL A   1      34.399  29.811  26.694  1.00  0.00     0.202 C 
BRANCH   3   4
ATOM      4  C   UNL A   1      33.198  30.299  27.509  1.00  0.00     0.261 C 
BRANCH   4   5
ATOM      5  O   UNL A   1      31.940  29.756  27.076  1.00  0.00    -0.463 OA
BRANCH   5   6
ATOM      6  C   UNL A   1      31.856  28.400  27.105  1.00  0.00     0.311 C 
ATOM      7  O   UNL A   1      31.642  27.733  28.113  1.00  0.00    -0.252 OA
BRANCH   6   8
ATOM      8  C   UNL A   1      32.133  27.749  25.774  1.00  0.00     0.128 C 
ATOM      9  C   UNL A   1      31.780  26.257  25.592  1.00  0.00     0.059 C 
ATOM     10  C   UNL A   1      31.375  26.162  24.116  1.00  0.00     0.129 C 
ATOM     11  N   UNL A   1      30.898  27.482  23.754  1.00  0.00    -0.337 N 
ATOM     12  C   UNL A   1      31.312  28.480  24.719  1.00  0.00     0.135 C 
BRANCH   9  13
ATOM     13  C   UNL A   1      32.830  25.194  25.912  1.00  0.00     0.004 A 
ATOM     14  C   UNL A   1      33.607  23.122  26.930  1.00  0.00     0.161 A 
ATOM     15  C   UNL A   1      34.900  23.360  26.451  1.00  0.00     0.050 A 
ATOM     16  C   UNL A   1      32.579  24.058  26.718  1.00  0.00     0.164 A 
ATOM     17  C   UNL A   1      35.170  24.513  25.723  1.00  0.00     0.004 A 
ATOM     18  C   UNL A   1      34.142  25.414  25.445  1.00  0.00     0.008 A 
BRANCH  14  19
ATOM     19  O   UNL A   1      33.416  21.996  27.689  1.00  0.00    -0.493 OA
ATOM     20  C   UNL A   1      33.342  20.833  26.862  1.00  0.00     0.278 C 
ENDBRANCH  14  19
BRANCH  16  21
ATOM     21  O   UNL A   1      31.345  24.034  27.308  1.00  0.00    -0.493 OA
ATOM     22  C   UNL A   1      30.345  23.164  26.805  1.00  0.00     0.278 C 
ENDBRANCH  16  21
ENDBRANCH   9  13
BRANCH  11  23
ATOM     23  C   UNL A   1      30.365  27.879  22.537  1.00  0.00     0.257 C 
ATOM     24  O   UNL A   1      30.651  27.295  21.494  1.00  0.00    -0.269 OA
BRANCH  23  25
ATOM     25  C   UNL A   1      29.390  28.954  22.537  1.00  0.00     0.077 A 
ATOM     26  C   UNL A   1      28.051  28.876  22.979  1.00  0.00     0.149 A 
ATOM     27  C   UNL A   1      29.500  30.244  22.053  1.00  0.00     0.122 A 
ATOM     28  N   UNL A   1      27.405  30.043  22.892  1.00  0.00    -0.181 NA
ATOM     29  N   UNL A   1      28.307  30.853  22.308  1.00  0.00    -0.275 N 
ATOM     30  C   UNL A   1      27.965  32.228  22.043  1.00  0.00     0.173 C 
ENDBRANCH  23  25
ENDBRANCH  11  23
ENDBRANCH   6   8
ENDBRANCH   5   6
ENDBRANCH   4   5
ENDBRANCH   3   4
ENDBRANCH   2   3
ENDBRANCH   1   2
BRANCH   1  31
ATOM     31  C   UNL A   1      36.112  31.040  29.384  1.00  0.00     0.261 C 
BRANCH  31  32
ATOM     32  O   UNL A   1      36.264  30.984  30.817  1.00  0.00    -0.460 OA
BRANCH  32  33
ATOM     33  C   UNL A   1      35.543  31.922  31.480  1.00  0.00     0.338 C 
ATOM     34  O   UNL A   1      34.444  32.352  31.174  1.00  0.00    -0.246 OA
BRANCH  33  35
ATOM     35  C   UNL A   1      36.187  32.261  32.761  1.00  0.00     0.060 A 
ATOM     36  C   UNL A   1      35.843  33.480  33.357  1.00  0.00     0.016 A 
ATOM     37  C   UNL A   1      37.217  31.478  33.285  1.00  0.00     0.016 A 
ATOM     38  C   UNL A   1      36.571  33.952  34.448  1.00  0.00     0.010 A 
ATOM     39  C   UNL A   1      37.949  31.957  34.379  1.00  0.00     0.010 A 
ATOM     40  C   UNL A   1      37.660  33.217  34.936  1.00  0.00    -0.014 A 
BRANCH  40  41
ATOM     41  C   UNL A   1      38.571  33.835  35.933  1.00  0.00     0.031 A 
ATOM     42  C   UNL A   1      39.750  34.642  35.455  1.00  0.00     0.074 A 
ATOM     43  C   UNL A   1      38.345  33.693  37.251  1.00  0.00     0.049 A 
ATOM     44  N   UNL A   1      40.664  35.265  36.154  1.00  0.00    -0.248 NA
ATOM     45  C   UNL A   1      39.921  34.763  33.998  1.00  0.00     0.031 C 
ATOM     46  C   UNL A   1      37.240  32.940  37.842  1.00  0.00     0.029 A 
ATOM     47  N   UNL A   1      39.048  34.165  38.332  1.00  0.00    -0.354 N 
ATOM     48  C   UNL A   1      41.530  35.833  35.227  1.00  0.00     0.074 A 
ATOM     49  C   UNL A   1      41.042  35.468  33.914  1.00  0.00     0.031 C 
ATOM     50  C   UNL A   1      37.354  32.978  39.180  1.00  0.00     0.029 A 
ATOM     51  C   UNL A   1      38.547  33.742  39.541  1.00  0.00     0.049 A 
ATOM     52  H   UNL A   1      39.836  34.749  38.250  1.00  0.00     0.167 HD
ATOM     53  C   UNL A   1      42.623  36.602  35.445  1.00  0.00     0.034 A 
ATOM     54  C   UNL A   1      39.008  33.935  40.793  1.00  0.00     0.034 A 
ATOM     55  C   UNL A   1      43.096  36.987  36.747  1.00  0.00     0.049 A 
ATOM     56  C   UNL A   1      40.237  34.777  41.008  1.00  0.00     0.074 A 
ATOM     57  C   UNL A   1      44.164  37.808  37.067  1.00  0.00     0.029 A 
ATOM     58  N   UNL A   1      42.539  36.573  37.947  1.00  0.00    -0.354 N 
ATOM     59  N   UNL A   1      40.970  35.410  40.125  1.00  0.00    -0.248 NA
ATOM     60  C   UNL A   1      40.685  34.960  42.398  1.00  0.00     0.031 C 
ATOM     61  C   UNL A   1      44.266  37.872  38.461  1.00  0.00     0.029 A 
ATOM     62  C   UNL A   1      43.248  37.108  39.009  1.00  0.00     0.049 A 
ATOM     63  H   UNL A   1      41.755  35.984  38.032  1.00  0.00     0.167 HD
ATOM     64  C   UNL A   1      41.942  36.091  40.851  1.00  0.00     0.074 A 
ATOM     65  C   UNL A   1      41.692  35.810  42.249  1.00  0.00     0.031 C 
ATOM     66  C   UNL A   1      42.958  36.868  40.399  1.00  0.00     0.034 A 
BRANCH  53  67
ATOM     67  C   UNL A   1      43.371  37.114  34.243  1.00  0.00     0.023 A 
ATOM     68  C   UNL A   1      43.097  38.406  33.754  1.00  0.00     0.012 A 
ATOM     69  C   UNL A   1      44.382  36.344  33.635  1.00  0.00     0.148 A 
ATOM     70  C   UNL A   1      43.800  38.917  32.663  1.00  0.00     0.002 A 
ATOM     71  C   UNL A   1      45.104  36.874  32.572  1.00  0.00     0.091 A 
ATOM     72  F   UNL A   1      44.610  35.107  34.100  1.00  0.00    -0.205 F 
ATOM     73  C   UNL A   1      44.810  38.155  32.080  1.00  0.00     0.022 A 
BRANCH  71  74
ATOM     74  S   UNL A   1      46.469  35.997  31.801  1.00  0.00     0.127 S 
ATOM     75  O   UNL A   1      45.779  34.870  31.175  1.00  0.00    -0.237 OA
ATOM     76  O   UNL A   1      46.987  36.993  30.861  1.00  0.00    -0.237 OA
ATOM     77  O   UNL A   1      47.383  35.650  32.881  1.00  0.00    -0.744 OA
ENDBRANCH  71  74
ENDBRANCH  53  67
BRANCH  54  78
ATOM     78  C   UNL A   1      38.277  33.345  41.950  1.00  0.00     0.023 A 
ATOM     79  C   UNL A   1      37.225  34.063  42.550  1.00  0.00     0.012 A 
ATOM     80  C   UNL A   1      38.608  32.068  42.443  1.00  0.00     0.148 A 
ATOM     81  C   UNL A   1      36.531  33.531  43.637  1.00  0.00     0.002 A 
ATOM     82  C   UNL A   1      37.877  31.521  43.491  1.00  0.00     0.091 A 
ATOM     83  F   UNL A   1      39.627  31.411  41.873  1.00  0.00    -0.205 F 
ATOM     84  C   UNL A   1      36.849  32.256  44.101  1.00  0.00     0.022 A 
BRANCH  82  85
ATOM     85  S   UNL A   1      38.137  29.839  44.063  1.00  0.00     0.127 S 
ATOM     86  O   UNL A   1      36.966  29.628  44.910  1.00  0.00    -0.237 OA
ATOM     87  O   UNL A   1      38.132  29.089  42.806  1.00  0.00    -0.237 OA
ATOM     88  O   UNL A   1      39.422  29.855  44.747  1.00  0.00    -0.744 OA
ENDBRANCH  82  85
ENDBRANCH  54  78
BRANCH  66  89
ATOM     89  C   UNL A   1      43.867  37.500  41.420  1.00  0.00     0.023 A 
ATOM     90  C   UNL A   1      45.040  36.831  41.820  1.00  0.00     0.012 A 
ATOM     91  C   UNL A   1      43.604  38.791  41.920  1.00  0.00     0.148 A 
ATOM     92  C   UNL A   1      45.922  37.424  42.722  1.00  0.00     0.002 A 
ATOM     93  C   UNL A   1      44.509  39.395  42.784  1.00  0.00     0.091 A 
ATOM     94  F   UNL A   1      42.472  39.405  41.543  1.00  0.00    -0.205 F 
ATOM     95  C   UNL A   1      45.664  38.709  43.194  1.00  0.00     0.022 A 
BRANCH  93  96
ATOM     96  S   UNL A   1      44.305  41.082  43.367  1.00  0.00     0.127 S 
ATOM     97  O   UNL A   1      43.131  40.961  44.227  1.00  0.00    -0.237 OA
ATOM     98  O   UNL A   1      45.561  41.322  44.079  1.00  0.00    -0.237 OA
ATOM     99  O   UNL A   1      44.126  41.898  42.172  1.00  0.00    -0.744 OA
ENDBRANCH  93  96
ENDBRANCH  66  89
ENDBRANCH  40  41
ENDBRANCH  33  35
ENDBRANCH  32  33
ENDBRANCH  31  32
ENDBRANCH   1  31
TORSDOF 22
ENDMDL
