MODEL 1
REMARK VINA RESULT:     -10.9      0.000      0.000
REMARK SMILES C/C=C/c1cncc(-c2ccc([C@@H](C)C(=O)OCCOCCOC(=O)c3ccc(-c4c5nc(c(-c6cccc(S(=O)(=O)[O-])c6F)c6ccc([nH]6)c(-c6cccc(S(=O)(=O)[O-])c6F)c6nc(c(-c7cccc(S(=O)(=O)[O-])c7F)c7ccc4[nH]7)C=C6)C=C5)cc3)cc2)c1
REMARK SMILES IDX 20 1 19 2 18 3 17 4 15 5 16 6 13 7 14 8 12 9 9 10 10 11
REMARK SMILES IDX 90 12 11 13 89 14 8 15 4 16 5 17 91 18 6 19 7 20 3 21 1 22
REMARK SMILES IDX 2 23 21 24 22 25 23 26 24 27 25 28 26 29 27 30 88 31 28 32
REMARK SMILES IDX 87 33 29 34 30 35 31 36 81 37 32 38 86 39 80 40 82 41 33 42
REMARK SMILES IDX 85 43 79 44 78 45 34 47 66 48 46 49 65 50 47 51 50 52 64 53
REMARK SMILES IDX 83 54 48 55 49 56 63 58 84 59 51 60 35 61 36 62 44 63 37 64
REMARK SMILES IDX 39 65 45 66 38 67 40 68 41 69 42 70 43 71 67 72 68 73 76 74
REMARK SMILES IDX 69 75 71 76 77 77 70 78 72 79 73 80 74 81 75 82 52 83 53 84
REMARK SMILES IDX 61 85 54 86 56 87 62 88 55 89 57 90 58 91 59 92 60 93
REMARK H PARENT 82 46 50 57
REMARK Flexibility Score: inf
ROOT
ATOM      1  O   UNL A   1      37.777  21.876  24.583  1.00  0.00    -0.374 OA
ENDROOT
BRANCH   1   2
ATOM      2  C   UNL A   1      36.607  22.502  25.111  1.00  0.00     0.202 C 
BRANCH   2   3
ATOM      3  C   UNL A   1      35.274  22.069  24.495  1.00  0.00     0.261 C 
BRANCH   3   4
ATOM      4  O   UNL A   1      34.653  21.031  25.273  1.00  0.00    -0.463 OA
BRANCH   4   5
ATOM      5  C   UNL A   1      33.986  21.429  26.386  1.00  0.00     0.313 C 
ATOM      6  O   UNL A   1      34.471  21.460  27.514  1.00  0.00    -0.252 OA
BRANCH   5   7
ATOM      7  C   UNL A   1      32.538  21.820  26.126  1.00  0.00     0.126 C 
ATOM      8  C   UNL A   1      32.008  21.024  24.936  1.00  0.00     0.025 C 
BRANCH   7   9
ATOM      9  C   UNL A   1      32.216  23.307  26.015  1.00  0.00    -0.034 A 
ATOM     10  C   UNL A   1      31.633  26.061  25.567  1.00  0.00    -0.017 A 
ATOM     11  C   UNL A   1      32.858  25.657  26.118  1.00  0.00     0.009 A 
ATOM     12  C   UNL A   1      30.684  25.069  25.286  1.00  0.00     0.009 A 
ATOM     13  C   UNL A   1      33.147  24.303  26.338  1.00  0.00     0.005 A 
ATOM     14  C   UNL A   1      30.970  23.713  25.506  1.00  0.00     0.005 A 
BRANCH  10  15
ATOM     15  C   UNL A   1      31.383  27.471  25.226  1.00  0.00     0.001 A 
ATOM     16  C   UNL A   1      30.545  29.220  23.751  1.00  0.00    -0.007 A 
ATOM     17  C   UNL A   1      31.016  30.145  24.680  1.00  0.00     0.119 A 
ATOM     18  C   UNL A   1      30.753  27.864  24.035  1.00  0.00     0.020 A 
ATOM     19  N   UNL A   1      31.642  29.819  25.832  1.00  0.00    -0.263 NA
ATOM     20  C   UNL A   1      31.798  28.497  26.078  1.00  0.00     0.119 A 
BRANCH  16  21
ATOM     21  C   UNL A   1      29.909  29.701  22.520  1.00  0.00     0.005 C 
ATOM     22  C   UNL A   1      27.988  30.572  21.177  1.00  0.00     0.035 C 
ATOM     23  C   UNL A   1      28.611  30.027  22.423  1.00  0.00    -0.030 C 
ENDBRANCH  16  21
ENDBRANCH  10  15
ENDBRANCH   7   9
ENDBRANCH   5   7
ENDBRANCH   4   5
ENDBRANCH   3   4
ENDBRANCH   2   3
ENDBRANCH   1   2
BRANCH   1  24
ATOM     24  C   UNL A   1      38.315  20.775  25.316  1.00  0.00     0.202 C 
BRANCH  24  25
ATOM     25  C   UNL A   1      39.549  21.060  26.177  1.00  0.00     0.261 C 
BRANCH  25  26
ATOM     26  O   UNL A   1      40.141  19.861  26.704  1.00  0.00    -0.460 OA
BRANCH  26  27
ATOM     27  C   UNL A   1      41.412  19.628  26.301  1.00  0.00     0.338 C 
ATOM     28  O   UNL A   1      41.837  18.620  25.750  1.00  0.00    -0.246 OA
BRANCH  27  29
ATOM     29  C   UNL A   1      42.227  20.847  26.450  1.00  0.00     0.060 A 
ATOM     30  C   UNL A   1      42.481  21.296  27.753  1.00  0.00     0.016 A 
ATOM     31  C   UNL A   1      42.669  21.582  25.348  1.00  0.00     0.016 A 
ATOM     32  C   UNL A   1      43.126  22.513  27.960  1.00  0.00     0.010 A 
ATOM     33  C   UNL A   1      43.312  22.808  25.558  1.00  0.00     0.010 A 
ATOM     34  C   UNL A   1      43.508  23.297  26.863  1.00  0.00    -0.014 A 
BRANCH  34  35
ATOM     35  C   UNL A   1      43.977  24.686  27.090  1.00  0.00     0.031 A 
ATOM     36  C   UNL A   1      43.010  25.709  27.624  1.00  0.00     0.074 A 
ATOM     37  C   UNL A   1      45.254  25.030  26.842  1.00  0.00     0.049 A 
ATOM     38  N   UNL A   1      43.209  26.972  27.896  1.00  0.00    -0.248 NA
ATOM     39  C   UNL A   1      41.637  25.245  27.889  1.00  0.00     0.031 C 
ATOM     40  C   UNL A   1      46.286  24.131  26.332  1.00  0.00     0.029 A 
ATOM     41  N   UNL A   1      45.892  26.239  26.971  1.00  0.00    -0.354 N 
ATOM     42  C   UNL A   1      41.984  27.462  28.336  1.00  0.00     0.074 A 
ATOM     43  C   UNL A   1      41.046  26.363  28.286  1.00  0.00     0.031 C 
ATOM     44  C   UNL A   1      47.426  24.824  26.168  1.00  0.00     0.029 A 
ATOM     45  C   UNL A   1      47.198  26.220  26.540  1.00  0.00     0.049 A 
ATOM     46  H   UNL A   1      45.456  27.043  27.335  1.00  0.00     0.167 HD
ATOM     47  C   UNL A   1      41.673  28.710  28.760  1.00  0.00     0.034 A 
ATOM     48  C   UNL A   1      48.100  27.217  26.445  1.00  0.00     0.034 A 
ATOM     49  C   UNL A   1      42.611  29.797  28.835  1.00  0.00     0.049 A 
ATOM     50  C   UNL A   1      47.720  28.602  26.903  1.00  0.00     0.074 A 
ATOM     51  C   UNL A   1      42.403  31.083  29.301  1.00  0.00     0.029 A 
ATOM     52  N   UNL A   1      43.934  29.730  28.425  1.00  0.00    -0.354 N 
ATOM     53  N   UNL A   1      46.595  29.018  27.433  1.00  0.00    -0.248 NA
ATOM     54  C   UNL A   1      48.745  29.649  26.778  1.00  0.00     0.031 C 
ATOM     55  C   UNL A   1      43.592  31.801  29.151  1.00  0.00     0.029 A 
ATOM     56  C   UNL A   1      44.549  30.955  28.613  1.00  0.00     0.049 A 
ATOM     57  H   UNL A   1      44.370  28.930  28.054  1.00  0.00     0.167 HD
ATOM     58  C   UNL A   1      46.790  30.361  27.739  1.00  0.00     0.074 A 
ATOM     59  C   UNL A   1      48.147  30.685  27.351  1.00  0.00     0.031 C 
ATOM     60  C   UNL A   1      45.919  31.250  28.278  1.00  0.00     0.034 A 
BRANCH  47  61
ATOM     61  C   UNL A   1      40.259  28.964  29.209  1.00  0.00     0.023 A 
ATOM     62  C   UNL A   1      39.258  29.210  28.246  1.00  0.00     0.012 A 
ATOM     63  C   UNL A   1      39.908  28.895  30.570  1.00  0.00     0.148 A 
ATOM     64  C   UNL A   1      37.934  29.409  28.636  1.00  0.00     0.002 A 
ATOM     65  C   UNL A   1      38.580  29.053  30.947  1.00  0.00     0.091 A 
ATOM     66  F   UNL A   1      40.878  28.683  31.471  1.00  0.00    -0.205 F 
ATOM     67  C   UNL A   1      37.593  29.319  29.983  1.00  0.00     0.022 A 
BRANCH  65  68
ATOM     68  S   UNL A   1      38.029  28.884  32.649  1.00  0.00     0.127 S 
ATOM     69  O   UNL A   1      36.638  29.324  32.554  1.00  0.00    -0.237 OA
ATOM     70  O   UNL A   1      38.200  27.450  32.887  1.00  0.00    -0.237 OA
ATOM     71  O   UNL A   1      38.903  29.739  33.440  1.00  0.00    -0.744 OA
ENDBRANCH  65  68
ENDBRANCH  47  61
BRANCH  48  72
ATOM     72  C   UNL A   1      49.470  26.935  25.929  1.00  0.00     0.023 A 
ATOM     73  C   UNL A   1      50.413  26.314  26.771  1.00  0.00     0.012 A 
ATOM     74  C   UNL A   1      49.836  27.264  24.611  1.00  0.00     0.148 A 
ATOM     75  C   UNL A   1      51.706  26.052  26.316  1.00  0.00     0.002 A 
ATOM     76  C   UNL A   1      51.109  26.949  24.146  1.00  0.00     0.091 A 
ATOM     77  F   UNL A   1      48.931  27.872  23.832  1.00  0.00    -0.205 F 
ATOM     78  C   UNL A   1      52.051  26.358  25.003  1.00  0.00     0.022 A 
BRANCH  76  79
ATOM     79  S   UNL A   1      51.593  27.190  22.434  1.00  0.00     0.127 S 
ATOM     80  O   UNL A   1      50.494  26.547  21.718  1.00  0.00    -0.237 OA
ATOM     81  O   UNL A   1      51.626  28.650  22.332  1.00  0.00    -0.237 OA
ATOM     82  O   UNL A   1      52.896  26.552  22.303  1.00  0.00    -0.744 OA
ENDBRANCH  76  79
ENDBRANCH  48  72
BRANCH  60  83
ATOM     83  C   UNL A   1      46.408  32.655  28.520  1.00  0.00     0.023 A 
ATOM     84  C   UNL A   1      46.810  33.042  29.813  1.00  0.00     0.012 A 
ATOM     85  C   UNL A   1      46.548  33.563  27.452  1.00  0.00     0.148 A 
ATOM     86  C   UNL A   1      47.317  34.321  30.045  1.00  0.00     0.002 A 
ATOM     87  C   UNL A   1      47.097  34.819  27.681  1.00  0.00     0.091 A 
ATOM     88  F   UNL A   1      46.142  33.183  26.231  1.00  0.00    -0.205 F 
ATOM     89  C   UNL A   1      47.472  35.204  28.979  1.00  0.00     0.022 A 
BRANCH  87  90
ATOM     90  S   UNL A   1      47.421  35.985  26.353  1.00  0.00     0.127 S 
ATOM     91  O   UNL A   1      46.069  36.305  25.900  1.00  0.00    -0.237 OA
ATOM     92  O   UNL A   1      48.105  37.073  27.052  1.00  0.00    -0.237 OA
ATOM     93  O   UNL A   1      48.250  35.272  25.389  1.00  0.00    -0.744 OA
ENDBRANCH  87  90
ENDBRANCH  60  83
ENDBRANCH  34  35
ENDBRANCH  27  29
ENDBRANCH  26  27
ENDBRANCH  25  26
ENDBRANCH  24  25
ENDBRANCH   1  24
TORSDOF 20
ENDMDL
MODEL 2
REMARK VINA RESULT:     -10.7      6.101     11.329
REMARK SMILES C/C=C/c1cncc(-c2ccc([C@@H](C)C(=O)OCCOCCOC(=O)c3ccc(-c4c5nc(c(-c6cccc(S(=O)(=O)[O-])c6F)c6ccc([nH]6)c(-c6cccc(S(=O)(=O)[O-])c6F)c6nc(c(-c7cccc(S(=O)(=O)[O-])c7F)c7ccc4[nH]7)C=C6)C=C5)cc3)cc2)c1
REMARK SMILES IDX 20 1 19 2 18 3 17 4 15 5 16 6 13 7 14 8 12 9 9 10 10 11
REMARK SMILES IDX 90 12 11 13 89 14 8 15 4 16 5 17 91 18 6 19 7 20 3 21 1 22
REMARK SMILES IDX 2 23 21 24 22 25 23 26 24 27 25 28 26 29 27 30 88 31 28 32
REMARK SMILES IDX 87 33 29 34 30 35 31 36 81 37 32 38 86 39 80 40 82 41 33 42
REMARK SMILES IDX 85 43 79 44 78 45 34 47 66 48 46 49 65 50 47 51 50 52 64 53
REMARK SMILES IDX 83 54 48 55 49 56 63 58 84 59 51 60 35 61 36 62 44 63 37 64
REMARK SMILES IDX 39 65 45 66 38 67 40 68 41 69 42 70 43 71 67 72 68 73 76 74
REMARK SMILES IDX 69 75 71 76 77 77 70 78 72 79 73 80 74 81 75 82 52 83 53 84
REMARK SMILES IDX 61 85 54 86 56 87 62 88 55 89 57 90 58 91 59 92 60 93
REMARK H PARENT 82 46 50 57
REMARK Flexibility Score: inf
ROOT
ATOM      1  O   UNL A   1      33.348  34.380  31.284  1.00  0.00    -0.374 OA
ENDROOT
BRANCH   1   2
ATOM      2  C   UNL A   1      33.527  35.131  32.486  1.00  0.00     0.202 C 
BRANCH   2   3
ATOM      3  C   UNL A   1      34.546  34.574  33.484  1.00  0.00     0.261 C 
BRANCH   3   4
ATOM      4  O   UNL A   1      35.727  35.394  33.536  1.00  0.00    -0.463 OA
BRANCH   4   5
ATOM      5  C   UNL A   1      36.911  34.741  33.653  1.00  0.00     0.313 C 
ATOM      6  O   UNL A   1      37.751  34.974  34.518  1.00  0.00    -0.252 OA
BRANCH   5   7
ATOM      7  C   UNL A   1      37.136  33.683  32.583  1.00  0.00     0.126 C 
ATOM      8  C   UNL A   1      37.203  32.307  33.242  1.00  0.00     0.025 C 
BRANCH   7   9
ATOM      9  C   UNL A   1      38.279  33.906  31.597  1.00  0.00    -0.034 A 
ATOM     10  C   UNL A   1      40.436  34.544  29.847  1.00  0.00    -0.017 A 
ATOM     11  C   UNL A   1      39.123  34.426  29.370  1.00  0.00     0.009 A 
ATOM     12  C   UNL A   1      40.662  34.291  31.206  1.00  0.00     0.009 A 
ATOM     13  C   UNL A   1      38.060  34.113  30.229  1.00  0.00     0.005 A 
ATOM     14  C   UNL A   1      39.601  33.978  32.069  1.00  0.00     0.005 A 
BRANCH  10  15
ATOM     15  C   UNL A   1      41.526  34.991  28.965  1.00  0.00     0.001 A 
ATOM     16  C   UNL A   1      43.857  35.017  28.254  1.00  0.00    -0.007 A 
ATOM     17  C   UNL A   1      43.487  35.939  27.279  1.00  0.00     0.119 A 
ATOM     18  C   UNL A   1      42.852  34.555  29.115  1.00  0.00     0.020 A 
ATOM     19  N   UNL A   1      42.230  36.402  27.104  1.00  0.00    -0.263 NA
ATOM     20  C   UNL A   1      41.286  35.909  27.940  1.00  0.00     0.119 A 
BRANCH  16  21
ATOM     21  C   UNL A   1      45.264  34.615  28.365  1.00  0.00     0.005 C 
ATOM     22  C   UNL A   1      47.436  34.356  29.576  1.00  0.00     0.035 C 
ATOM     23  C   UNL A   1      46.020  34.822  29.454  1.00  0.00    -0.030 C 
ENDBRANCH  16  21
ENDBRANCH  10  15
ENDBRANCH   7   9
ENDBRANCH   5   7
ENDBRANCH   4   5
ENDBRANCH   3   4
ENDBRANCH   2   3
ENDBRANCH   1   2
BRANCH   1  24
ATOM     24  C   UNL A   1      33.944  34.900  30.096  1.00  0.00     0.202 C 
BRANCH  24  25
ATOM     25  C   UNL A   1      34.240  33.894  28.979  1.00  0.00     0.261 C 
BRANCH  25  26
ATOM     26  O   UNL A   1      34.986  32.757  29.446  1.00  0.00    -0.460 OA
BRANCH  26  27
ATOM     27  C   UNL A   1      34.886  31.653  28.671  1.00  0.00     0.338 C 
ATOM     28  O   UNL A   1      34.015  31.409  27.844  1.00  0.00    -0.246 OA
BRANCH  27  29
ATOM     29  C   UNL A   1      36.091  30.816  28.815  1.00  0.00     0.060 A 
ATOM     30  C   UNL A   1      36.079  29.839  29.819  1.00  0.00     0.016 A 
ATOM     31  C   UNL A   1      37.238  31.030  28.047  1.00  0.00     0.016 A 
ATOM     32  C   UNL A   1      37.233  29.110  30.098  1.00  0.00     0.010 A 
ATOM     33  C   UNL A   1      38.398  30.301  28.333  1.00  0.00     0.010 A 
ATOM     34  C   UNL A   1      38.412  29.366  29.385  1.00  0.00    -0.014 A 
BRANCH  34  35
ATOM     35  C   UNL A   1      39.686  28.758  29.842  1.00  0.00     0.031 A 
ATOM     36  C   UNL A   1      40.375  29.325  31.055  1.00  0.00     0.074 A 
ATOM     37  C   UNL A   1      40.214  27.700  29.199  1.00  0.00     0.049 A 
ATOM     38  N   UNL A   1      41.490  28.949  31.624  1.00  0.00    -0.248 NA
ATOM     39  C   UNL A   1      39.721  30.469  31.712  1.00  0.00     0.031 C 
ATOM     40  C   UNL A   1      39.638  27.056  28.021  1.00  0.00     0.029 A 
ATOM     41  N   UNL A   1      41.366  26.996  29.440  1.00  0.00    -0.354 N 
ATOM     42  C   UNL A   1      41.686  29.822  32.687  1.00  0.00     0.074 A 
ATOM     43  C   UNL A   1      40.581  30.754  32.679  1.00  0.00     0.031 C 
ATOM     44  C   UNL A   1      40.453  26.063  27.626  1.00  0.00     0.029 A 
ATOM     45  C   UNL A   1      41.617  26.016  28.510  1.00  0.00     0.049 A 
ATOM     46  H   UNL A   1      41.959  27.176  30.207  1.00  0.00     0.167 HD
ATOM     47  C   UNL A   1      42.687  29.836  33.600  1.00  0.00     0.034 A 
ATOM     48  C   UNL A   1      42.672  25.186  28.378  1.00  0.00     0.034 A 
ATOM     49  C   UNL A   1      43.773  28.893  33.625  1.00  0.00     0.049 A 
ATOM     50  C   UNL A   1      43.783  25.239  29.394  1.00  0.00     0.074 A 
ATOM     51  C   UNL A   1      44.805  28.795  34.541  1.00  0.00     0.029 A 
ATOM     52  N   UNL A   1      43.973  27.892  32.687  1.00  0.00    -0.354 N 
ATOM     53  N   UNL A   1      43.890  25.987  30.464  1.00  0.00    -0.248 NA
ATOM     54  C   UNL A   1      44.906  24.308  29.201  1.00  0.00     0.031 C 
ATOM     55  C   UNL A   1      45.644  27.749  34.144  1.00  0.00     0.029 A 
ATOM     56  C   UNL A   1      45.120  27.181  32.993  1.00  0.00     0.049 A 
ATOM     57  H   UNL A   1      43.387  27.715  31.917  1.00  0.00     0.167 HD
ATOM     58  C   UNL A   1      45.068  25.594  31.091  1.00  0.00     0.074 A 
ATOM     59  C   UNL A   1      45.631  24.527  30.290  1.00  0.00     0.031 C 
ATOM     60  C   UNL A   1      45.640  26.082  32.221  1.00  0.00     0.034 A 
BRANCH  47  61
ATOM     61  C   UNL A   1      42.641  30.891  34.673  1.00  0.00     0.023 A 
ATOM     62  C   UNL A   1      42.073  30.582  35.926  1.00  0.00     0.012 A 
ATOM     63  C   UNL A   1      43.216  32.159  34.467  1.00  0.00     0.148 A 
ATOM     64  C   UNL A   1      42.055  31.530  36.948  1.00  0.00     0.002 A 
ATOM     65  C   UNL A   1      43.232  33.084  35.504  1.00  0.00     0.091 A 
ATOM     66  F   UNL A   1      43.731  32.439  33.261  1.00  0.00    -0.205 F 
ATOM     67  C   UNL A   1      42.643  32.775  36.741  1.00  0.00     0.022 A 
BRANCH  65  68
ATOM     68  S   UNL A   1      44.029  34.688  35.359  1.00  0.00     0.127 S 
ATOM     69  O   UNL A   1      43.974  35.170  36.739  1.00  0.00    -0.237 OA
ATOM     70  O   UNL A   1      45.369  34.324  34.894  1.00  0.00    -0.237 OA
ATOM     71  O   UNL A   1      43.238  35.444  34.400  1.00  0.00    -0.744 OA
ENDBRANCH  65  68
ENDBRANCH  47  61
BRANCH  48  72
ATOM     72  C   UNL A   1      42.710  24.203  27.258  1.00  0.00     0.023 A 
ATOM     73  C   UNL A   1      43.437  24.509  26.091  1.00  0.00     0.012 A 
ATOM     74  C   UNL A   1      42.045  22.965  27.349  1.00  0.00     0.148 A 
ATOM     75  C   UNL A   1      43.477  23.612  25.023  1.00  0.00     0.002 A 
ATOM     76  C   UNL A   1      42.135  22.052  26.304  1.00  0.00     0.091 A 
ATOM     77  F   UNL A   1      41.342  22.701  28.459  1.00  0.00    -0.205 F 
ATOM     78  C   UNL A   1      42.837  22.380  25.133  1.00  0.00     0.022 A 
BRANCH  76  79
ATOM     79  S   UNL A   1      41.451  20.395  26.414  1.00  0.00     0.127 S 
ATOM     80  O   UNL A   1      41.848  19.997  27.762  1.00  0.00    -0.237 OA
ATOM     81  O   UNL A   1      40.020  20.647  26.242  1.00  0.00    -0.237 OA
ATOM     82  O   UNL A   1      42.062  19.647  25.325  1.00  0.00    -0.744 OA
ENDBRANCH  76  79
ENDBRANCH  48  72
BRANCH  60  83
ATOM     83  C   UNL A   1      46.925  25.449  32.688  1.00  0.00     0.023 A 
ATOM     84  C   UNL A   1      48.155  25.896  32.166  1.00  0.00     0.012 A 
ATOM     85  C   UNL A   1      46.919  24.472  33.704  1.00  0.00     0.148 A 
ATOM     86  C   UNL A   1      49.358  25.360  32.626  1.00  0.00     0.002 A 
ATOM     87  C   UNL A   1      48.123  23.976  34.191  1.00  0.00     0.091 A 
ATOM     88  F   UNL A   1      45.739  24.046  34.175  1.00  0.00    -0.205 F 
ATOM     89  C   UNL A   1      49.342  24.411  33.646  1.00  0.00     0.022 A 
BRANCH  87  90
ATOM     90  S   UNL A   1      48.202  22.823  35.566  1.00  0.00     0.127 S 
ATOM     91  O   UNL A   1      47.357  23.484  36.559  1.00  0.00    -0.237 OA
ATOM     92  O   UNL A   1      47.629  21.607  34.989  1.00  0.00    -0.237 OA
ATOM     93  O   UNL A   1      49.613  22.716  35.917  1.00  0.00    -0.744 OA
ENDBRANCH  87  90
ENDBRANCH  60  83
ENDBRANCH  34  35
ENDBRANCH  27  29
ENDBRANCH  26  27
ENDBRANCH  25  26
ENDBRANCH  24  25
ENDBRANCH   1  24
TORSDOF 20
ENDMDL
MODEL 3
REMARK VINA RESULT:     -10.5      5.851     10.446
REMARK SMILES C/C=C/c1cncc(-c2ccc([C@@H](C)C(=O)OCCOCCOC(=O)c3ccc(-c4c5nc(c(-c6cccc(S(=O)(=O)[O-])c6F)c6ccc([nH]6)c(-c6cccc(S(=O)(=O)[O-])c6F)c6nc(c(-c7cccc(S(=O)(=O)[O-])c7F)c7ccc4[nH]7)C=C6)C=C5)cc3)cc2)c1
REMARK SMILES IDX 20 1 19 2 18 3 17 4 15 5 16 6 13 7 14 8 12 9 9 10 10 11
REMARK SMILES IDX 90 12 11 13 89 14 8 15 4 16 5 17 91 18 6 19 7 20 3 21 1 22
REMARK SMILES IDX 2 23 21 24 22 25 23 26 24 27 25 28 26 29 27 30 88 31 28 32
REMARK SMILES IDX 87 33 29 34 30 35 31 36 81 37 32 38 86 39 80 40 82 41 33 42
REMARK SMILES IDX 85 43 79 44 78 45 34 47 66 48 46 49 65 50 47 51 50 52 64 53
REMARK SMILES IDX 83 54 48 55 49 56 63 58 84 59 51 60 35 61 36 62 44 63 37 64
REMARK SMILES IDX 39 65 45 66 38 67 40 68 41 69 42 70 43 71 67 72 68 73 76 74
REMARK SMILES IDX 69 75 71 76 77 77 70 78 72 79 73 80 74 81 75 82 52 83 53 84
REMARK SMILES IDX 61 85 54 86 56 87 62 88 55 89 57 90 58 91 59 92 60 93
REMARK H PARENT 82 46 50 57
REMARK Flexibility Score: inf
ROOT
ATOM      1  O   UNL A   1      34.469  34.548  31.542  1.00  0.00    -0.374 OA
ENDROOT
BRANCH   1   2
ATOM      2  C   UNL A   1      35.278  34.039  30.481  1.00  0.00     0.202 C 
BRANCH   2   3
ATOM      3  C   UNL A   1      35.170  32.535  30.213  1.00  0.00     0.261 C 
BRANCH   3   4
ATOM      4  O   UNL A   1      36.416  31.867  30.479  1.00  0.00    -0.463 OA
BRANCH   4   5
ATOM      5  C   UNL A   1      37.188  31.579  29.401  1.00  0.00     0.313 C 
ATOM      6  O   UNL A   1      37.798  32.415  28.738  1.00  0.00    -0.252 OA
BRANCH   5   7
ATOM      7  C   UNL A   1      37.220  30.100  29.048  1.00  0.00     0.126 C 
ATOM      8  C   UNL A   1      36.351  29.328  30.037  1.00  0.00     0.025 C 
BRANCH   7   9
ATOM      9  C   UNL A   1      38.586  29.448  28.850  1.00  0.00    -0.034 A 
ATOM     10  C   UNL A   1      41.029  28.075  28.332  1.00  0.00    -0.017 A 
ATOM     11  C   UNL A   1      40.382  27.967  29.571  1.00  0.00     0.009 A 
ATOM     12  C   UNL A   1      40.459  28.920  27.371  1.00  0.00     0.009 A 
ATOM     13  C   UNL A   1      39.180  28.640  29.829  1.00  0.00     0.005 A 
ATOM     14  C   UNL A   1      39.257  29.596  27.624  1.00  0.00     0.005 A 
BRANCH  10  15
ATOM     15  C   UNL A   1      42.224  27.272  28.027  1.00  0.00     0.001 A 
ATOM     16  C   UNL A   1      44.097  26.643  26.601  1.00  0.00    -0.007 A 
ATOM     17  C   UNL A   1      44.414  25.672  27.548  1.00  0.00     0.119 A 
ATOM     18  C   UNL A   1      42.971  27.439  26.850  1.00  0.00     0.020 A 
ATOM     19  N   UNL A   1      43.719  25.462  28.688  1.00  0.00    -0.263 NA
ATOM     20  C   UNL A   1      42.655  26.271  28.901  1.00  0.00     0.119 A 
BRANCH  16  21
ATOM     21  C   UNL A   1      44.912  26.752  25.386  1.00  0.00     0.005 C 
ATOM     22  C   UNL A   1      46.608  27.846  23.911  1.00  0.00     0.035 C 
ATOM     23  C   UNL A   1      45.739  27.775  25.126  1.00  0.00    -0.030 C 
ENDBRANCH  16  21
ENDBRANCH  10  15
ENDBRANCH   7   9
ENDBRANCH   5   7
ENDBRANCH   4   5
ENDBRANCH   3   4
ENDBRANCH   2   3
ENDBRANCH   1   2
BRANCH   1  24
ATOM     24  C   UNL A   1      34.129  33.645  32.594  1.00  0.00     0.202 C 
BRANCH  24  25
ATOM     25  C   UNL A   1      35.055  33.631  33.814  1.00  0.00     0.261 C 
BRANCH  25  26
ATOM     26  O   UNL A   1      35.896  32.465  33.853  1.00  0.00    -0.460 OA
BRANCH  26  27
ATOM     27  C   UNL A   1      36.942  32.545  34.706  1.00  0.00     0.338 C 
ATOM     28  O   UNL A   1      36.947  33.054  35.821  1.00  0.00    -0.246 OA
BRANCH  27  29
ATOM     29  C   UNL A   1      38.082  31.764  34.193  1.00  0.00     0.060 A 
ATOM     30  C   UNL A   1      39.364  32.149  34.607  1.00  0.00     0.016 A 
ATOM     31  C   UNL A   1      37.916  30.732  33.267  1.00  0.00     0.016 A 
ATOM     32  C   UNL A   1      40.489  31.542  34.052  1.00  0.00     0.010 A 
ATOM     33  C   UNL A   1      39.048  30.127  32.707  1.00  0.00     0.010 A 
ATOM     34  C   UNL A   1      40.338  30.557  33.067  1.00  0.00    -0.014 A 
BRANCH  34  35
ATOM     35  C   UNL A   1      41.531  30.088  32.319  1.00  0.00     0.031 A 
ATOM     36  C   UNL A   1      42.215  28.818  32.752  1.00  0.00     0.074 A 
ATOM     37  C   UNL A   1      41.988  30.771  31.254  1.00  0.00     0.049 A 
ATOM     38  N   UNL A   1      43.265  28.230  32.242  1.00  0.00    -0.248 NA
ATOM     39  C   UNL A   1      41.638  28.120  33.913  1.00  0.00     0.031 C 
ATOM     40  C   UNL A   1      41.408  32.007  30.732  1.00  0.00     0.029 A 
ATOM     41  N   UNL A   1      43.061  30.528  30.433  1.00  0.00    -0.354 N 
ATOM     42  C   UNL A   1      43.492  27.110  33.033  1.00  0.00     0.074 A 
ATOM     43  C   UNL A   1      42.478  27.106  34.063  1.00  0.00     0.031 C 
ATOM     44  C   UNL A   1      42.147  32.428  29.691  1.00  0.00     0.029 A 
ATOM     45  C   UNL A   1      43.262  31.505  29.487  1.00  0.00     0.049 A 
ATOM     46  H   UNL A   1      43.633  29.730  30.515  1.00  0.00     0.167 HD
ATOM     47  C   UNL A   1      44.449  26.160  32.904  1.00  0.00     0.034 A 
ATOM     48  C   UNL A   1      44.241  31.645  28.571  1.00  0.00     0.034 A 
ATOM     49  C   UNL A   1      45.443  26.149  31.864  1.00  0.00     0.049 A 
ATOM     50  C   UNL A   1      45.308  30.585  28.464  1.00  0.00     0.074 A 
ATOM     51  C   UNL A   1      46.421  25.201  31.619  1.00  0.00     0.029 A 
ATOM     52  N   UNL A   1      45.593  27.136  30.902  1.00  0.00    -0.354 N 
ATOM     53  N   UNL A   1      45.434  29.469  29.139  1.00  0.00    -0.248 NA
ATOM     54  C   UNL A   1      46.349  30.789  27.445  1.00  0.00     0.031 C 
ATOM     55  C   UNL A   1      47.178  25.627  30.524  1.00  0.00     0.029 A 
ATOM     56  C   UNL A   1      46.656  26.828  30.071  1.00  0.00     0.049 A 
ATOM     57  H   UNL A   1      45.028  27.937  30.823  1.00  0.00     0.167 HD
ATOM     58  C   UNL A   1      46.544  28.821  28.604  1.00  0.00     0.074 A 
ATOM     59  C   UNL A   1      47.042  29.661  27.535  1.00  0.00     0.031 C 
ATOM     60  C   UNL A   1      47.107  27.643  28.973  1.00  0.00     0.034 A 
BRANCH  47  61
ATOM     61  C   UNL A   1      44.452  25.029  33.897  1.00  0.00     0.023 A 
ATOM     62  C   UNL A   1      43.805  23.818  33.573  1.00  0.00     0.012 A 
ATOM     63  C   UNL A   1      45.147  25.138  35.116  1.00  0.00     0.148 A 
ATOM     64  C   UNL A   1      43.828  22.743  34.461  1.00  0.00     0.002 A 
ATOM     65  C   UNL A   1      45.201  24.048  35.977  1.00  0.00     0.091 A 
ATOM     66  F   UNL A   1      45.736  26.305  35.414  1.00  0.00    -0.205 F 
ATOM     67  C   UNL A   1      44.535  22.854  35.656  1.00  0.00     0.022 A 
BRANCH  65  68
ATOM     68  S   UNL A   1      46.145  24.067  37.506  1.00  0.00     0.127 S 
ATOM     69  O   UNL A   1      47.502  24.298  37.012  1.00  0.00    -0.237 OA
ATOM     70  O   UNL A   1      45.554  25.202  38.218  1.00  0.00    -0.237 OA
ATOM     71  O   UNL A   1      45.919  22.773  38.132  1.00  0.00    -0.744 OA
ENDBRANCH  65  68
ENDBRANCH  47  61
BRANCH  48  72
ATOM     72  C   UNL A   1      44.239  32.818  27.652  1.00  0.00     0.023 A 
ATOM     73  C   UNL A   1      43.786  32.661  26.328  1.00  0.00     0.012 A 
ATOM     74  C   UNL A   1      44.668  34.087  28.086  1.00  0.00     0.148 A 
ATOM     75  C   UNL A   1      43.787  33.740  25.444  1.00  0.00     0.002 A 
ATOM     76  C   UNL A   1      44.614  35.171  27.216  1.00  0.00     0.091 A 
ATOM     77  F   UNL A   1      45.114  34.212  29.344  1.00  0.00    -0.205 F 
ATOM     78  C   UNL A   1      44.189  34.996  25.890  1.00  0.00     0.022 A 
BRANCH  76  79
ATOM     79  S   UNL A   1      44.989  36.846  27.744  1.00  0.00     0.127 S 
ATOM     80  O   UNL A   1      44.116  36.996  28.906  1.00  0.00    -0.237 OA
ATOM     81  O   UNL A   1      46.417  36.753  28.053  1.00  0.00    -0.237 OA
ATOM     82  O   UNL A   1      44.678  37.695  26.602  1.00  0.00    -0.744 OA
ENDBRANCH  76  79
ENDBRANCH  48  72
BRANCH  60  83
ATOM     83  C   UNL A   1      48.308  27.165  28.198  1.00  0.00     0.023 A 
ATOM     84  C   UNL A   1      48.133  26.297  27.103  1.00  0.00     0.012 A 
ATOM     85  C   UNL A   1      49.598  27.644  28.502  1.00  0.00     0.148 A 
ATOM     86  C   UNL A   1      49.228  25.888  26.341  1.00  0.00     0.002 A 
ATOM     87  C   UNL A   1      50.677  27.269  27.710  1.00  0.00     0.091 A 
ATOM     88  F   UNL A   1      49.747  28.455  29.559  1.00  0.00    -0.205 F 
ATOM     89  C   UNL A   1      50.495  26.383  26.636  1.00  0.00     0.022 A 
BRANCH  87  90
ATOM     90  S   UNL A   1      52.329  27.932  27.958  1.00  0.00     0.127 S 
ATOM     91  O   UNL A   1      53.095  27.210  26.944  1.00  0.00    -0.237 OA
ATOM     92  O   UNL A   1      52.139  29.356  27.681  1.00  0.00    -0.237 OA
ATOM     93  O   UNL A   1      52.678  27.628  29.340  1.00  0.00    -0.744 OA
ENDBRANCH  87  90
ENDBRANCH  60  83
ENDBRANCH  34  35
ENDBRANCH  27  29
ENDBRANCH  26  27
ENDBRANCH  25  26
ENDBRANCH  24  25
ENDBRANCH   1  24
TORSDOF 20
ENDMDL
