MODEL 1
REMARK VINA RESULT:     -11.8      0.000      0.000
REMARK SMILES C[C@@H](NC(=O)c1cc(C(=O)OCCOCCOC(=O)c2ccc(-c3c4nc(c(-c5cccc(S(=O)(=O)[O-])c5F)c5ccc([nH]5)c(-c5cccc(S(=O)(=O)[O-])c5F)c5nc(c(-c6cccc(S(=O)(=O)[O-])c6F)c6ccc3[nH]6)C=C5)C=C4)cc2)n(C)n1)c1ccccc1
REMARK SMILES IDX 14 1 13 2 12 3 11 4 9 5 10 6 8 7 6 8 7 9 85 10 83 11 84 12
REMARK SMILES IDX 4 13 3 14 5 16 2 17 1 18 86 19 87 20 91 21 88 22 90 23 89 24
REMARK SMILES IDX 15 25 16 26 17 27 18 28 19 29 20 30 21 31 82 32 22 33 81 34
REMARK SMILES IDX 23 35 24 36 25 37 75 38 26 39 80 40 74 41 76 42 27 43 79 44
REMARK SMILES IDX 73 45 72 46 28 48 60 49 40 50 59 51 41 52 44 53 58 54 77 55
REMARK SMILES IDX 42 56 43 57 57 59 78 60 45 61 29 62 30 63 38 64 31 65 33 66
REMARK SMILES IDX 39 67 32 68 34 69 35 70 36 71 37 72 61 73 62 74 70 75 63 76
REMARK SMILES IDX 65 77 71 78 64 79 66 80 67 81 68 82 69 83 46 84 47 85 55 86
REMARK SMILES IDX 48 87 50 88 56 89 49 90 51 91 52 92 53 93 54 94
REMARK H PARENT 3 15 76 47 44 58
REMARK Flexibility Score: inf
ROOT
ATOM      1  O   UNL A   1      35.526  21.798  25.547  1.00  0.00    -0.374 OA
ENDROOT
BRANCH   1   2
ATOM      2  C   UNL A   1      34.838  21.620  26.803  1.00  0.00     0.202 C 
BRANCH   2   3
ATOM      3  C   UNL A   1      33.354  21.213  26.670  1.00  0.00     0.261 C 
BRANCH   3   4
ATOM      4  O   UNL A   1      32.475  22.370  26.724  1.00  0.00    -0.459 OA
BRANCH   4   5
ATOM      5  C   UNL A   1      31.476  22.398  25.789  1.00  0.00     0.356 C 
ATOM      6  O   UNL A   1      30.334  22.003  26.001  1.00  0.00    -0.244 OA
BRANCH   5   7
ATOM      7  C   UNL A   1      31.887  23.059  24.567  1.00  0.00     0.146 A 
ATOM      8  C   UNL A   1      32.486  24.622  23.044  1.00  0.00     0.151 A 
ATOM      9  C   UNL A   1      31.876  24.430  24.312  1.00  0.00     0.071 A 
ATOM     10  N   UNL A   1      32.709  23.427  22.466  1.00  0.00    -0.167 NA
ATOM     11  N   UNL A   1      32.351  22.509  23.396  1.00  0.00    -0.260 N 
ATOM     12  C   UNL A   1      32.413  21.117  23.005  1.00  0.00     0.174 C 
BRANCH   8  13
ATOM     13  C   UNL A   1      32.745  25.880  22.317  1.00  0.00     0.272 C 
ATOM     14  N   UNL A   1      32.280  27.110  22.758  1.00  0.00    -0.344 N 
ATOM     15  H   UNL A   1      32.814  27.873  22.438  1.00  0.00     0.164 HD
ATOM     16  O   UNL A   1      33.431  25.897  21.292  1.00  0.00    -0.267 OA
BRANCH  14  17
ATOM     17  C   UNL A   1      31.153  27.498  23.606  1.00  0.00     0.109 C 
ATOM     18  C   UNL A   1      30.160  28.400  22.867  1.00  0.00     0.036 C 
BRANCH  17  19
ATOM     19  C   UNL A   1      31.563  28.144  24.894  1.00  0.00    -0.026 A 
ATOM     20  C   UNL A   1      31.585  27.432  26.104  1.00  0.00     0.006 A 
ATOM     21  C   UNL A   1      31.782  29.521  24.889  1.00  0.00     0.006 A 
ATOM     22  C   UNL A   1      31.687  28.111  27.309  1.00  0.00     0.000 A 
ATOM     23  C   UNL A   1      31.861  30.193  26.090  1.00  0.00     0.000 A 
ATOM     24  C   UNL A   1      31.772  29.496  27.299  1.00  0.00     0.000 A 
ENDBRANCH  17  19
ENDBRANCH  14  17
ENDBRANCH   8  13
ENDBRANCH   5   7
ENDBRANCH   4   5
ENDBRANCH   3   4
ENDBRANCH   2   3
ENDBRANCH   1   2
BRANCH   1  25
ATOM     25  C   UNL A   1      35.892  20.575  24.913  1.00  0.00     0.202 C 
BRANCH  25  26
ATOM     26  C   UNL A   1      37.387  20.234  24.960  1.00  0.00     0.261 C 
BRANCH  26  27
ATOM     27  O   UNL A   1      38.149  21.408  25.266  1.00  0.00    -0.460 OA
BRANCH  27  28
ATOM     28  C   UNL A   1      39.254  21.132  25.992  1.00  0.00     0.338 C 
ATOM     29  O   UNL A   1      39.955  20.135  25.924  1.00  0.00    -0.246 OA
BRANCH  28  30
ATOM     30  C   UNL A   1      39.649  22.319  26.759  1.00  0.00     0.060 A 
ATOM     31  C   UNL A   1      38.973  23.502  26.445  1.00  0.00     0.016 A 
ATOM     32  C   UNL A   1      40.693  22.304  27.686  1.00  0.00     0.016 A 
ATOM     33  C   UNL A   1      39.405  24.703  26.984  1.00  0.00     0.010 A 
ATOM     34  C   UNL A   1      41.125  23.517  28.230  1.00  0.00     0.010 A 
ATOM     35  C   UNL A   1      40.520  24.722  27.832  1.00  0.00    -0.014 A 
BRANCH  35  36
ATOM     36  C   UNL A   1      41.147  26.028  28.130  1.00  0.00     0.031 A 
ATOM     37  C   UNL A   1      42.537  26.294  27.622  1.00  0.00     0.074 A 
ATOM     38  C   UNL A   1      40.456  26.982  28.777  1.00  0.00     0.049 A 
ATOM     39  N   UNL A   1      43.257  27.380  27.715  1.00  0.00    -0.248 NA
ATOM     40  C   UNL A   1      43.205  25.191  26.908  1.00  0.00     0.031 C 
ATOM     41  C   UNL A   1      39.095  26.834  29.292  1.00  0.00     0.029 A 
ATOM     42  N   UNL A   1      40.809  28.263  29.113  1.00  0.00    -0.354 N 
ATOM     43  C   UNL A   1      44.467  27.085  27.099  1.00  0.00     0.074 A 
ATOM     44  C   UNL A   1      44.394  25.714  26.648  1.00  0.00     0.031 C 
ATOM     45  C   UNL A   1      38.734  27.976  29.900  1.00  0.00     0.029 A 
ATOM     46  C   UNL A   1      39.844  28.925  29.832  1.00  0.00     0.049 A 
ATOM     47  H   UNL A   1      41.670  28.668  28.863  1.00  0.00     0.167 HD
ATOM     48  C   UNL A   1      45.538  27.892  26.910  1.00  0.00     0.034 A 
ATOM     49  C   UNL A   1      39.865  30.153  30.385  1.00  0.00     0.034 A 
ATOM     50  C   UNL A   1      45.592  29.262  27.342  1.00  0.00     0.049 A 
ATOM     51  C   UNL A   1      41.077  31.022  30.180  1.00  0.00     0.074 A 
ATOM     52  C   UNL A   1      46.611  30.180  27.163  1.00  0.00     0.029 A 
ATOM     53  N   UNL A   1      44.588  29.907  28.047  1.00  0.00    -0.354 N 
ATOM     54  N   UNL A   1      42.169  30.768  29.500  1.00  0.00    -0.248 NA
ATOM     55  C   UNL A   1      41.046  32.360  30.787  1.00  0.00     0.031 C 
ATOM     56  C   UNL A   1      46.234  31.374  27.788  1.00  0.00     0.029 A 
ATOM     57  C   UNL A   1      44.967  31.209  28.326  1.00  0.00     0.049 A 
ATOM     58  H   UNL A   1      43.731  29.501  28.309  1.00  0.00     0.167 HD
ATOM     59  C   UNL A   1      42.941  31.923  29.569  1.00  0.00     0.074 A 
ATOM     60  C   UNL A   1      42.179  32.886  30.339  1.00  0.00     0.031 C 
ATOM     61  C   UNL A   1      44.171  32.165  29.052  1.00  0.00     0.034 A 
BRANCH  48  62
ATOM     62  C   UNL A   1      46.731  27.317  26.194  1.00  0.00     0.023 A 
ATOM     63  C   UNL A   1      46.833  27.433  24.794  1.00  0.00     0.012 A 
ATOM     64  C   UNL A   1      47.777  26.705  26.914  1.00  0.00     0.148 A 
ATOM     65  C   UNL A   1      47.941  26.923  24.117  1.00  0.00     0.002 A 
ATOM     66  C   UNL A   1      48.897  26.239  26.238  1.00  0.00     0.091 A 
ATOM     67  F   UNL A   1      47.650  26.581  28.243  1.00  0.00    -0.205 F 
ATOM     68  C   UNL A   1      48.977  26.337  24.839  1.00  0.00     0.022 A 
BRANCH  66  69
ATOM     69  S   UNL A   1      50.316  25.536  27.086  1.00  0.00     0.127 S 
ATOM     70  O   UNL A   1      49.745  24.314  27.652  1.00  0.00    -0.237 OA
ATOM     71  O   UNL A   1      51.255  25.317  25.986  1.00  0.00    -0.237 OA
ATOM     72  O   UNL A   1      50.740  26.535  28.057  1.00  0.00    -0.744 OA
ENDBRANCH  66  69
ENDBRANCH  48  62
BRANCH  49  73
ATOM     73  C   UNL A   1      38.689  30.638  31.159  1.00  0.00     0.023 A 
ATOM     74  C   UNL A   1      38.665  30.498  32.560  1.00  0.00     0.012 A 
ATOM     75  C   UNL A   1      37.606  31.265  30.513  1.00  0.00     0.148 A 
ATOM     76  C   UNL A   1      37.571  30.949  33.299  1.00  0.00     0.002 A 
ATOM     77  C   UNL A   1      36.546  31.764  31.261  1.00  0.00     0.091 A 
ATOM     78  F   UNL A   1      37.640  31.372  29.177  1.00  0.00    -0.205 F 
ATOM     79  C   UNL A   1      36.518  31.591  32.653  1.00  0.00     0.022 A 
BRANCH  77  80
ATOM     80  S   UNL A   1      35.220  32.724  30.523  1.00  0.00     0.127 S 
ATOM     81  O   UNL A   1      34.780  31.847  29.442  1.00  0.00    -0.237 OA
ATOM     82  O   UNL A   1      34.282  32.850  31.639  1.00  0.00    -0.237 OA
ATOM     83  O   UNL A   1      35.830  33.982  30.112  1.00  0.00    -0.744 OA
ENDBRANCH  77  80
ENDBRANCH  49  73
BRANCH  61  84
ATOM     84  C   UNL A   1      44.763  33.533  29.270  1.00  0.00     0.023 A 
ATOM     85  C   UNL A   1      45.459  33.815  30.462  1.00  0.00     0.012 A 
ATOM     86  C   UNL A   1      44.696  34.511  28.259  1.00  0.00     0.148 A 
ATOM     87  C   UNL A   1      46.050  35.061  30.659  1.00  0.00     0.002 A 
ATOM     88  C   UNL A   1      45.333  35.733  28.440  1.00  0.00     0.091 A 
ATOM     89  F   UNL A   1      44.015  34.228  27.139  1.00  0.00    -0.205 F 
ATOM     90  C   UNL A   1      45.998  36.015  29.645  1.00  0.00     0.022 A 
BRANCH  88  91
ATOM     91  S   UNL A   1      45.401  36.982  27.151  1.00  0.00     0.127 S 
ATOM     92  O   UNL A   1      43.984  37.269  26.938  1.00  0.00    -0.237 OA
ATOM     93  O   UNL A   1      46.151  38.058  27.802  1.00  0.00    -0.237 OA
ATOM     94  O   UNL A   1      46.090  36.361  26.028  1.00  0.00    -0.744 OA
ENDBRANCH  88  91
ENDBRANCH  61  84
ENDBRANCH  35  36
ENDBRANCH  28  30
ENDBRANCH  27  28
ENDBRANCH  26  27
ENDBRANCH  25  26
ENDBRANCH   1  25
TORSDOF 20
ENDMDL
MODEL 2
REMARK VINA RESULT:     -11.7      1.727      2.398
REMARK SMILES C[C@@H](NC(=O)c1cc(C(=O)OCCOCCOC(=O)c2ccc(-c3c4nc(c(-c5cccc(S(=O)(=O)[O-])c5F)c5ccc([nH]5)c(-c5cccc(S(=O)(=O)[O-])c5F)c5nc(c(-c6cccc(S(=O)(=O)[O-])c6F)c6ccc3[nH]6)C=C5)C=C4)cc2)n(C)n1)c1ccccc1
REMARK SMILES IDX 14 1 13 2 12 3 11 4 9 5 10 6 8 7 6 8 7 9 85 10 83 11 84 12
REMARK SMILES IDX 4 13 3 14 5 16 2 17 1 18 86 19 87 20 91 21 88 22 90 23 89 24
REMARK SMILES IDX 15 25 16 26 17 27 18 28 19 29 20 30 21 31 82 32 22 33 81 34
REMARK SMILES IDX 23 35 24 36 25 37 75 38 26 39 80 40 74 41 76 42 27 43 79 44
REMARK SMILES IDX 73 45 72 46 28 48 60 49 40 50 59 51 41 52 44 53 58 54 77 55
REMARK SMILES IDX 42 56 43 57 57 59 78 60 45 61 29 62 30 63 38 64 31 65 33 66
REMARK SMILES IDX 39 67 32 68 34 69 35 70 36 71 37 72 61 73 62 74 70 75 63 76
REMARK SMILES IDX 65 77 71 78 64 79 66 80 67 81 68 82 69 83 46 84 47 85 55 86
REMARK SMILES IDX 48 87 50 88 56 89 49 90 51 91 52 92 53 93 54 94
REMARK H PARENT 3 15 76 47 44 58
REMARK Flexibility Score: inf
ROOT
ATOM      1  O   UNL A   1      35.580  22.060  26.259  1.00  0.00    -0.374 OA
ENDROOT
BRANCH   1   2
ATOM      2  C   UNL A   1      34.373  21.453  26.767  1.00  0.00     0.202 C 
BRANCH   2   3
ATOM      3  C   UNL A   1      33.321  22.455  27.292  1.00  0.00     0.261 C 
BRANCH   3   4
ATOM      4  O   UNL A   1      33.470  23.762  26.672  1.00  0.00    -0.459 OA
BRANCH   4   5
ATOM      5  C   UNL A   1      32.309  24.456  26.469  1.00  0.00     0.356 C 
ATOM      6  O   UNL A   1      31.340  24.396  27.220  1.00  0.00    -0.244 OA
BRANCH   5   7
ATOM      7  C   UNL A   1      32.401  25.361  25.342  1.00  0.00     0.146 A 
ATOM      8  C   UNL A   1      32.572  27.220  24.062  1.00  0.00     0.151 A 
ATOM      9  C   UNL A   1      32.280  26.750  25.370  1.00  0.00     0.071 A 
ATOM     10  N   UNL A   1      32.700  26.173  23.226  1.00  0.00    -0.167 NA
ATOM     11  N   UNL A   1      32.602  25.075  24.013  1.00  0.00    -0.260 N 
ATOM     12  C   UNL A   1      32.623  23.788  23.351  1.00  0.00     0.174 C 
BRANCH   8  13
ATOM     13  C   UNL A   1      32.610  28.607  23.559  1.00  0.00     0.272 C 
ATOM     14  N   UNL A   1      31.502  29.441  23.577  1.00  0.00    -0.344 N 
ATOM     15  H   UNL A   1      31.728  30.399  23.589  1.00  0.00     0.164 HD
ATOM     16  O   UNL A   1      33.655  29.104  23.130  1.00  0.00    -0.267 OA
BRANCH  14  17
ATOM     17  C   UNL A   1      30.063  29.179  23.582  1.00  0.00     0.109 C 
ATOM     18  C   UNL A   1      29.718  27.851  22.901  1.00  0.00     0.036 C 
BRANCH  17  19
ATOM     19  C   UNL A   1      29.247  30.282  22.983  1.00  0.00    -0.026 A 
ATOM     20  C   UNL A   1      28.841  30.255  21.639  1.00  0.00     0.006 A 
ATOM     21  C   UNL A   1      29.025  31.420  23.757  1.00  0.00     0.006 A 
ATOM     22  C   UNL A   1      28.343  31.403  21.039  1.00  0.00     0.000 A 
ATOM     23  C   UNL A   1      28.550  32.564  23.151  1.00  0.00     0.000 A 
ATOM     24  C   UNL A   1      28.249  32.568  21.785  1.00  0.00     0.000 A 
ENDBRANCH  17  19
ENDBRANCH  14  17
ENDBRANCH   8  13
ENDBRANCH   5   7
ENDBRANCH   4   5
ENDBRANCH   3   4
ENDBRANCH   2   3
ENDBRANCH   1   2
BRANCH   1  25
ATOM     25  C   UNL A   1      36.048  21.483  25.044  1.00  0.00     0.202 C 
BRANCH  25  26
ATOM     26  C   UNL A   1      37.367  20.708  25.151  1.00  0.00     0.261 C 
BRANCH  26  27
ATOM     27  O   UNL A   1      38.473  21.619  25.144  1.00  0.00    -0.460 OA
BRANCH  27  28
ATOM     28  C   UNL A   1      39.412  21.297  26.060  1.00  0.00     0.338 C 
ATOM     29  O   UNL A   1      40.024  20.245  26.156  1.00  0.00    -0.246 OA
BRANCH  28  30
ATOM     30  C   UNL A   1      39.777  22.490  26.832  1.00  0.00     0.060 A 
ATOM     31  C   UNL A   1      39.081  23.661  26.513  1.00  0.00     0.016 A 
ATOM     32  C   UNL A   1      40.811  22.495  27.770  1.00  0.00     0.016 A 
ATOM     33  C   UNL A   1      39.484  24.869  27.057  1.00  0.00     0.010 A 
ATOM     34  C   UNL A   1      41.214  23.715  28.320  1.00  0.00     0.010 A 
ATOM     35  C   UNL A   1      40.590  24.909  27.917  1.00  0.00    -0.014 A 
BRANCH  35  36
ATOM     36  C   UNL A   1      41.189  26.227  28.222  1.00  0.00     0.031 A 
ATOM     37  C   UNL A   1      42.587  26.511  27.749  1.00  0.00     0.074 A 
ATOM     38  C   UNL A   1      40.466  27.174  28.844  1.00  0.00     0.049 A 
ATOM     39  N   UNL A   1      43.288  27.608  27.854  1.00  0.00    -0.248 NA
ATOM     40  C   UNL A   1      43.291  25.414  27.060  1.00  0.00     0.031 C 
ATOM     41  C   UNL A   1      39.095  27.007  29.324  1.00  0.00     0.029 A 
ATOM     42  N   UNL A   1      40.790  28.461  29.181  1.00  0.00    -0.354 N 
ATOM     43  C   UNL A   1      44.518  27.329  27.272  1.00  0.00     0.074 A 
ATOM     44  C   UNL A   1      44.478  25.954  26.828  1.00  0.00     0.031 C 
ATOM     45  C   UNL A   1      38.700  28.148  29.914  1.00  0.00     0.029 A 
ATOM     46  C   UNL A   1      39.797  29.113  29.869  1.00  0.00     0.049 A 
ATOM     47  H   UNL A   1      41.652  28.878  28.951  1.00  0.00     0.167 HD
ATOM     48  C   UNL A   1      45.582  28.151  27.106  1.00  0.00     0.034 A 
ATOM     49  C   UNL A   1      39.784  30.345  30.415  1.00  0.00     0.034 A 
ATOM     50  C   UNL A   1      45.603  29.524  27.529  1.00  0.00     0.049 A 
ATOM     51  C   UNL A   1      40.988  31.232  30.236  1.00  0.00     0.074 A 
ATOM     52  C   UNL A   1      46.611  30.457  27.371  1.00  0.00     0.029 A 
ATOM     53  N   UNL A   1      44.571  30.158  28.203  1.00  0.00    -0.354 N 
ATOM     54  N   UNL A   1      42.101  30.990  29.587  1.00  0.00    -0.248 NA
ATOM     55  C   UNL A   1      40.920  32.573  30.833  1.00  0.00     0.031 C 
ATOM     56  C   UNL A   1      46.200  31.649  27.979  1.00  0.00     0.029 A 
ATOM     57  C   UNL A   1      44.922  31.467  28.484  1.00  0.00     0.049 A 
ATOM     58  H   UNL A   1      43.713  29.740  28.446  1.00  0.00     0.167 HD
ATOM     59  C   UNL A   1      42.852  32.157  29.668  1.00  0.00     0.074 A 
ATOM     60  C   UNL A   1      42.056  33.113  30.411  1.00  0.00     0.031 C 
ATOM     61  C   UNL A   1      44.093  32.415  29.182  1.00  0.00     0.034 A 
BRANCH  48  62
ATOM     62  C   UNL A   1      46.801  27.590  26.425  1.00  0.00     0.023 A 
ATOM     63  C   UNL A   1      47.685  26.758  27.142  1.00  0.00     0.012 A 
ATOM     64  C   UNL A   1      47.045  27.844  25.061  1.00  0.00     0.148 A 
ATOM     65  C   UNL A   1      48.808  26.213  26.521  1.00  0.00     0.002 A 
ATOM     66  C   UNL A   1      48.143  27.262  24.438  1.00  0.00     0.091 A 
ATOM     67  F   UNL A   1      46.208  28.658  24.403  1.00  0.00    -0.205 F 
ATOM     68  C   UNL A   1      49.031  26.455  25.168  1.00  0.00     0.022 A 
BRANCH  66  69
ATOM     69  S   UNL A   1      48.473  27.454  22.683  1.00  0.00     0.127 S 
ATOM     70  O   UNL A   1      49.780  28.110  22.699  1.00  0.00    -0.237 OA
ATOM     71  O   UNL A   1      48.494  26.066  22.221  1.00  0.00    -0.237 OA
ATOM     72  O   UNL A   1      47.379  28.255  22.153  1.00  0.00    -0.744 OA
ENDBRANCH  66  69
ENDBRANCH  48  62
BRANCH  49  73
ATOM     73  C   UNL A   1      38.580  30.816  31.154  1.00  0.00     0.023 A 
ATOM     74  C   UNL A   1      38.519  30.678  32.554  1.00  0.00     0.012 A 
ATOM     75  C   UNL A   1      37.508  31.429  30.476  1.00  0.00     0.148 A 
ATOM     76  C   UNL A   1      37.398  31.117  33.261  1.00  0.00     0.002 A 
ATOM     77  C   UNL A   1      36.422  31.915  31.193  1.00  0.00     0.091 A 
ATOM     78  F   UNL A   1      37.579  31.534  29.141  1.00  0.00    -0.205 F 
ATOM     79  C   UNL A   1      36.356  31.744  32.584  1.00  0.00     0.022 A 
BRANCH  77  80
ATOM     80  S   UNL A   1      35.106  32.859  30.416  1.00  0.00     0.127 S 
ATOM     81  O   UNL A   1      35.825  34.033  29.931  1.00  0.00    -0.237 OA
ATOM     82  O   UNL A   1      34.649  31.938  29.374  1.00  0.00    -0.237 OA
ATOM     83  O   UNL A   1      34.127  33.103  31.468  1.00  0.00    -0.744 OA
ENDBRANCH  77  80
ENDBRANCH  49  73
BRANCH  61  84
ATOM     84  C   UNL A   1      44.657  33.794  29.407  1.00  0.00     0.023 A 
ATOM     85  C   UNL A   1      45.432  34.057  30.553  1.00  0.00     0.012 A 
ATOM     86  C   UNL A   1      44.484  34.804  28.440  1.00  0.00     0.148 A 
ATOM     87  C   UNL A   1      45.998  35.315  30.751  1.00  0.00     0.002 A 
ATOM     88  C   UNL A   1      45.095  36.040  28.619  1.00  0.00     0.091 A 
ATOM     89  F   UNL A   1      43.730  34.538  27.364  1.00  0.00    -0.205 F 
ATOM     90  C   UNL A   1      45.840  36.301  29.780  1.00  0.00     0.022 A 
BRANCH  88  91
ATOM     91  S   UNL A   1      45.028  37.334  27.376  1.00  0.00     0.127 S 
ATOM     92  O   UNL A   1      45.982  36.843  26.383  1.00  0.00    -0.237 OA
ATOM     93  O   UNL A   1      43.627  37.285  26.954  1.00  0.00    -0.237 OA
ATOM     94  O   UNL A   1      45.410  38.564  28.057  1.00  0.00    -0.744 OA
ENDBRANCH  88  91
ENDBRANCH  61  84
ENDBRANCH  35  36
ENDBRANCH  28  30
ENDBRANCH  27  28
ENDBRANCH  26  27
ENDBRANCH  25  26
ENDBRANCH   1  25
TORSDOF 20
ENDMDL
MODEL 3
REMARK VINA RESULT:     -11.6      4.824     10.109
REMARK SMILES C[C@@H](NC(=O)c1cc(C(=O)OCCOCCOC(=O)c2ccc(-c3c4nc(c(-c5cccc(S(=O)(=O)[O-])c5F)c5ccc([nH]5)c(-c5cccc(S(=O)(=O)[O-])c5F)c5nc(c(-c6cccc(S(=O)(=O)[O-])c6F)c6ccc3[nH]6)C=C5)C=C4)cc2)n(C)n1)c1ccccc1
REMARK SMILES IDX 14 1 13 2 12 3 11 4 9 5 10 6 8 7 6 8 7 9 85 10 83 11 84 12
REMARK SMILES IDX 4 13 3 14 5 16 2 17 1 18 86 19 87 20 91 21 88 22 90 23 89 24
REMARK SMILES IDX 15 25 16 26 17 27 18 28 19 29 20 30 21 31 82 32 22 33 81 34
REMARK SMILES IDX 23 35 24 36 25 37 75 38 26 39 80 40 74 41 76 42 27 43 79 44
REMARK SMILES IDX 73 45 72 46 28 48 60 49 40 50 59 51 41 52 44 53 58 54 77 55
REMARK SMILES IDX 42 56 43 57 57 59 78 60 45 61 29 62 30 63 38 64 31 65 33 66
REMARK SMILES IDX 39 67 32 68 34 69 35 70 36 71 37 72 61 73 62 74 70 75 63 76
REMARK SMILES IDX 65 77 71 78 64 79 66 80 67 81 68 82 69 83 46 84 47 85 55 86
REMARK SMILES IDX 48 87 50 88 56 89 49 90 51 91 52 92 53 93 54 94
REMARK H PARENT 3 15 76 47 44 58
REMARK Flexibility Score: inf
ROOT
ATOM      1  O   UNL A   1      33.026  28.451  25.234  1.00  0.00    -0.374 OA
ENDROOT
BRANCH   1   2
ATOM      2  C   UNL A   1      32.955  27.162  25.878  1.00  0.00     0.202 C 
BRANCH   2   3
ATOM      3  C   UNL A   1      31.562  26.496  25.831  1.00  0.00     0.261 C 
BRANCH   3   4
ATOM      4  O   UNL A   1      31.402  25.515  26.892  1.00  0.00    -0.459 OA
BRANCH   4   5
ATOM      5  C   UNL A   1      30.735  24.371  26.544  1.00  0.00     0.356 C 
ATOM      6  O   UNL A   1      29.575  24.136  26.866  1.00  0.00    -0.244 OA
BRANCH   5   7
ATOM      7  C   UNL A   1      31.512  23.533  25.654  1.00  0.00     0.146 A 
ATOM      8  C   UNL A   1      32.973  22.012  24.833  1.00  0.00     0.151 A 
ATOM      9  C   UNL A   1      32.625  22.763  25.987  1.00  0.00     0.071 A 
ATOM     10  N   UNL A   1      32.225  22.419  23.790  1.00  0.00    -0.167 NA
ATOM     11  N   UNL A   1      31.356  23.322  24.305  1.00  0.00    -0.260 N 
ATOM     12  C   UNL A   1      30.474  23.991  23.374  1.00  0.00     0.174 C 
BRANCH   8  13
ATOM     13  C   UNL A   1      34.057  21.027  24.655  1.00  0.00     0.272 C 
ATOM     14  N   UNL A   1      35.399  21.364  24.747  1.00  0.00    -0.344 N 
ATOM     15  H   UNL A   1      35.981  20.609  24.994  1.00  0.00     0.164 HD
ATOM     16  O   UNL A   1      33.811  19.835  24.453  1.00  0.00    -0.267 OA
BRANCH  14  17
ATOM     17  C   UNL A   1      36.121  22.621  24.551  1.00  0.00     0.109 C 
ATOM     18  C   UNL A   1      36.653  22.763  23.122  1.00  0.00     0.036 C 
BRANCH  17  19
ATOM     19  C   UNL A   1      37.235  22.834  25.529  1.00  0.00    -0.026 A 
ATOM     20  C   UNL A   1      37.451  24.079  26.144  1.00  0.00     0.006 A 
ATOM     21  C   UNL A   1      38.153  21.800  25.705  1.00  0.00     0.006 A 
ATOM     22  C   UNL A   1      38.641  24.327  26.812  1.00  0.00     0.000 A 
ATOM     23  C   UNL A   1      39.343  22.059  26.352  1.00  0.00     0.000 A 
ATOM     24  C   UNL A   1      39.605  23.332  26.868  1.00  0.00     0.000 A 
ENDBRANCH  17  19
ENDBRANCH  14  17
ENDBRANCH   8  13
ENDBRANCH   5   7
ENDBRANCH   4   5
ENDBRANCH   3   4
ENDBRANCH   2   3
ENDBRANCH   1   2
BRANCH   1  25
ATOM     25  C   UNL A   1      31.797  29.171  25.248  1.00  0.00     0.202 C 
BRANCH  25  26
ATOM     26  C   UNL A   1      31.774  30.413  26.148  1.00  0.00     0.261 C 
BRANCH  26  27
ATOM     27  O   UNL A   1      32.733  30.272  27.202  1.00  0.00    -0.460 OA
BRANCH  27  28
ATOM     28  C   UNL A   1      33.387  31.425  27.463  1.00  0.00     0.338 C 
ATOM     29  O   UNL A   1      32.900  32.533  27.623  1.00  0.00    -0.246 OA
BRANCH  28  30
ATOM     30  C   UNL A   1      34.797  31.138  27.752  1.00  0.00     0.060 A 
ATOM     31  C   UNL A   1      35.136  29.785  27.852  1.00  0.00     0.016 A 
ATOM     32  C   UNL A   1      35.735  32.141  28.001  1.00  0.00     0.016 A 
ATOM     33  C   UNL A   1      36.396  29.425  28.302  1.00  0.00     0.010 A 
ATOM     34  C   UNL A   1      37.006  31.776  28.452  1.00  0.00     0.010 A 
ATOM     35  C   UNL A   1      37.316  30.420  28.660  1.00  0.00    -0.014 A 
BRANCH  35  36
ATOM     36  C   UNL A   1      38.514  30.018  29.429  1.00  0.00     0.031 A 
ATOM     37  C   UNL A   1      38.675  30.529  30.834  1.00  0.00     0.074 A 
ATOM     38  C   UNL A   1      39.399  29.153  28.905  1.00  0.00     0.049 A 
ATOM     39  N   UNL A   1      39.610  30.265  31.707  1.00  0.00    -0.248 NA
ATOM     40  C   UNL A   1      37.642  31.458  31.325  1.00  0.00     0.031 C 
ATOM     41  C   UNL A   1      39.324  28.582  27.561  1.00  0.00     0.029 A 
ATOM     42  N   UNL A   1      40.536  28.610  29.442  1.00  0.00    -0.354 N 
ATOM     43  C   UNL A   1      39.296  31.012  32.836  1.00  0.00     0.074 A 
ATOM     44  C   UNL A   1      38.092  31.753  32.535  1.00  0.00     0.031 C 
ATOM     45  C   UNL A   1      40.385  27.780  27.370  1.00  0.00     0.029 A 
ATOM     46  C   UNL A   1      41.220  27.800  28.569  1.00  0.00     0.049 A 
ATOM     47  H   UNL A   1      40.833  28.783  30.364  1.00  0.00     0.167 HD
ATOM     48  C   UNL A   1      39.943  31.061  34.024  1.00  0.00     0.034 A 
ATOM     49  C   UNL A   1      42.396  27.160  28.720  1.00  0.00     0.034 A 
ATOM     50  C   UNL A   1      41.126  30.302  34.321  1.00  0.00     0.049 A 
ATOM     51  C   UNL A   1      43.109  27.250  30.044  1.00  0.00     0.074 A 
ATOM     52  C   UNL A   1      41.837  30.245  35.507  1.00  0.00     0.029 A 
ATOM     53  N   UNL A   1      41.779  29.474  33.421  1.00  0.00    -0.354 N 
ATOM     54  N   UNL A   1      42.741  27.872  31.138  1.00  0.00    -0.248 NA
ATOM     55  C   UNL A   1      44.379  26.521  30.166  1.00  0.00     0.031 C 
ATOM     56  C   UNL A   1      42.939  29.405  35.313  1.00  0.00     0.029 A 
ATOM     57  C   UNL A   1      42.895  28.912  34.018  1.00  0.00     0.049 A 
ATOM     58  H   UNL A   1      41.492  29.309  32.494  1.00  0.00     0.167 HD
ATOM     59  C   UNL A   1      43.714  27.584  32.088  1.00  0.00     0.074 A 
ATOM     60  C   UNL A   1      44.677  26.712  31.444  1.00  0.00     0.031 C 
ATOM     61  C   UNL A   1      43.812  28.008  33.372  1.00  0.00     0.034 A 
BRANCH  48  62
ATOM     62  C   UNL A   1      39.376  31.956  35.094  1.00  0.00     0.023 A 
ATOM     63  C   UNL A   1      39.453  33.356  34.952  1.00  0.00     0.012 A 
ATOM     64  C   UNL A   1      38.720  31.410  36.215  1.00  0.00     0.148 A 
ATOM     65  C   UNL A   1      38.914  34.199  35.924  1.00  0.00     0.002 A 
ATOM     66  C   UNL A   1      38.148  32.256  37.157  1.00  0.00     0.091 A 
ATOM     67  F   UNL A   1      38.679  30.077  36.345  1.00  0.00    -0.205 F 
ATOM     68  C   UNL A   1      38.252  33.650  37.019  1.00  0.00     0.022 A 
BRANCH  66  69
ATOM     69  S   UNL A   1      37.211  31.646  38.563  1.00  0.00     0.127 S 
ATOM     70  O   UNL A   1      38.144  31.883  39.664  1.00  0.00    -0.237 OA
ATOM     71  O   UNL A   1      36.041  32.525  38.557  1.00  0.00    -0.237 OA
ATOM     72  O   UNL A   1      36.922  30.248  38.278  1.00  0.00    -0.744 OA
ENDBRANCH  66  69
ENDBRANCH  48  62
BRANCH  49  73
ATOM     73  C   UNL A   1      42.954  26.359  27.596  1.00  0.00     0.023 A 
ATOM     74  C   UNL A   1      43.674  26.999  26.568  1.00  0.00     0.012 A 
ATOM     75  C   UNL A   1      42.799  24.960  27.557  1.00  0.00     0.148 A 
ATOM     76  C   UNL A   1      44.204  26.262  25.508  1.00  0.00     0.002 A 
ATOM     77  C   UNL A   1      43.380  24.226  26.530  1.00  0.00     0.091 A 
ATOM     78  F   UNL A   1      42.096  24.372  28.535  1.00  0.00    -0.205 F 
ATOM     79  C   UNL A   1      44.068  24.877  25.494  1.00  0.00     0.022 A 
BRANCH  77  80
ATOM     80  S   UNL A   1      43.371  22.430  26.511  1.00  0.00     0.127 S 
ATOM     81  O   UNL A   1      42.647  22.147  25.275  1.00  0.00    -0.237 OA
ATOM     82  O   UNL A   1      44.801  22.122  26.474  1.00  0.00    -0.237 OA
ATOM     83  O   UNL A   1      42.706  22.029  27.743  1.00  0.00    -0.744 OA
ENDBRANCH  77  80
ENDBRANCH  49  73
BRANCH  61  84
ATOM     84  C   UNL A   1      44.980  27.513  34.184  1.00  0.00     0.023 A 
ATOM     85  C   UNL A   1      46.200  28.216  34.160  1.00  0.00     0.012 A 
ATOM     86  C   UNL A   1      44.841  26.395  35.031  1.00  0.00     0.148 A 
ATOM     87  C   UNL A   1      47.275  27.796  34.941  1.00  0.00     0.002 A 
ATOM     88  C   UNL A   1      45.900  26.013  35.845  1.00  0.00     0.091 A 
ATOM     89  F   UNL A   1      43.676  25.730  35.026  1.00  0.00    -0.205 F 
ATOM     90  C   UNL A   1      47.122  26.703  35.791  1.00  0.00     0.022 A 
BRANCH  88  91
ATOM     91  S   UNL A   1      45.760  24.681  37.042  1.00  0.00     0.127 S 
ATOM     92  O   UNL A   1      47.096  24.671  37.635  1.00  0.00    -0.237 OA
ATOM     93  O   UNL A   1      44.702  25.170  37.927  1.00  0.00    -0.237 OA
ATOM     94  O   UNL A   1      45.405  23.492  36.278  1.00  0.00    -0.744 OA
ENDBRANCH  88  91
ENDBRANCH  61  84
ENDBRANCH  35  36
ENDBRANCH  28  30
ENDBRANCH  27  28
ENDBRANCH  26  27
ENDBRANCH  25  26
ENDBRANCH   1  25
TORSDOF 20
ENDMDL
