MODEL 1
REMARK VINA RESULT:     -11.1      0.000      0.000
REMARK SMILES CCn1ccc2cc(S(=O)(=O)N3CCC[C@@H](C(=O)OCCOCCOC(=O)c4ccc(-c5c6nc(c(-c7cccc(S(=O)(=O)[O-])c7F)c7ccc([nH]7)c(-c7cccc(S(=O)(=O)[O-])c7F)c7nc(c(-c8cccc(S(=O)(=O)[O-])c8F)c8ccc5[nH]8)C=C7)C=C6)cc4)C3)ccc21
REMARK SMILES IDX 22 1 21 2 20 3 19 4 17 5 18 6 16 7 12 8 13 9 91 10 14 11
REMARK SMILES IDX 15 12 9 13 10 14 11 15 8 16 3 17 4 18 94 19 5 20 6 21 93 22
REMARK SMILES IDX 7 23 92 24 2 25 1 26 23 27 24 28 25 29 26 30 27 31 28 32
REMARK SMILES IDX 29 33 90 34 30 35 89 36 31 37 32 38 33 39 83 40 34 41 88 42
REMARK SMILES IDX 82 43 84 44 35 45 87 46 81 47 80 48 36 50 68 51 48 52 67 53
REMARK SMILES IDX 49 54 52 55 66 56 85 57 50 58 51 59 65 61 86 62 53 63 37 64
REMARK SMILES IDX 38 65 46 66 39 67 41 68 47 69 40 70 42 71 43 72 44 73 45 74
REMARK SMILES IDX 69 75 70 76 78 77 71 78 73 79 79 80 72 81 74 82 75 83 76 84
REMARK SMILES IDX 77 85 54 86 55 87 63 88 56 89 58 90 64 91 57 92 59 93 60 94
REMARK SMILES IDX 61 95 62 96
REMARK H PARENT 84 49 52 60
REMARK Flexibility Score: inf
ROOT
ATOM      1  O   UNL A   1      38.280  21.846  26.006  1.00  0.00    -0.374 OA
ENDROOT
BRANCH   1   2
ATOM      2  C   UNL A   1      37.276  21.334  25.138  1.00  0.00     0.202 C 
BRANCH   2   3
ATOM      3  C   UNL A   1      35.854  21.159  25.675  1.00  0.00     0.261 C 
BRANCH   3   4
ATOM      4  O   UNL A   1      34.895  21.154  24.630  1.00  0.00    -0.463 OA
BRANCH   4   5
ATOM      5  C   UNL A   1      33.965  20.181  24.762  1.00  0.00     0.310 C 
ATOM      6  O   UNL A   1      34.166  19.017  25.080  1.00  0.00    -0.252 OA
BRANCH   5   7
ATOM      7  C   UNL A   1      32.607  20.753  24.474  1.00  0.00     0.114 C 
ATOM      8  N   UNL A   1      31.779  23.106  24.938  1.00  0.00    -0.197 NA
ATOM      9  C   UNL A   1      31.738  23.353  23.483  1.00  0.00     0.102 C 
ATOM     10  C   UNL A   1      32.400  21.873  25.473  1.00  0.00     0.117 C 
ATOM     11  C   UNL A   1      31.457  22.082  22.706  1.00  0.00     0.018 C 
ATOM     12  C   UNL A   1      32.550  21.082  22.986  1.00  0.00     0.018 C 
BRANCH   8  13
ATOM     13  S   UNL A   1      32.036  24.481  25.924  1.00  0.00     0.243 S 
ATOM     14  O   UNL A   1      33.462  24.691  25.987  1.00  0.00    -0.207 OA
ATOM     15  O   UNL A   1      31.245  24.295  27.130  1.00  0.00    -0.207 OA
BRANCH  13  16
ATOM     16  C   UNL A   1      31.333  25.873  25.057  1.00  0.00     0.083 A 
ATOM     17  N   UNL A   1      29.276  28.793  22.970  1.00  0.00    -0.348 N 
ATOM     18  C   UNL A   1      27.995  28.313  23.012  1.00  0.00     0.087 A 
ATOM     19  C   UNL A   1      30.116  27.937  23.660  1.00  0.00     0.048 A 
ATOM     20  C   UNL A   1      28.002  27.132  23.719  1.00  0.00     0.028 A 
ATOM     21  C   UNL A   1      29.337  26.871  24.116  1.00  0.00     0.001 A 
ATOM     22  C   UNL A   1      31.490  28.019  23.922  1.00  0.00     0.028 A 
ATOM     23  C   UNL A   1      29.950  25.826  24.832  1.00  0.00     0.032 A 
ATOM     24  C   UNL A   1      32.084  26.969  24.624  1.00  0.00     0.024 A 
BRANCH  17  25
ATOM     25  C   UNL A   1      29.742  29.997  22.298  1.00  0.00     0.119 C 
ATOM     26  C   UNL A   1      28.672  30.966  21.824  1.00  0.00     0.027 C 
ENDBRANCH  17  25
ENDBRANCH  13  16
ENDBRANCH   8  13
ENDBRANCH   5   7
ENDBRANCH   4   5
ENDBRANCH   3   4
ENDBRANCH   2   3
ENDBRANCH   1   2
BRANCH   1  27
ATOM     27  C   UNL A   1      39.555  21.206  26.019  1.00  0.00     0.202 C 
BRANCH  27  28
ATOM     28  C   UNL A   1      40.634  21.626  27.039  1.00  0.00     0.261 C 
BRANCH  28  29
ATOM     29  O   UNL A   1      40.881  23.038  27.042  1.00  0.00    -0.460 OA
BRANCH  29  30
ATOM     30  C   UNL A   1      42.022  23.438  26.410  1.00  0.00     0.338 C 
ATOM     31  O   UNL A   1      42.571  22.900  25.465  1.00  0.00    -0.246 OA
BRANCH  30  32
ATOM     32  C   UNL A   1      42.223  24.841  26.828  1.00  0.00     0.060 A 
ATOM     33  C   UNL A   1      43.179  25.154  27.800  1.00  0.00     0.016 A 
ATOM     34  C   UNL A   1      41.168  25.719  26.533  1.00  0.00     0.016 A 
ATOM     35  C   UNL A   1      43.000  26.295  28.571  1.00  0.00     0.010 A 
ATOM     36  C   UNL A   1      40.958  26.820  27.352  1.00  0.00     0.010 A 
ATOM     37  C   UNL A   1      41.846  27.079  28.399  1.00  0.00    -0.014 A 
BRANCH  37  38
ATOM     38  C   UNL A   1      41.709  28.305  29.187  1.00  0.00     0.031 A 
ATOM     39  C   UNL A   1      42.703  29.327  28.753  1.00  0.00     0.074 A 
ATOM     40  C   UNL A   1      40.726  28.571  30.076  1.00  0.00     0.049 A 
ATOM     41  N   UNL A   1      43.660  29.859  29.444  1.00  0.00    -0.248 NA
ATOM     42  C   UNL A   1      42.741  29.660  27.316  1.00  0.00     0.031 C 
ATOM     43  C   UNL A   1      39.535  27.781  30.377  1.00  0.00     0.029 A 
ATOM     44  N   UNL A   1      40.512  29.697  30.824  1.00  0.00    -0.354 N 
ATOM     45  C   UNL A   1      44.268  30.760  28.573  1.00  0.00     0.074 A 
ATOM     46  C   UNL A   1      43.815  30.441  27.247  1.00  0.00     0.031 C 
ATOM     47  C   UNL A   1      38.633  28.530  31.044  1.00  0.00     0.029 A 
ATOM     48  C   UNL A   1      39.188  29.848  31.248  1.00  0.00     0.049 A 
ATOM     49  H   UNL A   1      41.224  30.340  31.043  1.00  0.00     0.167 HD
ATOM     50  C   UNL A   1      44.875  31.893  29.011  1.00  0.00     0.034 A 
ATOM     51  C   UNL A   1      38.555  30.999  31.603  1.00  0.00     0.034 A 
ATOM     52  C   UNL A   1      45.203  31.842  30.404  1.00  0.00     0.049 A 
ATOM     53  C   UNL A   1      39.618  31.971  31.951  1.00  0.00     0.074 A 
ATOM     54  C   UNL A   1      45.958  30.988  31.185  1.00  0.00     0.029 A 
ATOM     55  N   UNL A   1      44.386  32.524  31.273  1.00  0.00    -0.354 N 
ATOM     56  N   UNL A   1      40.417  31.819  32.972  1.00  0.00    -0.248 NA
ATOM     57  C   UNL A   1      40.103  32.832  30.884  1.00  0.00     0.031 C 
ATOM     58  C   UNL A   1      45.202  30.830  32.381  1.00  0.00     0.029 A 
ATOM     59  C   UNL A   1      44.079  31.653  32.285  1.00  0.00     0.049 A 
ATOM     60  H   UNL A   1      44.081  33.456  31.185  1.00  0.00     0.167 HD
ATOM     61  C   UNL A   1      41.663  32.184  32.483  1.00  0.00     0.074 A 
ATOM     62  C   UNL A   1      41.398  32.858  31.211  1.00  0.00     0.031 C 
ATOM     63  C   UNL A   1      42.813  31.649  32.981  1.00  0.00     0.034 A 
BRANCH  50  64
ATOM     64  C   UNL A   1      44.828  33.174  28.229  1.00  0.00     0.023 A 
ATOM     65  C   UNL A   1      43.576  33.739  27.929  1.00  0.00     0.012 A 
ATOM     66  C   UNL A   1      45.964  33.717  27.581  1.00  0.00     0.148 A 
ATOM     67  C   UNL A   1      43.465  34.812  27.037  1.00  0.00     0.002 A 
ATOM     68  C   UNL A   1      45.860  34.835  26.768  1.00  0.00     0.091 A 
ATOM     69  F   UNL A   1      47.135  33.071  27.647  1.00  0.00    -0.205 F 
ATOM     70  C   UNL A   1      44.609  35.376  26.475  1.00  0.00     0.022 A 
BRANCH  68  71
ATOM     71  S   UNL A   1      47.315  35.615  26.061  1.00  0.00     0.127 S 
ATOM     72  O   UNL A   1      46.776  36.902  25.632  1.00  0.00    -0.237 OA
ATOM     73  O   UNL A   1      48.215  35.670  27.214  1.00  0.00    -0.237 OA
ATOM     74  O   UNL A   1      47.758  34.718  25.002  1.00  0.00    -0.744 OA
ENDBRANCH  68  71
ENDBRANCH  50  64
BRANCH  51  75
ATOM     75  C   UNL A   1      37.146  31.419  31.327  1.00  0.00     0.023 A 
ATOM     76  C   UNL A   1      36.319  31.851  32.389  1.00  0.00     0.012 A 
ATOM     77  C   UNL A   1      36.672  31.647  30.012  1.00  0.00     0.148 A 
ATOM     78  C   UNL A   1      35.103  32.513  32.150  1.00  0.00     0.002 A 
ATOM     79  C   UNL A   1      35.452  32.280  29.780  1.00  0.00     0.091 A 
ATOM     80  F   UNL A   1      37.454  31.341  28.972  1.00  0.00    -0.205 F 
ATOM     81  C   UNL A   1      34.671  32.732  30.845  1.00  0.00     0.022 A 
BRANCH  79  82
ATOM     82  S   UNL A   1      34.843  32.567  28.109  1.00  0.00     0.127 S 
ATOM     83  O   UNL A   1      35.896  33.408  27.538  1.00  0.00    -0.237 OA
ATOM     84  O   UNL A   1      34.780  31.212  27.569  1.00  0.00    -0.237 OA
ATOM     85  O   UNL A   1      33.563  33.247  28.268  1.00  0.00    -0.744 OA
ENDBRANCH  79  82
ENDBRANCH  51  75
BRANCH  63  86
ATOM     86  C   UNL A   1      42.749  30.775  34.207  1.00  0.00     0.023 A 
ATOM     87  C   UNL A   1      42.705  31.308  35.514  1.00  0.00     0.012 A 
ATOM     88  C   UNL A   1      42.462  29.413  34.015  1.00  0.00     0.148 A 
ATOM     89  C   UNL A   1      42.362  30.498  36.602  1.00  0.00     0.002 A 
ATOM     90  C   UNL A   1      42.090  28.621  35.092  1.00  0.00     0.091 A 
ATOM     91  F   UNL A   1      42.498  28.937  32.762  1.00  0.00    -0.205 F 
ATOM     92  C   UNL A   1      42.037  29.159  36.389  1.00  0.00     0.022 A 
BRANCH  90  93
ATOM     93  S   UNL A   1      41.563  26.921  34.872  1.00  0.00     0.127 S 
ATOM     94  O   UNL A   1      41.174  26.545  36.230  1.00  0.00    -0.237 OA
ATOM     95  O   UNL A   1      40.450  27.059  33.931  1.00  0.00    -0.237 OA
ATOM     96  O   UNL A   1      42.714  26.203  34.337  1.00  0.00    -0.744 OA
ENDBRANCH  90  93
ENDBRANCH  63  86
ENDBRANCH  37  38
ENDBRANCH  30  32
ENDBRANCH  29  30
ENDBRANCH  28  29
ENDBRANCH  27  28
ENDBRANCH   1  27
TORSDOF 20
ENDMDL
MODEL 2
REMARK VINA RESULT:     -10.9      1.968      2.323
REMARK SMILES CCn1ccc2cc(S(=O)(=O)N3CCC[C@@H](C(=O)OCCOCCOC(=O)c4ccc(-c5c6nc(c(-c7cccc(S(=O)(=O)[O-])c7F)c7ccc([nH]7)c(-c7cccc(S(=O)(=O)[O-])c7F)c7nc(c(-c8cccc(S(=O)(=O)[O-])c8F)c8ccc5[nH]8)C=C7)C=C6)cc4)C3)ccc21
REMARK SMILES IDX 22 1 21 2 20 3 19 4 17 5 18 6 16 7 12 8 13 9 91 10 14 11
REMARK SMILES IDX 15 12 9 13 10 14 11 15 8 16 3 17 4 18 94 19 5 20 6 21 93 22
REMARK SMILES IDX 7 23 92 24 2 25 1 26 23 27 24 28 25 29 26 30 27 31 28 32
REMARK SMILES IDX 29 33 90 34 30 35 89 36 31 37 32 38 33 39 83 40 34 41 88 42
REMARK SMILES IDX 82 43 84 44 35 45 87 46 81 47 80 48 36 50 68 51 48 52 67 53
REMARK SMILES IDX 49 54 52 55 66 56 85 57 50 58 51 59 65 61 86 62 53 63 37 64
REMARK SMILES IDX 38 65 46 66 39 67 41 68 47 69 40 70 42 71 43 72 44 73 45 74
REMARK SMILES IDX 69 75 70 76 78 77 71 78 73 79 79 80 72 81 74 82 75 83 76 84
REMARK SMILES IDX 77 85 54 86 55 87 63 88 56 89 58 90 64 91 57 92 59 93 60 94
REMARK SMILES IDX 61 95 62 96
REMARK H PARENT 84 49 52 60
REMARK Flexibility Score: inf
ROOT
ATOM      1  O   UNL A   1      38.003  21.868  25.401  1.00  0.00    -0.374 OA
ENDROOT
BRANCH   1   2
ATOM      2  C   UNL A   1      36.888  21.198  24.823  1.00  0.00     0.202 C 
BRANCH   2   3
ATOM      3  C   UNL A   1      35.480  21.563  25.296  1.00  0.00     0.261 C 
BRANCH   3   4
ATOM      4  O   UNL A   1      34.527  21.442  24.252  1.00  0.00    -0.463 OA
BRANCH   4   5
ATOM      5  C   UNL A   1      33.250  21.565  24.676  1.00  0.00     0.310 C 
ATOM      6  O   UNL A   1      32.727  20.966  25.606  1.00  0.00    -0.252 OA
BRANCH   5   7
ATOM      7  C   UNL A   1      32.546  22.588  23.832  1.00  0.00     0.114 C 
ATOM      8  N   UNL A   1      32.288  25.071  24.287  1.00  0.00    -0.197 NA
ATOM      9  C   UNL A   1      33.184  25.349  23.146  1.00  0.00     0.102 C 
ATOM     10  C   UNL A   1      32.106  23.686  24.778  1.00  0.00     0.117 C 
ATOM     11  C   UNL A   1      33.081  24.277  22.079  1.00  0.00     0.018 C 
ATOM     12  C   UNL A   1      33.471  22.949  22.675  1.00  0.00     0.018 C 
BRANCH   8  13
ATOM     13  S   UNL A   1      32.278  26.243  25.534  1.00  0.00     0.243 S 
ATOM     14  O   UNL A   1      33.646  26.656  25.732  1.00  0.00    -0.207 OA
ATOM     15  O   UNL A   1      31.487  25.698  26.626  1.00  0.00    -0.207 OA
BRANCH  13  16
ATOM     16  C   UNL A   1      31.384  27.654  24.906  1.00  0.00     0.083 A 
ATOM     17  N   UNL A   1      29.121  30.595  23.076  1.00  0.00    -0.348 N 
ATOM     18  C   UNL A   1      28.261  29.849  22.316  1.00  0.00     0.087 A 
ATOM     19  C   UNL A   1      29.954  29.754  23.795  1.00  0.00     0.048 A 
ATOM     20  C   UNL A   1      28.542  28.519  22.529  1.00  0.00     0.028 A 
ATOM     21  C   UNL A   1      29.622  28.443  23.444  1.00  0.00     0.001 A 
ATOM     22  C   UNL A   1      30.961  30.043  24.724  1.00  0.00     0.028 A 
ATOM     23  C   UNL A   1      30.341  27.375  24.012  1.00  0.00     0.032 A 
ATOM     24  C   UNL A   1      31.671  28.972  25.269  1.00  0.00     0.024 A 
BRANCH  17  25
ATOM     25  C   UNL A   1      29.208  32.046  23.137  1.00  0.00     0.119 C 
ATOM     26  C   UNL A   1      28.252  32.821  22.246  1.00  0.00     0.027 C 
ENDBRANCH  17  25
ENDBRANCH  13  16
ENDBRANCH   8  13
ENDBRANCH   5   7
ENDBRANCH   4   5
ENDBRANCH   3   4
ENDBRANCH   2   3
ENDBRANCH   1   2
BRANCH   1  27
ATOM     27  C   UNL A   1      39.121  21.087  25.819  1.00  0.00     0.202 C 
BRANCH  27  28
ATOM     28  C   UNL A   1      40.145  21.654  26.823  1.00  0.00     0.261 C 
BRANCH  28  29
ATOM     29  O   UNL A   1      40.418  23.047  26.616  1.00  0.00    -0.460 OA
BRANCH  29  30
ATOM     30  C   UNL A   1      41.690  23.346  26.223  1.00  0.00     0.338 C 
ATOM     31  O   UNL A   1      42.382  22.732  25.430  1.00  0.00    -0.246 OA
BRANCH  30  32
ATOM     32  C   UNL A   1      41.899  24.751  26.630  1.00  0.00     0.060 A 
ATOM     33  C   UNL A   1      42.903  25.073  27.549  1.00  0.00     0.016 A 
ATOM     34  C   UNL A   1      40.821  25.618  26.392  1.00  0.00     0.016 A 
ATOM     35  C   UNL A   1      42.754  26.212  28.329  1.00  0.00     0.010 A 
ATOM     36  C   UNL A   1      40.644  26.717  27.221  1.00  0.00     0.010 A 
ATOM     37  C   UNL A   1      41.585  26.985  28.219  1.00  0.00    -0.014 A 
BRANCH  37  38
ATOM     38  C   UNL A   1      41.479  28.210  29.013  1.00  0.00     0.031 A 
ATOM     39  C   UNL A   1      42.481  29.219  28.569  1.00  0.00     0.074 A 
ATOM     40  C   UNL A   1      40.513  28.487  29.918  1.00  0.00     0.049 A 
ATOM     41  N   UNL A   1      43.456  29.733  29.246  1.00  0.00    -0.248 NA
ATOM     42  C   UNL A   1      42.502  29.557  27.132  1.00  0.00     0.031 C 
ATOM     43  C   UNL A   1      39.315  27.714  30.234  1.00  0.00     0.029 A 
ATOM     44  N   UNL A   1      40.327  29.613  30.674  1.00  0.00    -0.354 N 
ATOM     45  C   UNL A   1      44.065  30.629  28.371  1.00  0.00     0.074 A 
ATOM     46  C   UNL A   1      43.587  30.322  27.050  1.00  0.00     0.031 C 
ATOM     47  C   UNL A   1      38.435  28.474  30.917  1.00  0.00     0.029 A 
ATOM     48  C   UNL A   1      39.012  29.783  31.118  1.00  0.00     0.049 A 
ATOM     49  H   UNL A   1      41.052  30.246  30.884  1.00  0.00     0.167 HD
ATOM     50  C   UNL A   1      44.695  31.751  28.803  1.00  0.00     0.034 A 
ATOM     51  C   UNL A   1      38.402  30.942  31.487  1.00  0.00     0.034 A 
ATOM     52  C   UNL A   1      45.043  31.690  30.191  1.00  0.00     0.049 A 
ATOM     53  C   UNL A   1      39.485  31.897  31.823  1.00  0.00     0.074 A 
ATOM     54  C   UNL A   1      45.796  30.822  30.957  1.00  0.00     0.029 A 
ATOM     55  N   UNL A   1      44.250  32.381  31.074  1.00  0.00    -0.354 N 
ATOM     56  N   UNL A   1      40.296  31.728  32.831  1.00  0.00    -0.248 NA
ATOM     57  C   UNL A   1      39.967  32.755  30.752  1.00  0.00     0.031 C 
ATOM     58  C   UNL A   1      45.056  30.670  32.164  1.00  0.00     0.029 A 
ATOM     59  C   UNL A   1      43.945  31.510  32.088  1.00  0.00     0.049 A 
ATOM     60  H   UNL A   1      43.958  33.318  30.994  1.00  0.00     0.167 HD
ATOM     61  C   UNL A   1      41.540  32.077  32.325  1.00  0.00     0.074 A 
ATOM     62  C   UNL A   1      41.267  32.760  31.059  1.00  0.00     0.031 C 
ATOM     63  C   UNL A   1      42.690  31.523  32.803  1.00  0.00     0.034 A 
BRANCH  50  64
ATOM     64  C   UNL A   1      44.656  33.035  28.027  1.00  0.00     0.023 A 
ATOM     65  C   UNL A   1      45.769  33.388  27.244  1.00  0.00     0.012 A 
ATOM     66  C   UNL A   1      43.655  34.018  28.223  1.00  0.00     0.148 A 
ATOM     67  C   UNL A   1      45.870  34.659  26.666  1.00  0.00     0.002 A 
ATOM     68  C   UNL A   1      43.717  35.243  27.577  1.00  0.00     0.091 A 
ATOM     69  F   UNL A   1      42.702  33.818  29.142  1.00  0.00    -0.205 F 
ATOM     70  C   UNL A   1      44.833  35.578  26.812  1.00  0.00     0.022 A 
BRANCH  68  71
ATOM     71  S   UNL A   1      42.380  36.436  27.706  1.00  0.00     0.127 S 
ATOM     72  O   UNL A   1      41.213  35.593  27.463  1.00  0.00    -0.237 OA
ATOM     73  O   UNL A   1      42.532  36.906  29.083  1.00  0.00    -0.237 OA
ATOM     74  O   UNL A   1      42.666  37.447  26.696  1.00  0.00    -0.744 OA
ENDBRANCH  68  71
ENDBRANCH  50  64
BRANCH  51  75
ATOM     75  C   UNL A   1      36.995  31.384  31.233  1.00  0.00     0.023 A 
ATOM     76  C   UNL A   1      36.176  31.779  32.315  1.00  0.00     0.012 A 
ATOM     77  C   UNL A   1      36.519  31.670  29.931  1.00  0.00     0.148 A 
ATOM     78  C   UNL A   1      34.965  32.459  32.108  1.00  0.00     0.002 A 
ATOM     79  C   UNL A   1      35.303  32.321  29.729  1.00  0.00     0.091 A 
ATOM     80  F   UNL A   1      37.295  31.401  28.876  1.00  0.00    -0.205 F 
ATOM     81  C   UNL A   1      34.530  32.735  30.816  1.00  0.00     0.022 A 
BRANCH  79  82
ATOM     82  S   UNL A   1      34.691  32.682  28.074  1.00  0.00     0.127 S 
ATOM     83  O   UNL A   1      34.512  31.342  27.514  1.00  0.00    -0.237 OA
ATOM     84  O   UNL A   1      33.450  33.399  28.357  1.00  0.00    -0.237 OA
ATOM     85  O   UNL A   1      35.740  33.460  27.427  1.00  0.00    -0.744 OA
ENDBRANCH  79  82
ENDBRANCH  51  75
BRANCH  63  86
ATOM     86  C   UNL A   1      42.631  30.644  34.027  1.00  0.00     0.023 A 
ATOM     87  C   UNL A   1      42.585  29.236  33.943  1.00  0.00     0.012 A 
ATOM     88  C   UNL A   1      42.895  31.247  35.267  1.00  0.00     0.148 A 
ATOM     89  C   UNL A   1      42.817  28.447  35.075  1.00  0.00     0.002 A 
ATOM     90  C   UNL A   1      43.157  30.461  36.381  1.00  0.00     0.091 A 
ATOM     91  F   UNL A   1      42.948  32.586  35.315  1.00  0.00    -0.205 F 
ATOM     92  C   UNL A   1      43.121  29.060  36.291  1.00  0.00     0.022 A 
BRANCH  90  93
ATOM     93  S   UNL A   1      43.654  31.183  37.946  1.00  0.00     0.127 S 
ATOM     94  O   UNL A   1      44.331  30.063  38.597  1.00  0.00    -0.237 OA
ATOM     95  O   UNL A   1      44.537  32.271  37.522  1.00  0.00    -0.237 OA
ATOM     96  O   UNL A   1      42.427  31.627  38.598  1.00  0.00    -0.744 OA
ENDBRANCH  90  93
ENDBRANCH  63  86
ENDBRANCH  37  38
ENDBRANCH  30  32
ENDBRANCH  29  30
ENDBRANCH  28  29
ENDBRANCH  27  28
ENDBRANCH   1  27
TORSDOF 20
ENDMDL
MODEL 3
REMARK VINA RESULT:     -10.8      3.010      9.197
REMARK SMILES CCn1ccc2cc(S(=O)(=O)N3CCC[C@@H](C(=O)OCCOCCOC(=O)c4ccc(-c5c6nc(c(-c7cccc(S(=O)(=O)[O-])c7F)c7ccc([nH]7)c(-c7cccc(S(=O)(=O)[O-])c7F)c7nc(c(-c8cccc(S(=O)(=O)[O-])c8F)c8ccc5[nH]8)C=C7)C=C6)cc4)C3)ccc21
REMARK SMILES IDX 22 1 21 2 20 3 19 4 17 5 18 6 16 7 12 8 13 9 91 10 14 11
REMARK SMILES IDX 15 12 9 13 10 14 11 15 8 16 3 17 4 18 94 19 5 20 6 21 93 22
REMARK SMILES IDX 7 23 92 24 2 25 1 26 23 27 24 28 25 29 26 30 27 31 28 32
REMARK SMILES IDX 29 33 90 34 30 35 89 36 31 37 32 38 33 39 83 40 34 41 88 42
REMARK SMILES IDX 82 43 84 44 35 45 87 46 81 47 80 48 36 50 68 51 48 52 67 53
REMARK SMILES IDX 49 54 52 55 66 56 85 57 50 58 51 59 65 61 86 62 53 63 37 64
REMARK SMILES IDX 38 65 46 66 39 67 41 68 47 69 40 70 42 71 43 72 44 73 45 74
REMARK SMILES IDX 69 75 70 76 78 77 71 78 73 79 79 80 72 81 74 82 75 83 76 84
REMARK SMILES IDX 77 85 54 86 55 87 63 88 56 89 58 90 64 91 57 92 59 93 60 94
REMARK SMILES IDX 61 95 62 96
REMARK H PARENT 84 49 52 60
REMARK Flexibility Score: inf
ROOT
ATOM      1  O   UNL A   1      32.963  29.722  25.469  1.00  0.00    -0.374 OA
ENDROOT
BRANCH   1   2
ATOM      2  C   UNL A   1      32.625  28.865  24.385  1.00  0.00     0.202 C 
BRANCH   2   3
ATOM      3  C   UNL A   1      32.767  27.352  24.566  1.00  0.00     0.261 C 
BRANCH   3   4
ATOM      4  O   UNL A   1      31.522  26.687  24.428  1.00  0.00    -0.463 OA
BRANCH   4   5
ATOM      5  C   UNL A   1      31.018  26.244  25.602  1.00  0.00     0.310 C 
ATOM      6  O   UNL A   1      31.030  26.837  26.672  1.00  0.00    -0.252 OA
BRANCH   5   7
ATOM      7  C   UNL A   1      30.406  24.889  25.396  1.00  0.00     0.114 C 
ATOM      8  N   UNL A   1      31.489  22.827  24.388  1.00  0.00    -0.197 NA
ATOM      9  C   UNL A   1      31.453  22.187  25.718  1.00  0.00     0.102 C 
ATOM     10  C   UNL A   1      31.149  24.261  24.236  1.00  0.00     0.117 C 
ATOM     11  C   UNL A   1      30.284  22.681  26.547  1.00  0.00     0.018 C 
ATOM     12  C   UNL A   1      30.412  24.170  26.741  1.00  0.00     0.018 C 
BRANCH   8  13
ATOM     13  S   UNL A   1      32.738  22.308  23.340  1.00  0.00     0.243 S 
ATOM     14  O   UNL A   1      32.638  23.105  22.142  1.00  0.00    -0.207 OA
ATOM     15  O   UNL A   1      32.678  20.856  23.290  1.00  0.00    -0.207 OA
BRANCH  13  16
ATOM     16  C   UNL A   1      34.281  22.733  24.131  1.00  0.00     0.083 A 
ATOM     17  N   UNL A   1      37.946  23.191  25.994  1.00  0.00    -0.348 N 
ATOM     18  C   UNL A   1      38.505  21.955  25.812  1.00  0.00     0.087 A 
ATOM     19  C   UNL A   1      36.698  23.229  25.396  1.00  0.00     0.048 A 
ATOM     20  C   UNL A   1      37.614  21.180  25.107  1.00  0.00     0.028 A 
ATOM     21  C   UNL A   1      36.460  21.964  24.854  1.00  0.00     0.001 A 
ATOM     22  C   UNL A   1      35.770  24.272  25.284  1.00  0.00     0.028 A 
ATOM     23  C   UNL A   1      35.237  21.711  24.206  1.00  0.00     0.032 A 
ATOM     24  C   UNL A   1      34.558  24.001  24.647  1.00  0.00     0.024 A 
BRANCH  17  25
ATOM     25  C   UNL A   1      38.518  24.318  26.716  1.00  0.00     0.119 C 
ATOM     26  C   UNL A   1      39.756  24.031  27.549  1.00  0.00     0.027 C 
ENDBRANCH  17  25
ENDBRANCH  13  16
ENDBRANCH   8  13
ENDBRANCH   5   7
ENDBRANCH   4   5
ENDBRANCH   3   4
ENDBRANCH   2   3
ENDBRANCH   1   2
BRANCH   1  27
ATOM     27  C   UNL A   1      33.608  29.152  26.607  1.00  0.00     0.202 C 
BRANCH  27  28
ATOM     28  C   UNL A   1      34.244  30.055  27.683  1.00  0.00     0.261 C 
BRANCH  28  29
ATOM     29  O   UNL A   1      35.672  29.939  27.737  1.00  0.00    -0.460 OA
BRANCH  29  30
ATOM     30  C   UNL A   1      36.281  30.623  28.750  1.00  0.00     0.338 C 
ATOM     31  O   UNL A   1      35.794  30.949  29.818  1.00  0.00    -0.246 OA
BRANCH  30  32
ATOM     32  C   UNL A   1      37.727  30.531  28.463  1.00  0.00     0.060 A 
ATOM     33  C   UNL A   1      38.222  29.484  27.677  1.00  0.00     0.016 A 
ATOM     34  C   UNL A   1      38.565  31.253  29.328  1.00  0.00     0.016 A 
ATOM     35  C   UNL A   1      39.536  29.076  27.860  1.00  0.00     0.010 A 
ATOM     36  C   UNL A   1      39.855  30.796  29.554  1.00  0.00     0.010 A 
ATOM     37  C   UNL A   1      40.323  29.680  28.856  1.00  0.00    -0.014 A 
BRANCH  37  38
ATOM     38  C   UNL A   1      41.721  29.267  28.989  1.00  0.00     0.031 A 
ATOM     39  C   UNL A   1      42.059  28.991  30.414  1.00  0.00     0.074 A 
ATOM     40  C   UNL A   1      42.571  29.003  27.971  1.00  0.00     0.049 A 
ATOM     41  N   UNL A   1      42.925  29.591  31.164  1.00  0.00    -0.248 NA
ATOM     42  C   UNL A   1      41.189  28.044  31.138  1.00  0.00     0.031 C 
ATOM     43  C   UNL A   1      42.286  28.952  26.540  1.00  0.00     0.029 A 
ATOM     44  N   UNL A   1      43.874  28.587  28.012  1.00  0.00    -0.354 N 
ATOM     45  C   UNL A   1      42.854  28.932  32.388  1.00  0.00     0.074 A 
ATOM     46  C   UNL A   1      41.644  28.156  32.383  1.00  0.00     0.031 C 
ATOM     47  C   UNL A   1      43.284  28.321  25.887  1.00  0.00     0.029 A 
ATOM     48  C   UNL A   1      44.298  27.946  26.845  1.00  0.00     0.049 A 
ATOM     49  H   UNL A   1      44.458  28.725  28.793  1.00  0.00     0.167 HD
ATOM     50  C   UNL A   1      43.924  28.824  33.217  1.00  0.00     0.034 A 
ATOM     51  C   UNL A   1      45.322  27.060  26.706  1.00  0.00     0.034 A 
ATOM     52  C   UNL A   1      44.944  29.789  32.932  1.00  0.00     0.049 A 
ATOM     53  C   UNL A   1      46.217  27.271  27.868  1.00  0.00     0.074 A 
ATOM     54  C   UNL A   1      44.973  31.168  32.869  1.00  0.00     0.029 A 
ATOM     55  N   UNL A   1      46.049  29.356  32.241  1.00  0.00    -0.354 N 
ATOM     56  N   UNL A   1      46.887  28.375  28.061  1.00  0.00    -0.248 NA
ATOM     57  C   UNL A   1      45.972  26.459  29.049  1.00  0.00     0.031 C 
ATOM     58  C   UNL A   1      45.777  31.461  31.730  1.00  0.00     0.029 A 
ATOM     59  C   UNL A   1      46.247  30.250  31.221  1.00  0.00     0.049 A 
ATOM     60  H   UNL A   1      46.594  28.560  32.441  1.00  0.00     0.167 HD
ATOM     61  C   UNL A   1      46.752  28.619  29.420  1.00  0.00     0.074 A 
ATOM     62  C   UNL A   1      46.231  27.374  29.988  1.00  0.00     0.031 C 
ATOM     63  C   UNL A   1      46.775  29.883  29.927  1.00  0.00     0.034 A 
BRANCH  50  64
ATOM     64  C   UNL A   1      44.170  27.596  34.045  1.00  0.00     0.023 A 
ATOM     65  C   UNL A   1      44.540  26.405  33.396  1.00  0.00     0.012 A 
ATOM     66  C   UNL A   1      43.825  27.515  35.415  1.00  0.00     0.148 A 
ATOM     67  C   UNL A   1      44.583  25.191  34.089  1.00  0.00     0.002 A 
ATOM     68  C   UNL A   1      43.954  26.328  36.118  1.00  0.00     0.091 A 
ATOM     69  F   UNL A   1      43.243  28.562  36.015  1.00  0.00    -0.205 F 
ATOM     70  C   UNL A   1      44.314  25.155  35.455  1.00  0.00     0.022 A 
BRANCH  68  71
ATOM     71  S   UNL A   1      43.658  26.252  37.888  1.00  0.00     0.127 S 
ATOM     72  O   UNL A   1      42.198  26.229  37.939  1.00  0.00    -0.237 OA
ATOM     73  O   UNL A   1      44.312  24.994  38.247  1.00  0.00    -0.237 OA
ATOM     74  O   UNL A   1      44.302  27.437  38.439  1.00  0.00    -0.744 OA
ENDBRANCH  68  71
ENDBRANCH  50  64
BRANCH  51  75
ATOM     75  C   UNL A   1      45.392  25.833  25.854  1.00  0.00     0.023 A 
ATOM     76  C   UNL A   1      46.536  25.593  25.059  1.00  0.00     0.012 A 
ATOM     77  C   UNL A   1      44.474  24.764  25.995  1.00  0.00     0.148 A 
ATOM     78  C   UNL A   1      46.770  24.339  24.471  1.00  0.00     0.002 A 
ATOM     79  C   UNL A   1      44.697  23.531  25.386  1.00  0.00     0.091 A 
ATOM     80  F   UNL A   1      43.422  24.908  26.807  1.00  0.00    -0.205 F 
ATOM     81  C   UNL A   1      45.854  23.306  24.638  1.00  0.00     0.022 A 
BRANCH  79  82
ATOM     82  S   UNL A   1      43.528  22.171  25.558  1.00  0.00     0.127 S 
ATOM     83  O   UNL A   1      44.138  21.134  24.724  1.00  0.00    -0.237 OA
ATOM     84  O   UNL A   1      43.573  21.908  26.994  1.00  0.00    -0.237 OA
ATOM     85  O   UNL A   1      42.260  22.673  25.045  1.00  0.00    -0.744 OA
ENDBRANCH  79  82
ENDBRANCH  51  75
BRANCH  63  86
ATOM     86  C   UNL A   1      47.131  31.035  29.022  1.00  0.00     0.023 A 
ATOM     87  C   UNL A   1      48.467  31.353  28.695  1.00  0.00     0.012 A 
ATOM     88  C   UNL A   1      46.088  31.625  28.288  1.00  0.00     0.148 A 
ATOM     89  C   UNL A   1      48.752  32.231  27.644  1.00  0.00     0.002 A 
ATOM     90  C   UNL A   1      46.377  32.469  27.224  1.00  0.00     0.091 A 
ATOM     91  F   UNL A   1      44.830  31.292  28.610  1.00  0.00    -0.205 F 
ATOM     92  C   UNL A   1      47.708  32.775  26.897  1.00  0.00     0.022 A 
BRANCH  90  93
ATOM     93  S   UNL A   1      45.085  33.118  26.163  1.00  0.00     0.127 S 
ATOM     94  O   UNL A   1      44.451  31.896  25.673  1.00  0.00    -0.237 OA
ATOM     95  O   UNL A   1      44.274  33.898  27.099  1.00  0.00    -0.237 OA
ATOM     96  O   UNL A   1      45.758  33.917  25.144  1.00  0.00    -0.744 OA
ENDBRANCH  90  93
ENDBRANCH  63  86
ENDBRANCH  37  38
ENDBRANCH  30  32
ENDBRANCH  29  30
ENDBRANCH  28  29
ENDBRANCH  27  28
ENDBRANCH   1  27
TORSDOF 20
ENDMDL
