MODEL 1
REMARK VINA RESULT:     -11.0      0.000      0.000
REMARK SMILES O=C(OCCOCCOC(=O)[C@H]1C[C@H]2CCCC[C@@H]2[N@@H+]1CCn1ccnc1)c1ccc(-c2c3nc(c(-c4cccc(S(=O)(=O)[O-])c4F)c4ccc([nH]4)c(-c4cccc(S(=O)(=O)[O-])c4F)c4nc(c(-c5cccc(S(=O)(=O)[O-])c5F)c5ccc2[nH]5)C=C4)C=C3)cc1
REMARK SMILES IDX 6 1 5 2 4 3 3 4 2 5 1 6 28 7 29 8 90 9 30 10 89 11 31 12
REMARK SMILES IDX 32 13 33 14 83 15 34 16 88 17 82 18 84 19 35 20 87 21 81 22
REMARK SMILES IDX 80 23 36 25 68 26 48 27 67 28 49 29 52 30 66 31 85 32 50 33
REMARK SMILES IDX 51 34 65 36 86 37 53 38 37 39 38 40 46 41 39 42 41 43 47 44
REMARK SMILES IDX 40 45 42 46 43 47 44 48 45 49 69 50 70 51 78 52 71 53 73 54
REMARK SMILES IDX 79 55 72 56 74 57 75 58 76 59 77 60 54 61 55 62 63 63 56 64
REMARK SMILES IDX 58 65 64 66 57 67 59 68 60 69 61 70 62 71 7 72 8 73 9 74
REMARK SMILES IDX 10 75 11 76 12 77 13 78 20 79 14 80 19 81 15 83 18 84 16 85
REMARK SMILES IDX 17 86 21 87 22 88 23 89 24 90 27 91 25 92 26 93
REMARK H PARENT 84 24 52 35 20 82
REMARK Flexibility Score: inf
ROOT
ATOM      1  O   UNL A   1      38.236  23.062  25.770  1.00  0.00    -0.374 OA
ENDROOT
BRANCH   1   2
ATOM      2  C   UNL A   1      38.684  21.717  25.716  1.00  0.00     0.202 C 
BRANCH   2   3
ATOM      3  C   UNL A   1      39.849  21.270  26.612  1.00  0.00     0.261 C 
BRANCH   3   4
ATOM      4  O   UNL A   1      40.244  22.194  27.639  1.00  0.00    -0.460 OA
BRANCH   4   5
ATOM      5  C   UNL A   1      41.452  22.745  27.870  1.00  0.00     0.338 C 
ATOM      6  O   UNL A   1      42.433  22.012  27.970  1.00  0.00    -0.246 OA
BRANCH   5   7
ATOM      7  C   UNL A   1      41.644  24.218  27.868  1.00  0.00     0.060 A 
ATOM      8  C   UNL A   1      42.723  24.865  28.458  1.00  0.00     0.016 A 
ATOM      9  C   UNL A   1      40.581  24.986  27.363  1.00  0.00     0.016 A 
ATOM     10  C   UNL A   1      42.595  26.168  28.861  1.00  0.00     0.010 A 
ATOM     11  C   UNL A   1      40.492  26.330  27.669  1.00  0.00     0.010 A 
ATOM     12  C   UNL A   1      41.441  26.867  28.527  1.00  0.00    -0.014 A 
BRANCH  12  13
ATOM     13  C   UNL A   1      41.350  28.206  29.064  1.00  0.00     0.031 A 
ATOM     14  C   UNL A   1      42.357  29.129  28.485  1.00  0.00     0.074 A 
ATOM     15  C   UNL A   1      40.447  28.520  30.008  1.00  0.00     0.049 A 
ATOM     16  N   UNL A   1      43.367  29.675  29.077  1.00  0.00    -0.248 NA
ATOM     17  C   UNL A   1      42.376  29.256  27.020  1.00  0.00     0.031 C 
ATOM     18  C   UNL A   1      39.295  27.731  30.452  1.00  0.00     0.029 A 
ATOM     19  N   UNL A   1      40.285  29.698  30.662  1.00  0.00    -0.354 N 
ATOM     20  C   UNL A   1      44.010  30.419  28.089  1.00  0.00     0.074 A 
ATOM     21  C   UNL A   1      43.506  29.936  26.835  1.00  0.00     0.031 C 
ATOM     22  C   UNL A   1      38.407  28.559  31.047  1.00  0.00     0.029 A 
ATOM     23  C   UNL A   1      38.994  29.883  31.140  1.00  0.00     0.049 A 
ATOM     24  H   UNL A   1      41.009  30.354  30.785  1.00  0.00     0.167 HD
ATOM     25  C   UNL A   1      44.676  31.565  28.400  1.00  0.00     0.034 A 
ATOM     26  C   UNL A   1      38.429  31.073  31.457  1.00  0.00     0.034 A 
ATOM     27  C   UNL A   1      45.030  31.590  29.799  1.00  0.00     0.049 A 
ATOM     28  C   UNL A   1      39.530  32.046  31.659  1.00  0.00     0.074 A 
ATOM     29  C   UNL A   1      45.794  30.795  30.630  1.00  0.00     0.029 A 
ATOM     30  N   UNL A   1      44.243  32.356  30.625  1.00  0.00    -0.354 N 
ATOM     31  N   UNL A   1      40.386  31.968  32.641  1.00  0.00    -0.248 NA
ATOM     32  C   UNL A   1      39.960  32.837  30.516  1.00  0.00     0.031 C 
ATOM     33  C   UNL A   1      45.102  30.794  31.878  1.00  0.00     0.029 A 
ATOM     34  C   UNL A   1      43.993  31.633  31.758  1.00  0.00     0.049 A 
ATOM     35  H   UNL A   1      43.917  33.265  30.436  1.00  0.00     0.167 HD
ATOM     36  C   UNL A   1      41.607  32.292  32.061  1.00  0.00     0.074 A 
ATOM     37  C   UNL A   1      41.267  32.922  30.786  1.00  0.00     0.031 C 
ATOM     38  C   UNL A   1      42.773  31.751  32.525  1.00  0.00     0.034 A 
BRANCH  25  39
ATOM     39  C   UNL A   1      44.580  32.847  27.585  1.00  0.00     0.023 A 
ATOM     40  C   UNL A   1      45.658  33.120  26.711  1.00  0.00     0.012 A 
ATOM     41  C   UNL A   1      43.699  33.922  27.855  1.00  0.00     0.148 A 
ATOM     42  C   UNL A   1      45.925  34.414  26.253  1.00  0.00     0.002 A 
ATOM     43  C   UNL A   1      43.941  35.198  27.359  1.00  0.00     0.091 A 
ATOM     44  F   UNL A   1      42.661  33.767  28.672  1.00  0.00    -0.205 F 
ATOM     45  C   UNL A   1      45.076  35.457  26.591  1.00  0.00     0.022 A 
BRANCH  43  46
ATOM     46  S   UNL A   1      42.858  36.580  27.749  1.00  0.00     0.127 S 
ATOM     47  O   UNL A   1      43.437  37.640  26.931  1.00  0.00    -0.237 OA
ATOM     48  O   UNL A   1      41.562  36.077  27.292  1.00  0.00    -0.237 OA
ATOM     49  O   UNL A   1      42.950  36.768  29.192  1.00  0.00    -0.744 OA
ENDBRANCH  43  46
ENDBRANCH  25  39
BRANCH  26  50
ATOM     50  C   UNL A   1      37.024  31.497  31.259  1.00  0.00     0.023 A 
ATOM     51  C   UNL A   1      36.270  31.939  32.363  1.00  0.00     0.012 A 
ATOM     52  C   UNL A   1      36.501  31.720  29.963  1.00  0.00     0.148 A 
ATOM     53  C   UNL A   1      35.049  32.598  32.183  1.00  0.00     0.002 A 
ATOM     54  C   UNL A   1      35.280  32.363  29.791  1.00  0.00     0.091 A 
ATOM     55  F   UNL A   1      37.242  31.386  28.899  1.00  0.00    -0.205 F 
ATOM     56  C   UNL A   1      34.556  32.815  30.899  1.00  0.00     0.022 A 
BRANCH  54  57
ATOM     57  S   UNL A   1      34.597  32.685  28.158  1.00  0.00     0.127 S 
ATOM     58  O   UNL A   1      33.366  33.413  28.487  1.00  0.00    -0.237 OA
ATOM     59  O   UNL A   1      35.644  33.512  27.552  1.00  0.00    -0.237 OA
ATOM     60  O   UNL A   1      34.381  31.389  27.548  1.00  0.00    -0.744 OA
ENDBRANCH  54  57
ENDBRANCH  26  50
BRANCH  38  61
ATOM     61  C   UNL A   1      42.737  30.996  33.828  1.00  0.00     0.023 A 
ATOM     62  C   UNL A   1      42.805  31.643  35.080  1.00  0.00     0.012 A 
ATOM     63  C   UNL A   1      42.441  29.624  33.787  1.00  0.00     0.148 A 
ATOM     64  C   UNL A   1      42.603  30.931  36.265  1.00  0.00     0.002 A 
ATOM     65  C   UNL A   1      42.192  28.931  34.963  1.00  0.00     0.091 A 
ATOM     66  F   UNL A   1      42.373  29.027  32.587  1.00  0.00    -0.205 F 
ATOM     67  C   UNL A   1      42.282  29.577  36.206  1.00  0.00     0.022 A 
BRANCH  65  68
ATOM     68  S   UNL A   1      41.643  27.223  34.939  1.00  0.00     0.127 S 
ATOM     69  O   UNL A   1      41.259  27.006  36.332  1.00  0.00    -0.237 OA
ATOM     70  O   UNL A   1      40.525  27.266  33.996  1.00  0.00    -0.237 OA
ATOM     71  O   UNL A   1      42.783  26.443  34.472  1.00  0.00    -0.744 OA
ENDBRANCH  65  68
ENDBRANCH  38  61
ENDBRANCH  12  13
ENDBRANCH   5   7
ENDBRANCH   4   5
ENDBRANCH   3   4
ENDBRANCH   2   3
ENDBRANCH   1   2
BRANCH   1  72
ATOM     72  C   UNL A   1      36.914  23.413  25.346  1.00  0.00     0.202 C 
BRANCH  72  73
ATOM     73  C   UNL A   1      35.866  23.853  26.374  1.00  0.00     0.261 C 
BRANCH  73  74
ATOM     74  O   UNL A   1      34.586  23.256  26.104  1.00  0.00    -0.459 OA
BRANCH  74  75
ATOM     75  C   UNL A   1      34.462  21.936  26.404  1.00  0.00     0.365 C 
ATOM     76  O   UNL A   1      34.434  21.473  27.541  1.00  0.00    -0.245 OA
BRANCH  75  77
ATOM     77  C   UNL A   1      34.266  21.058  25.163  1.00  0.00     0.295 C 
ATOM     78  C   UNL A   1      35.311  19.954  24.959  1.00  0.00     0.087 C 
ATOM     79  N   UNL A   1      32.947  20.368  25.191  1.00  0.00    -0.319 N 
ATOM     80  C   UNL A   1      34.506  18.792  24.433  1.00  0.00     0.054 C 
ATOM     81  C   UNL A   1      33.252  18.927  25.276  1.00  0.00     0.188 C 
ATOM     82  H   UNL A   1      32.382  20.596  26.009  1.00  0.00     0.349 HD
ATOM     83  C   UNL A   1      35.129  17.411  24.509  1.00  0.00     0.010 C 
ATOM     84  C   UNL A   1      32.199  17.872  24.965  1.00  0.00     0.065 C 
ATOM     85  C   UNL A   1      34.090  16.373  24.081  1.00  0.00     0.001 C 
ATOM     86  C   UNL A   1      32.805  16.463  24.912  1.00  0.00     0.006 C 
BRANCH  79  87
ATOM     87  C   UNL A   1      32.012  20.851  24.166  1.00  0.00     0.285 C 
BRANCH  87  88
ATOM     88  C   UNL A   1      31.765  22.362  23.895  1.00  0.00     0.184 C 
BRANCH  88  89
ATOM     89  N   UNL A   1      31.305  23.170  25.003  1.00  0.00    -0.332 N 
ATOM     90  C   UNL A   1      31.326  24.533  25.089  1.00  0.00     0.107 A 
ATOM     91  C   UNL A   1      30.722  22.700  26.149  1.00  0.00     0.199 A 
ATOM     92  C   UNL A   1      30.901  24.813  26.367  1.00  0.00     0.130 A 
ATOM     93  N   UNL A   1      30.500  23.671  27.007  1.00  0.00    -0.245 NA
ENDBRANCH  88  89
ENDBRANCH  87  88
ENDBRANCH  79  87
ENDBRANCH  75  77
ENDBRANCH  74  75
ENDBRANCH  73  74
ENDBRANCH  72  73
ENDBRANCH   1  72
TORSDOF 20
ENDMDL
MODEL 2
REMARK VINA RESULT:     -10.9      3.564      7.805
REMARK SMILES O=C(OCCOCCOC(=O)[C@H]1C[C@H]2CCCC[C@@H]2[N@@H+]1CCn1ccnc1)c1ccc(-c2c3nc(c(-c4cccc(S(=O)(=O)[O-])c4F)c4ccc([nH]4)c(-c4cccc(S(=O)(=O)[O-])c4F)c4nc(c(-c5cccc(S(=O)(=O)[O-])c5F)c5ccc2[nH]5)C=C4)C=C3)cc1
REMARK SMILES IDX 6 1 5 2 4 3 3 4 2 5 1 6 28 7 29 8 90 9 30 10 89 11 31 12
REMARK SMILES IDX 32 13 33 14 83 15 34 16 88 17 82 18 84 19 35 20 87 21 81 22
REMARK SMILES IDX 80 23 36 25 68 26 48 27 67 28 49 29 52 30 66 31 85 32 50 33
REMARK SMILES IDX 51 34 65 36 86 37 53 38 37 39 38 40 46 41 39 42 41 43 47 44
REMARK SMILES IDX 40 45 42 46 43 47 44 48 45 49 69 50 70 51 78 52 71 53 73 54
REMARK SMILES IDX 79 55 72 56 74 57 75 58 76 59 77 60 54 61 55 62 63 63 56 64
REMARK SMILES IDX 58 65 64 66 57 67 59 68 60 69 61 70 62 71 7 72 8 73 9 74
REMARK SMILES IDX 10 75 11 76 12 77 13 78 20 79 14 80 19 81 15 83 18 84 16 85
REMARK SMILES IDX 17 86 21 87 22 88 23 89 24 90 27 91 25 92 26 93
REMARK H PARENT 84 24 52 35 20 82
REMARK Flexibility Score: inf
ROOT
ATOM      1  O   UNL A   1      38.171  22.073  24.833  1.00  0.00    -0.374 OA
ENDROOT
BRANCH   1   2
ATOM      2  C   UNL A   1      38.792  21.221  25.784  1.00  0.00     0.202 C 
BRANCH   2   3
ATOM      3  C   UNL A   1      39.276  19.829  25.350  1.00  0.00     0.261 C 
BRANCH   3   4
ATOM      4  O   UNL A   1      40.443  19.330  26.021  1.00  0.00    -0.460 OA
BRANCH   4   5
ATOM      5  C   UNL A   1      41.737  19.661  25.840  1.00  0.00     0.338 C 
ATOM      6  O   UNL A   1      42.387  19.076  24.977  1.00  0.00    -0.246 OA
BRANCH   5   7
ATOM      7  C   UNL A   1      42.352  20.805  26.560  1.00  0.00     0.060 A 
ATOM      8  C   UNL A   1      42.413  20.914  27.944  1.00  0.00     0.016 A 
ATOM      9  C   UNL A   1      42.753  21.897  25.772  1.00  0.00     0.016 A 
ATOM     10  C   UNL A   1      42.511  22.151  28.524  1.00  0.00     0.010 A 
ATOM     11  C   UNL A   1      42.963  23.131  26.355  1.00  0.00     0.010 A 
ATOM     12  C   UNL A   1      42.709  23.262  27.712  1.00  0.00    -0.014 A 
BRANCH  12  13
ATOM     13  C   UNL A   1      42.715  24.536  28.396  1.00  0.00     0.031 A 
ATOM     14  C   UNL A   1      41.452  25.293  28.213  1.00  0.00     0.074 A 
ATOM     15  C   UNL A   1      43.788  24.952  29.089  1.00  0.00     0.049 A 
ATOM     16  N   UNL A   1      41.275  26.395  27.562  1.00  0.00    -0.248 NA
ATOM     17  C   UNL A   1      40.206  24.609  28.592  1.00  0.00     0.031 C 
ATOM     18  C   UNL A   1      44.960  24.171  29.493  1.00  0.00     0.029 A 
ATOM     19  N   UNL A   1      43.978  26.140  29.716  1.00  0.00    -0.354 N 
ATOM     20  C   UNL A   1      39.911  26.664  27.666  1.00  0.00     0.074 A 
ATOM     21  C   UNL A   1      39.294  25.438  28.089  1.00  0.00     0.031 C 
ATOM     22  C   UNL A   1      45.560  24.796  30.530  1.00  0.00     0.029 A 
ATOM     23  C   UNL A   1      44.896  26.067  30.756  1.00  0.00     0.049 A 
ATOM     24  H   UNL A   1      43.512  26.968  29.462  1.00  0.00     0.167 HD
ATOM     25  C   UNL A   1      39.451  27.945  27.683  1.00  0.00     0.034 A 
ATOM     26  C   UNL A   1      44.993  26.935  31.791  1.00  0.00     0.034 A 
ATOM     27  C   UNL A   1      40.418  28.846  27.101  1.00  0.00     0.049 A 
ATOM     28  C   UNL A   1      44.306  28.186  31.386  1.00  0.00     0.074 A 
ATOM     29  C   UNL A   1      41.023  28.966  25.866  1.00  0.00     0.029 A 
ATOM     30  N   UNL A   1      41.182  29.585  27.972  1.00  0.00    -0.354 N 
ATOM     31  N   UNL A   1      44.737  28.966  30.434  1.00  0.00    -0.248 NA
ATOM     32  C   UNL A   1      42.898  28.329  31.722  1.00  0.00     0.031 C 
ATOM     33  C   UNL A   1      42.357  29.384  26.149  1.00  0.00     0.029 A 
ATOM     34  C   UNL A   1      42.474  29.553  27.529  1.00  0.00     0.049 A 
ATOM     35  H   UNL A   1      40.856  30.056  28.773  1.00  0.00     0.167 HD
ATOM     36  C   UNL A   1      43.587  29.346  29.751  1.00  0.00     0.074 A 
ATOM     37  C   UNL A   1      42.484  29.016  30.652  1.00  0.00     0.031 C 
ATOM     38  C   UNL A   1      43.619  29.610  28.411  1.00  0.00     0.034 A 
BRANCH  25  39
ATOM     39  C   UNL A   1      38.378  28.447  28.640  1.00  0.00     0.023 A 
ATOM     40  C   UNL A   1      37.328  29.202  28.068  1.00  0.00     0.012 A 
ATOM     41  C   UNL A   1      38.504  28.507  30.049  1.00  0.00     0.148 A 
ATOM     42  C   UNL A   1      36.548  30.075  28.833  1.00  0.00     0.002 A 
ATOM     43  C   UNL A   1      37.694  29.340  30.812  1.00  0.00     0.091 A 
ATOM     44  F   UNL A   1      39.466  27.839  30.679  1.00  0.00    -0.205 F 
ATOM     45  C   UNL A   1      36.742  30.157  30.204  1.00  0.00     0.022 A 
BRANCH  43  46
ATOM     46  S   UNL A   1      37.891  29.465  32.596  1.00  0.00     0.127 S 
ATOM     47  O   UNL A   1      36.896  30.481  32.925  1.00  0.00    -0.237 OA
ATOM     48  O   UNL A   1      37.561  28.106  33.025  1.00  0.00    -0.237 OA
ATOM     49  O   UNL A   1      39.282  29.841  32.822  1.00  0.00    -0.744 OA
ENDBRANCH  43  46
ENDBRANCH  25  39
BRANCH  26  50
ATOM     50  C   UNL A   1      45.330  26.639  33.202  1.00  0.00     0.023 A 
ATOM     51  C   UNL A   1      46.159  27.523  33.919  1.00  0.00     0.012 A 
ATOM     52  C   UNL A   1      44.638  25.640  33.927  1.00  0.00     0.148 A 
ATOM     53  C   UNL A   1      46.278  27.430  35.310  1.00  0.00     0.002 A 
ATOM     54  C   UNL A   1      44.771  25.543  35.308  1.00  0.00     0.091 A 
ATOM     55  F   UNL A   1      43.778  24.846  33.276  1.00  0.00    -0.205 F 
ATOM     56  C   UNL A   1      45.581  26.445  36.005  1.00  0.00     0.022 A 
BRANCH  54  57
ATOM     57  S   UNL A   1      43.887  24.302  36.264  1.00  0.00     0.127 S 
ATOM     58  O   UNL A   1      44.378  24.564  37.622  1.00  0.00    -0.237 OA
ATOM     59  O   UNL A   1      42.491  24.689  36.040  1.00  0.00    -0.237 OA
ATOM     60  O   UNL A   1      44.282  23.018  35.722  1.00  0.00    -0.744 OA
ENDBRANCH  54  57
ENDBRANCH  26  50
BRANCH  38  61
ATOM     61  C   UNL A   1      44.963  29.724  27.740  1.00  0.00     0.023 A 
ATOM     62  C   UNL A   1      45.717  30.916  27.753  1.00  0.00     0.012 A 
ATOM     63  C   UNL A   1      45.556  28.549  27.249  1.00  0.00     0.148 A 
ATOM     64  C   UNL A   1      47.027  30.939  27.267  1.00  0.00     0.002 A 
ATOM     65  C   UNL A   1      46.874  28.565  26.813  1.00  0.00     0.091 A 
ATOM     66  F   UNL A   1      44.826  27.423  27.252  1.00  0.00    -0.205 F 
ATOM     67  C   UNL A   1      47.610  29.759  26.810  1.00  0.00     0.022 A 
BRANCH  65  68
ATOM     68  S   UNL A   1      47.717  27.053  26.342  1.00  0.00     0.127 S 
ATOM     69  O   UNL A   1      46.989  26.660  25.138  1.00  0.00    -0.237 OA
ATOM     70  O   UNL A   1      49.085  27.517  26.106  1.00  0.00    -0.237 OA
ATOM     71  O   UNL A   1      47.585  26.151  27.479  1.00  0.00    -0.744 OA
ENDBRANCH  65  68
ENDBRANCH  38  61
ENDBRANCH  12  13
ENDBRANCH   5   7
ENDBRANCH   4   5
ENDBRANCH   3   4
ENDBRANCH   2   3
ENDBRANCH   1   2
BRANCH   1  72
ATOM     72  C   UNL A   1      36.856  22.591  25.061  1.00  0.00     0.202 C 
BRANCH  72  73
ATOM     73  C   UNL A   1      36.500  23.225  26.410  1.00  0.00     0.261 C 
BRANCH  73  74
ATOM     74  O   UNL A   1      35.114  23.602  26.461  1.00  0.00    -0.459 OA
BRANCH  74  75
ATOM     75  C   UNL A   1      34.214  22.585  26.532  1.00  0.00     0.365 C 
ATOM     76  O   UNL A   1      34.304  21.618  27.285  1.00  0.00    -0.245 OA
BRANCH  75  77
ATOM     77  C   UNL A   1      32.997  22.799  25.625  1.00  0.00     0.295 C 
ATOM     78  C   UNL A   1      32.402  24.213  25.634  1.00  0.00     0.087 C 
ATOM     79  N   UNL A   1      33.324  22.506  24.202  1.00  0.00    -0.319 N 
ATOM     80  C   UNL A   1      32.011  24.445  24.196  1.00  0.00     0.054 C 
ATOM     81  C   UNL A   1      33.178  23.787  23.486  1.00  0.00     0.188 C 
ATOM     82  H   UNL A   1      34.286  22.197  24.057  1.00  0.00     0.349 HD
ATOM     83  C   UNL A   1      31.773  25.877  23.753  1.00  0.00     0.010 C 
ATOM     84  C   UNL A   1      33.071  23.842  21.968  1.00  0.00     0.065 C 
ATOM     85  C   UNL A   1      31.552  25.897  22.239  1.00  0.00     0.001 C 
ATOM     86  C   UNL A   1      32.713  25.251  21.476  1.00  0.00     0.006 C 
BRANCH  79  87
ATOM     87  C   UNL A   1      32.653  21.306  23.683  1.00  0.00     0.285 C 
BRANCH  87  88
ATOM     88  C   UNL A   1      32.414  20.034  24.545  1.00  0.00     0.184 C 
BRANCH  88  89
ATOM     89  N   UNL A   1      32.867  18.770  24.007  1.00  0.00    -0.332 N 
ATOM     90  C   UNL A   1      33.627  17.833  24.644  1.00  0.00     0.107 A 
ATOM     91  C   UNL A   1      32.566  18.275  22.767  1.00  0.00     0.199 A 
ATOM     92  C   UNL A   1      33.890  16.880  23.687  1.00  0.00     0.130 A 
ATOM     93  N   UNL A   1      33.201  17.149  22.534  1.00  0.00    -0.245 NA
ENDBRANCH  88  89
ENDBRANCH  87  88
ENDBRANCH  79  87
ENDBRANCH  75  77
ENDBRANCH  74  75
ENDBRANCH  73  74
ENDBRANCH  72  73
ENDBRANCH   1  72
TORSDOF 20
ENDMDL
MODEL 3
REMARK VINA RESULT:     -10.9      3.072      8.559
REMARK SMILES O=C(OCCOCCOC(=O)[C@H]1C[C@H]2CCCC[C@@H]2[N@@H+]1CCn1ccnc1)c1ccc(-c2c3nc(c(-c4cccc(S(=O)(=O)[O-])c4F)c4ccc([nH]4)c(-c4cccc(S(=O)(=O)[O-])c4F)c4nc(c(-c5cccc(S(=O)(=O)[O-])c5F)c5ccc2[nH]5)C=C4)C=C3)cc1
REMARK SMILES IDX 6 1 5 2 4 3 3 4 2 5 1 6 28 7 29 8 90 9 30 10 89 11 31 12
REMARK SMILES IDX 32 13 33 14 83 15 34 16 88 17 82 18 84 19 35 20 87 21 81 22
REMARK SMILES IDX 80 23 36 25 68 26 48 27 67 28 49 29 52 30 66 31 85 32 50 33
REMARK SMILES IDX 51 34 65 36 86 37 53 38 37 39 38 40 46 41 39 42 41 43 47 44
REMARK SMILES IDX 40 45 42 46 43 47 44 48 45 49 69 50 70 51 78 52 71 53 73 54
REMARK SMILES IDX 79 55 72 56 74 57 75 58 76 59 77 60 54 61 55 62 63 63 56 64
REMARK SMILES IDX 58 65 64 66 57 67 59 68 60 69 61 70 62 71 7 72 8 73 9 74
REMARK SMILES IDX 10 75 11 76 12 77 13 78 20 79 14 80 19 81 15 83 18 84 16 85
REMARK SMILES IDX 17 86 21 87 22 88 23 89 24 90 27 91 25 92 26 93
REMARK H PARENT 84 24 52 35 20 82
REMARK Flexibility Score: inf
ROOT
ATOM      1  O   UNL A   1      32.370  27.999  25.949  1.00  0.00    -0.374 OA
ENDROOT
BRANCH   1   2
ATOM      2  C   UNL A   1      33.128  28.679  26.936  1.00  0.00     0.202 C 
BRANCH   2   3
ATOM      3  C   UNL A   1      33.623  30.107  26.660  1.00  0.00     0.261 C 
BRANCH   3   4
ATOM      4  O   UNL A   1      34.076  30.850  27.802  1.00  0.00    -0.460 OA
BRANCH   4   5
ATOM      5  C   UNL A   1      35.213  31.555  27.964  1.00  0.00     0.338 C 
ATOM      6  O   UNL A   1      35.226  32.746  27.658  1.00  0.00    -0.246 OA
BRANCH   5   7
ATOM      7  C   UNL A   1      36.403  30.966  28.630  1.00  0.00     0.060 A 
ATOM      8  C   UNL A   1      37.460  31.708  29.140  1.00  0.00     0.016 A 
ATOM      9  C   UNL A   1      36.508  29.565  28.594  1.00  0.00     0.016 A 
ATOM     10  C   UNL A   1      38.696  31.132  29.265  1.00  0.00     0.010 A 
ATOM     11  C   UNL A   1      37.727  28.956  28.824  1.00  0.00     0.010 A 
ATOM     12  C   UNL A   1      38.832  29.770  29.029  1.00  0.00    -0.014 A 
BRANCH  12  13
ATOM     13  C   UNL A   1      40.184  29.261  29.098  1.00  0.00     0.031 A 
ATOM     14  C   UNL A   1      40.723  29.245  30.479  1.00  0.00     0.074 A 
ATOM     15  C   UNL A   1      40.844  28.881  27.991  1.00  0.00     0.049 A 
ATOM     16  N   UNL A   1      41.679  29.966  30.967  1.00  0.00    -0.248 NA
ATOM     17  C   UNL A   1      39.940  28.518  31.491  1.00  0.00     0.031 C 
ATOM     18  C   UNL A   1      40.302  28.660  26.648  1.00  0.00     0.029 A 
ATOM     19  N   UNL A   1      42.128  28.457  27.879  1.00  0.00    -0.354 N 
ATOM     20  C   UNL A   1      41.770  29.591  32.307  1.00  0.00     0.074 A 
ATOM     21  C   UNL A   1      40.550  28.899  32.611  1.00  0.00     0.031 C 
ATOM     22  C   UNL A   1      41.154  27.866  25.962  1.00  0.00     0.029 A 
ATOM     23  C   UNL A   1      42.341  27.650  26.769  1.00  0.00     0.049 A 
ATOM     24  H   UNL A   1      42.836  28.698  28.519  1.00  0.00     0.167 HD
ATOM     25  C   UNL A   1      42.964  29.625  32.961  1.00  0.00     0.034 A 
ATOM     26  C   UNL A   1      43.362  26.773  26.611  1.00  0.00     0.034 A 
ATOM     27  C   UNL A   1      43.890  30.511  32.297  1.00  0.00     0.049 A 
ATOM     28  C   UNL A   1      44.430  27.159  27.565  1.00  0.00     0.074 A 
ATOM     29  C   UNL A   1      43.903  31.855  31.984  1.00  0.00     0.029 A 
ATOM     30  N   UNL A   1      44.850  29.928  31.506  1.00  0.00    -0.354 N 
ATOM     31  N   UNL A   1      45.107  28.270  27.472  1.00  0.00    -0.248 NA
ATOM     32  C   UNL A   1      44.427  26.536  28.880  1.00  0.00     0.031 C 
ATOM     33  C   UNL A   1      44.538  31.931  30.709  1.00  0.00     0.029 A 
ATOM     34  C   UNL A   1      44.929  30.641  30.344  1.00  0.00     0.049 A 
ATOM     35  H   UNL A   1      45.388  29.136  31.737  1.00  0.00     0.167 HD
ATOM     36  C   UNL A   1      45.218  28.718  28.784  1.00  0.00     0.074 A 
ATOM     37  C   UNL A   1      44.880  27.560  29.610  1.00  0.00     0.031 C 
ATOM     38  C   UNL A   1      45.276  30.052  29.069  1.00  0.00     0.034 A 
BRANCH  25  39
ATOM     39  C   UNL A   1      43.453  28.518  33.885  1.00  0.00     0.023 A 
ATOM     40  C   UNL A   1      43.909  28.921  35.162  1.00  0.00     0.012 A 
ATOM     41  C   UNL A   1      43.792  27.205  33.480  1.00  0.00     0.148 A 
ATOM     42  C   UNL A   1      44.770  28.122  35.922  1.00  0.00     0.002 A 
ATOM     43  C   UNL A   1      44.609  26.395  34.259  1.00  0.00     0.091 A 
ATOM     44  F   UNL A   1      43.417  26.737  32.292  1.00  0.00    -0.205 F 
ATOM     45  C   UNL A   1      45.134  26.865  35.462  1.00  0.00     0.022 A 
BRANCH  43  46
ATOM     46  S   UNL A   1      45.093  24.748  33.719  1.00  0.00     0.127 S 
ATOM     47  O   UNL A   1      43.795  24.149  33.424  1.00  0.00    -0.237 OA
ATOM     48  O   UNL A   1      45.918  25.053  32.550  1.00  0.00    -0.237 OA
ATOM     49  O   UNL A   1      45.827  24.160  34.832  1.00  0.00    -0.744 OA
ENDBRANCH  43  46
ENDBRANCH  25  39
BRANCH  26  50
ATOM     50  C   UNL A   1      43.333  25.448  25.950  1.00  0.00     0.023 A 
ATOM     51  C   UNL A   1      44.329  25.118  25.011  1.00  0.00     0.012 A 
ATOM     52  C   UNL A   1      42.492  24.412  26.421  1.00  0.00     0.148 A 
ATOM     53  C   UNL A   1      44.498  23.799  24.575  1.00  0.00     0.002 A 
ATOM     54  C   UNL A   1      42.655  23.105  25.973  1.00  0.00     0.091 A 
ATOM     55  F   UNL A   1      41.597  24.689  27.378  1.00  0.00    -0.205 F 
ATOM     56  C   UNL A   1      43.665  22.792  25.058  1.00  0.00     0.022 A 
BRANCH  54  57
ATOM     57  S   UNL A   1      41.622  21.759  26.570  1.00  0.00     0.127 S 
ATOM     58  O   UNL A   1      42.052  20.649  25.712  1.00  0.00    -0.237 OA
ATOM     59  O   UNL A   1      42.052  21.647  27.966  1.00  0.00    -0.237 OA
ATOM     60  O   UNL A   1      40.251  22.179  26.362  1.00  0.00    -0.744 OA
ENDBRANCH  54  57
ENDBRANCH  26  50
BRANCH  38  61
ATOM     61  C   UNL A   1      45.471  31.016  27.928  1.00  0.00     0.023 A 
ATOM     62  C   UNL A   1      44.388  31.572  27.214  1.00  0.00     0.012 A 
ATOM     63  C   UNL A   1      46.764  31.510  27.696  1.00  0.00     0.148 A 
ATOM     64  C   UNL A   1      44.596  32.586  26.275  1.00  0.00     0.002 A 
ATOM     65  C   UNL A   1      46.961  32.550  26.798  1.00  0.00     0.091 A 
ATOM     66  F   UNL A   1      47.781  30.974  28.389  1.00  0.00    -0.205 F 
ATOM     67  C   UNL A   1      45.882  33.085  26.077  1.00  0.00     0.022 A 
BRANCH  65  68
ATOM     68  S   UNL A   1      48.569  33.321  26.604  1.00  0.00     0.127 S 
ATOM     69  O   UNL A   1      49.442  32.165  26.417  1.00  0.00    -0.237 OA
ATOM     70  O   UNL A   1      48.380  34.144  25.408  1.00  0.00    -0.237 OA
ATOM     71  O   UNL A   1      48.794  34.089  27.822  1.00  0.00    -0.744 OA
ENDBRANCH  65  68
ENDBRANCH  38  61
ENDBRANCH  12  13
ENDBRANCH   5   7
ENDBRANCH   4   5
ENDBRANCH   3   4
ENDBRANCH   2   3
ENDBRANCH   1   2
BRANCH   1  72
ATOM     72  C   UNL A   1      31.052  27.517  26.238  1.00  0.00     0.202 C 
BRANCH  72  73
ATOM     73  C   UNL A   1      30.737  26.021  26.124  1.00  0.00     0.261 C 
BRANCH  73  74
ATOM     74  O   UNL A   1      31.800  25.221  26.668  1.00  0.00    -0.459 OA
BRANCH  74  75
ATOM     75  C   UNL A   1      31.608  23.875  26.657  1.00  0.00     0.365 C 
ATOM     76  O   UNL A   1      30.948  23.253  27.486  1.00  0.00    -0.245 OA
BRANCH  75  77
ATOM     77  C   UNL A   1      32.233  23.192  25.436  1.00  0.00     0.295 C 
ATOM     78  C   UNL A   1      33.170  24.065  24.593  1.00  0.00     0.087 C 
ATOM     79  N   UNL A   1      33.036  22.003  25.834  1.00  0.00    -0.319 N 
ATOM     80  C   UNL A   1      34.274  23.120  24.189  1.00  0.00     0.054 C 
ATOM     81  C   UNL A   1      34.430  22.320  25.469  1.00  0.00     0.188 C 
ATOM     82  H   UNL A   1      33.031  21.821  26.838  1.00  0.00     0.349 HD
ATOM     83  C   UNL A   1      35.577  23.725  23.701  1.00  0.00     0.010 C 
ATOM     84  C   UNL A   1      35.494  21.236  25.378  1.00  0.00     0.065 C 
ATOM     85  C   UNL A   1      36.601  22.605  23.505  1.00  0.00     0.001 C 
ATOM     86  C   UNL A   1      36.801  21.773  24.777  1.00  0.00     0.006 C 
BRANCH  79  87
ATOM     87  C   UNL A   1      32.446  20.728  25.402  1.00  0.00     0.285 C 
BRANCH  87  88
ATOM     88  C   UNL A   1      32.520  20.219  23.935  1.00  0.00     0.184 C 
BRANCH  88  89
ATOM     89  N   UNL A   1      33.016  18.878  23.719  1.00  0.00    -0.332 N 
ATOM     90  C   UNL A   1      33.957  18.222  24.460  1.00  0.00     0.107 A 
ATOM     91  C   UNL A   1      32.585  18.011  22.751  1.00  0.00     0.199 A 
ATOM     92  C   UNL A   1      34.170  17.038  23.793  1.00  0.00     0.130 A 
ATOM     93  N   UNL A   1      33.292  16.904  22.750  1.00  0.00    -0.245 NA
ENDBRANCH  88  89
ENDBRANCH  87  88
ENDBRANCH  79  87
ENDBRANCH  75  77
ENDBRANCH  74  75
ENDBRANCH  73  74
ENDBRANCH  72  73
ENDBRANCH   1  72
TORSDOF 20
ENDMDL
