MODEL 1
REMARK VINA RESULT:     -11.4      0.000      0.000
REMARK SMILES O=C(OCCOCCOC(=O)c1ccc(-n2cnc3ccccc32)nc1)c1ccc(-c2c3nc(c(-c4cccc(S(=O)(=O)[O-])c4F)c4ccc([nH]4)c(-c4cccc(S(=O)(=O)[O-])c4F)c4nc(c(-c5cccc(S(=O)(=O)[O-])c5F)c5ccc2[nH]5)C=C4)C=C3)cc1
REMARK SMILES IDX 5 1 4 2 3 3 2 4 1 5 27 6 28 7 89 8 29 9 88 10 30 11 31 12
REMARK SMILES IDX 32 13 82 14 33 15 87 16 81 17 83 18 34 19 86 20 80 21 79 22
REMARK SMILES IDX 35 24 67 25 47 26 66 27 48 28 51 29 65 30 84 31 49 32 50 33
REMARK SMILES IDX 64 35 85 36 52 37 36 38 37 39 45 40 38 41 40 42 46 43 39 44
REMARK SMILES IDX 41 45 42 46 43 47 44 48 68 49 69 50 77 51 70 52 72 53 78 54
REMARK SMILES IDX 71 55 73 56 74 57 75 58 76 59 53 60 54 61 62 62 55 63 57 64
REMARK SMILES IDX 63 65 56 66 58 67 59 68 60 69 61 70 6 71 7 72 8 73 9 74
REMARK SMILES IDX 10 75 11 76 12 77 13 78 26 79 14 80 25 81 15 82 16 83 17 84
REMARK SMILES IDX 24 85 18 86 19 87 23 88 20 89 22 90 21 91
REMARK H PARENT 83 23 51 34
REMARK Flexibility Score: inf
ROOT
ATOM      1  C   UNL A   1      34.764  32.811  28.064  1.00  0.00     0.202 C 
ENDROOT
BRANCH   1   2
ATOM      2  C   UNL A   1      34.601  33.650  29.331  1.00  0.00     0.261 C 
BRANCH   2   3
ATOM      3  O   UNL A   1      34.409  32.930  30.582  1.00  0.00    -0.460 OA
BRANCH   3   4
ATOM      4  C   UNL A   1      35.317  32.264  31.358  1.00  0.00     0.338 C 
ATOM      5  O   UNL A   1      35.237  32.339  32.582  1.00  0.00    -0.246 OA
BRANCH   4   6
ATOM      6  C   UNL A   1      36.479  31.556  30.749  1.00  0.00     0.060 A 
ATOM      7  C   UNL A   1      36.350  30.179  30.474  1.00  0.00     0.016 A 
ATOM      8  C   UNL A   1      37.730  32.153  30.672  1.00  0.00     0.016 A 
ATOM      9  C   UNL A   1      37.494  29.377  30.333  1.00  0.00     0.010 A 
ATOM     10  C   UNL A   1      38.859  31.337  30.644  1.00  0.00     0.010 A 
ATOM     11  C   UNL A   1      38.764  29.933  30.526  1.00  0.00    -0.014 A 
BRANCH  11  12
ATOM     12  C   UNL A   1      40.002  29.196  30.155  1.00  0.00     0.031 A 
ATOM     13  C   UNL A   1      40.712  28.942  31.431  1.00  0.00     0.074 A 
ATOM     14  C   UNL A   1      40.505  28.706  28.987  1.00  0.00     0.049 A 
ATOM     15  N   UNL A   1      41.672  29.686  31.878  1.00  0.00    -0.248 NA
ATOM     16  C   UNL A   1      40.118  28.051  32.444  1.00  0.00     0.031 C 
ATOM     17  C   UNL A   1      39.999  28.792  27.622  1.00  0.00     0.029 A 
ATOM     18  N   UNL A   1      41.602  27.900  28.779  1.00  0.00    -0.354 N 
ATOM     19  C   UNL A   1      41.969  29.143  33.113  1.00  0.00     0.074 A 
ATOM     20  C   UNL A   1      40.815  28.397  33.528  1.00  0.00     0.031 C 
ATOM     21  C   UNL A   1      40.513  27.819  26.833  1.00  0.00     0.029 A 
ATOM     22  C   UNL A   1      41.599  27.200  27.559  1.00  0.00     0.049 A 
ATOM     23  H   UNL A   1      42.332  27.819  29.435  1.00  0.00     0.167 HD
ATOM     24  C   UNL A   1      43.261  28.997  33.494  1.00  0.00     0.034 A 
ATOM     25  C   UNL A   1      42.490  26.271  27.113  1.00  0.00     0.034 A 
ATOM     26  C   UNL A   1      44.148  29.780  32.674  1.00  0.00     0.049 A 
ATOM     27  C   UNL A   1      43.740  26.582  27.820  1.00  0.00     0.074 A 
ATOM     28  C   UNL A   1      44.291  31.121  32.382  1.00  0.00     0.029 A 
ATOM     29  N   UNL A   1      44.753  29.081  31.662  1.00  0.00    -0.354 N 
ATOM     30  N   UNL A   1      44.436  27.661  27.606  1.00  0.00    -0.248 NA
ATOM     31  C   UNL A   1      44.026  25.863  29.046  1.00  0.00     0.031 C 
ATOM     32  C   UNL A   1      44.704  31.173  31.019  1.00  0.00     0.029 A 
ATOM     33  C   UNL A   1      44.864  29.869  30.550  1.00  0.00     0.049 A 
ATOM     34  H   UNL A   1      45.061  28.148  31.726  1.00  0.00     0.167 HD
ATOM     35  C   UNL A   1      44.856  28.021  28.874  1.00  0.00     0.074 A 
ATOM     36  C   UNL A   1      44.717  26.811  29.682  1.00  0.00     0.031 C 
ATOM     37  C   UNL A   1      44.971  29.336  29.210  1.00  0.00     0.034 A 
BRANCH  24  38
ATOM     38  C   UNL A   1      43.727  27.794  34.268  1.00  0.00     0.023 A 
ATOM     39  C   UNL A   1      44.404  28.018  35.478  1.00  0.00     0.012 A 
ATOM     40  C   UNL A   1      43.736  26.474  33.754  1.00  0.00     0.148 A 
ATOM     41  C   UNL A   1      45.025  26.968  36.160  1.00  0.00     0.002 A 
ATOM     42  C   UNL A   1      44.262  25.419  34.483  1.00  0.00     0.091 A 
ATOM     43  F   UNL A   1      43.373  26.245  32.488  1.00  0.00    -0.205 F 
ATOM     44  C   UNL A   1      44.927  25.664  35.681  1.00  0.00     0.022 A 
BRANCH  42  45
ATOM     45  S   UNL A   1      44.113  23.721  33.913  1.00  0.00     0.127 S 
ATOM     46  O   UNL A   1      45.177  23.066  34.665  1.00  0.00    -0.237 OA
ATOM     47  O   UNL A   1      42.753  23.385  34.337  1.00  0.00    -0.237 OA
ATOM     48  O   UNL A   1      44.288  23.778  32.468  1.00  0.00    -0.744 OA
ENDBRANCH  42  45
ENDBRANCH  24  38
BRANCH  25  49
ATOM     49  C   UNL A   1      42.389  25.029  26.289  1.00  0.00     0.023 A 
ATOM     50  C   UNL A   1      43.446  24.719  25.394  1.00  0.00     0.012 A 
ATOM     51  C   UNL A   1      41.499  23.991  26.624  1.00  0.00     0.148 A 
ATOM     52  C   UNL A   1      43.681  23.411  24.952  1.00  0.00     0.002 A 
ATOM     53  C   UNL A   1      41.733  22.687  26.173  1.00  0.00     0.091 A 
ATOM     54  F   UNL A   1      40.478  24.260  27.447  1.00  0.00    -0.205 F 
ATOM     55  C   UNL A   1      42.839  22.388  25.363  1.00  0.00     0.022 A 
BRANCH  53  56
ATOM     56  S   UNL A   1      40.684  21.305  26.646  1.00  0.00     0.127 S 
ATOM     57  O   UNL A   1      41.389  20.169  26.049  1.00  0.00    -0.237 OA
ATOM     58  O   UNL A   1      40.741  21.365  28.104  1.00  0.00    -0.237 OA
ATOM     59  O   UNL A   1      39.389  21.590  26.043  1.00  0.00    -0.744 OA
ENDBRANCH  53  56
ENDBRANCH  25  49
BRANCH  37  60
ATOM     60  C   UNL A   1      45.050  30.346  28.095  1.00  0.00     0.023 A 
ATOM     61  C   UNL A   1      43.919  30.859  27.425  1.00  0.00     0.012 A 
ATOM     62  C   UNL A   1      46.308  30.918  27.854  1.00  0.00     0.148 A 
ATOM     63  C   UNL A   1      44.049  31.940  26.544  1.00  0.00     0.002 A 
ATOM     64  C   UNL A   1      46.426  32.015  27.013  1.00  0.00     0.091 A 
ATOM     65  F   UNL A   1      47.366  30.401  28.497  1.00  0.00    -0.205 F 
ATOM     66  C   UNL A   1      45.299  32.529  26.353  1.00  0.00     0.022 A 
BRANCH  64  67
ATOM     67  S   UNL A   1      47.983  32.881  26.814  1.00  0.00     0.127 S 
ATOM     68  O   UNL A   1      47.662  33.848  25.767  1.00  0.00    -0.237 OA
ATOM     69  O   UNL A   1      48.186  33.459  28.143  1.00  0.00    -0.237 OA
ATOM     70  O   UNL A   1      48.968  31.871  26.442  1.00  0.00    -0.744 OA
ENDBRANCH  64  67
ENDBRANCH  37  60
ENDBRANCH  11  12
ENDBRANCH   4   6
ENDBRANCH   3   4
ENDBRANCH   2   3
ENDBRANCH   1   2
BRANCH   1  71
ATOM     71  O   UNL A   1      33.675  31.932  27.912  1.00  0.00    -0.374 OA
BRANCH  71  72
ATOM     72  C   UNL A   1      33.830  30.684  27.281  1.00  0.00     0.202 C 
BRANCH  72  73
ATOM     73  C   UNL A   1      32.495  29.942  27.258  1.00  0.00     0.261 C 
BRANCH  73  74
ATOM     74  O   UNL A   1      32.746  28.532  27.192  1.00  0.00    -0.460 OA
BRANCH  74  75
ATOM     75  C   UNL A   1      32.090  27.876  26.212  1.00  0.00     0.339 C 
ATOM     76  O   UNL A   1      31.204  28.284  25.478  1.00  0.00    -0.246 OA
BRANCH  75  77
ATOM     77  C   UNL A   1      32.693  26.597  25.960  1.00  0.00     0.078 A 
ATOM     78  C   UNL A   1      33.912  26.483  25.315  1.00  0.00     0.021 A 
ATOM     79  C   UNL A   1      31.958  25.469  26.316  1.00  0.00     0.129 A 
ATOM     80  C   UNL A   1      34.371  25.212  25.073  1.00  0.00     0.048 A 
ATOM     81  N   UNL A   1      32.323  24.225  25.976  1.00  0.00    -0.238 NA
ATOM     82  C   UNL A   1      33.555  24.133  25.437  1.00  0.00     0.138 A 
BRANCH  82  83
ATOM     83  N   UNL A   1      34.147  22.874  25.424  1.00  0.00    -0.283 N 
ATOM     84  C   UNL A   1      35.325  22.505  26.010  1.00  0.00     0.206 A 
ATOM     85  C   UNL A   1      33.612  21.775  24.804  1.00  0.00     0.074 A 
ATOM     86  N   UNL A   1      35.473  21.196  25.996  1.00  0.00    -0.236 NA
ATOM     87  C   UNL A   1      34.432  20.735  25.212  1.00  0.00     0.089 A 
ATOM     88  C   UNL A   1      32.554  21.633  23.896  1.00  0.00     0.029 A 
ATOM     89  C   UNL A   1      34.126  19.442  24.770  1.00  0.00     0.030 A 
ATOM     90  C   UNL A   1      32.295  20.348  23.433  1.00  0.00     0.002 A 
ATOM     91  C   UNL A   1      33.053  19.266  23.879  1.00  0.00     0.002 A 
ENDBRANCH  82  83
ENDBRANCH  75  77
ENDBRANCH  74  75
ENDBRANCH  73  74
ENDBRANCH  72  73
ENDBRANCH  71  72
ENDBRANCH   1  71
TORSDOF 18
ENDMDL
MODEL 2
REMARK VINA RESULT:     -11.1      3.567      6.697
REMARK SMILES O=C(OCCOCCOC(=O)c1ccc(-n2cnc3ccccc32)nc1)c1ccc(-c2c3nc(c(-c4cccc(S(=O)(=O)[O-])c4F)c4ccc([nH]4)c(-c4cccc(S(=O)(=O)[O-])c4F)c4nc(c(-c5cccc(S(=O)(=O)[O-])c5F)c5ccc2[nH]5)C=C4)C=C3)cc1
REMARK SMILES IDX 5 1 4 2 3 3 2 4 1 5 27 6 28 7 89 8 29 9 88 10 30 11 31 12
REMARK SMILES IDX 32 13 82 14 33 15 87 16 81 17 83 18 34 19 86 20 80 21 79 22
REMARK SMILES IDX 35 24 67 25 47 26 66 27 48 28 51 29 65 30 84 31 49 32 50 33
REMARK SMILES IDX 64 35 85 36 52 37 36 38 37 39 45 40 38 41 40 42 46 43 39 44
REMARK SMILES IDX 41 45 42 46 43 47 44 48 68 49 69 50 77 51 70 52 72 53 78 54
REMARK SMILES IDX 71 55 73 56 74 57 75 58 76 59 53 60 54 61 62 62 55 63 57 64
REMARK SMILES IDX 63 65 56 66 58 67 59 68 60 69 61 70 6 71 7 72 8 73 9 74
REMARK SMILES IDX 10 75 11 76 12 77 13 78 26 79 14 80 25 81 15 82 16 83 17 84
REMARK SMILES IDX 24 85 18 86 19 87 23 88 20 89 22 90 21 91
REMARK H PARENT 83 23 51 34
REMARK Flexibility Score: inf
ROOT
ATOM      1  C   UNL A   1      36.115  33.145  29.432  1.00  0.00     0.202 C 
ENDROOT
BRANCH   1   2
ATOM      2  C   UNL A   1      37.450  32.655  28.874  1.00  0.00     0.261 C 
BRANCH   2   3
ATOM      3  O   UNL A   1      37.719  31.227  28.955  1.00  0.00    -0.460 OA
BRANCH   3   4
ATOM      4  C   UNL A   1      37.704  30.274  27.974  1.00  0.00     0.338 C 
ATOM      5  O   UNL A   1      36.691  30.122  27.295  1.00  0.00    -0.246 OA
BRANCH   4   6
ATOM      6  C   UNL A   1      38.845  29.330  27.799  1.00  0.00     0.060 A 
ATOM      7  C   UNL A   1      39.387  28.722  28.949  1.00  0.00     0.016 A 
ATOM      8  C   UNL A   1      39.520  29.228  26.589  1.00  0.00     0.016 A 
ATOM      9  C   UNL A   1      40.691  28.202  28.924  1.00  0.00     0.010 A 
ATOM     10  C   UNL A   1      40.850  28.814  26.601  1.00  0.00     0.010 A 
ATOM     11  C   UNL A   1      41.477  28.341  27.774  1.00  0.00    -0.014 A 
BRANCH  11  12
ATOM     12  C   UNL A   1      42.760  27.605  27.612  1.00  0.00     0.031 A 
ATOM     13  C   UNL A   1      42.389  26.173  27.525  1.00  0.00     0.074 A 
ATOM     14  C   UNL A   1      44.062  27.980  27.474  1.00  0.00     0.049 A 
ATOM     15  N   UNL A   1      42.420  25.362  28.534  1.00  0.00    -0.248 NA
ATOM     16  C   UNL A   1      41.606  25.678  26.378  1.00  0.00     0.031 C 
ATOM     17  C   UNL A   1      44.680  29.302  27.494  1.00  0.00     0.029 A 
ATOM     18  N   UNL A   1      45.165  27.211  27.179  1.00  0.00    -0.354 N 
ATOM     19  C   UNL A   1      41.918  24.179  28.027  1.00  0.00     0.074 A 
ATOM     20  C   UNL A   1      41.159  24.516  26.856  1.00  0.00     0.031 C 
ATOM     21  C   UNL A   1      45.886  29.302  26.878  1.00  0.00     0.029 A 
ATOM     22  C   UNL A   1      46.261  27.923  26.657  1.00  0.00     0.049 A 
ATOM     23  H   UNL A   1      45.185  26.237  27.321  1.00  0.00     0.167 HD
ATOM     24  C   UNL A   1      42.504  23.001  28.354  1.00  0.00     0.034 A 
ATOM     25  C   UNL A   1      47.445  27.435  26.194  1.00  0.00     0.034 A 
ATOM     26  C   UNL A   1      43.369  23.138  29.496  1.00  0.00     0.049 A 
ATOM     27  C   UNL A   1      47.621  26.154  26.891  1.00  0.00     0.074 A 
ATOM     28  C   UNL A   1      43.209  23.527  30.810  1.00  0.00     0.029 A 
ATOM     29  N   UNL A   1      44.696  23.290  29.189  1.00  0.00    -0.354 N 
ATOM     30  N   UNL A   1      47.839  26.057  28.170  1.00  0.00    -0.248 NA
ATOM     31  C   UNL A   1      47.178  24.947  26.219  1.00  0.00     0.031 C 
ATOM     32  C   UNL A   1      44.409  24.214  31.154  1.00  0.00     0.029 A 
ATOM     33  C   UNL A   1      45.282  24.161  30.066  1.00  0.00     0.049 A 
ATOM     34  H   UNL A   1      45.159  22.840  28.446  1.00  0.00     0.167 HD
ATOM     35  C   UNL A   1      47.085  24.956  28.536  1.00  0.00     0.074 A 
ATOM     36  C   UNL A   1      46.839  24.230  27.292  1.00  0.00     0.031 C 
ATOM     37  C   UNL A   1      46.474  24.918  29.753  1.00  0.00     0.034 A 
BRANCH  24  38
ATOM     38  C   UNL A   1      42.656  21.888  27.353  1.00  0.00     0.023 A 
ATOM     39  C   UNL A   1      42.003  20.675  27.621  1.00  0.00     0.012 A 
ATOM     40  C   UNL A   1      43.590  21.901  26.287  1.00  0.00     0.148 A 
ATOM     41  C   UNL A   1      42.242  19.540  26.839  1.00  0.00     0.002 A 
ATOM     42  C   UNL A   1      43.746  20.807  25.451  1.00  0.00     0.091 A 
ATOM     43  F   UNL A   1      44.449  22.918  26.161  1.00  0.00    -0.205 F 
ATOM     44  C   UNL A   1      43.088  19.614  25.736  1.00  0.00     0.022 A 
BRANCH  42  45
ATOM     45  S   UNL A   1      44.795  20.885  23.994  1.00  0.00     0.127 S 
ATOM     46  O   UNL A   1      46.123  20.967  24.594  1.00  0.00    -0.237 OA
ATOM     47  O   UNL A   1      44.486  19.614  23.339  1.00  0.00    -0.237 OA
ATOM     48  O   UNL A   1      44.351  22.059  23.255  1.00  0.00    -0.744 OA
ENDBRANCH  42  45
ENDBRANCH  24  38
BRANCH  25  49
ATOM     49  C   UNL A   1      48.384  27.822  25.098  1.00  0.00     0.023 A 
ATOM     50  C   UNL A   1      49.757  28.000  25.411  1.00  0.00     0.012 A 
ATOM     51  C   UNL A   1      48.045  27.657  23.742  1.00  0.00     0.148 A 
ATOM     52  C   UNL A   1      50.757  27.892  24.436  1.00  0.00     0.002 A 
ATOM     53  C   UNL A   1      49.047  27.558  22.770  1.00  0.00     0.091 A 
ATOM     54  F   UNL A   1      46.755  27.511  23.415  1.00  0.00    -0.205 F 
ATOM     55  C   UNL A   1      50.404  27.644  23.118  1.00  0.00     0.022 A 
BRANCH  53  56
ATOM     56  S   UNL A   1      48.677  27.252  21.038  1.00  0.00     0.127 S 
ATOM     57  O   UNL A   1      49.776  27.946  20.364  1.00  0.00    -0.237 OA
ATOM     58  O   UNL A   1      48.737  25.795  20.967  1.00  0.00    -0.237 OA
ATOM     59  O   UNL A   1      47.367  27.851  20.819  1.00  0.00    -0.744 OA
ENDBRANCH  53  56
ENDBRANCH  25  49
BRANCH  37  60
ATOM     60  C   UNL A   1      46.967  25.859  30.820  1.00  0.00     0.023 A 
ATOM     61  C   UNL A   1      48.133  25.634  31.582  1.00  0.00     0.012 A 
ATOM     62  C   UNL A   1      46.315  27.097  30.915  1.00  0.00     0.148 A 
ATOM     63  C   UNL A   1      48.643  26.642  32.409  1.00  0.00     0.002 A 
ATOM     64  C   UNL A   1      46.846  28.108  31.703  1.00  0.00     0.091 A 
ATOM     65  F   UNL A   1      45.202  27.278  30.187  1.00  0.00    -0.205 F 
ATOM     66  C   UNL A   1      48.011  27.885  32.454  1.00  0.00     0.022 A 
BRANCH  64  67
ATOM     67  S   UNL A   1      46.141  29.756  31.716  1.00  0.00     0.127 S 
ATOM     68  O   UNL A   1      46.693  30.313  32.950  1.00  0.00    -0.237 OA
ATOM     69  O   UNL A   1      46.684  30.333  30.486  1.00  0.00    -0.237 OA
ATOM     70  O   UNL A   1      44.694  29.582  31.710  1.00  0.00    -0.744 OA
ENDBRANCH  64  67
ENDBRANCH  37  60
ENDBRANCH  11  12
ENDBRANCH   4   6
ENDBRANCH   3   4
ENDBRANCH   2   3
ENDBRANCH   1   2
BRANCH   1  71
ATOM     71  O   UNL A   1      35.451  33.947  28.485  1.00  0.00    -0.374 OA
BRANCH  71  72
ATOM     72  C   UNL A   1      34.255  33.520  27.880  1.00  0.00     0.202 C 
BRANCH  72  73
ATOM     73  C   UNL A   1      33.895  32.117  28.367  1.00  0.00     0.261 C 
BRANCH  73  74
ATOM     74  O   UNL A   1      33.679  31.270  27.230  1.00  0.00    -0.460 OA
BRANCH  74  75
ATOM     75  C   UNL A   1      32.386  31.070  26.899  1.00  0.00     0.339 C 
ATOM     76  O   UNL A   1      31.481  31.885  26.819  1.00  0.00    -0.246 OA
BRANCH  75  77
ATOM     77  C   UNL A   1      32.179  29.727  26.434  1.00  0.00     0.078 A 
ATOM     78  C   UNL A   1      31.826  28.706  27.298  1.00  0.00     0.021 A 
ATOM     79  C   UNL A   1      32.432  29.476  25.088  1.00  0.00     0.129 A 
ATOM     80  C   UNL A   1      31.709  27.448  26.760  1.00  0.00     0.048 A 
ATOM     81  N   UNL A   1      32.452  28.240  24.568  1.00  0.00    -0.238 NA
ATOM     82  C   UNL A   1      32.011  27.278  25.403  1.00  0.00     0.138 A 
BRANCH  82  83
ATOM     83  N   UNL A   1      31.636  26.066  24.830  1.00  0.00    -0.283 N 
ATOM     84  C   UNL A   1      30.422  25.743  24.295  1.00  0.00     0.206 A 
ATOM     85  C   UNL A   1      32.464  24.982  24.705  1.00  0.00     0.074 A 
ATOM     86  N   UNL A   1      30.480  24.602  23.639  1.00  0.00    -0.236 NA
ATOM     87  C   UNL A   1      31.737  24.100  23.922  1.00  0.00     0.089 A 
ATOM     88  C   UNL A   1      33.719  24.691  25.258  1.00  0.00     0.029 A 
ATOM     89  C   UNL A   1      32.331  22.881  23.575  1.00  0.00     0.030 A 
ATOM     90  C   UNL A   1      34.273  23.457  24.940  1.00  0.00     0.002 A 
ATOM     91  C   UNL A   1      33.601  22.574  24.094  1.00  0.00     0.002 A 
ENDBRANCH  82  83
ENDBRANCH  75  77
ENDBRANCH  74  75
ENDBRANCH  73  74
ENDBRANCH  72  73
ENDBRANCH  71  72
ENDBRANCH   1  71
TORSDOF 18
ENDMDL
MODEL 3
REMARK VINA RESULT:     -11.1      2.783      8.157
REMARK SMILES O=C(OCCOCCOC(=O)c1ccc(-n2cnc3ccccc32)nc1)c1ccc(-c2c3nc(c(-c4cccc(S(=O)(=O)[O-])c4F)c4ccc([nH]4)c(-c4cccc(S(=O)(=O)[O-])c4F)c4nc(c(-c5cccc(S(=O)(=O)[O-])c5F)c5ccc2[nH]5)C=C4)C=C3)cc1
REMARK SMILES IDX 5 1 4 2 3 3 2 4 1 5 27 6 28 7 89 8 29 9 88 10 30 11 31 12
REMARK SMILES IDX 32 13 82 14 33 15 87 16 81 17 83 18 34 19 86 20 80 21 79 22
REMARK SMILES IDX 35 24 67 25 47 26 66 27 48 28 51 29 65 30 84 31 49 32 50 33
REMARK SMILES IDX 64 35 85 36 52 37 36 38 37 39 45 40 38 41 40 42 46 43 39 44
REMARK SMILES IDX 41 45 42 46 43 47 44 48 68 49 69 50 77 51 70 52 72 53 78 54
REMARK SMILES IDX 71 55 73 56 74 57 75 58 76 59 53 60 54 61 62 62 55 63 57 64
REMARK SMILES IDX 63 65 56 66 58 67 59 68 60 69 61 70 6 71 7 72 8 73 9 74
REMARK SMILES IDX 10 75 11 76 12 77 13 78 26 79 14 80 25 81 15 82 16 83 17 84
REMARK SMILES IDX 24 85 18 86 19 87 23 88 20 89 22 90 21 91
REMARK H PARENT 83 23 51 34
REMARK Flexibility Score: inf
ROOT
ATOM      1  C   UNL A   1      38.040  19.988  24.918  1.00  0.00     0.202 C 
ENDROOT
BRANCH   1   2
ATOM      2  C   UNL A   1      39.270  20.330  25.757  1.00  0.00     0.261 C 
BRANCH   2   3
ATOM      3  O   UNL A   1      40.455  19.508  25.564  1.00  0.00    -0.460 OA
BRANCH   3   4
ATOM      4  C   UNL A   1      41.778  19.854  25.597  1.00  0.00     0.338 C 
ATOM      5  O   UNL A   1      42.604  19.142  25.030  1.00  0.00    -0.246 OA
BRANCH   4   6
ATOM      6  C   UNL A   1      42.252  21.005  26.418  1.00  0.00     0.060 A 
ATOM      7  C   UNL A   1      42.006  20.978  27.806  1.00  0.00     0.016 A 
ATOM      8  C   UNL A   1      42.704  22.177  25.827  1.00  0.00     0.016 A 
ATOM      9  C   UNL A   1      42.010  22.171  28.546  1.00  0.00     0.010 A 
ATOM     10  C   UNL A   1      42.596  23.369  26.541  1.00  0.00     0.010 A 
ATOM     11  C   UNL A   1      42.200  23.396  27.895  1.00  0.00    -0.014 A 
BRANCH  11  12
ATOM     12  C   UNL A   1      42.454  24.651  28.654  1.00  0.00     0.031 A 
ATOM     13  C   UNL A   1      41.291  25.527  28.375  1.00  0.00     0.074 A 
ATOM     14  C   UNL A   1      43.423  25.061  29.520  1.00  0.00     0.049 A 
ATOM     15  N   UNL A   1      41.291  26.452  27.470  1.00  0.00    -0.248 NA
ATOM     16  C   UNL A   1      39.948  25.149  28.851  1.00  0.00     0.031 C 
ATOM     17  C   UNL A   1      44.636  24.393  29.977  1.00  0.00     0.029 A 
ATOM     18  N   UNL A   1      43.480  26.203  30.288  1.00  0.00    -0.354 N 
ATOM     19  C   UNL A   1      40.000  26.944  27.495  1.00  0.00     0.074 A 
ATOM     20  C   UNL A   1      39.179  25.928  28.088  1.00  0.00     0.031 C 
ATOM     21  C   UNL A   1      45.082  24.908  31.148  1.00  0.00     0.029 A 
ATOM     22  C   UNL A   1      44.348  26.129  31.393  1.00  0.00     0.049 A 
ATOM     23  H   UNL A   1      42.954  27.009  30.080  1.00  0.00     0.167 HD
ATOM     24  C   UNL A   1      39.785  28.280  27.421  1.00  0.00     0.034 A 
ATOM     25  C   UNL A   1      44.549  27.051  32.374  1.00  0.00     0.034 A 
ATOM     26  C   UNL A   1      40.954  28.981  26.959  1.00  0.00     0.049 A 
ATOM     27  C   UNL A   1      44.195  28.337  31.759  1.00  0.00     0.074 A 
ATOM     28  C   UNL A   1      41.732  28.953  25.819  1.00  0.00     0.029 A 
ATOM     29  N   UNL A   1      41.718  29.532  27.954  1.00  0.00    -0.354 N 
ATOM     30  N   UNL A   1      44.886  28.890  30.804  1.00  0.00    -0.248 NA
ATOM     31  C   UNL A   1      42.847  28.835  31.950  1.00  0.00     0.031 C 
ATOM     32  C   UNL A   1      43.064  29.196  26.260  1.00  0.00     0.029 A 
ATOM     33  C   UNL A   1      43.045  29.433  27.635  1.00  0.00     0.049 A 
ATOM     34  H   UNL A   1      41.365  29.938  28.778  1.00  0.00     0.167 HD
ATOM     35  C   UNL A   1      43.912  29.417  29.974  1.00  0.00     0.074 A 
ATOM     36  C   UNL A   1      42.708  29.496  30.799  1.00  0.00     0.031 C 
ATOM     37  C   UNL A   1      44.099  29.436  28.625  1.00  0.00     0.034 A 
BRANCH  24  38
ATOM     38  C   UNL A   1      38.703  28.953  28.221  1.00  0.00     0.023 A 
ATOM     39  C   UNL A   1      37.791  29.767  27.531  1.00  0.00     0.012 A 
ATOM     40  C   UNL A   1      38.680  29.007  29.637  1.00  0.00     0.148 A 
ATOM     41  C   UNL A   1      36.874  30.567  28.221  1.00  0.00     0.002 A 
ATOM     42  C   UNL A   1      37.704  29.720  30.316  1.00  0.00     0.091 A 
ATOM     43  F   UNL A   1      39.692  28.495  30.344  1.00  0.00    -0.205 F 
ATOM     44  C   UNL A   1      36.809  30.519  29.611  1.00  0.00     0.022 A 
BRANCH  42  45
ATOM     45  S   UNL A   1      37.565  29.644  32.106  1.00  0.00     0.127 S 
ATOM     46  O   UNL A   1      36.272  30.285  32.326  1.00  0.00    -0.237 OA
ATOM     47  O   UNL A   1      37.593  28.201  32.344  1.00  0.00    -0.237 OA
ATOM     48  O   UNL A   1      38.730  30.354  32.618  1.00  0.00    -0.744 OA
ENDBRANCH  42  45
ENDBRANCH  24  38
BRANCH  25  49
ATOM     49  C   UNL A   1      44.840  26.981  33.838  1.00  0.00     0.023 A 
ATOM     50  C   UNL A   1      45.892  27.778  34.361  1.00  0.00     0.012 A 
ATOM     51  C   UNL A   1      43.904  26.463  34.754  1.00  0.00     0.148 A 
ATOM     52  C   UNL A   1      45.940  28.146  35.712  1.00  0.00     0.002 A 
ATOM     53  C   UNL A   1      43.961  26.827  36.104  1.00  0.00     0.091 A 
ATOM     54  F   UNL A   1      42.915  25.688  34.292  1.00  0.00    -0.205 F 
ATOM     55  C   UNL A   1      44.958  27.691  36.580  1.00  0.00     0.022 A 
BRANCH  53  56
ATOM     56  S   UNL A   1      42.738  26.272  37.299  1.00  0.00     0.127 S 
ATOM     57  O   UNL A   1      41.594  27.131  36.986  1.00  0.00    -0.237 OA
ATOM     58  O   UNL A   1      42.569  24.869  36.932  1.00  0.00    -0.237 OA
ATOM     59  O   UNL A   1      43.339  26.527  38.602  1.00  0.00    -0.744 OA
ENDBRANCH  53  56
ENDBRANCH  25  49
BRANCH  37  60
ATOM     60  C   UNL A   1      45.504  29.281  28.105  1.00  0.00     0.023 A 
ATOM     61  C   UNL A   1      46.002  28.085  27.546  1.00  0.00     0.012 A 
ATOM     62  C   UNL A   1      46.274  30.451  28.020  1.00  0.00     0.148 A 
ATOM     63  C   UNL A   1      47.244  28.071  26.898  1.00  0.00     0.002 A 
ATOM     64  C   UNL A   1      47.483  30.442  27.341  1.00  0.00     0.091 A 
ATOM     65  F   UNL A   1      45.778  31.570  28.569  1.00  0.00    -0.205 F 
ATOM     66  C   UNL A   1      47.974  29.253  26.779  1.00  0.00     0.022 A 
BRANCH  64  67
ATOM     67  S   UNL A   1      48.412  31.950  27.060  1.00  0.00     0.127 S 
ATOM     68  O   UNL A   1      49.661  31.438  26.500  1.00  0.00    -0.237 OA
ATOM     69  O   UNL A   1      47.561  32.664  26.109  1.00  0.00    -0.237 OA
ATOM     70  O   UNL A   1      48.538  32.600  28.359  1.00  0.00    -0.744 OA
ENDBRANCH  64  67
ENDBRANCH  37  60
ENDBRANCH  11  12
ENDBRANCH   4   6
ENDBRANCH   3   4
ENDBRANCH   2   3
ENDBRANCH   1   2
BRANCH   1  71
ATOM     71  O   UNL A   1      37.485  21.154  24.359  1.00  0.00    -0.374 OA
BRANCH  71  72
ATOM     72  C   UNL A   1      36.280  21.693  24.844  1.00  0.00     0.202 C 
BRANCH  72  73
ATOM     73  C   UNL A   1      35.250  20.581  25.035  1.00  0.00     0.261 C 
BRANCH  73  74
ATOM     74  O   UNL A   1      34.210  21.052  25.902  1.00  0.00    -0.460 OA
BRANCH  74  75
ATOM     75  C   UNL A   1      32.995  21.178  25.328  1.00  0.00     0.339 C 
ATOM     76  O   UNL A   1      32.126  20.333  25.182  1.00  0.00    -0.246 OA
BRANCH  75  77
ATOM     77  C   UNL A   1      32.708  22.554  25.034  1.00  0.00     0.078 A 
ATOM     78  C   UNL A   1      32.657  23.514  26.029  1.00  0.00     0.021 A 
ATOM     79  C   UNL A   1      32.400  22.868  23.713  1.00  0.00     0.129 A 
ATOM     80  C   UNL A   1      32.318  24.789  25.647  1.00  0.00     0.048 A 
ATOM     81  N   UNL A   1      31.943  24.071  23.338  1.00  0.00    -0.238 NA
ATOM     82  C   UNL A   1      31.994  25.012  24.302  1.00  0.00     0.138 A 
BRANCH  82  83
ATOM     83  N   UNL A   1      31.913  26.340  23.895  1.00  0.00    -0.283 N 
ATOM     84  C   UNL A   1      32.946  27.213  23.705  1.00  0.00     0.206 A 
ATOM     85  C   UNL A   1      30.742  26.990  23.606  1.00  0.00     0.074 A 
ATOM     86  N   UNL A   1      32.536  28.311  23.103  1.00  0.00    -0.236 NA
ATOM     87  C   UNL A   1      31.158  28.199  23.073  1.00  0.00     0.089 A 
ATOM     88  C   UNL A   1      29.400  26.649  23.828  1.00  0.00     0.029 A 
ATOM     89  C   UNL A   1      30.180  29.099  22.635  1.00  0.00     0.030 A 
ATOM     90  C   UNL A   1      28.445  27.575  23.429  1.00  0.00     0.002 A 
ATOM     91  C   UNL A   1      28.825  28.772  22.821  1.00  0.00     0.002 A 
ENDBRANCH  82  83
ENDBRANCH  75  77
ENDBRANCH  74  75
ENDBRANCH  73  74
ENDBRANCH  72  73
ENDBRANCH  71  72
ENDBRANCH   1  71
TORSDOF 18
ENDMDL
