MODEL 1
REMARK VINA RESULT:     -11.3      0.000      0.000
REMARK SMILES Cc1ccc(Nc2c(Cl)cc(Cl)cc2Cl)c(CC(=O)OCCOCCOC(=O)c2ccc(-c3c4nc(c(-c5cccc(S(=O)(=O)[O-])c5F)c5ccc([nH]5)c(-c5cccc(S(=O)(=O)[O-])c5F)c5nc(c(-c6cccc(S(=O)(=O)[O-])c6F)c6ccc3[nH]6)C=C5)C=C4)cc2)c1
REMARK SMILES IDX 23 1 22 2 21 3 20 4 18 5 19 6 17 7 16 8 1 9 2 10 3 11 92 12
REMARK SMILES IDX 4 13 5 14 6 15 7 17 8 18 14 19 9 20 10 21 13 22 15 23 11 24
REMARK SMILES IDX 12 25 24 26 25 27 26 28 27 29 28 30 29 31 30 32 91 33 31 34
REMARK SMILES IDX 90 35 32 36 33 37 34 38 84 39 35 40 89 41 83 42 85 43 36 44
REMARK SMILES IDX 88 45 82 46 81 47 37 49 69 50 49 51 68 52 50 53 53 54 67 55
REMARK SMILES IDX 86 56 51 57 52 58 66 60 87 61 54 62 38 63 39 64 47 65 40 66
REMARK SMILES IDX 42 67 48 68 41 69 43 70 44 71 45 72 46 73 70 74 71 75 79 76
REMARK SMILES IDX 72 77 74 78 80 79 73 80 75 81 76 82 77 83 78 84 55 85 56 86
REMARK SMILES IDX 64 87 57 88 59 89 65 90 58 91 60 92 61 93 62 94 63 95
REMARK H PARENT 6 16 85 48 53 59
REMARK Flexibility Score: inf
ROOT
ATOM      1  O   UNL A   1      34.524  32.421  27.608  1.00  0.00    -0.374 OA
ENDROOT
BRANCH   1   2
ATOM      2  C   UNL A   1      34.141  31.079  27.812  1.00  0.00     0.202 C 
BRANCH   2   3
ATOM      3  C   UNL A   1      33.175  30.653  26.724  1.00  0.00     0.261 C 
BRANCH   3   4
ATOM      4  O   UNL A   1      31.951  30.119  27.219  1.00  0.00    -0.463 OA
BRANCH   4   5
ATOM      5  C   UNL A   1      31.801  28.756  27.215  1.00  0.00     0.310 C 
ATOM      6  O   UNL A   1      31.213  28.077  28.044  1.00  0.00    -0.252 OA
BRANCH   5   7
ATOM      7  C   UNL A   1      32.504  28.137  26.021  1.00  0.00     0.160 C 
BRANCH   7   8
ATOM      8  C   UNL A   1      31.488  27.550  25.060  1.00  0.00    -0.013 A 
ATOM      9  C   UNL A   1      29.142  29.327  22.624  1.00  0.00     0.044 C 
ATOM     10  C   UNL A   1      29.759  28.257  23.471  1.00  0.00    -0.051 A 
ATOM     11  C   UNL A   1      29.094  27.062  23.717  1.00  0.00     0.005 A 
ATOM     12  C   UNL A   1      30.984  28.465  24.098  1.00  0.00     0.009 A 
ATOM     13  C   UNL A   1      29.625  26.118  24.609  1.00  0.00     0.026 A 
ATOM     14  C   UNL A   1      30.822  26.335  25.318  1.00  0.00     0.042 A 
BRANCH  14  15
ATOM     15  N   UNL A   1      31.308  25.392  26.267  1.00  0.00    -0.353 N 
ATOM     16  H   UNL A   1      31.248  25.673  27.210  1.00  0.00     0.167 HD
BRANCH  15  17
ATOM     17  C   UNL A   1      31.868  24.101  26.048  1.00  0.00     0.076 A 
ATOM     18  C   UNL A   1      33.157  23.905  25.523  1.00  0.00     0.067 A 
ATOM     19  C   UNL A   1      31.067  22.947  26.185  1.00  0.00     0.067 A 
ATOM     20  Cl  UNL A   1      34.389  25.117  25.660  1.00  0.00    -0.082 Cl
ATOM     21  C   UNL A   1      33.530  22.685  24.949  1.00  0.00     0.043 A 
ATOM     22  C   UNL A   1      31.405  21.740  25.562  1.00  0.00     0.043 A 
ATOM     23  Cl  UNL A   1      29.685  22.946  27.216  1.00  0.00    -0.082 Cl
ATOM     24  C   UNL A   1      32.625  21.633  24.911  1.00  0.00     0.044 A 
ATOM     25  Cl  UNL A   1      33.052  20.173  24.108  1.00  0.00    -0.084 Cl
ENDBRANCH  15  17
ENDBRANCH  14  15
ENDBRANCH   7   8
ENDBRANCH   5   7
ENDBRANCH   4   5
ENDBRANCH   3   4
ENDBRANCH   2   3
ENDBRANCH   1   2
BRANCH   1  26
ATOM     26  C   UNL A   1      33.624  33.393  28.095  1.00  0.00     0.202 C 
BRANCH  26  27
ATOM     27  C   UNL A   1      34.249  34.029  29.333  1.00  0.00     0.261 C 
BRANCH  27  28
ATOM     28  O   UNL A   1      34.148  33.148  30.472  1.00  0.00    -0.460 OA
BRANCH  28  29
ATOM     29  C   UNL A   1      35.226  33.206  31.308  1.00  0.00     0.338 C 
ATOM     30  O   UNL A   1      35.443  34.150  32.059  1.00  0.00    -0.246 OA
BRANCH  29  31
ATOM     31  C   UNL A   1      36.156  32.070  31.049  1.00  0.00     0.060 A 
ATOM     32  C   UNL A   1      36.296  31.071  32.024  1.00  0.00     0.016 A 
ATOM     33  C   UNL A   1      37.109  32.198  30.038  1.00  0.00     0.016 A 
ATOM     34  C   UNL A   1      37.489  30.350  32.116  1.00  0.00     0.010 A 
ATOM     35  C   UNL A   1      38.327  31.569  30.204  1.00  0.00     0.010 A 
ATOM     36  C   UNL A   1      38.537  30.675  31.269  1.00  0.00    -0.014 A 
BRANCH  36  37
ATOM     37  C   UNL A   1      39.894  30.152  31.369  1.00  0.00     0.031 A 
ATOM     38  C   UNL A   1      40.200  28.895  30.672  1.00  0.00     0.074 A 
ATOM     39  C   UNL A   1      40.915  30.968  31.717  1.00  0.00     0.049 A 
ATOM     40  N   UNL A   1      41.381  28.396  30.610  1.00  0.00    -0.248 NA
ATOM     41  C   UNL A   1      39.191  28.065  30.018  1.00  0.00     0.031 C 
ATOM     42  C   UNL A   1      42.260  30.999  31.142  1.00  0.00     0.029 A 
ATOM     43  N   UNL A   1      40.958  31.941  32.705  1.00  0.00    -0.354 N 
ATOM     44  C   UNL A   1      41.359  27.456  29.617  1.00  0.00     0.074 A 
ATOM     45  C   UNL A   1      39.965  27.163  29.406  1.00  0.00     0.031 C 
ATOM     46  C   UNL A   1      43.040  31.812  31.868  1.00  0.00     0.029 A 
ATOM     47  C   UNL A   1      42.291  32.187  33.050  1.00  0.00     0.049 A 
ATOM     48  H   UNL A   1      40.175  32.388  33.100  1.00  0.00     0.167 HD
ATOM     49  C   UNL A   1      42.533  27.163  28.999  1.00  0.00     0.034 A 
ATOM     50  C   UNL A   1      42.754  32.184  34.330  1.00  0.00     0.034 A 
ATOM     51  C   UNL A   1      43.684  27.751  29.727  1.00  0.00     0.049 A 
ATOM     52  C   UNL A   1      43.650  30.970  34.523  1.00  0.00     0.074 A 
ATOM     53  C   UNL A   1      44.625  28.734  29.478  1.00  0.00     0.029 A 
ATOM     54  N   UNL A   1      43.804  27.473  31.086  1.00  0.00    -0.354 N 
ATOM     55  N   UNL A   1      44.191  30.293  33.542  1.00  0.00    -0.248 NA
ATOM     56  C   UNL A   1      43.938  30.368  35.818  1.00  0.00     0.031 C 
ATOM     57  C   UNL A   1      45.271  29.061  30.720  1.00  0.00     0.029 A 
ATOM     58  C   UNL A   1      44.769  28.241  31.718  1.00  0.00     0.049 A 
ATOM     59  H   UNL A   1      43.259  26.798  31.551  1.00  0.00     0.167 HD
ATOM     60  C   UNL A   1      44.633  29.082  33.998  1.00  0.00     0.074 A 
ATOM     61  C   UNL A   1      44.516  29.211  35.448  1.00  0.00     0.031 C 
ATOM     62  C   UNL A   1      44.984  28.049  33.161  1.00  0.00     0.034 A 
BRANCH  49  63
ATOM     63  C   UNL A   1      42.646  26.428  27.679  1.00  0.00     0.023 A 
ATOM     64  C   UNL A   1      42.507  27.203  26.508  1.00  0.00     0.012 A 
ATOM     65  C   UNL A   1      42.803  25.027  27.487  1.00  0.00     0.148 A 
ATOM     66  C   UNL A   1      42.529  26.634  25.229  1.00  0.00     0.002 A 
ATOM     67  C   UNL A   1      42.896  24.469  26.207  1.00  0.00     0.091 A 
ATOM     68  F   UNL A   1      42.771  24.197  28.534  1.00  0.00    -0.205 F 
ATOM     69  C   UNL A   1      42.743  25.272  25.075  1.00  0.00     0.022 A 
BRANCH  67  70
ATOM     70  S   UNL A   1      43.224  22.717  25.919  1.00  0.00     0.127 S 
ATOM     71  O   UNL A   1      42.065  22.080  26.544  1.00  0.00    -0.237 OA
ATOM     72  O   UNL A   1      43.244  22.637  24.458  1.00  0.00    -0.237 OA
ATOM     73  O   UNL A   1      44.505  22.429  26.553  1.00  0.00    -0.744 OA
ENDBRANCH  67  70
ENDBRANCH  49  63
BRANCH  50  74
ATOM     74  C   UNL A   1      41.747  32.796  35.255  1.00  0.00     0.023 A 
ATOM     75  C   UNL A   1      41.627  34.208  35.140  1.00  0.00     0.012 A 
ATOM     76  C   UNL A   1      40.633  32.062  35.701  1.00  0.00     0.148 A 
ATOM     77  C   UNL A   1      40.385  34.836  35.253  1.00  0.00     0.002 A 
ATOM     78  C   UNL A   1      39.391  32.697  35.797  1.00  0.00     0.091 A 
ATOM     79  F   UNL A   1      40.763  30.738  35.850  1.00  0.00    -0.205 F 
ATOM     80  C   UNL A   1      39.260  34.070  35.526  1.00  0.00     0.022 A 
BRANCH  78  81
ATOM     81  S   UNL A   1      37.876  31.757  36.036  1.00  0.00     0.127 S 
ATOM     82  O   UNL A   1      38.275  30.434  35.568  1.00  0.00    -0.237 OA
ATOM     83  O   UNL A   1      37.663  31.865  37.479  1.00  0.00    -0.237 OA
ATOM     84  O   UNL A   1      36.881  32.454  35.235  1.00  0.00    -0.744 OA
ENDBRANCH  78  81
ENDBRANCH  50  74
BRANCH  62  85
ATOM     85  C   UNL A   1      45.528  26.720  33.676  1.00  0.00     0.023 A 
ATOM     86  C   UNL A   1      46.894  26.406  33.538  1.00  0.00     0.012 A 
ATOM     87  C   UNL A   1      44.704  25.693  34.211  1.00  0.00     0.148 A 
ATOM     88  C   UNL A   1      47.441  25.220  34.038  1.00  0.00     0.002 A 
ATOM     89  C   UNL A   1      45.235  24.479  34.631  1.00  0.00     0.091 A 
ATOM     90  F   UNL A   1      43.387  25.875  34.328  1.00  0.00    -0.205 F 
ATOM     91  C   UNL A   1      46.610  24.256  34.593  1.00  0.00     0.022 A 
BRANCH  89  92
ATOM     92  S   UNL A   1      44.200  23.104  35.160  1.00  0.00     0.127 S 
ATOM     93  O   UNL A   1      45.019  22.517  36.222  1.00  0.00    -0.237 OA
ATOM     94  O   UNL A   1      43.000  23.795  35.626  1.00  0.00    -0.237 OA
ATOM     95  O   UNL A   1      44.014  22.252  33.995  1.00  0.00    -0.744 OA
ENDBRANCH  89  92
ENDBRANCH  62  85
ENDBRANCH  36  37
ENDBRANCH  29  31
ENDBRANCH  28  29
ENDBRANCH  27  28
ENDBRANCH  26  27
ENDBRANCH   1  26
TORSDOF 20
ENDMDL
MODEL 2
REMARK VINA RESULT:     -11.2      1.814      2.256
REMARK SMILES Cc1ccc(Nc2c(Cl)cc(Cl)cc2Cl)c(CC(=O)OCCOCCOC(=O)c2ccc(-c3c4nc(c(-c5cccc(S(=O)(=O)[O-])c5F)c5ccc([nH]5)c(-c5cccc(S(=O)(=O)[O-])c5F)c5nc(c(-c6cccc(S(=O)(=O)[O-])c6F)c6ccc3[nH]6)C=C5)C=C4)cc2)c1
REMARK SMILES IDX 23 1 22 2 21 3 20 4 18 5 19 6 17 7 16 8 1 9 2 10 3 11 92 12
REMARK SMILES IDX 4 13 5 14 6 15 7 17 8 18 14 19 9 20 10 21 13 22 15 23 11 24
REMARK SMILES IDX 12 25 24 26 25 27 26 28 27 29 28 30 29 31 30 32 91 33 31 34
REMARK SMILES IDX 90 35 32 36 33 37 34 38 84 39 35 40 89 41 83 42 85 43 36 44
REMARK SMILES IDX 88 45 82 46 81 47 37 49 69 50 49 51 68 52 50 53 53 54 67 55
REMARK SMILES IDX 86 56 51 57 52 58 66 60 87 61 54 62 38 63 39 64 47 65 40 66
REMARK SMILES IDX 42 67 48 68 41 69 43 70 44 71 45 72 46 73 70 74 71 75 79 76
REMARK SMILES IDX 72 77 74 78 80 79 73 80 75 81 76 82 77 83 78 84 55 85 56 86
REMARK SMILES IDX 64 87 57 88 59 89 65 90 58 91 60 92 61 93 62 94 63 95
REMARK H PARENT 6 16 85 48 53 59
REMARK Flexibility Score: inf
ROOT
ATOM      1  O   UNL A   1      34.065  32.687  27.451  1.00  0.00    -0.374 OA
ENDROOT
BRANCH   1   2
ATOM      2  C   UNL A   1      33.861  31.353  27.862  1.00  0.00     0.202 C 
BRANCH   2   3
ATOM      3  C   UNL A   1      33.087  30.603  26.795  1.00  0.00     0.261 C 
BRANCH   3   4
ATOM      4  O   UNL A   1      31.854  30.060  27.255  1.00  0.00    -0.463 OA
BRANCH   4   5
ATOM      5  C   UNL A   1      31.711  28.696  27.238  1.00  0.00     0.310 C 
ATOM      6  O   UNL A   1      31.120  28.007  28.057  1.00  0.00    -0.252 OA
BRANCH   5   7
ATOM      7  C   UNL A   1      32.429  28.090  26.046  1.00  0.00     0.160 C 
BRANCH   7   8
ATOM      8  C   UNL A   1      31.425  27.501  25.074  1.00  0.00    -0.013 A 
ATOM      9  C   UNL A   1      29.105  29.270  22.607  1.00  0.00     0.044 C 
ATOM     10  C   UNL A   1      29.714  28.201  23.463  1.00  0.00    -0.051 A 
ATOM     11  C   UNL A   1      29.047  27.006  23.705  1.00  0.00     0.005 A 
ATOM     12  C   UNL A   1      30.931  28.413  24.104  1.00  0.00     0.009 A 
ATOM     13  C   UNL A   1      29.569  26.065  24.604  1.00  0.00     0.026 A 
ATOM     14  C   UNL A   1      30.757  26.285  25.327  1.00  0.00     0.042 A 
BRANCH  14  15
ATOM     15  N   UNL A   1      31.233  25.345  26.284  1.00  0.00    -0.353 N 
ATOM     16  H   UNL A   1      31.145  25.620  27.225  1.00  0.00     0.167 HD
BRANCH  15  17
ATOM     17  C   UNL A   1      31.818  24.064  26.072  1.00  0.00     0.076 A 
ATOM     18  C   UNL A   1      33.111  23.890  25.548  1.00  0.00     0.067 A 
ATOM     19  C   UNL A   1      31.040  22.894  26.218  1.00  0.00     0.067 A 
ATOM     20  Cl  UNL A   1      34.319  25.126  25.676  1.00  0.00    -0.082 Cl
ATOM     21  C   UNL A   1      33.507  22.673  24.982  1.00  0.00     0.043 A 
ATOM     22  C   UNL A   1      31.402  21.690  25.602  1.00  0.00     0.043 A 
ATOM     23  Cl  UNL A   1      29.659  22.873  27.250  1.00  0.00    -0.082 Cl
ATOM     24  C   UNL A   1      32.623  21.603  24.952  1.00  0.00     0.044 A 
ATOM     25  Cl  UNL A   1      33.078  20.147  24.158  1.00  0.00    -0.084 Cl
ENDBRANCH  15  17
ENDBRANCH  14  15
ENDBRANCH   7   8
ENDBRANCH   5   7
ENDBRANCH   4   5
ENDBRANCH   3   4
ENDBRANCH   2   3
ENDBRANCH   1   2
BRANCH   1  26
ATOM     26  C   UNL A   1      33.030  33.590  27.771  1.00  0.00     0.202 C 
BRANCH  26  27
ATOM     27  C   UNL A   1      33.607  34.650  28.704  1.00  0.00     0.261 C 
BRANCH  27  28
ATOM     28  O   UNL A   1      33.267  34.368  30.078  1.00  0.00    -0.460 OA
BRANCH  28  29
ATOM     29  C   UNL A   1      34.338  34.397  30.925  1.00  0.00     0.338 C 
ATOM     30  O   UNL A   1      34.567  35.331  31.685  1.00  0.00    -0.246 OA
BRANCH  29  31
ATOM     31  C   UNL A   1      35.246  33.243  30.668  1.00  0.00     0.060 A 
ATOM     32  C   UNL A   1      35.071  32.063  31.407  1.00  0.00     0.016 A 
ATOM     33  C   UNL A   1      36.439  33.466  29.981  1.00  0.00     0.016 A 
ATOM     34  C   UNL A   1      36.159  31.218  31.638  1.00  0.00     0.010 A 
ATOM     35  C   UNL A   1      37.537  32.693  30.306  1.00  0.00     0.010 A 
ATOM     36  C   UNL A   1      37.410  31.591  31.171  1.00  0.00    -0.014 A 
BRANCH  36  37
ATOM     37  C   UNL A   1      38.664  30.920  31.492  1.00  0.00     0.031 A 
ATOM     38  C   UNL A   1      38.975  29.669  30.786  1.00  0.00     0.074 A 
ATOM     39  C   UNL A   1      39.672  31.604  32.079  1.00  0.00     0.049 A 
ATOM     40  N   UNL A   1      40.091  29.048  30.917  1.00  0.00    -0.248 NA
ATOM     41  C   UNL A   1      38.036  28.983  29.902  1.00  0.00     0.031 C 
ATOM     42  C   UNL A   1      41.100  31.515  31.772  1.00  0.00     0.029 A 
ATOM     43  N   UNL A   1      39.617  32.523  33.117  1.00  0.00    -0.354 N 
ATOM     44  C   UNL A   1      40.171  28.161  29.880  1.00  0.00     0.074 A 
ATOM     45  C   UNL A   1      38.822  28.030  29.391  1.00  0.00     0.031 C 
ATOM     46  C   UNL A   1      41.799  32.205  32.683  1.00  0.00     0.029 A 
ATOM     47  C   UNL A   1      40.874  32.607  33.724  1.00  0.00     0.049 A 
ATOM     48  H   UNL A   1      38.820  33.035  33.384  1.00  0.00     0.167 HD
ATOM     49  C   UNL A   1      41.408  27.770  29.478  1.00  0.00     0.034 A 
ATOM     50  C   UNL A   1      41.077  32.498  35.065  1.00  0.00     0.034 A 
ATOM     51  C   UNL A   1      42.446  28.197  30.447  1.00  0.00     0.049 A 
ATOM     52  C   UNL A   1      41.795  31.187  35.346  1.00  0.00     0.074 A 
ATOM     53  C   UNL A   1      43.510  29.082  30.444  1.00  0.00     0.029 A 
ATOM     54  N   UNL A   1      42.272  27.848  31.783  1.00  0.00    -0.354 N 
ATOM     55  N   UNL A   1      42.447  30.499  34.443  1.00  0.00    -0.248 NA
ATOM     56  C   UNL A   1      41.764  30.500  36.631  1.00  0.00     0.031 C 
ATOM     57  C   UNL A   1      43.930  29.282  31.804  1.00  0.00     0.029 A 
ATOM     58  C   UNL A   1      43.165  28.478  32.635  1.00  0.00     0.049 A 
ATOM     59  H   UNL A   1      41.584  27.216  32.093  1.00  0.00     0.167 HD
ATOM     60  C   UNL A   1      42.671  29.228  34.897  1.00  0.00     0.074 A 
ATOM     61  C   UNL A   1      42.287  29.305  36.303  1.00  0.00     0.031 C 
ATOM     62  C   UNL A   1      43.076  28.201  34.076  1.00  0.00     0.034 A 
BRANCH  49  63
ATOM     63  C   UNL A   1      41.703  27.086  28.159  1.00  0.00     0.023 A 
ATOM     64  C   UNL A   1      41.393  27.807  26.987  1.00  0.00     0.012 A 
ATOM     65  C   UNL A   1      42.192  25.763  27.969  1.00  0.00     0.148 A 
ATOM     66  C   UNL A   1      41.560  27.263  25.708  1.00  0.00     0.002 A 
ATOM     67  C   UNL A   1      42.425  25.246  26.689  1.00  0.00     0.091 A 
ATOM     68  F   UNL A   1      42.350  24.947  29.015  1.00  0.00    -0.205 F 
ATOM     69  C   UNL A   1      42.094  25.991  25.556  1.00  0.00     0.022 A 
BRANCH  67  70
ATOM     70  S   UNL A   1      43.164  23.623  26.404  1.00  0.00     0.127 S 
ATOM     71  O   UNL A   1      42.092  22.917  25.702  1.00  0.00    -0.237 OA
ATOM     72  O   UNL A   1      44.322  23.947  25.570  1.00  0.00    -0.237 OA
ATOM     73  O   UNL A   1      43.502  23.089  27.717  1.00  0.00    -0.744 OA
ENDBRANCH  67  70
ENDBRANCH  49  63
BRANCH  50  74
ATOM     74  C   UNL A   1      39.974  33.175  35.820  1.00  0.00     0.023 A 
ATOM     75  C   UNL A   1      38.958  32.297  36.289  1.00  0.00     0.012 A 
ATOM     76  C   UNL A   1      40.207  34.369  36.526  1.00  0.00     0.148 A 
ATOM     77  C   UNL A   1      38.354  32.495  37.532  1.00  0.00     0.002 A 
ATOM     78  C   UNL A   1      39.609  34.551  37.776  1.00  0.00     0.091 A 
ATOM     79  F   UNL A   1      41.134  35.214  36.057  1.00  0.00    -0.205 F 
ATOM     80  C   UNL A   1      38.722  33.593  38.298  1.00  0.00     0.022 A 
BRANCH  78  81
ATOM     81  S   UNL A   1      40.116  35.886  38.871  1.00  0.00     0.127 S 
ATOM     82  O   UNL A   1      39.800  37.060  38.066  1.00  0.00    -0.237 OA
ATOM     83  O   UNL A   1      39.254  35.683  40.035  1.00  0.00    -0.237 OA
ATOM     84  O   UNL A   1      41.527  35.636  39.125  1.00  0.00    -0.744 OA
ENDBRANCH  78  81
ENDBRANCH  50  74
BRANCH  62  85
ATOM     85  C   UNL A   1      43.376  26.799  34.599  1.00  0.00     0.023 A 
ATOM     86  C   UNL A   1      42.328  25.941  34.985  1.00  0.00     0.012 A 
ATOM     87  C   UNL A   1      44.693  26.318  34.833  1.00  0.00     0.148 A 
ATOM     88  C   UNL A   1      42.559  24.634  35.424  1.00  0.00     0.002 A 
ATOM     89  C   UNL A   1      44.923  25.049  35.351  1.00  0.00     0.091 A 
ATOM     90  F   UNL A   1      45.751  27.082  34.554  1.00  0.00    -0.205 F 
ATOM     91  C   UNL A   1      43.859  24.183  35.602  1.00  0.00     0.022 A 
BRANCH  89  92
ATOM     92  S   UNL A   1      46.567  24.475  35.808  1.00  0.00     0.127 S 
ATOM     93  O   UNL A   1      46.263  23.177  36.414  1.00  0.00    -0.237 OA
ATOM     94  O   UNL A   1      47.230  24.402  34.508  1.00  0.00    -0.237 OA
ATOM     95  O   UNL A   1      47.110  25.463  36.729  1.00  0.00    -0.744 OA
ENDBRANCH  89  92
ENDBRANCH  62  85
ENDBRANCH  36  37
ENDBRANCH  29  31
ENDBRANCH  28  29
ENDBRANCH  27  28
ENDBRANCH  26  27
ENDBRANCH   1  26
TORSDOF 20
ENDMDL
MODEL 3
REMARK VINA RESULT:     -11.2      4.078      9.688
REMARK SMILES Cc1ccc(Nc2c(Cl)cc(Cl)cc2Cl)c(CC(=O)OCCOCCOC(=O)c2ccc(-c3c4nc(c(-c5cccc(S(=O)(=O)[O-])c5F)c5ccc([nH]5)c(-c5cccc(S(=O)(=O)[O-])c5F)c5nc(c(-c6cccc(S(=O)(=O)[O-])c6F)c6ccc3[nH]6)C=C5)C=C4)cc2)c1
REMARK SMILES IDX 23 1 22 2 21 3 20 4 18 5 19 6 17 7 16 8 1 9 2 10 3 11 92 12
REMARK SMILES IDX 4 13 5 14 6 15 7 17 8 18 14 19 9 20 10 21 13 22 15 23 11 24
REMARK SMILES IDX 12 25 24 26 25 27 26 28 27 29 28 30 29 31 30 32 91 33 31 34
REMARK SMILES IDX 90 35 32 36 33 37 34 38 84 39 35 40 89 41 83 42 85 43 36 44
REMARK SMILES IDX 88 45 82 46 81 47 37 49 69 50 49 51 68 52 50 53 53 54 67 55
REMARK SMILES IDX 86 56 51 57 52 58 66 60 87 61 54 62 38 63 39 64 47 65 40 66
REMARK SMILES IDX 42 67 48 68 41 69 43 70 44 71 45 72 46 73 70 74 71 75 79 76
REMARK SMILES IDX 72 77 74 78 80 79 73 80 75 81 76 82 77 83 78 84 55 85 56 86
REMARK SMILES IDX 64 87 57 88 59 89 65 90 58 91 60 92 61 93 62 94 63 95
REMARK H PARENT 6 16 85 48 53 59
REMARK Flexibility Score: inf
ROOT
ATOM      1  O   UNL A   1      37.674  22.276  25.176  1.00  0.00    -0.374 OA
ENDROOT
BRANCH   1   2
ATOM      2  C   UNL A   1      36.352  22.139  25.648  1.00  0.00     0.202 C 
BRANCH   2   3
ATOM      3  C   UNL A   1      35.749  23.511  25.880  1.00  0.00     0.261 C 
BRANCH   3   4
ATOM      4  O   UNL A   1      35.439  24.213  24.681  1.00  0.00    -0.463 OA
BRANCH   4   5
ATOM      5  C   UNL A   1      34.480  25.192  24.743  1.00  0.00     0.310 C 
ATOM      6  O   UNL A   1      33.987  25.677  25.750  1.00  0.00    -0.252 OA
BRANCH   5   7
ATOM      7  C   UNL A   1      34.046  25.614  23.351  1.00  0.00     0.160 C 
BRANCH   7   8
ATOM      8  C   UNL A   1      32.580  25.290  23.139  1.00  0.00    -0.013 A 
ATOM      9  C   UNL A   1      29.519  27.551  23.482  1.00  0.00     0.044 C 
ATOM     10  C   UNL A   1      30.365  26.321  23.346  1.00  0.00    -0.051 A 
ATOM     11  C   UNL A   1      29.835  25.056  23.567  1.00  0.00     0.005 A 
ATOM     12  C   UNL A   1      31.726  26.423  23.071  1.00  0.00     0.009 A 
ATOM     13  C   UNL A   1      30.662  23.922  23.557  1.00  0.00     0.026 A 
ATOM     14  C   UNL A   1      32.053  24.002  23.362  1.00  0.00     0.042 A 
BRANCH  14  15
ATOM     15  N   UNL A   1      32.882  22.846  23.422  1.00  0.00    -0.353 N 
ATOM     16  H   UNL A   1      33.786  22.954  23.047  1.00  0.00     0.167 HD
BRANCH  15  17
ATOM     17  C   UNL A   1      32.589  21.555  23.948  1.00  0.00     0.076 A 
ATOM     18  C   UNL A   1      32.678  21.248  25.317  1.00  0.00     0.067 A 
ATOM     19  C   UNL A   1      32.365  20.466  23.077  1.00  0.00     0.067 A 
ATOM     20  Cl  UNL A   1      32.549  22.474  26.535  1.00  0.00    -0.082 Cl
ATOM     21  C   UNL A   1      32.782  19.925  25.759  1.00  0.00     0.043 A 
ATOM     22  C   UNL A   1      32.527  19.142  23.499  1.00  0.00     0.043 A 
ATOM     23  Cl  UNL A   1      31.778  20.721  21.476  1.00  0.00    -0.082 Cl
ATOM     24  C   UNL A   1      32.776  18.885  24.839  1.00  0.00     0.044 A 
ATOM     25  Cl  UNL A   1      33.013  17.270  25.380  1.00  0.00    -0.084 Cl
ENDBRANCH  15  17
ENDBRANCH  14  15
ENDBRANCH   7   8
ENDBRANCH   5   7
ENDBRANCH   4   5
ENDBRANCH   3   4
ENDBRANCH   2   3
ENDBRANCH   1   2
BRANCH   1  26
ATOM     26  C   UNL A   1      38.619  21.395  25.743  1.00  0.00     0.202 C 
BRANCH  26  27
ATOM     27  C   UNL A   1      39.642  22.234  26.502  1.00  0.00     0.261 C 
BRANCH  27  28
ATOM     28  O   UNL A   1      40.633  21.394  27.132  1.00  0.00    -0.460 OA
BRANCH  28  29
ATOM     29  C   UNL A   1      41.862  21.458  26.541  1.00  0.00     0.338 C 
ATOM     30  O   UNL A   1      42.272  20.615  25.751  1.00  0.00    -0.246 OA
BRANCH  29  31
ATOM     31  C   UNL A   1      42.666  22.574  27.116  1.00  0.00     0.060 A 
ATOM     32  C   UNL A   1      42.540  22.869  28.482  1.00  0.00     0.016 A 
ATOM     33  C   UNL A   1      43.237  23.507  26.250  1.00  0.00     0.016 A 
ATOM     34  C   UNL A   1      42.779  24.167  28.939  1.00  0.00     0.010 A 
ATOM     35  C   UNL A   1      43.359  24.813  26.682  1.00  0.00     0.010 A 
ATOM     36  C   UNL A   1      43.089  25.157  28.019  1.00  0.00    -0.014 A 
BRANCH  36  37
ATOM     37  C   UNL A   1      43.176  26.582  28.312  1.00  0.00     0.031 A 
ATOM     38  C   UNL A   1      41.937  27.372  28.267  1.00  0.00     0.074 A 
ATOM     39  C   UNL A   1      44.236  27.074  28.993  1.00  0.00     0.049 A 
ATOM     40  N   UNL A   1      41.880  28.609  28.603  1.00  0.00    -0.248 NA
ATOM     41  C   UNL A   1      40.658  26.845  27.797  1.00  0.00     0.031 C 
ATOM     42  C   UNL A   1      44.219  28.086  30.049  1.00  0.00     0.029 A 
ATOM     43  N   UNL A   1      45.583  26.774  28.849  1.00  0.00    -0.354 N 
ATOM     44  C   UNL A   1      40.558  28.909  28.779  1.00  0.00     0.074 A 
ATOM     45  C   UNL A   1      39.840  27.857  28.106  1.00  0.00     0.031 C 
ATOM     46  C   UNL A   1      45.475  28.442  30.351  1.00  0.00     0.029 A 
ATOM     47  C   UNL A   1      46.346  27.822  29.374  1.00  0.00     0.049 A 
ATOM     48  H   UNL A   1      45.944  25.953  28.443  1.00  0.00     0.167 HD
ATOM     49  C   UNL A   1      40.249  29.939  29.609  1.00  0.00     0.034 A 
ATOM     50  C   UNL A   1      47.361  28.430  28.700  1.00  0.00     0.034 A 
ATOM     51  C   UNL A   1      41.458  30.722  29.964  1.00  0.00     0.049 A 
ATOM     52  C   UNL A   1      46.930  29.843  28.339  1.00  0.00     0.074 A 
ATOM     53  C   UNL A   1      42.191  30.958  31.114  1.00  0.00     0.029 A 
ATOM     54  N   UNL A   1      42.252  31.199  28.926  1.00  0.00    -0.354 N 
ATOM     55  N   UNL A   1      45.942  30.480  28.915  1.00  0.00    -0.248 NA
ATOM     56  C   UNL A   1      47.510  30.617  27.249  1.00  0.00     0.031 C 
ATOM     57  C   UNL A   1      43.448  31.542  30.731  1.00  0.00     0.029 A 
ATOM     58  C   UNL A   1      43.463  31.717  29.356  1.00  0.00     0.049 A 
ATOM     59  H   UNL A   1      41.980  31.172  27.980  1.00  0.00     0.167 HD
ATOM     60  C   UNL A   1      45.575  31.556  28.156  1.00  0.00     0.074 A 
ATOM     61  C   UNL A   1      46.639  31.638  27.159  1.00  0.00     0.031 C 
ATOM     62  C   UNL A   1      44.399  32.243  28.350  1.00  0.00     0.034 A 
BRANCH  49  63
ATOM     63  C   UNL A   1      38.871  30.189  30.187  1.00  0.00     0.023 A 
ATOM     64  C   UNL A   1      38.369  29.215  31.074  1.00  0.00     0.012 A 
ATOM     65  C   UNL A   1      37.993  31.265  29.876  1.00  0.00     0.148 A 
ATOM     66  C   UNL A   1      37.086  29.297  31.627  1.00  0.00     0.002 A 
ATOM     67  C   UNL A   1      36.738  31.384  30.485  1.00  0.00     0.091 A 
ATOM     68  F   UNL A   1      38.314  32.141  28.919  1.00  0.00    -0.205 F 
ATOM     69  C   UNL A   1      36.277  30.389  31.349  1.00  0.00     0.022 A 
BRANCH  67  70
ATOM     70  S   UNL A   1      35.646  32.797  30.218  1.00  0.00     0.127 S 
ATOM     71  O   UNL A   1      36.479  33.916  30.660  1.00  0.00    -0.237 OA
ATOM     72  O   UNL A   1      35.415  32.748  28.774  1.00  0.00    -0.237 OA
ATOM     73  O   UNL A   1      34.456  32.555  31.025  1.00  0.00    -0.744 OA
ENDBRANCH  67  70
ENDBRANCH  49  63
BRANCH  50  74
ATOM     74  C   UNL A   1      48.141  27.426  27.907  1.00  0.00     0.023 A 
ATOM     75  C   UNL A   1      48.926  26.539  28.694  1.00  0.00     0.012 A 
ATOM     76  C   UNL A   1      47.689  26.987  26.650  1.00  0.00     0.148 A 
ATOM     77  C   UNL A   1      49.068  25.196  28.338  1.00  0.00     0.002 A 
ATOM     78  C   UNL A   1      47.822  25.638  26.310  1.00  0.00     0.091 A 
ATOM     79  F   UNL A   1      46.987  27.840  25.894  1.00  0.00    -0.205 F 
ATOM     80  C   UNL A   1      48.467  24.736  27.174  1.00  0.00     0.022 A 
BRANCH  78  81
ATOM     81  S   UNL A   1      46.979  24.946  24.879  1.00  0.00     0.127 S 
ATOM     82  O   UNL A   1      46.771  23.565  25.301  1.00  0.00    -0.237 OA
ATOM     83  O   UNL A   1      45.767  25.759  24.803  1.00  0.00    -0.237 OA
ATOM     84  O   UNL A   1      47.903  25.151  23.774  1.00  0.00    -0.744 OA
ENDBRANCH  78  81
ENDBRANCH  50  74
BRANCH  62  85
ATOM     85  C   UNL A   1      44.021  33.476  27.535  1.00  0.00     0.023 A 
ATOM     86  C   UNL A   1      43.794  33.374  26.149  1.00  0.00     0.012 A 
ATOM     87  C   UNL A   1      43.985  34.789  28.076  1.00  0.00     0.148 A 
ATOM     88  C   UNL A   1      43.400  34.470  25.375  1.00  0.00     0.002 A 
ATOM     89  C   UNL A   1      43.677  35.893  27.289  1.00  0.00     0.091 A 
ATOM     90  F   UNL A   1      44.244  34.996  29.369  1.00  0.00    -0.205 F 
ATOM     91  C   UNL A   1      43.335  35.732  25.947  1.00  0.00     0.022 A 
BRANCH  89  92
ATOM     92  S   UNL A   1      43.781  37.581  27.908  1.00  0.00     0.127 S 
ATOM     93  O   UNL A   1      43.112  38.324  26.838  1.00  0.00    -0.237 OA
ATOM     94  O   UNL A   1      43.024  37.489  29.154  1.00  0.00    -0.237 OA
ATOM     95  O   UNL A   1      45.197  37.880  28.061  1.00  0.00    -0.744 OA
ENDBRANCH  89  92
ENDBRANCH  62  85
ENDBRANCH  36  37
ENDBRANCH  29  31
ENDBRANCH  28  29
ENDBRANCH  27  28
ENDBRANCH  26  27
ENDBRANCH   1  26
TORSDOF 20
ENDMDL
