MODEL 1
REMARK VINA RESULT:     -11.7      0.000      0.000
REMARK SMILES O=C(CC1(CC(=O)OCCOCCOC(=O)c2ccc(-c3c4nc(c(-c5cccc(S(=O)(=O)[O-])c5F)c5ccc([nH]5)c(-c5cccc(S(=O)(=O)[O-])c5F)c5nc(c(-c6cccc(S(=O)(=O)[O-])c6F)c6ccc3[nH]6)C=C5)C=C4)cc2)CCCCC1)Nc1ccc2ccccc2n1
REMARK SMILES IDX 10 1 9 2 8 3 6 4 7 5 5 6 4 7 80 8 84 9 81 10 83 11 82 12
REMARK SMILES IDX 3 13 2 14 1 15 85 16 86 18 87 19 95 20 88 21 94 22 89 23
REMARK SMILES IDX 93 24 90 25 92 26 91 27 11 28 12 29 13 30 14 31 15 32 16 33
REMARK SMILES IDX 17 34 18 35 79 36 19 37 78 38 20 39 21 40 22 41 72 42 23 43
REMARK SMILES IDX 77 44 71 45 73 46 24 47 76 48 70 49 69 50 25 52 57 53 37 54
REMARK SMILES IDX 56 55 38 56 41 57 55 58 74 59 39 60 40 61 54 63 75 64 42 65
REMARK SMILES IDX 26 66 27 67 35 68 28 69 30 70 36 71 29 72 31 73 32 74 33 75
REMARK SMILES IDX 34 76 58 77 59 78 67 79 60 80 62 81 68 82 61 83 63 84 64 85
REMARK SMILES IDX 65 86 66 87 43 88 44 89 52 90 45 91 47 92 53 93 46 94 48 95
REMARK SMILES IDX 49 96 50 97 51 98
REMARK H PARENT 85 17 73 51 41 62
REMARK Flexibility Score: inf
ROOT
ATOM      1  C   UNL A   1      33.673  20.636  25.210  1.00  0.00     0.202 C 
ENDROOT
BRANCH   1   2
ATOM      2  C   UNL A   1      33.562  21.643  26.366  1.00  0.00     0.261 C 
BRANCH   2   3
ATOM      3  O   UNL A   1      32.251  22.199  26.589  1.00  0.00    -0.463 OA
BRANCH   3   4
ATOM      4  C   UNL A   1      32.226  23.544  26.766  1.00  0.00     0.306 C 
ATOM      5  O   UNL A   1      31.332  24.147  27.354  1.00  0.00    -0.252 OA
BRANCH   4   6
ATOM      6  C   UNL A   1      33.427  24.304  26.224  1.00  0.00     0.130 C 
BRANCH   6   7
ATOM      7  C   UNL A   1      33.317  25.567  25.312  1.00  0.00    -0.010 C 
ATOM      8  C   UNL A   1      31.851  25.639  24.774  1.00  0.00     0.008 C 
ATOM      9  C   UNL A   1      34.271  25.536  24.096  1.00  0.00     0.008 C 
ATOM     10  C   UNL A   1      31.507  24.545  23.762  1.00  0.00     0.001 C 
ATOM     11  C   UNL A   1      33.956  24.397  23.129  1.00  0.00     0.001 C 
ATOM     12  C   UNL A   1      32.518  24.483  22.625  1.00  0.00     0.000 C 
BRANCH   7  13
ATOM     13  C   UNL A   1      33.554  26.810  26.194  1.00  0.00     0.108 C 
BRANCH  13  14
ATOM     14  C   UNL A   1      33.245  28.162  25.572  1.00  0.00     0.226 C 
ATOM     15  O   UNL A   1      33.991  28.657  24.734  1.00  0.00    -0.275 OA
ATOM     16  N   UNL A   1      31.994  28.622  25.948  1.00  0.00    -0.311 N 
ATOM     17  H   UNL A   1      31.600  28.349  26.807  1.00  0.00     0.171 HD
BRANCH  16  18
ATOM     18  C   UNL A   1      31.298  29.479  25.093  1.00  0.00     0.133 A 
ATOM     19  C   UNL A   1      31.199  30.795  25.517  1.00  0.00     0.048 A 
ATOM     20  N   UNL A   1      30.646  28.992  24.025  1.00  0.00    -0.231 NA
ATOM     21  C   UNL A   1      30.216  31.589  24.957  1.00  0.00     0.014 A 
ATOM     22  C   UNL A   1      29.747  29.791  23.426  1.00  0.00     0.073 A 
ATOM     23  C   UNL A   1      29.435  31.074  23.925  1.00  0.00     0.000 A 
ATOM     24  C   UNL A   1      29.062  29.356  22.299  1.00  0.00     0.029 A 
ATOM     25  C   UNL A   1      28.361  31.807  23.405  1.00  0.00     0.010 A 
ATOM     26  C   UNL A   1      28.020  30.105  21.744  1.00  0.00     0.002 A 
ATOM     27  C   UNL A   1      27.640  31.310  22.326  1.00  0.00     0.001 A 
ENDBRANCH  16  18
ENDBRANCH  13  14
ENDBRANCH   7  13
ENDBRANCH   6   7
ENDBRANCH   4   6
ENDBRANCH   3   4
ENDBRANCH   2   3
ENDBRANCH   1   2
BRANCH   1  28
ATOM     28  O   UNL A   1      34.898  20.581  24.492  1.00  0.00    -0.374 OA
BRANCH  28  29
ATOM     29  C   UNL A   1      35.924  19.744  25.013  1.00  0.00     0.202 C 
BRANCH  29  30
ATOM     30  C   UNL A   1      37.373  20.111  24.665  1.00  0.00     0.261 C 
BRANCH  30  31
ATOM     31  O   UNL A   1      37.865  21.310  25.322  1.00  0.00    -0.460 OA
BRANCH  31  32
ATOM     32  C   UNL A   1      39.075  21.131  25.930  1.00  0.00     0.338 C 
ATOM     33  O   UNL A   1      39.803  20.164  25.765  1.00  0.00    -0.246 OA
BRANCH  32  34
ATOM     34  C   UNL A   1      39.514  22.264  26.783  1.00  0.00     0.060 A 
ATOM     35  C   UNL A   1      38.943  23.510  26.490  1.00  0.00     0.016 A 
ATOM     36  C   UNL A   1      40.572  22.190  27.694  1.00  0.00     0.016 A 
ATOM     37  C   UNL A   1      39.489  24.680  27.017  1.00  0.00     0.010 A 
ATOM     38  C   UNL A   1      41.124  23.368  28.221  1.00  0.00     0.010 A 
ATOM     39  C   UNL A   1      40.621  24.621  27.838  1.00  0.00    -0.014 A 
BRANCH  39  40
ATOM     40  C   UNL A   1      41.300  25.888  28.197  1.00  0.00     0.031 A 
ATOM     41  C   UNL A   1      42.701  26.153  27.715  1.00  0.00     0.074 A 
ATOM     42  C   UNL A   1      40.637  26.828  28.894  1.00  0.00     0.049 A 
ATOM     43  N   UNL A   1      43.368  27.277  27.700  1.00  0.00    -0.248 NA
ATOM     44  C   UNL A   1      43.446  25.004  27.176  1.00  0.00     0.031 C 
ATOM     45  C   UNL A   1      39.301  26.663  29.464  1.00  0.00     0.029 A 
ATOM     46  N   UNL A   1      40.998  28.105  29.240  1.00  0.00    -0.354 N 
ATOM     47  C   UNL A   1      44.606  26.980  27.140  1.00  0.00     0.074 A 
ATOM     48  C   UNL A   1      44.609  25.560  26.860  1.00  0.00     0.031 C 
ATOM     49  C   UNL A   1      38.957  27.795  30.099  1.00  0.00     0.029 A 
ATOM     50  C   UNL A   1      40.038  28.770  29.961  1.00  0.00     0.049 A 
ATOM     51  H   UNL A   1      41.864  28.505  28.994  1.00  0.00     0.167 HD
ATOM     52  C   UNL A   1      45.632  27.820  26.860  1.00  0.00     0.034 A 
ATOM     53  C   UNL A   1      40.018  30.033  30.430  1.00  0.00     0.034 A 
ATOM     54  C   UNL A   1      45.615  29.231  27.151  1.00  0.00     0.049 A 
ATOM     55  C   UNL A   1      41.148  30.959  30.071  1.00  0.00     0.074 A 
ATOM     56  C   UNL A   1      46.570  30.186  26.851  1.00  0.00     0.029 A 
ATOM     57  N   UNL A   1      44.597  29.884  27.829  1.00  0.00    -0.354 N 
ATOM     58  N   UNL A   1      42.221  30.714  29.357  1.00  0.00    -0.248 NA
ATOM     59  C   UNL A   1      41.037  32.352  30.527  1.00  0.00     0.031 C 
ATOM     60  C   UNL A   1      46.135  31.415  27.363  1.00  0.00     0.029 A 
ATOM     61  C   UNL A   1      44.902  31.227  27.967  1.00  0.00     0.049 A 
ATOM     62  H   UNL A   1      43.776  29.454  28.164  1.00  0.00     0.167 HD
ATOM     63  C   UNL A   1      42.893  31.926  29.246  1.00  0.00     0.074 A 
ATOM     64  C   UNL A   1      42.094  32.909  29.950  1.00  0.00     0.031 C 
ATOM     65  C   UNL A   1      44.070  32.199  28.629  1.00  0.00     0.034 A 
BRANCH  52  66
ATOM     66  C   UNL A   1      46.835  27.255  26.148  1.00  0.00     0.023 A 
ATOM     67  C   UNL A   1      46.936  27.406  24.749  1.00  0.00     0.012 A 
ATOM     68  C   UNL A   1      47.896  26.653  26.853  1.00  0.00     0.148 A 
ATOM     69  C   UNL A   1      48.059  26.947  24.061  1.00  0.00     0.002 A 
ATOM     70  C   UNL A   1      49.027  26.228  26.164  1.00  0.00     0.091 A 
ATOM     71  F   UNL A   1      47.776  26.499  28.180  1.00  0.00    -0.205 F 
ATOM     72  C   UNL A   1      49.109  26.368  24.769  1.00  0.00     0.022 A 
BRANCH  70  73
ATOM     73  S   UNL A   1      50.463  25.532  26.993  1.00  0.00     0.127 S 
ATOM     74  O   UNL A   1      51.375  25.312  25.871  1.00  0.00    -0.237 OA
ATOM     75  O   UNL A   1      50.858  26.616  27.894  1.00  0.00    -0.237 OA
ATOM     76  O   UNL A   1      49.992  24.330  27.665  1.00  0.00    -0.744 OA
ENDBRANCH  70  73
ENDBRANCH  52  66
BRANCH  53  77
ATOM     77  C   UNL A   1      38.831  30.509  31.191  1.00  0.00     0.023 A 
ATOM     78  C   UNL A   1      38.828  30.439  32.597  1.00  0.00     0.012 A 
ATOM     79  C   UNL A   1      37.734  31.097  30.530  1.00  0.00     0.148 A 
ATOM     80  C   UNL A   1      37.748  30.928  33.331  1.00  0.00     0.002 A 
ATOM     81  C   UNL A   1      36.685  31.630  31.269  1.00  0.00     0.091 A 
ATOM     82  F   UNL A   1      37.745  31.136  29.190  1.00  0.00    -0.205 F 
ATOM     83  C   UNL A   1      36.683  31.536  32.669  1.00  0.00     0.022 A 
BRANCH  81  84
ATOM     84  S   UNL A   1      35.352  32.557  30.498  1.00  0.00     0.127 S 
ATOM     85  O   UNL A   1      34.990  31.687  29.383  1.00  0.00    -0.237 OA
ATOM     86  O   UNL A   1      34.362  32.624  31.574  1.00  0.00    -0.237 OA
ATOM     87  O   UNL A   1      35.933  33.845  30.144  1.00  0.00    -0.744 OA
ENDBRANCH  81  84
ENDBRANCH  53  77
BRANCH  65  88
ATOM     88  C   UNL A   1      44.560  33.623  28.674  1.00  0.00     0.023 A 
ATOM     89  C   UNL A   1      44.197  34.517  27.647  1.00  0.00     0.012 A 
ATOM     90  C   UNL A   1      45.329  34.091  29.758  1.00  0.00     0.148 A 
ATOM     91  C   UNL A   1      44.620  35.845  27.681  1.00  0.00     0.002 A 
ATOM     92  C   UNL A   1      45.712  35.427  29.805  1.00  0.00     0.091 A 
ATOM     93  F   UNL A   1      45.685  33.221  30.716  1.00  0.00    -0.205 F 
ATOM     94  C   UNL A   1      45.368  36.302  28.763  1.00  0.00     0.022 A 
BRANCH  92  95
ATOM     95  S   UNL A   1      46.601  36.110  31.209  1.00  0.00     0.127 S 
ATOM     96  O   UNL A   1      46.839  37.484  30.773  1.00  0.00    -0.237 OA
ATOM     97  O   UNL A   1      45.629  35.975  32.296  1.00  0.00    -0.237 OA
ATOM     98  O   UNL A   1      47.788  35.279  31.363  1.00  0.00    -0.744 OA
ENDBRANCH  92  95
ENDBRANCH  65  88
ENDBRANCH  39  40
ENDBRANCH  32  34
ENDBRANCH  31  32
ENDBRANCH  30  31
ENDBRANCH  29  30
ENDBRANCH  28  29
ENDBRANCH   1  28
TORSDOF 21
ENDMDL
MODEL 2
REMARK VINA RESULT:     -11.5      2.722      3.594
REMARK SMILES O=C(CC1(CC(=O)OCCOCCOC(=O)c2ccc(-c3c4nc(c(-c5cccc(S(=O)(=O)[O-])c5F)c5ccc([nH]5)c(-c5cccc(S(=O)(=O)[O-])c5F)c5nc(c(-c6cccc(S(=O)(=O)[O-])c6F)c6ccc3[nH]6)C=C5)C=C4)cc2)CCCCC1)Nc1ccc2ccccc2n1
REMARK SMILES IDX 10 1 9 2 8 3 6 4 7 5 5 6 4 7 80 8 84 9 81 10 83 11 82 12
REMARK SMILES IDX 3 13 2 14 1 15 85 16 86 18 87 19 95 20 88 21 94 22 89 23
REMARK SMILES IDX 93 24 90 25 92 26 91 27 11 28 12 29 13 30 14 31 15 32 16 33
REMARK SMILES IDX 17 34 18 35 79 36 19 37 78 38 20 39 21 40 22 41 72 42 23 43
REMARK SMILES IDX 77 44 71 45 73 46 24 47 76 48 70 49 69 50 25 52 57 53 37 54
REMARK SMILES IDX 56 55 38 56 41 57 55 58 74 59 39 60 40 61 54 63 75 64 42 65
REMARK SMILES IDX 26 66 27 67 35 68 28 69 30 70 36 71 29 72 31 73 32 74 33 75
REMARK SMILES IDX 34 76 58 77 59 78 67 79 60 80 62 81 68 82 61 83 63 84 64 85
REMARK SMILES IDX 65 86 66 87 43 88 44 89 52 90 45 91 47 92 53 93 46 94 48 95
REMARK SMILES IDX 49 96 50 97 51 98
REMARK H PARENT 85 17 73 51 41 62
REMARK Flexibility Score: inf
ROOT
ATOM      1  C   UNL A   1      33.744  21.258  25.109  1.00  0.00     0.202 C 
ENDROOT
BRANCH   1   2
ATOM      2  C   UNL A   1      33.378  22.440  26.020  1.00  0.00     0.261 C 
BRANCH   2   3
ATOM      3  O   UNL A   1      32.026  22.452  26.520  1.00  0.00    -0.463 OA
BRANCH   3   4
ATOM      4  C   UNL A   1      31.452  23.680  26.580  1.00  0.00     0.306 C 
ATOM      5  O   UNL A   1      30.379  23.915  27.130  1.00  0.00    -0.252 OA
BRANCH   4   6
ATOM      6  C   UNL A   1      32.249  24.813  25.953  1.00  0.00     0.130 C 
BRANCH   6   7
ATOM      7  C   UNL A   1      31.810  25.574  24.662  1.00  0.00    -0.010 C 
ATOM      8  C   UNL A   1      31.058  24.558  23.744  1.00  0.00     0.008 C 
ATOM      9  C   UNL A   1      32.992  26.160  23.858  1.00  0.00     0.008 C 
ATOM     10  C   UNL A   1      31.963  23.488  23.130  1.00  0.00     0.001 C 
ATOM     11  C   UNL A   1      33.924  25.082  23.310  1.00  0.00     0.001 C 
ATOM     12  C   UNL A   1      33.167  24.097  22.424  1.00  0.00     0.000 C 
BRANCH   7  13
ATOM     13  C   UNL A   1      30.802  26.666  25.076  1.00  0.00     0.108 C 
BRANCH  13  14
ATOM     14  C   UNL A   1      31.195  27.555  26.244  1.00  0.00     0.226 C 
ATOM     15  O   UNL A   1      31.118  27.152  27.399  1.00  0.00    -0.275 OA
ATOM     16  N   UNL A   1      31.774  28.737  25.812  1.00  0.00    -0.311 N 
ATOM     17  H   UNL A   1      31.542  29.114  24.933  1.00  0.00     0.171 HD
BRANCH  16  18
ATOM     18  C   UNL A   1      32.693  29.388  26.638  1.00  0.00     0.133 A 
ATOM     19  C   UNL A   1      32.339  30.669  27.033  1.00  0.00     0.048 A 
ATOM     20  N   UNL A   1      33.896  28.842  26.879  1.00  0.00    -0.231 NA
ATOM     21  C   UNL A   1      33.334  31.507  27.496  1.00  0.00     0.014 A 
ATOM     22  C   UNL A   1      34.845  29.634  27.407  1.00  0.00     0.073 A 
ATOM     23  C   UNL A   1      34.626  31.009  27.644  1.00  0.00     0.000 A 
ATOM     24  C   UNL A   1      36.100  29.122  27.707  1.00  0.00     0.029 A 
ATOM     25  C   UNL A   1      35.683  31.852  28.008  1.00  0.00     0.010 A 
ATOM     26  C   UNL A   1      37.148  29.951  28.118  1.00  0.00     0.002 A 
ATOM     27  C   UNL A   1      36.950  31.324  28.225  1.00  0.00     0.001 A 
ENDBRANCH  16  18
ENDBRANCH  13  14
ENDBRANCH   7  13
ENDBRANCH   6   7
ENDBRANCH   4   6
ENDBRANCH   3   4
ENDBRANCH   2   3
ENDBRANCH   1   2
BRANCH   1  28
ATOM     28  O   UNL A   1      34.984  21.310  24.417  1.00  0.00    -0.374 OA
BRANCH  28  29
ATOM     29  C   UNL A   1      36.080  20.602  24.984  1.00  0.00     0.202 C 
BRANCH  29  30
ATOM     30  C   UNL A   1      37.489  21.114  24.656  1.00  0.00     0.261 C 
BRANCH  30  31
ATOM     31  O   UNL A   1      37.938  22.219  25.485  1.00  0.00    -0.460 OA
BRANCH  31  32
ATOM     32  C   UNL A   1      39.170  22.012  26.037  1.00  0.00     0.338 C 
ATOM     33  O   UNL A   1      39.884  21.049  25.807  1.00  0.00    -0.246 OA
BRANCH  32  34
ATOM     34  C   UNL A   1      39.649  23.111  26.914  1.00  0.00     0.060 A 
ATOM     35  C   UNL A   1      39.279  24.407  26.531  1.00  0.00     0.016 A 
ATOM     36  C   UNL A   1      40.576  22.935  27.946  1.00  0.00     0.016 A 
ATOM     37  C   UNL A   1      39.906  25.517  27.096  1.00  0.00     0.010 A 
ATOM     38  C   UNL A   1      41.209  24.054  28.512  1.00  0.00     0.010 A 
ATOM     39  C   UNL A   1      40.919  25.345  28.047  1.00  0.00    -0.014 A 
BRANCH  39  40
ATOM     40  C   UNL A   1      41.708  26.529  28.460  1.00  0.00     0.031 A 
ATOM     41  C   UNL A   1      43.098  26.732  27.918  1.00  0.00     0.074 A 
ATOM     42  C   UNL A   1      41.155  27.455  29.263  1.00  0.00     0.049 A 
ATOM     43  N   UNL A   1      43.845  27.804  27.949  1.00  0.00    -0.248 NA
ATOM     44  C   UNL A   1      43.726  25.580  27.252  1.00  0.00     0.031 C 
ATOM     45  C   UNL A   1      39.843  27.340  29.896  1.00  0.00     0.029 A 
ATOM     46  N   UNL A   1      41.629  28.672  29.682  1.00  0.00    -0.354 N 
ATOM     47  C   UNL A   1      45.026  27.466  27.296  1.00  0.00     0.074 A 
ATOM     48  C   UNL A   1      44.908  26.076  26.910  1.00  0.00     0.031 C 
ATOM     49  C   UNL A   1      39.619  28.439  30.634  1.00  0.00     0.029 A 
ATOM     50  C   UNL A   1      40.760  29.344  30.506  1.00  0.00     0.049 A 
ATOM     51  H   UNL A   1      42.508  29.028  29.416  1.00  0.00     0.167 HD
ATOM     52  C   UNL A   1      46.095  28.251  27.020  1.00  0.00     0.034 A 
ATOM     53  C   UNL A   1      40.860  30.565  31.069  1.00  0.00     0.034 A 
ATOM     54  C   UNL A   1      46.200  29.632  27.416  1.00  0.00     0.049 A 
ATOM     55  C   UNL A   1      42.035  31.435  30.714  1.00  0.00     0.074 A 
ATOM     56  C   UNL A   1      47.205  30.539  27.134  1.00  0.00     0.029 A 
ATOM     57  N   UNL A   1      45.270  30.300  28.200  1.00  0.00    -0.354 N 
ATOM     58  N   UNL A   1      43.047  31.172  29.922  1.00  0.00    -0.248 NA
ATOM     59  C   UNL A   1      42.052  32.791  31.279  1.00  0.00     0.031 C 
ATOM     60  C   UNL A   1      46.891  31.751  27.761  1.00  0.00     0.029 A 
ATOM     61  C   UNL A   1      45.681  31.603  28.420  1.00  0.00     0.049 A 
ATOM     62  H   UNL A   1      44.439  29.904  28.549  1.00  0.00     0.167 HD
ATOM     63  C   UNL A   1      43.800  32.338  29.864  1.00  0.00     0.074 A 
ATOM     64  C   UNL A   1      43.116  33.317  30.685  1.00  0.00     0.031 C 
ATOM     65  C   UNL A   1      44.960  32.576  29.201  1.00  0.00     0.034 A 
BRANCH  52  66
ATOM     66  C   UNL A   1      47.214  27.661  26.198  1.00  0.00     0.023 A 
ATOM     67  C   UNL A   1      48.120  26.772  26.812  1.00  0.00     0.012 A 
ATOM     68  C   UNL A   1      47.327  27.913  24.816  1.00  0.00     0.148 A 
ATOM     69  C   UNL A   1      49.134  26.162  26.073  1.00  0.00     0.002 A 
ATOM     70  C   UNL A   1      48.319  27.275  24.079  1.00  0.00     0.091 A 
ATOM     71  F   UNL A   1      46.470  28.776  24.251  1.00  0.00    -0.205 F 
ATOM     72  C   UNL A   1      49.227  26.406  24.705  1.00  0.00     0.022 A 
BRANCH  70  73
ATOM     73  S   UNL A   1      48.480  27.469  22.299  1.00  0.00     0.127 S 
ATOM     74  O   UNL A   1      49.679  28.300  22.198  1.00  0.00    -0.237 OA
ATOM     75  O   UNL A   1      48.659  26.087  21.850  1.00  0.00    -0.237 OA
ATOM     76  O   UNL A   1      47.243  28.093  21.852  1.00  0.00    -0.744 OA
ENDBRANCH  70  73
ENDBRANCH  52  66
BRANCH  53  77
ATOM     77  C   UNL A   1      39.753  31.062  31.931  1.00  0.00     0.023 A 
ATOM     78  C   UNL A   1      38.536  31.457  31.346  1.00  0.00     0.012 A 
ATOM     79  C   UNL A   1      39.878  31.076  33.335  1.00  0.00     0.148 A 
ATOM     80  C   UNL A   1      37.468  31.876  32.140  1.00  0.00     0.002 A 
ATOM     81  C   UNL A   1      38.794  31.443  34.122  1.00  0.00     0.091 A 
ATOM     82  F   UNL A   1      41.052  30.716  33.873  1.00  0.00    -0.205 F 
ATOM     83  C   UNL A   1      37.592  31.856  33.528  1.00  0.00     0.022 A 
BRANCH  81  84
ATOM     84  S   UNL A   1      38.829  31.304  35.914  1.00  0.00     0.127 S 
ATOM     85  O   UNL A   1      39.097  29.881  36.098  1.00  0.00    -0.237 OA
ATOM     86  O   UNL A   1      39.938  32.191  36.270  1.00  0.00    -0.237 OA
ATOM     87  O   UNL A   1      37.525  31.774  36.362  1.00  0.00    -0.744 OA
ENDBRANCH  81  84
ENDBRANCH  53  77
BRANCH  65  88
ATOM     88  C   UNL A   1      45.557  33.954  29.324  1.00  0.00     0.023 A 
ATOM     89  C   UNL A   1      46.263  34.306  30.492  1.00  0.00     0.012 A 
ATOM     90  C   UNL A   1      45.470  34.878  28.264  1.00  0.00     0.148 A 
ATOM     91  C   UNL A   1      46.842  35.567  30.617  1.00  0.00     0.002 A 
ATOM     92  C   UNL A   1      46.088  36.119  28.380  1.00  0.00     0.091 A 
ATOM     93  F   UNL A   1      44.776  34.536  27.168  1.00  0.00    -0.205 F 
ATOM     94  C   UNL A   1      46.764  36.469  29.559  1.00  0.00     0.022 A 
BRANCH  92  95
ATOM     95  S   UNL A   1      46.105  37.300  27.026  1.00  0.00     0.127 S 
ATOM     96  O   UNL A   1      46.356  36.434  25.876  1.00  0.00    -0.237 OA
ATOM     97  O   UNL A   1      44.756  37.865  27.080  1.00  0.00    -0.237 OA
ATOM     98  O   UNL A   1      47.163  38.249  27.348  1.00  0.00    -0.744 OA
ENDBRANCH  92  95
ENDBRANCH  65  88
ENDBRANCH  39  40
ENDBRANCH  32  34
ENDBRANCH  31  32
ENDBRANCH  30  31
ENDBRANCH  29  30
ENDBRANCH  28  29
ENDBRANCH   1  28
TORSDOF 21
ENDMDL
MODEL 3
REMARK VINA RESULT:     -11.5      1.717      7.849
REMARK SMILES O=C(CC1(CC(=O)OCCOCCOC(=O)c2ccc(-c3c4nc(c(-c5cccc(S(=O)(=O)[O-])c5F)c5ccc([nH]5)c(-c5cccc(S(=O)(=O)[O-])c5F)c5nc(c(-c6cccc(S(=O)(=O)[O-])c6F)c6ccc3[nH]6)C=C5)C=C4)cc2)CCCCC1)Nc1ccc2ccccc2n1
REMARK SMILES IDX 10 1 9 2 8 3 6 4 7 5 5 6 4 7 80 8 84 9 81 10 83 11 82 12
REMARK SMILES IDX 3 13 2 14 1 15 85 16 86 18 87 19 95 20 88 21 94 22 89 23
REMARK SMILES IDX 93 24 90 25 92 26 91 27 11 28 12 29 13 30 14 31 15 32 16 33
REMARK SMILES IDX 17 34 18 35 79 36 19 37 78 38 20 39 21 40 22 41 72 42 23 43
REMARK SMILES IDX 77 44 71 45 73 46 24 47 76 48 70 49 69 50 25 52 57 53 37 54
REMARK SMILES IDX 56 55 38 56 41 57 55 58 74 59 39 60 40 61 54 63 75 64 42 65
REMARK SMILES IDX 26 66 27 67 35 68 28 69 30 70 36 71 29 72 31 73 32 74 33 75
REMARK SMILES IDX 34 76 58 77 59 78 67 79 60 80 62 81 68 82 61 83 63 84 64 85
REMARK SMILES IDX 65 86 66 87 43 88 44 89 52 90 45 91 47 92 53 93 46 94 48 95
REMARK SMILES IDX 49 96 50 97 51 98
REMARK H PARENT 85 17 73 51 41 62
REMARK Flexibility Score: inf
ROOT
ATOM      1  C   UNL A   1      36.916  22.116  23.983  1.00  0.00     0.202 C 
ENDROOT
BRANCH   1   2
ATOM      2  C   UNL A   1      35.635  22.964  24.005  1.00  0.00     0.261 C 
BRANCH   2   3
ATOM      3  O   UNL A   1      35.123  23.360  22.716  1.00  0.00    -0.463 OA
BRANCH   3   4
ATOM      4  C   UNL A   1      34.085  24.232  22.759  1.00  0.00     0.306 C 
ATOM      5  O   UNL A   1      33.653  24.841  21.784  1.00  0.00    -0.252 OA
BRANCH   4   6
ATOM      6  C   UNL A   1      33.416  24.395  24.116  1.00  0.00     0.130 C 
BRANCH   6   7
ATOM      7  C   UNL A   1      32.004  23.825  24.463  1.00  0.00    -0.010 C 
ATOM      8  C   UNL A   1      31.432  24.664  25.651  1.00  0.00     0.008 C 
ATOM      9  C   UNL A   1      32.026  22.341  24.894  1.00  0.00     0.008 C 
ATOM     10  C   UNL A   1      32.150  24.430  26.980  1.00  0.00     0.001 C 
ATOM     11  C   UNL A   1      32.806  22.114  26.187  1.00  0.00     0.001 C 
ATOM     12  C   UNL A   1      32.234  22.950  27.329  1.00  0.00     0.000 C 
BRANCH   7  13
ATOM     13  C   UNL A   1      31.088  24.054  23.243  1.00  0.00     0.108 C 
BRANCH  13  14
ATOM     14  C   UNL A   1      30.354  25.383  23.176  1.00  0.00     0.226 C 
ATOM     15  O   UNL A   1      29.344  25.581  23.841  1.00  0.00    -0.275 OA
ATOM     16  N   UNL A   1      31.058  26.317  22.434  1.00  0.00    -0.311 N 
ATOM     17  H   UNL A   1      31.667  26.028  21.717  1.00  0.00     0.171 HD
BRANCH  16  18
ATOM     18  C   UNL A   1      30.895  27.675  22.717  1.00  0.00     0.133 A 
ATOM     19  C   UNL A   1      31.432  28.103  23.921  1.00  0.00     0.048 A 
ATOM     20  N   UNL A   1      30.127  28.445  21.931  1.00  0.00    -0.231 NA
ATOM     21  C   UNL A   1      30.978  29.295  24.451  1.00  0.00     0.014 A 
ATOM     22  C   UNL A   1      29.750  29.644  22.410  1.00  0.00     0.073 A 
ATOM     23  C   UNL A   1      30.082  30.067  23.715  1.00  0.00     0.000 A 
ATOM     24  C   UNL A   1      28.980  30.499  21.633  1.00  0.00     0.029 A 
ATOM     25  C   UNL A   1      29.517  31.226  24.261  1.00  0.00     0.010 A 
ATOM     26  C   UNL A   1      28.452  31.683  22.157  1.00  0.00     0.002 A 
ATOM     27  C   UNL A   1      28.684  32.024  23.486  1.00  0.00     0.001 A 
ENDBRANCH  16  18
ENDBRANCH  13  14
ENDBRANCH   7  13
ENDBRANCH   6   7
ENDBRANCH   4   6
ENDBRANCH   3   4
ENDBRANCH   2   3
ENDBRANCH   1   2
BRANCH   1  28
ATOM     28  O   UNL A   1      37.235  21.363  25.145  1.00  0.00    -0.374 OA
BRANCH  28  29
ATOM     29  C   UNL A   1      37.408  19.960  24.989  1.00  0.00     0.202 C 
BRANCH  29  30
ATOM     30  C   UNL A   1      38.702  19.347  25.540  1.00  0.00     0.261 C 
BRANCH  30  31
ATOM     31  O   UNL A   1      39.833  20.259  25.579  1.00  0.00    -0.460 OA
BRANCH  31  32
ATOM     32  C   UNL A   1      40.398  20.362  26.818  1.00  0.00     0.338 C 
ATOM     33  O   UNL A   1      40.785  19.418  27.489  1.00  0.00    -0.246 OA
BRANCH  32  34
ATOM     34  C   UNL A   1      40.594  21.755  27.295  1.00  0.00     0.060 A 
ATOM     35  C   UNL A   1      39.897  22.748  26.593  1.00  0.00     0.016 A 
ATOM     36  C   UNL A   1      41.554  22.126  28.241  1.00  0.00     0.016 A 
ATOM     37  C   UNL A   1      40.229  24.093  26.756  1.00  0.00     0.010 A 
ATOM     38  C   UNL A   1      41.890  23.480  28.401  1.00  0.00     0.010 A 
ATOM     39  C   UNL A   1      41.269  24.462  27.616  1.00  0.00    -0.014 A 
BRANCH  39  40
ATOM     40  C   UNL A   1      41.735  25.869  27.596  1.00  0.00     0.031 A 
ATOM     41  C   UNL A   1      40.962  26.927  28.336  1.00  0.00     0.074 A 
ATOM     42  C   UNL A   1      42.886  26.184  26.975  1.00  0.00     0.049 A 
ATOM     43  N   UNL A   1      41.325  28.142  28.654  1.00  0.00    -0.248 NA
ATOM     44  C   UNL A   1      39.605  26.569  28.780  1.00  0.00     0.031 C 
ATOM     45  C   UNL A   1      43.689  25.259  26.178  1.00  0.00     0.029 A 
ATOM     46  N   UNL A   1      43.575  27.368  26.920  1.00  0.00    -0.354 N 
ATOM     47  C   UNL A   1      40.251  28.693  29.346  1.00  0.00     0.074 A 
ATOM     48  C   UNL A   1      39.209  27.689  29.372  1.00  0.00     0.031 C 
ATOM     49  C   UNL A   1      44.760  25.915  25.702  1.00  0.00     0.029 A 
ATOM     50  C   UNL A   1      44.729  27.296  26.180  1.00  0.00     0.049 A 
ATOM     51  H   UNL A   1      43.270  28.191  27.368  1.00  0.00     0.167 HD
ATOM     52  C   UNL A   1      40.157  29.913  29.929  1.00  0.00     0.034 A 
ATOM     53  C   UNL A   1      45.672  28.229  25.941  1.00  0.00     0.034 A 
ATOM     54  C   UNL A   1      41.202  30.904  29.889  1.00  0.00     0.049 A 
ATOM     55  C   UNL A   1      45.568  29.561  26.633  1.00  0.00     0.074 A 
ATOM     56  C   UNL A   1      41.241  32.144  30.500  1.00  0.00     0.029 A 
ATOM     57  N   UNL A   1      42.387  30.772  29.180  1.00  0.00    -0.354 N 
ATOM     58  N   UNL A   1      44.643  29.993  27.457  1.00  0.00    -0.248 NA
ATOM     59  C   UNL A   1      46.668  30.511  26.414  1.00  0.00     0.031 C 
ATOM     60  C   UNL A   1      42.443  32.770  30.146  1.00  0.00     0.029 A 
ATOM     61  C   UNL A   1      43.160  31.911  29.328  1.00  0.00     0.049 A 
ATOM     62  H   UNL A   1      42.640  29.984  28.648  1.00  0.00     0.167 HD
ATOM     63  C   UNL A   1      45.066  31.247  27.883  1.00  0.00     0.074 A 
ATOM     64  C   UNL A   1      46.341  31.496  27.241  1.00  0.00     0.031 C 
ATOM     65  C   UNL A   1      44.449  32.119  28.720  1.00  0.00     0.034 A 
BRANCH  52  66
ATOM     66  C   UNL A   1      38.910  30.226  30.717  1.00  0.00     0.023 A 
ATOM     67  C   UNL A   1      38.742  29.647  31.992  1.00  0.00     0.012 A 
ATOM     68  C   UNL A   1      37.950  31.143  30.246  1.00  0.00     0.148 A 
ATOM     69  C   UNL A   1      37.630  29.956  32.775  1.00  0.00     0.002 A 
ATOM     70  C   UNL A   1      36.860  31.472  31.047  1.00  0.00     0.091 A 
ATOM     71  F   UNL A   1      38.113  31.671  29.024  1.00  0.00    -0.205 F 
ATOM     72  C   UNL A   1      36.695  30.876  32.307  1.00  0.00     0.022 A 
BRANCH  70  73
ATOM     73  S   UNL A   1      35.637  32.698  30.564  1.00  0.00     0.127 S 
ATOM     74  O   UNL A   1      36.268  33.939  31.015  1.00  0.00    -0.237 OA
ATOM     75  O   UNL A   1      35.590  32.535  29.110  1.00  0.00    -0.237 OA
ATOM     76  O   UNL A   1      34.409  32.331  31.253  1.00  0.00    -0.744 OA
ENDBRANCH  70  73
ENDBRANCH  52  66
BRANCH  53  77
ATOM     77  C   UNL A   1      46.845  27.880  25.093  1.00  0.00     0.023 A 
ATOM     78  C   UNL A   1      46.790  28.096  23.703  1.00  0.00     0.012 A 
ATOM     79  C   UNL A   1      48.038  27.400  25.669  1.00  0.00     0.148 A 
ATOM     80  C   UNL A   1      47.897  27.825  22.898  1.00  0.00     0.002 A 
ATOM     81  C   UNL A   1      49.153  27.183  24.868  1.00  0.00     0.091 A 
ATOM     82  F   UNL A   1      48.064  27.181  26.991  1.00  0.00    -0.205 F 
ATOM     83  C   UNL A   1      49.082  27.382  23.481  1.00  0.00     0.022 A 
BRANCH  81  84
ATOM     84  S   UNL A   1      50.754  26.753  25.564  1.00  0.00     0.127 S 
ATOM     85  O   UNL A   1      50.479  25.453  26.168  1.00  0.00    -0.237 OA
ATOM     86  O   UNL A   1      51.605  26.712  24.373  1.00  0.00    -0.237 OA
ATOM     87  O   UNL A   1      51.075  27.834  26.487  1.00  0.00    -0.744 OA
ENDBRANCH  81  84
ENDBRANCH  53  77
BRANCH  65  88
ATOM     88  C   UNL A   1      45.152  33.421  29.002  1.00  0.00     0.023 A 
ATOM     89  C   UNL A   1      45.967  33.538  30.147  1.00  0.00     0.012 A 
ATOM     90  C   UNL A   1      45.055  34.506  28.109  1.00  0.00     0.148 A 
ATOM     91  C   UNL A   1      46.645  34.726  30.416  1.00  0.00     0.002 A 
ATOM     92  C   UNL A   1      45.768  35.673  28.363  1.00  0.00     0.091 A 
ATOM     93  F   UNL A   1      44.258  34.386  27.037  1.00  0.00    -0.205 F 
ATOM     94  C   UNL A   1      46.554  35.788  29.520  1.00  0.00     0.022 A 
BRANCH  92  95
ATOM     95  S   UNL A   1      45.772  37.052  27.211  1.00  0.00     0.127 S 
ATOM     96  O   UNL A   1      46.595  38.030  27.917  1.00  0.00    -0.237 OA
ATOM     97  O   UNL A   1      46.401  36.471  26.023  1.00  0.00    -0.237 OA
ATOM     98  O   UNL A   1      44.372  37.413  27.028  1.00  0.00    -0.744 OA
ENDBRANCH  92  95
ENDBRANCH  65  88
ENDBRANCH  39  40
ENDBRANCH  32  34
ENDBRANCH  31  32
ENDBRANCH  30  31
ENDBRANCH  29  30
ENDBRANCH  28  29
ENDBRANCH   1  28
TORSDOF 21
ENDMDL
