MODEL 1
REMARK VINA RESULT:     -10.1      0.000      0.000
REMARK SMILES C[C@](NC(=O)CSc1cccs1)(C(=O)OCCOCCOC(=O)c1ccc(-c2c3nc(c(-c4cccc(S(=O)(=O)[O-])c4F)c4ccc([nH]4)c(-c4cccc(S(=O)(=O)[O-])c4F)c4nc(c(-c5cccc(S(=O)(=O)[O-])c5F)c5ccc2[nH]5)C=C4)C=C3)cc1)C1CC1
REMARK SMILES IDX 17 1 16 2 15 3 13 4 14 5 2 6 1 7 87 8 88 9 89 10 3 11 4 12
REMARK SMILES IDX 5 14 6 15 7 16 8 17 9 18 12 19 10 20 11 21 18 22 19 23 20 24
REMARK SMILES IDX 21 25 22 26 23 27 24 28 25 29 86 30 26 31 85 32 27 33 28 34
REMARK SMILES IDX 29 35 79 36 30 37 84 38 78 39 80 40 31 41 83 42 77 43 76 44
REMARK SMILES IDX 32 46 64 47 44 48 63 49 45 50 48 51 62 52 81 53 46 54 47 55
REMARK SMILES IDX 61 57 82 58 49 59 33 60 34 61 42 62 35 63 37 64 43 65 36 66
REMARK SMILES IDX 38 67 39 68 40 69 41 70 65 71 66 72 74 73 67 74 69 75 75 76
REMARK SMILES IDX 68 77 70 78 71 79 72 80 73 81 50 82 51 83 59 84 52 85 54 86
REMARK SMILES IDX 60 87 53 88 55 89 56 90 57 91 58 92
REMARK H PARENT 3 13 80 45 48 56
REMARK Flexibility Score: inf
ROOT
ATOM      1  C   UNL A   1      35.932  23.637  24.218  1.00  0.00     0.202 C 
ENDROOT
BRANCH   1   2
ATOM      2  C   UNL A   1      35.039  23.978  25.418  1.00  0.00     0.261 C 
BRANCH   2   3
ATOM      3  O   UNL A   1      33.856  24.708  25.073  1.00  0.00    -0.461 OA
BRANCH   3   4
ATOM      4  C   UNL A   1      32.788  23.929  24.718  1.00  0.00     0.331 C 
ATOM      5  O   UNL A   1      32.675  22.743  25.010  1.00  0.00    -0.249 OA
BRANCH   4   6
ATOM      6  C   UNL A   1      31.732  24.728  23.874  1.00  0.00     0.138 C 
ATOM      7  C   UNL A   1      30.630  23.703  23.587  1.00  0.00     0.048 C 
BRANCH   6   8
ATOM      8  C   UNL A   1      31.181  25.940  24.633  1.00  0.00     0.026 C 
ATOM      9  C   UNL A   1      29.800  25.916  25.252  1.00  0.00     0.007 C 
ATOM     10  C   UNL A   1      31.009  26.016  26.138  1.00  0.00     0.007 C 
ENDBRANCH   6   8
BRANCH   6  11
ATOM     11  N   UNL A   1      32.353  25.211  22.615  1.00  0.00    -0.340 N 
ATOM     12  C   UNL A   1      33.241  26.185  22.284  1.00  0.00     0.231 C 
ATOM     13  H   UNL A   1      32.048  24.702  21.829  1.00  0.00     0.164 HD
ATOM     14  O   UNL A   1      33.582  26.235  21.096  1.00  0.00    -0.274 OA
BRANCH  12  15
ATOM     15  C   UNL A   1      33.876  27.126  23.292  1.00  0.00     0.175 C 
BRANCH  15  16
ATOM     16  S   UNL A   1      33.289  28.834  23.243  1.00  0.00    -0.105 SA
BRANCH  16  17
ATOM     17  C   UNL A   1      32.906  29.204  24.909  1.00  0.00     0.060 A 
ATOM     18  C   UNL A   1      31.800  29.919  25.318  1.00  0.00     0.027 A 
ATOM     19  S   UNL A   1      33.814  28.625  26.233  1.00  0.00    -0.137 S 
ATOM     20  C   UNL A   1      31.711  30.009  26.737  1.00  0.00     0.013 A 
ATOM     21  C   UNL A   1      32.749  29.352  27.358  1.00  0.00     0.066 A 
ENDBRANCH  16  17
ENDBRANCH  15  16
ENDBRANCH  12  15
ENDBRANCH   6  11
ENDBRANCH   4   6
ENDBRANCH   3   4
ENDBRANCH   2   3
ENDBRANCH   1   2
BRANCH   1  22
ATOM     22  O   UNL A   1      36.044  22.271  23.829  1.00  0.00    -0.374 OA
BRANCH  22  23
ATOM     23  C   UNL A   1      35.881  21.267  24.832  1.00  0.00     0.202 C 
BRANCH  23  24
ATOM     24  C   UNL A   1      37.073  20.367  25.170  1.00  0.00     0.261 C 
BRANCH  24  25
ATOM     25  O   UNL A   1      38.330  21.044  25.014  1.00  0.00    -0.460 OA
BRANCH  25  26
ATOM     26  C   UNL A   1      39.235  20.781  25.986  1.00  0.00     0.338 C 
ATOM     27  O   UNL A   1      39.761  19.701  26.232  1.00  0.00    -0.246 OA
BRANCH  26  28
ATOM     28  C   UNL A   1      39.685  22.033  26.613  1.00  0.00     0.060 A 
ATOM     29  C   UNL A   1      39.127  23.227  26.140  1.00  0.00     0.016 A 
ATOM     30  C   UNL A   1      40.699  22.048  27.573  1.00  0.00     0.016 A 
ATOM     31  C   UNL A   1      39.626  24.449  26.580  1.00  0.00     0.010 A 
ATOM     32  C   UNL A   1      41.206  23.278  28.005  1.00  0.00     0.010 A 
ATOM     33  C   UNL A   1      40.700  24.479  27.476  1.00  0.00    -0.014 A 
BRANCH  33  34
ATOM     34  C   UNL A   1      41.393  25.766  27.724  1.00  0.00     0.031 A 
ATOM     35  C   UNL A   1      40.656  26.859  28.448  1.00  0.00     0.074 A 
ATOM     36  C   UNL A   1      42.670  25.940  27.342  1.00  0.00     0.049 A 
ATOM     37  N   UNL A   1      41.071  28.049  28.794  1.00  0.00    -0.248 NA
ATOM     38  C   UNL A   1      39.265  26.571  28.840  1.00  0.00     0.031 C 
ATOM     39  C   UNL A   1      43.482  24.950  26.638  1.00  0.00     0.029 A 
ATOM     40  N   UNL A   1      43.500  27.023  27.481  1.00  0.00    -0.354 N 
ATOM     41  C   UNL A   1      39.994  28.657  29.428  1.00  0.00     0.074 A 
ATOM     42  C   UNL A   1      38.898  27.715  29.401  1.00  0.00     0.031 C 
ATOM     43  C   UNL A   1      44.690  25.481  26.381  1.00  0.00     0.029 A 
ATOM     44  C   UNL A   1      44.729  26.851  26.888  1.00  0.00     0.049 A 
ATOM     45  H   UNL A   1      43.242  27.844  27.958  1.00  0.00     0.167 HD
ATOM     46  C   UNL A   1      39.930  29.882  30.002  1.00  0.00     0.034 A 
ATOM     47  C   UNL A   1      45.759  27.711  26.759  1.00  0.00     0.034 A 
ATOM     48  C   UNL A   1      41.027  30.812  30.037  1.00  0.00     0.049 A 
ATOM     49  C   UNL A   1      45.653  29.077  27.387  1.00  0.00     0.074 A 
ATOM     50  C   UNL A   1      41.072  32.069  30.612  1.00  0.00     0.029 A 
ATOM     51  N   UNL A   1      42.269  30.588  29.466  1.00  0.00    -0.354 N 
ATOM     52  N   UNL A   1      44.669  29.593  28.083  1.00  0.00    -0.248 NA
ATOM     53  C   UNL A   1      46.816  29.966  27.244  1.00  0.00     0.031 C 
ATOM     54  C   UNL A   1      42.339  32.612  30.373  1.00  0.00     0.029 A 
ATOM     55  C   UNL A   1      43.089  31.684  29.669  1.00  0.00     0.049 A 
ATOM     56  H   UNL A   1      42.531  29.769  28.985  1.00  0.00     0.167 HD
ATOM     57  C   UNL A   1      45.106  30.849  28.492  1.00  0.00     0.074 A 
ATOM     58  C   UNL A   1      46.454  31.005  27.985  1.00  0.00     0.031 C 
ATOM     59  C   UNL A   1      44.449  31.796  29.206  1.00  0.00     0.034 A 
BRANCH  46  60
ATOM     60  C   UNL A   1      38.641  30.268  30.676  1.00  0.00     0.023 A 
ATOM     61  C   UNL A   1      38.398  29.848  32.000  1.00  0.00     0.012 A 
ATOM     62  C   UNL A   1      37.693  31.084  30.026  1.00  0.00     0.148 A 
ATOM     63  C   UNL A   1      37.222  30.208  32.657  1.00  0.00     0.002 A 
ATOM     64  C   UNL A   1      36.542  31.472  30.701  1.00  0.00     0.091 A 
ATOM     65  F   UNL A   1      37.931  31.453  28.760  1.00  0.00    -0.205 F 
ATOM     66  C   UNL A   1      36.299  31.027  32.012  1.00  0.00     0.022 A 
BRANCH  64  67
ATOM     67  S   UNL A   1      35.326  32.583  29.984  1.00  0.00     0.127 S 
ATOM     68  O   UNL A   1      36.156  33.727  29.607  1.00  0.00    -0.237 OA
ATOM     69  O   UNL A   1      34.821  31.799  28.856  1.00  0.00    -0.237 OA
ATOM     70  O   UNL A   1      34.347  32.838  31.032  1.00  0.00    -0.744 OA
ENDBRANCH  64  67
ENDBRANCH  46  60
BRANCH  47  71
ATOM     71  C   UNL A   1      46.994  27.293  26.038  1.00  0.00     0.023 A 
ATOM     72  C   UNL A   1      47.123  27.559  24.662  1.00  0.00     0.012 A 
ATOM     73  C   UNL A   1      48.047  26.642  26.713  1.00  0.00     0.148 A 
ATOM     74  C   UNL A   1      48.262  27.155  23.963  1.00  0.00     0.002 A 
ATOM     75  C   UNL A   1      49.202  26.295  26.023  1.00  0.00     0.091 A 
ATOM     76  F   UNL A   1      47.898  26.378  28.019  1.00  0.00    -0.205 F 
ATOM     77  C   UNL A   1      49.304  26.534  24.644  1.00  0.00     0.022 A 
BRANCH  75  78
ATOM     78  S   UNL A   1      50.642  25.616  26.855  1.00  0.00     0.127 S 
ATOM     79  O   UNL A   1      51.551  25.380  25.737  1.00  0.00    -0.237 OA
ATOM     80  O   UNL A   1      51.027  26.713  27.744  1.00  0.00    -0.237 OA
ATOM     81  O   UNL A   1      50.164  24.428  27.551  1.00  0.00    -0.744 OA
ENDBRANCH  75  78
ENDBRANCH  47  71
BRANCH  59  82
ATOM     82  C   UNL A   1      45.186  33.073  29.516  1.00  0.00     0.023 A 
ATOM     83  C   UNL A   1      45.897  33.194  30.725  1.00  0.00     0.012 A 
ATOM     84  C   UNL A   1      45.230  34.124  28.579  1.00  0.00     0.148 A 
ATOM     85  C   UNL A   1      46.611  34.356  31.015  1.00  0.00     0.002 A 
ATOM     86  C   UNL A   1      45.984  35.259  28.853  1.00  0.00     0.091 A 
ATOM     87  F   UNL A   1      44.533  33.998  27.440  1.00  0.00    -0.205 F 
ATOM     88  C   UNL A   1      46.665  35.383  30.075  1.00  0.00     0.022 A 
BRANCH  86  89
ATOM     89  S   UNL A   1      46.184  36.589  27.660  1.00  0.00     0.127 S 
ATOM     90  O   UNL A   1      46.346  37.750  28.533  1.00  0.00    -0.237 OA
ATOM     91  O   UNL A   1      47.398  36.188  26.946  1.00  0.00    -0.237 OA
ATOM     92  O   UNL A   1      44.977  36.578  26.845  1.00  0.00    -0.744 OA
ENDBRANCH  86  89
ENDBRANCH  59  82
ENDBRANCH  33  34
ENDBRANCH  26  28
ENDBRANCH  25  26
ENDBRANCH  24  25
ENDBRANCH  23  24
ENDBRANCH  22  23
ENDBRANCH   1  22
TORSDOF 22
ENDMDL
MODEL 2
REMARK VINA RESULT:     -10.0      1.440      7.978
REMARK SMILES C[C@](NC(=O)CSc1cccs1)(C(=O)OCCOCCOC(=O)c1ccc(-c2c3nc(c(-c4cccc(S(=O)(=O)[O-])c4F)c4ccc([nH]4)c(-c4cccc(S(=O)(=O)[O-])c4F)c4nc(c(-c5cccc(S(=O)(=O)[O-])c5F)c5ccc2[nH]5)C=C4)C=C3)cc1)C1CC1
REMARK SMILES IDX 17 1 16 2 15 3 13 4 14 5 2 6 1 7 87 8 88 9 89 10 3 11 4 12
REMARK SMILES IDX 5 14 6 15 7 16 8 17 9 18 12 19 10 20 11 21 18 22 19 23 20 24
REMARK SMILES IDX 21 25 22 26 23 27 24 28 25 29 86 30 26 31 85 32 27 33 28 34
REMARK SMILES IDX 29 35 79 36 30 37 84 38 78 39 80 40 31 41 83 42 77 43 76 44
REMARK SMILES IDX 32 46 64 47 44 48 63 49 45 50 48 51 62 52 81 53 46 54 47 55
REMARK SMILES IDX 61 57 82 58 49 59 33 60 34 61 42 62 35 63 37 64 43 65 36 66
REMARK SMILES IDX 38 67 39 68 40 69 41 70 65 71 66 72 74 73 67 74 69 75 75 76
REMARK SMILES IDX 68 77 70 78 71 79 72 80 73 81 50 82 51 83 59 84 52 85 54 86
REMARK SMILES IDX 60 87 53 88 55 89 56 90 57 91 58 92
REMARK H PARENT 3 13 80 45 48 56
REMARK Flexibility Score: inf
ROOT
ATOM      1  C   UNL A   1      35.573  23.461  24.381  1.00  0.00     0.202 C 
ENDROOT
BRANCH   1   2
ATOM      2  C   UNL A   1      35.161  23.621  25.850  1.00  0.00     0.261 C 
BRANCH   2   3
ATOM      3  O   UNL A   1      34.381  24.794  26.110  1.00  0.00    -0.461 OA
BRANCH   3   4
ATOM      4  C   UNL A   1      33.042  24.655  25.857  1.00  0.00     0.331 C 
ATOM      5  O   UNL A   1      32.463  23.576  25.794  1.00  0.00    -0.249 OA
BRANCH   4   6
ATOM      6  C   UNL A   1      32.338  26.041  25.640  1.00  0.00     0.138 C 
ATOM      7  C   UNL A   1      30.939  25.675  25.134  1.00  0.00     0.048 C 
BRANCH   6   8
ATOM      8  C   UNL A   1      32.264  26.863  26.932  1.00  0.00     0.026 C 
ATOM      9  C   UNL A   1      33.103  28.108  27.119  1.00  0.00     0.007 C 
ATOM     10  C   UNL A   1      31.607  28.224  27.058  1.00  0.00     0.007 C 
ENDBRANCH   6   8
BRANCH   6  11
ATOM     11  N   UNL A   1      33.082  26.832  24.627  1.00  0.00    -0.340 N 
ATOM     12  C   UNL A   1      32.748  27.725  23.658  1.00  0.00     0.231 C 
ATOM     13  H   UNL A   1      34.052  26.670  24.667  1.00  0.00     0.164 HD
ATOM     14  O   UNL A   1      33.688  28.243  23.044  1.00  0.00    -0.274 OA
BRANCH  12  15
ATOM     15  C   UNL A   1      31.323  28.161  23.368  1.00  0.00     0.175 C 
BRANCH  15  16
ATOM     16  S   UNL A   1      30.800  29.698  24.160  1.00  0.00    -0.105 SA
BRANCH  16  17
ATOM     17  C   UNL A   1      29.545  30.316  23.110  1.00  0.00     0.060 A 
ATOM     18  C   UNL A   1      29.201  29.767  21.894  1.00  0.00     0.027 A 
ATOM     19  S   UNL A   1      28.526  31.619  23.531  1.00  0.00    -0.137 S 
ATOM     20  C   UNL A   1      28.100  30.440  21.290  1.00  0.00     0.013 A 
ATOM     21  C   UNL A   1      27.638  31.473  22.074  1.00  0.00     0.066 A 
ENDBRANCH  16  17
ENDBRANCH  15  16
ENDBRANCH  12  15
ENDBRANCH   6  11
ENDBRANCH   4   6
ENDBRANCH   3   4
ENDBRANCH   2   3
ENDBRANCH   1   2
BRANCH   1  22
ATOM     22  O   UNL A   1      35.721  22.142  23.863  1.00  0.00    -0.374 OA
BRANCH  22  23
ATOM     23  C   UNL A   1      35.738  21.052  24.786  1.00  0.00     0.202 C 
BRANCH  23  24
ATOM     24  C   UNL A   1      37.085  20.417  25.147  1.00  0.00     0.261 C 
BRANCH  24  25
ATOM     25  O   UNL A   1      38.164  21.364  25.104  1.00  0.00    -0.460 OA
BRANCH  25  26
ATOM     26  C   UNL A   1      39.187  21.089  25.947  1.00  0.00     0.338 C 
ATOM     27  O   UNL A   1      39.819  20.042  26.024  1.00  0.00    -0.246 OA
BRANCH  26  28
ATOM     28  C   UNL A   1      39.603  22.310  26.655  1.00  0.00     0.060 A 
ATOM     29  C   UNL A   1      38.902  23.489  26.373  1.00  0.00     0.016 A 
ATOM     30  C   UNL A   1      40.714  22.324  27.501  1.00  0.00     0.016 A 
ATOM     31  C   UNL A   1      39.348  24.702  26.887  1.00  0.00     0.010 A 
ATOM     32  C   UNL A   1      41.166  23.546  28.007  1.00  0.00     0.010 A 
ATOM     33  C   UNL A   1      40.510  24.742  27.665  1.00  0.00    -0.014 A 
BRANCH  33  34
ATOM     34  C   UNL A   1      41.121  26.056  27.976  1.00  0.00     0.031 A 
ATOM     35  C   UNL A   1      42.526  26.331  27.516  1.00  0.00     0.074 A 
ATOM     36  C   UNL A   1      40.418  27.001  28.625  1.00  0.00     0.049 A 
ATOM     37  N   UNL A   1      43.246  27.413  27.654  1.00  0.00    -0.248 NA
ATOM     38  C   UNL A   1      43.212  25.240  26.801  1.00  0.00     0.031 C 
ATOM     39  C   UNL A   1      39.049  26.847  29.113  1.00  0.00     0.029 A 
ATOM     40  N   UNL A   1      40.770  28.273  28.997  1.00  0.00    -0.354 N 
ATOM     41  C   UNL A   1      44.470  27.132  27.059  1.00  0.00     0.074 A 
ATOM     42  C   UNL A   1      44.406  25.770  26.578  1.00  0.00     0.031 C 
ATOM     43  C   UNL A   1      38.684  27.975  29.747  1.00  0.00     0.029 A 
ATOM     44  C   UNL A   1      39.798  28.921  29.722  1.00  0.00     0.049 A 
ATOM     45  H   UNL A   1      41.635  28.683  28.768  1.00  0.00     0.167 HD
ATOM     46  C   UNL A   1      45.544  27.943  26.905  1.00  0.00     0.034 A 
ATOM     47  C   UNL A   1      39.815  30.135  30.309  1.00  0.00     0.034 A 
ATOM     48  C   UNL A   1      45.599  29.301  27.375  1.00  0.00     0.049 A 
ATOM     49  C   UNL A   1      41.032  31.009  30.143  1.00  0.00     0.074 A 
ATOM     50  C   UNL A   1      46.631  30.214  27.252  1.00  0.00     0.029 A 
ATOM     51  N   UNL A   1      44.580  29.939  28.066  1.00  0.00    -0.354 N 
ATOM     52  N   UNL A   1      42.137  30.770  29.479  1.00  0.00    -0.248 NA
ATOM     53  C   UNL A   1      40.988  32.335  30.777  1.00  0.00     0.031 C 
ATOM     54  C   UNL A   1      46.241  31.400  27.884  1.00  0.00     0.029 A 
ATOM     55  C   UNL A   1      44.959  31.233  28.380  1.00  0.00     0.049 A 
ATOM     56  H   UNL A   1      43.715  29.532  28.299  1.00  0.00     0.167 HD
ATOM     57  C   UNL A   1      42.904  31.927  29.582  1.00  0.00     0.074 A 
ATOM     58  C   UNL A   1      42.125  32.873  30.355  1.00  0.00     0.031 C 
ATOM     59  C   UNL A   1      44.145  32.179  29.100  1.00  0.00     0.034 A 
BRANCH  46  60
ATOM     60  C   UNL A   1      46.732  27.393  26.162  1.00  0.00     0.023 A 
ATOM     61  C   UNL A   1      46.814  27.562  24.765  1.00  0.00     0.012 A 
ATOM     62  C   UNL A   1      47.787  26.755  26.845  1.00  0.00     0.148 A 
ATOM     63  C   UNL A   1      47.913  27.081  24.053  1.00  0.00     0.002 A 
ATOM     64  C   UNL A   1      48.898  26.314  26.134  1.00  0.00     0.091 A 
ATOM     65  F   UNL A   1      47.679  26.582  28.169  1.00  0.00    -0.205 F 
ATOM     66  C   UNL A   1      48.958  26.466  24.738  1.00  0.00     0.022 A 
BRANCH  64  67
ATOM     67  S   UNL A   1      50.327  25.574  26.932  1.00  0.00     0.127 S 
ATOM     68  O   UNL A   1      51.217  25.349  25.793  1.00  0.00    -0.237 OA
ATOM     69  O   UNL A   1      50.757  26.637  27.841  1.00  0.00    -0.237 OA
ATOM     70  O   UNL A   1      49.840  24.371  27.593  1.00  0.00    -0.744 OA
ENDBRANCH  64  67
ENDBRANCH  46  60
BRANCH  47  71
ATOM     71  C   UNL A   1      38.629  30.610  31.075  1.00  0.00     0.023 A 
ATOM     72  C   UNL A   1      38.573  30.415  32.467  1.00  0.00     0.012 A 
ATOM     73  C   UNL A   1      37.560  31.266  30.430  1.00  0.00     0.148 A 
ATOM     74  C   UNL A   1      37.460  30.831  33.200  1.00  0.00     0.002 A 
ATOM     75  C   UNL A   1      36.482  31.729  31.175  1.00  0.00     0.091 A 
ATOM     76  F   UNL A   1      37.621  31.425  29.100  1.00  0.00    -0.205 F 
ATOM     77  C   UNL A   1      36.421  31.498  32.557  1.00  0.00     0.022 A 
BRANCH  75  78
ATOM     78  S   UNL A   1      35.172  32.715  30.442  1.00  0.00     0.127 S 
ATOM     79  O   UNL A   1      34.206  32.791  31.534  1.00  0.00    -0.237 OA
ATOM     80  O   UNL A   1      35.863  33.969  30.141  1.00  0.00    -0.237 OA
ATOM     81  O   UNL A   1      34.744  31.976  29.261  1.00  0.00    -0.744 OA
ENDBRANCH  75  78
ENDBRANCH  47  71
BRANCH  59  82
ATOM     82  C   UNL A   1      44.729  33.543  29.358  1.00  0.00     0.023 A 
ATOM     83  C   UNL A   1      45.361  33.813  30.588  1.00  0.00     0.012 A 
ATOM     84  C   UNL A   1      44.712  34.535  28.357  1.00  0.00     0.148 A 
ATOM     85  C   UNL A   1      45.934  35.060  30.833  1.00  0.00     0.002 A 
ATOM     86  C   UNL A   1      45.329  35.759  28.590  1.00  0.00     0.091 A 
ATOM     87  F   UNL A   1      44.091  34.267  27.199  1.00  0.00    -0.205 F 
ATOM     88  C   UNL A   1      45.929  36.028  29.831  1.00  0.00     0.022 A 
BRANCH  86  89
ATOM     89  S   UNL A   1      45.451  37.028  27.323  1.00  0.00     0.127 S 
ATOM     90  O   UNL A   1      44.045  37.265  27.003  1.00  0.00    -0.237 OA
ATOM     91  O   UNL A   1      46.107  38.123  28.041  1.00  0.00    -0.237 OA
ATOM     92  O   UNL A   1      46.251  36.447  26.253  1.00  0.00    -0.744 OA
ENDBRANCH  86  89
ENDBRANCH  59  82
ENDBRANCH  33  34
ENDBRANCH  26  28
ENDBRANCH  25  26
ENDBRANCH  24  25
ENDBRANCH  23  24
ENDBRANCH  22  23
ENDBRANCH   1  22
TORSDOF 22
ENDMDL
MODEL 3
REMARK VINA RESULT:      -9.9      5.051      8.236
REMARK SMILES C[C@](NC(=O)CSc1cccs1)(C(=O)OCCOCCOC(=O)c1ccc(-c2c3nc(c(-c4cccc(S(=O)(=O)[O-])c4F)c4ccc([nH]4)c(-c4cccc(S(=O)(=O)[O-])c4F)c4nc(c(-c5cccc(S(=O)(=O)[O-])c5F)c5ccc2[nH]5)C=C4)C=C3)cc1)C1CC1
REMARK SMILES IDX 17 1 16 2 15 3 13 4 14 5 2 6 1 7 87 8 88 9 89 10 3 11 4 12
REMARK SMILES IDX 5 14 6 15 7 16 8 17 9 18 12 19 10 20 11 21 18 22 19 23 20 24
REMARK SMILES IDX 21 25 22 26 23 27 24 28 25 29 86 30 26 31 85 32 27 33 28 34
REMARK SMILES IDX 29 35 79 36 30 37 84 38 78 39 80 40 31 41 83 42 77 43 76 44
REMARK SMILES IDX 32 46 64 47 44 48 63 49 45 50 48 51 62 52 81 53 46 54 47 55
REMARK SMILES IDX 61 57 82 58 49 59 33 60 34 61 42 62 35 63 37 64 43 65 36 66
REMARK SMILES IDX 38 67 39 68 40 69 41 70 65 71 66 72 74 73 67 74 69 75 75 76
REMARK SMILES IDX 68 77 70 78 71 79 72 80 73 81 50 82 51 83 59 84 52 85 54 86
REMARK SMILES IDX 60 87 53 88 55 89 56 90 57 91 58 92
REMARK H PARENT 3 13 80 45 48 56
REMARK Flexibility Score: inf
ROOT
ATOM      1  C   UNL A   1      31.299  29.975  24.747  1.00  0.00     0.202 C 
ENDROOT
BRANCH   1   2
ATOM      2  C   UNL A   1      31.216  28.449  24.615  1.00  0.00     0.261 C 
BRANCH   2   3
ATOM      3  O   UNL A   1      32.490  27.807  24.487  1.00  0.00    -0.461 OA
BRANCH   3   4
ATOM      4  C   UNL A   1      32.776  26.906  25.477  1.00  0.00     0.331 C 
ATOM      5  O   UNL A   1      32.975  27.211  26.649  1.00  0.00    -0.249 OA
BRANCH   4   6
ATOM      6  C   UNL A   1      32.837  25.434  24.934  1.00  0.00     0.138 C 
ATOM      7  C   UNL A   1      34.001  24.800  25.702  1.00  0.00     0.048 C 
BRANCH   6   8
ATOM      8  C   UNL A   1      31.530  24.672  25.177  1.00  0.00     0.026 C 
ATOM      9  C   UNL A   1      30.489  25.188  26.146  1.00  0.00     0.007 C 
ATOM     10  C   UNL A   1      30.165  25.109  24.681  1.00  0.00     0.007 C 
ENDBRANCH   6   8
BRANCH   6  11
ATOM     11  N   UNL A   1      33.104  25.446  23.474  1.00  0.00    -0.340 N 
ATOM     12  C   UNL A   1      33.415  24.511  22.538  1.00  0.00     0.231 C 
ATOM     13  H   UNL A   1      33.042  26.351  23.091  1.00  0.00     0.164 HD
ATOM     14  O   UNL A   1      33.492  24.911  21.369  1.00  0.00    -0.274 OA
BRANCH  12  15
ATOM     15  C   UNL A   1      33.580  23.033  22.843  1.00  0.00     0.175 C 
BRANCH  15  16
ATOM     16  S   UNL A   1      32.093  22.026  22.651  1.00  0.00    -0.105 SA
BRANCH  16  17
ATOM     17  C   UNL A   1      32.378  20.639  23.679  1.00  0.00     0.060 A 
ATOM     18  C   UNL A   1      32.400  19.332  23.242  1.00  0.00     0.027 A 
ATOM     19  S   UNL A   1      32.768  20.763  25.336  1.00  0.00    -0.137 S 
ATOM     20  C   UNL A   1      32.721  18.420  24.288  1.00  0.00     0.013 A 
ATOM     21  C   UNL A   1      32.940  19.067  25.484  1.00  0.00     0.066 A 
ENDBRANCH  16  17
ENDBRANCH  15  16
ENDBRANCH  12  15
ENDBRANCH   6  11
ENDBRANCH   4   6
ENDBRANCH   3   4
ENDBRANCH   2   3
ENDBRANCH   1   2
BRANCH   1  22
ATOM     22  O   UNL A   1      31.221  30.544  26.050  1.00  0.00    -0.374 OA
BRANCH  22  23
ATOM     23  C   UNL A   1      30.778  31.897  26.172  1.00  0.00     0.202 C 
BRANCH  23  24
ATOM     24  C   UNL A   1      31.745  32.936  26.747  1.00  0.00     0.261 C 
BRANCH  24  25
ATOM     25  O   UNL A   1      32.980  32.350  27.185  1.00  0.00    -0.460 OA
BRANCH  25  26
ATOM     26  C   UNL A   1      33.769  33.177  27.910  1.00  0.00     0.338 C 
ATOM     27  O   UNL A   1      33.452  34.252  28.407  1.00  0.00    -0.246 OA
BRANCH  26  28
ATOM     28  C   UNL A   1      35.049  32.519  28.217  1.00  0.00     0.060 A 
ATOM     29  C   UNL A   1      35.004  31.175  28.608  1.00  0.00     0.016 A 
ATOM     30  C   UNL A   1      36.254  33.224  28.217  1.00  0.00     0.016 A 
ATOM     31  C   UNL A   1      36.158  30.545  29.063  1.00  0.00     0.010 A 
ATOM     32  C   UNL A   1      37.410  32.592  28.684  1.00  0.00     0.010 A 
ATOM     33  C   UNL A   1      37.355  31.266  29.149  1.00  0.00    -0.014 A 
BRANCH  33  34
ATOM     34  C   UNL A   1      38.499  30.673  29.881  1.00  0.00     0.031 A 
ATOM     35  C   UNL A   1      38.778  31.131  31.287  1.00  0.00     0.074 A 
ATOM     36  C   UNL A   1      39.251  29.714  29.314  1.00  0.00     0.049 A 
ATOM     37  N   UNL A   1      39.704  30.733  32.119  1.00  0.00    -0.248 NA
ATOM     38  C   UNL A   1      37.892  32.176  31.829  1.00  0.00     0.031 C 
ATOM     39  C   UNL A   1      39.070  29.190  27.962  1.00  0.00     0.029 A 
ATOM     40  N   UNL A   1      40.330  29.023  29.804  1.00  0.00    -0.354 N 
ATOM     41  C   UNL A   1      39.523  31.485  33.274  1.00  0.00     0.074 A 
ATOM     42  C   UNL A   1      38.414  32.380  33.030  1.00  0.00     0.031 C 
ATOM     43  C   UNL A   1      40.025  28.276  27.718  1.00  0.00     0.029 A 
ATOM     44  C   UNL A   1      40.891  28.163  28.890  1.00  0.00     0.049 A 
ATOM     45  H   UNL A   1      40.670  29.132  30.721  1.00  0.00     0.167 HD
ATOM     46  C   UNL A   1      40.205  31.420  34.442  1.00  0.00     0.034 A 
ATOM     47  C   UNL A   1      41.989  27.386  28.988  1.00  0.00     0.034 A 
ATOM     48  C   UNL A   1      41.300  30.520  34.685  1.00  0.00     0.049 A 
ATOM     49  C   UNL A   1      42.744  27.350  30.291  1.00  0.00     0.074 A 
ATOM     50  C   UNL A   1      42.044  30.361  35.840  1.00  0.00     0.029 A 
ATOM     51  N   UNL A   1      41.814  29.633  33.752  1.00  0.00    -0.354 N 
ATOM     52  N   UNL A   1      42.491  27.982  31.412  1.00  0.00    -0.248 NA
ATOM     53  C   UNL A   1      43.916  26.464  30.356  1.00  0.00     0.031 C 
ATOM     54  C   UNL A   1      43.020  29.387  35.599  1.00  0.00     0.029 A 
ATOM     55  C   UNL A   1      42.868  28.925  34.302  1.00  0.00     0.049 A 
ATOM     56  H   UNL A   1      41.478  29.523  32.833  1.00  0.00     0.167 HD
ATOM     57  C   UNL A   1      43.445  27.544  32.324  1.00  0.00     0.074 A 
ATOM     58  C   UNL A   1      44.268  26.574  31.630  1.00  0.00     0.031 C 
ATOM     59  C   UNL A   1      43.638  27.921  33.613  1.00  0.00     0.034 A 
BRANCH  46  60
ATOM     60  C   UNL A   1      39.756  32.321  35.561  1.00  0.00     0.023 A 
ATOM     61  C   UNL A   1      38.964  31.793  36.601  1.00  0.00     0.012 A 
ATOM     62  C   UNL A   1      40.154  33.672  35.614  1.00  0.00     0.148 A 
ATOM     63  C   UNL A   1      38.550  32.599  37.661  1.00  0.00     0.002 A 
ATOM     64  C   UNL A   1      39.773  34.459  36.695  1.00  0.00     0.091 A 
ATOM     65  F   UNL A   1      40.887  34.161  34.605  1.00  0.00    -0.205 F 
ATOM     66  C   UNL A   1      38.963  33.928  37.713  1.00  0.00     0.022 A 
BRANCH  64  67
ATOM     67  S   UNL A   1      40.310  36.162  36.891  1.00  0.00     0.127 S 
ATOM     68  O   UNL A   1      39.564  36.572  38.080  1.00  0.00    -0.237 OA
ATOM     69  O   UNL A   1      41.750  36.008  37.098  1.00  0.00    -0.237 OA
ATOM     70  O   UNL A   1      39.943  36.843  35.657  1.00  0.00    -0.744 OA
ENDBRANCH  64  67
ENDBRANCH  46  60
BRANCH  47  71
ATOM     71  C   UNL A   1      42.417  26.550  27.831  1.00  0.00     0.023 A 
ATOM     72  C   UNL A   1      43.294  27.086  26.870  1.00  0.00     0.012 A 
ATOM     73  C   UNL A   1      41.968  25.223  27.685  1.00  0.00     0.148 A 
ATOM     74  C   UNL A   1      43.689  26.328  25.765  1.00  0.00     0.002 A 
ATOM     75  C   UNL A   1      42.411  24.455  26.615  1.00  0.00     0.091 A 
ATOM     76  F   UNL A   1      41.116  24.735  28.599  1.00  0.00    -0.205 F 
ATOM     77  C   UNL A   1      43.257  25.011  25.644  1.00  0.00     0.022 A 
BRANCH  75  78
ATOM     78  S   UNL A   1      42.009  22.710  26.462  1.00  0.00     0.127 S 
ATOM     79  O   UNL A   1      42.608  22.157  27.673  1.00  0.00    -0.237 OA
ATOM     80  O   UNL A   1      40.546  22.733  26.452  1.00  0.00    -0.237 OA
ATOM     81  O   UNL A   1      42.605  22.284  25.203  1.00  0.00    -0.744 OA
ENDBRANCH  75  78
ENDBRANCH  47  71
BRANCH  59  82
ATOM     82  C   UNL A   1      44.757  27.259  34.372  1.00  0.00     0.023 A 
ATOM     83  C   UNL A   1      46.038  27.844  34.381  1.00  0.00     0.012 A 
ATOM     84  C   UNL A   1      44.523  26.096  35.131  1.00  0.00     0.148 A 
ATOM     85  C   UNL A   1      47.079  27.263  35.104  1.00  0.00     0.002 A 
ATOM     86  C   UNL A   1      45.552  25.548  35.889  1.00  0.00     0.091 A 
ATOM     87  F   UNL A   1      43.302  25.542  35.097  1.00  0.00    -0.205 F 
ATOM     88  C   UNL A   1      46.834  26.123  35.867  1.00  0.00     0.022 A 
BRANCH  86  89
ATOM     89  S   UNL A   1      45.300  24.137  36.973  1.00  0.00     0.127 S 
ATOM     90  O   UNL A   1      46.643  23.935  37.515  1.00  0.00    -0.237 OA
ATOM     91  O   UNL A   1      44.325  24.653  37.935  1.00  0.00    -0.237 OA
ATOM     92  O   UNL A   1      44.797  23.067  36.123  1.00  0.00    -0.744 OA
ENDBRANCH  86  89
ENDBRANCH  59  82
ENDBRANCH  33  34
ENDBRANCH  26  28
ENDBRANCH  25  26
ENDBRANCH  24  25
ENDBRANCH  23  24
ENDBRANCH  22  23
ENDBRANCH   1  22
TORSDOF 22
ENDMDL
