MODEL 1
REMARK VINA RESULT:     -12.1      0.000      0.000
REMARK SMILES CS(=O)(=O)c1ccc(/C=C(/C(=O)OCCOCCOC(=O)c2ccc(-c3c4nc(c(-c5cccc(S(=O)(=O)[O-])c5F)c5ccc([nH]5)c(-c5cccc(S(=O)(=O)[O-])c5F)c5nc(c(-c6cccc(S(=O)(=O)[O-])c6F)c6ccc3[nH]6)C=C5)C=C4)cc2)c2ccc(F)cc2)cc1
REMARK SMILES IDX 17 1 16 2 15 3 14 4 13 5 11 6 12 7 10 8 9 9 8 10 5 11 6 12
REMARK SMILES IDX 93 13 7 14 92 15 2 16 1 17 3 18 4 19 85 20 86 21 91 22 87 23
REMARK SMILES IDX 90 24 88 25 89 26 18 27 19 28 20 29 21 30 22 31 23 32 84 33
REMARK SMILES IDX 24 34 83 35 25 36 26 37 27 38 77 39 28 40 82 41 76 42 78 43
REMARK SMILES IDX 29 44 81 45 75 46 74 47 30 49 62 50 42 51 61 52 43 53 46 54
REMARK SMILES IDX 60 55 79 56 44 57 45 58 59 60 80 61 47 62 31 63 32 64 40 65
REMARK SMILES IDX 33 66 35 67 41 68 34 69 36 70 37 71 38 72 39 73 63 74 64 75
REMARK SMILES IDX 72 76 65 77 67 78 73 79 66 80 68 81 69 82 70 83 71 84 48 85
REMARK SMILES IDX 49 86 57 87 50 88 52 89 58 90 51 91 53 92 54 93 55 94 56 95
REMARK H PARENT 78 48 46 59
REMARK Flexibility Score: inf
ROOT
ATOM      1  C   UNL A   1      31.571  29.518  25.403  1.00  0.00     0.202 C 
ENDROOT
BRANCH   1   2
ATOM      2  O   UNL A   1      32.149  29.266  24.125  1.00  0.00    -0.374 OA
BRANCH   2   3
ATOM      3  C   UNL A   1      31.702  28.109  23.416  1.00  0.00     0.202 C 
BRANCH   3   4
ATOM      4  C   UNL A   1      32.738  27.020  23.120  1.00  0.00     0.261 C 
BRANCH   4   5
ATOM      5  O   UNL A   1      32.152  25.705  23.138  1.00  0.00    -0.460 OA
BRANCH   5   6
ATOM      6  C   UNL A   1      32.794  24.787  22.371  1.00  0.00     0.338 C 
ATOM      7  O   UNL A   1      33.213  24.975  21.236  1.00  0.00    -0.246 OA
BRANCH   6   8
ATOM      8  C   UNL A   1      33.075  23.518  23.119  1.00  0.00     0.067 C 
ATOM      9  C   UNL A   1      32.207  22.479  23.070  1.00  0.00     0.024 C 
BRANCH   9  10
ATOM     10  C   UNL A   1      32.424  21.078  23.523  1.00  0.00    -0.025 A 
ATOM     11  C   UNL A   1      33.222  18.435  24.061  1.00  0.00     0.067 A 
ATOM     12  C   UNL A   1      33.394  19.419  25.029  1.00  0.00     0.021 A 
ATOM     13  C   UNL A   1      32.542  18.724  22.878  1.00  0.00     0.021 A 
ATOM     14  C   UNL A   1      32.958  20.722  24.770  1.00  0.00     0.009 A 
ATOM     15  C   UNL A   1      32.151  20.043  22.613  1.00  0.00     0.009 A 
BRANCH  11  16
ATOM     16  S   UNL A   1      33.925  16.823  24.307  1.00  0.00     0.175 S 
ATOM     17  C   UNL A   1      32.801  16.044  25.440  1.00  0.00     0.163 C 
ATOM     18  O   UNL A   1      35.200  17.002  24.968  1.00  0.00    -0.224 OA
ATOM     19  O   UNL A   1      33.829  16.102  23.051  1.00  0.00    -0.224 OA
ENDBRANCH  11  16
ENDBRANCH   9  10
BRANCH   8  20
ATOM     20  C   UNL A   1      34.377  23.469  23.813  1.00  0.00    -0.011 A 
ATOM     21  C   UNL A   1      35.492  22.924  23.150  1.00  0.00     0.012 A 
ATOM     22  C   UNL A   1      34.528  23.985  25.106  1.00  0.00     0.012 A 
ATOM     23  C   UNL A   1      36.743  22.915  23.763  1.00  0.00     0.040 A 
ATOM     24  C   UNL A   1      35.784  23.984  25.713  1.00  0.00     0.040 A 
ATOM     25  C   UNL A   1      36.879  23.452  25.037  1.00  0.00     0.123 A 
ATOM     26  F   UNL A   1      38.085  23.467  25.618  1.00  0.00    -0.207 F 
ENDBRANCH   8  20
ENDBRANCH   6   8
ENDBRANCH   5   6
ENDBRANCH   4   5
ENDBRANCH   3   4
ENDBRANCH   2   3
ENDBRANCH   1   2
BRANCH   1  27
ATOM     27  C   UNL A   1      31.785  30.896  26.040  1.00  0.00     0.261 C 
BRANCH  27  28
ATOM     28  O   UNL A   1      32.463  30.834  27.300  1.00  0.00    -0.460 OA
BRANCH  28  29
ATOM     29  C   UNL A   1      33.297  31.875  27.533  1.00  0.00     0.338 C 
ATOM     30  O   UNL A   1      33.006  33.066  27.548  1.00  0.00    -0.246 OA
BRANCH  29  31
ATOM     31  C   UNL A   1      34.611  31.375  27.965  1.00  0.00     0.060 A 
ATOM     32  C   UNL A   1      34.727  30.002  28.217  1.00  0.00     0.016 A 
ATOM     33  C   UNL A   1      35.695  32.233  28.166  1.00  0.00     0.016 A 
ATOM     34  C   UNL A   1      35.915  29.486  28.723  1.00  0.00     0.010 A 
ATOM     35  C   UNL A   1      36.884  31.714  28.683  1.00  0.00     0.010 A 
ATOM     36  C   UNL A   1      36.985  30.346  28.998  1.00  0.00    -0.014 A 
BRANCH  36  37
ATOM     37  C   UNL A   1      38.154  29.835  29.750  1.00  0.00     0.031 A 
ATOM     38  C   UNL A   1      38.374  30.301  31.162  1.00  0.00     0.074 A 
ATOM     39  C   UNL A   1      39.007  28.967  29.180  1.00  0.00     0.049 A 
ATOM     40  N   UNL A   1      39.333  29.996  31.994  1.00  0.00    -0.248 NA
ATOM     41  C   UNL A   1      37.381  31.244  31.704  1.00  0.00     0.031 C 
ATOM     42  C   UNL A   1      38.897  28.448  27.818  1.00  0.00     0.029 A 
ATOM     43  N   UNL A   1      40.149  28.389  29.672  1.00  0.00    -0.354 N 
ATOM     44  C   UNL A   1      39.080  30.729  33.147  1.00  0.00     0.074 A 
ATOM     45  C   UNL A   1      37.885  31.506  32.900  1.00  0.00     0.031 C 
ATOM     46  C   UNL A   1      39.951  27.651  27.571  1.00  0.00     0.029 A 
ATOM     47  C   UNL A   1      40.817  27.623  28.748  1.00  0.00     0.049 A 
ATOM     48  H   UNL A   1      40.461  28.512  30.598  1.00  0.00     0.167 HD
ATOM     49  C   UNL A   1      39.772  30.743  34.310  1.00  0.00     0.034 A 
ATOM     50  C   UNL A   1      42.003  26.991  28.834  1.00  0.00     0.034 A 
ATOM     51  C   UNL A   1      40.951  29.957  34.554  1.00  0.00     0.049 A 
ATOM     52  C   UNL A   1      42.765  27.030  30.133  1.00  0.00     0.074 A 
ATOM     53  C   UNL A   1      41.691  29.852  35.718  1.00  0.00     0.029 A 
ATOM     54  N   UNL A   1      41.576  29.156  33.610  1.00  0.00    -0.354 N 
ATOM     55  N   UNL A   1      42.446  27.623  31.259  1.00  0.00    -0.248 NA
ATOM     56  C   UNL A   1      44.031  26.285  30.185  1.00  0.00     0.031 C 
ATOM     57  C   UNL A   1      42.783  29.014  35.467  1.00  0.00     0.029 A 
ATOM     58  C   UNL A   1      42.703  28.567  34.157  1.00  0.00     0.049 A 
ATOM     59  H   UNL A   1      41.263  29.024  32.686  1.00  0.00     0.167 HD
ATOM     60  C   UNL A   1      43.453  27.298  32.162  1.00  0.00     0.074 A 
ATOM     61  C   UNL A   1      44.382  26.440  31.455  1.00  0.00     0.031 C 
ATOM     62  C   UNL A   1      43.599  27.683  33.455  1.00  0.00     0.034 A 
BRANCH  49  63
ATOM     63  C   UNL A   1      39.257  31.632  35.412  1.00  0.00     0.023 A 
ATOM     64  C   UNL A   1      38.286  31.146  36.311  1.00  0.00     0.012 A 
ATOM     65  C   UNL A   1      39.752  32.941  35.572  1.00  0.00     0.148 A 
ATOM     66  C   UNL A   1      37.784  31.961  37.324  1.00  0.00     0.002 A 
ATOM     67  C   UNL A   1      39.280  33.732  36.614  1.00  0.00     0.091 A 
ATOM     68  F   UNL A   1      40.655  33.397  34.692  1.00  0.00    -0.205 F 
ATOM     69  C   UNL A   1      38.287  33.249  37.481  1.00  0.00     0.022 A 
BRANCH  67  70
ATOM     70  S   UNL A   1      39.927  35.376  36.943  1.00  0.00     0.127 S 
ATOM     71  O   UNL A   1      41.362  35.116  37.033  1.00  0.00    -0.237 OA
ATOM     72  O   UNL A   1      39.515  36.114  35.748  1.00  0.00    -0.237 OA
ATOM     73  O   UNL A   1      39.288  35.816  38.174  1.00  0.00    -0.744 OA
ENDBRANCH  67  70
ENDBRANCH  49  63
BRANCH  50  74
ATOM     74  C   UNL A   1      42.521  26.239  27.657  1.00  0.00     0.023 A 
ATOM     75  C   UNL A   1      43.448  26.849  26.793  1.00  0.00     0.012 A 
ATOM     76  C   UNL A   1      42.138  24.903  27.425  1.00  0.00     0.148 A 
ATOM     77  C   UNL A   1      43.971  26.149  25.705  1.00  0.00     0.002 A 
ATOM     78  C   UNL A   1      42.706  24.193  26.374  1.00  0.00     0.091 A 
ATOM     79  F   UNL A   1      41.245  24.346  28.256  1.00  0.00    -0.205 F 
ATOM     80  C   UNL A   1      43.610  24.819  25.502  1.00  0.00     0.022 A 
BRANCH  78  81
ATOM     81  S   UNL A   1      42.407  22.440  26.120  1.00  0.00     0.127 S 
ATOM     82  O   UNL A   1      43.114  22.194  24.866  1.00  0.00    -0.237 OA
ATOM     83  O   UNL A   1      43.030  21.855  27.307  1.00  0.00    -0.237 OA
ATOM     84  O   UNL A   1      40.959  22.288  26.066  1.00  0.00    -0.744 OA
ENDBRANCH  78  81
ENDBRANCH  50  74
BRANCH  62  85
ATOM     85  C   UNL A   1      44.793  27.158  34.210  1.00  0.00     0.023 A 
ATOM     86  C   UNL A   1      45.998  27.891  34.217  1.00  0.00     0.012 A 
ATOM     87  C   UNL A   1      44.697  25.981  34.979  1.00  0.00     0.148 A 
ATOM     88  C   UNL A   1      47.096  27.442  34.950  1.00  0.00     0.002 A 
ATOM     89  C   UNL A   1      45.779  25.568  35.747  1.00  0.00     0.091 A 
ATOM     90  F   UNL A   1      43.549  25.289  34.947  1.00  0.00    -0.205 F 
ATOM     91  C   UNL A   1      46.983  26.290  35.723  1.00  0.00     0.022 A 
BRANCH  89  92
ATOM     92  S   UNL A   1      45.693  24.151  36.849  1.00  0.00     0.127 S 
ATOM     93  O   UNL A   1      47.012  24.182  37.479  1.00  0.00    -0.237 OA
ATOM     94  O   UNL A   1      44.585  24.513  37.734  1.00  0.00    -0.237 OA
ATOM     95  O   UNL A   1      45.433  22.997  35.999  1.00  0.00    -0.744 OA
ENDBRANCH  89  92
ENDBRANCH  62  85
ENDBRANCH  36  37
ENDBRANCH  29  31
ENDBRANCH  28  29
ENDBRANCH  27  28
ENDBRANCH   1  27
TORSDOF 20
ENDMDL
MODEL 2
REMARK VINA RESULT:     -11.9      0.803      7.648
REMARK SMILES CS(=O)(=O)c1ccc(/C=C(/C(=O)OCCOCCOC(=O)c2ccc(-c3c4nc(c(-c5cccc(S(=O)(=O)[O-])c5F)c5ccc([nH]5)c(-c5cccc(S(=O)(=O)[O-])c5F)c5nc(c(-c6cccc(S(=O)(=O)[O-])c6F)c6ccc3[nH]6)C=C5)C=C4)cc2)c2ccc(F)cc2)cc1
REMARK SMILES IDX 17 1 16 2 15 3 14 4 13 5 11 6 12 7 10 8 9 9 8 10 5 11 6 12
REMARK SMILES IDX 93 13 7 14 92 15 2 16 1 17 3 18 4 19 85 20 86 21 91 22 87 23
REMARK SMILES IDX 90 24 88 25 89 26 18 27 19 28 20 29 21 30 22 31 23 32 84 33
REMARK SMILES IDX 24 34 83 35 25 36 26 37 27 38 77 39 28 40 82 41 76 42 78 43
REMARK SMILES IDX 29 44 81 45 75 46 74 47 30 49 62 50 42 51 61 52 43 53 46 54
REMARK SMILES IDX 60 55 79 56 44 57 45 58 59 60 80 61 47 62 31 63 32 64 40 65
REMARK SMILES IDX 33 66 35 67 41 68 34 69 36 70 37 71 38 72 39 73 63 74 64 75
REMARK SMILES IDX 72 76 65 77 67 78 73 79 66 80 68 81 69 82 70 83 71 84 48 85
REMARK SMILES IDX 49 86 57 87 50 88 52 89 58 90 51 91 53 92 54 93 55 94 56 95
REMARK H PARENT 78 48 46 59
REMARK Flexibility Score: inf
ROOT
ATOM      1  C   UNL A   1      31.001  30.068  24.941  1.00  0.00     0.202 C 
ENDROOT
BRANCH   1   2
ATOM      2  O   UNL A   1      30.665  29.244  23.828  1.00  0.00    -0.374 OA
BRANCH   2   3
ATOM      3  C   UNL A   1      31.187  27.914  23.811  1.00  0.00     0.202 C 
BRANCH   3   4
ATOM      4  C   UNL A   1      31.510  27.300  22.445  1.00  0.00     0.261 C 
BRANCH   4   5
ATOM      5  O   UNL A   1      31.563  25.864  22.503  1.00  0.00    -0.460 OA
BRANCH   5   6
ATOM      6  C   UNL A   1      32.788  25.330  22.262  1.00  0.00     0.338 C 
ATOM      7  O   UNL A   1      33.690  25.871  21.635  1.00  0.00    -0.246 OA
BRANCH   6   8
ATOM      8  C   UNL A   1      32.991  24.028  22.977  1.00  0.00     0.067 C 
ATOM      9  C   UNL A   1      32.025  23.078  22.974  1.00  0.00     0.024 C 
BRANCH   9  10
ATOM     10  C   UNL A   1      32.131  21.656  23.398  1.00  0.00    -0.025 A 
ATOM     11  C   UNL A   1      32.793  18.988  23.995  1.00  0.00     0.067 A 
ATOM     12  C   UNL A   1      32.693  19.921  25.021  1.00  0.00     0.021 A 
ATOM     13  C   UNL A   1      32.444  19.337  22.690  1.00  0.00     0.021 A 
ATOM     14  C   UNL A   1      32.325  21.235  24.722  1.00  0.00     0.009 A 
ATOM     15  C   UNL A   1      32.120  20.669  22.397  1.00  0.00     0.009 A 
BRANCH  11  16
ATOM     16  S   UNL A   1      33.426  17.365  24.336  1.00  0.00     0.175 S 
ATOM     17  C   UNL A   1      35.157  17.640  24.625  1.00  0.00     0.163 C 
ATOM     18  O   UNL A   1      33.277  16.578  23.129  1.00  0.00    -0.224 OA
ATOM     19  O   UNL A   1      32.852  16.919  25.593  1.00  0.00    -0.224 OA
ENDBRANCH  11  16
ENDBRANCH   9  10
BRANCH   8  20
ATOM     20  C   UNL A   1      34.324  23.840  23.584  1.00  0.00    -0.011 A 
ATOM     21  C   UNL A   1      34.574  24.352  24.871  1.00  0.00     0.012 A 
ATOM     22  C   UNL A   1      35.331  23.133  22.916  1.00  0.00     0.012 A 
ATOM     23  C   UNL A   1      35.805  24.141  25.488  1.00  0.00     0.040 A 
ATOM     24  C   UNL A   1      36.559  22.915  23.540  1.00  0.00     0.040 A 
ATOM     25  C   UNL A   1      36.784  23.418  24.818  1.00  0.00     0.123 A 
ATOM     26  F   UNL A   1      37.960  23.193  25.419  1.00  0.00    -0.207 F 
ENDBRANCH   8  20
ENDBRANCH   6   8
ENDBRANCH   5   6
ENDBRANCH   4   5
ENDBRANCH   3   4
ENDBRANCH   2   3
ENDBRANCH   1   2
BRANCH   1  27
ATOM     27  C   UNL A   1      32.444  30.039  25.458  1.00  0.00     0.261 C 
BRANCH  27  28
ATOM     28  O   UNL A   1      32.540  30.265  26.869  1.00  0.00    -0.460 OA
BRANCH  28  29
ATOM     29  C   UNL A   1      33.182  31.409  27.205  1.00  0.00     0.338 C 
ATOM     30  O   UNL A   1      32.706  32.539  27.241  1.00  0.00    -0.246 OA
BRANCH  29  31
ATOM     31  C   UNL A   1      34.523  31.097  27.721  1.00  0.00     0.060 A 
ATOM     32  C   UNL A   1      34.796  29.761  28.040  1.00  0.00     0.016 A 
ATOM     33  C   UNL A   1      35.480  32.092  27.933  1.00  0.00     0.016 A 
ATOM     34  C   UNL A   1      36.010  29.419  28.624  1.00  0.00     0.010 A 
ATOM     35  C   UNL A   1      36.696  31.749  28.528  1.00  0.00     0.010 A 
ATOM     36  C   UNL A   1      36.950  30.418  28.910  1.00  0.00    -0.014 A 
BRANCH  36  37
ATOM     37  C   UNL A   1      38.132  30.089  29.738  1.00  0.00     0.031 A 
ATOM     38  C   UNL A   1      39.142  29.109  29.211  1.00  0.00     0.074 A 
ATOM     39  C   UNL A   1      38.302  30.659  30.943  1.00  0.00     0.049 A 
ATOM     40  N   UNL A   1      40.237  28.668  29.771  1.00  0.00    -0.248 NA
ATOM     41  C   UNL A   1      38.876  28.545  27.877  1.00  0.00     0.031 C 
ATOM     42  C   UNL A   1      37.388  31.620  31.557  1.00  0.00     0.029 A 
ATOM     43  N   UNL A   1      39.294  30.489  31.876  1.00  0.00    -0.354 N 
ATOM     44  C   UNL A   1      40.777  27.754  28.874  1.00  0.00     0.074 A 
ATOM     45  C   UNL A   1      39.879  27.692  27.741  1.00  0.00     0.031 C 
ATOM     46  C   UNL A   1      37.846  31.932  32.782  1.00  0.00     0.029 A 
ATOM     47  C   UNL A   1      39.069  31.176  33.043  1.00  0.00     0.049 A 
ATOM     48  H   UNL A   1      40.089  29.929  31.722  1.00  0.00     0.167 HD
ATOM     49  C   UNL A   1      41.922  27.040  28.979  1.00  0.00     0.034 A 
ATOM     50  C   UNL A   1      39.761  31.177  34.200  1.00  0.00     0.034 A 
ATOM     51  C   UNL A   1      42.817  27.117  30.102  1.00  0.00     0.049 A 
ATOM     52  C   UNL A   1      41.026  30.366  34.301  1.00  0.00     0.074 A 
ATOM     53  C   UNL A   1      44.034  26.483  30.279  1.00  0.00     0.029 A 
ATOM     54  N   UNL A   1      42.583  27.859  31.250  1.00  0.00    -0.354 N 
ATOM     55  N   UNL A   1      41.593  29.606  33.396  1.00  0.00    -0.248 NA
ATOM     56  C   UNL A   1      41.764  30.440  35.570  1.00  0.00     0.031 C 
ATOM     57  C   UNL A   1      44.518  26.815  31.549  1.00  0.00     0.029 A 
ATOM     58  C   UNL A   1      43.621  27.685  32.149  1.00  0.00     0.049 A 
ATOM     59  H   UNL A   1      41.793  28.426  31.404  1.00  0.00     0.167 HD
ATOM     60  C   UNL A   1      42.769  29.136  33.971  1.00  0.00     0.074 A 
ATOM     61  C   UNL A   1      42.840  29.714  35.298  1.00  0.00     0.031 C 
ATOM     62  C   UNL A   1      43.700  28.297  33.452  1.00  0.00     0.034 A 
BRANCH  49  63
ATOM     63  C   UNL A   1      42.275  26.124  27.837  1.00  0.00     0.023 A 
ATOM     64  C   UNL A   1      43.061  26.602  26.769  1.00  0.00     0.012 A 
ATOM     65  C   UNL A   1      41.848  24.781  27.832  1.00  0.00     0.148 A 
ATOM     66  C   UNL A   1      43.381  25.774  25.694  1.00  0.00     0.002 A 
ATOM     67  C   UNL A   1      42.210  23.948  26.780  1.00  0.00     0.091 A 
ATOM     68  F   UNL A   1      41.078  24.350  28.842  1.00  0.00    -0.205 F 
ATOM     69  C   UNL A   1      42.963  24.445  25.704  1.00  0.00     0.022 A 
BRANCH  67  70
ATOM     70  S   UNL A   1      41.785  22.203  26.745  1.00  0.00     0.127 S 
ATOM     71  O   UNL A   1      42.143  21.840  25.374  1.00  0.00    -0.237 OA
ATOM     72  O   UNL A   1      42.669  21.649  27.772  1.00  0.00    -0.237 OA
ATOM     73  O   UNL A   1      40.367  22.131  27.065  1.00  0.00    -0.744 OA
ENDBRANCH  67  70
ENDBRANCH  49  63
BRANCH  50  74
ATOM     74  C   UNL A   1      39.279  32.005  35.341  1.00  0.00     0.023 A 
ATOM     75  C   UNL A   1      38.397  31.446  36.284  1.00  0.00     0.012 A 
ATOM     76  C   UNL A   1      39.738  33.325  35.523  1.00  0.00     0.148 A 
ATOM     77  C   UNL A   1      37.963  32.195  37.379  1.00  0.00     0.002 A 
ATOM     78  C   UNL A   1      39.347  34.045  36.646  1.00  0.00     0.091 A 
ATOM     79  F   UNL A   1      40.569  33.839  34.606  1.00  0.00    -0.205 F 
ATOM     80  C   UNL A   1      38.446  33.488  37.567  1.00  0.00     0.022 A 
BRANCH  78  81
ATOM     81  S   UNL A   1      40.024  35.661  37.041  1.00  0.00     0.127 S 
ATOM     82  O   UNL A   1      39.620  36.448  35.880  1.00  0.00    -0.237 OA
ATOM     83  O   UNL A   1      39.321  35.984  38.283  1.00  0.00    -0.237 OA
ATOM     84  O   UNL A   1      41.459  35.462  37.198  1.00  0.00    -0.744 OA
ENDBRANCH  78  81
ENDBRANCH  50  74
BRANCH  62  85
ATOM     85  C   UNL A   1      44.899  27.967  34.304  1.00  0.00     0.023 A 
ATOM     86  C   UNL A   1      46.080  28.727  34.180  1.00  0.00     0.012 A 
ATOM     87  C   UNL A   1      44.828  26.957  35.284  1.00  0.00     0.148 A 
ATOM     88  C   UNL A   1      47.181  28.465  34.994  1.00  0.00     0.002 A 
ATOM     89  C   UNL A   1      45.912  26.734  36.126  1.00  0.00     0.091 A 
ATOM     90  F   UNL A   1      43.704  26.233  35.376  1.00  0.00    -0.205 F 
ATOM     91  C   UNL A   1      47.093  27.478  35.973  1.00  0.00     0.022 A 
BRANCH  89  92
ATOM     92  S   UNL A   1      45.854  25.553  37.478  1.00  0.00     0.127 S 
ATOM     93  O   UNL A   1      45.817  24.280  36.759  1.00  0.00    -0.237 OA
ATOM     94  O   UNL A   1      47.111  25.821  38.179  1.00  0.00    -0.237 OA
ATOM     95  O   UNL A   1      44.657  25.875  38.242  1.00  0.00    -0.744 OA
ENDBRANCH  89  92
ENDBRANCH  62  85
ENDBRANCH  36  37
ENDBRANCH  29  31
ENDBRANCH  28  29
ENDBRANCH  27  28
ENDBRANCH   1  27
TORSDOF 20
ENDMDL
MODEL 3
REMARK VINA RESULT:     -11.7      1.290      1.679
REMARK SMILES CS(=O)(=O)c1ccc(/C=C(/C(=O)OCCOCCOC(=O)c2ccc(-c3c4nc(c(-c5cccc(S(=O)(=O)[O-])c5F)c5ccc([nH]5)c(-c5cccc(S(=O)(=O)[O-])c5F)c5nc(c(-c6cccc(S(=O)(=O)[O-])c6F)c6ccc3[nH]6)C=C5)C=C4)cc2)c2ccc(F)cc2)cc1
REMARK SMILES IDX 17 1 16 2 15 3 14 4 13 5 11 6 12 7 10 8 9 9 8 10 5 11 6 12
REMARK SMILES IDX 93 13 7 14 92 15 2 16 1 17 3 18 4 19 85 20 86 21 91 22 87 23
REMARK SMILES IDX 90 24 88 25 89 26 18 27 19 28 20 29 21 30 22 31 23 32 84 33
REMARK SMILES IDX 24 34 83 35 25 36 26 37 27 38 77 39 28 40 82 41 76 42 78 43
REMARK SMILES IDX 29 44 81 45 75 46 74 47 30 49 62 50 42 51 61 52 43 53 46 54
REMARK SMILES IDX 60 55 79 56 44 57 45 58 59 60 80 61 47 62 31 63 32 64 40 65
REMARK SMILES IDX 33 66 35 67 41 68 34 69 36 70 37 71 38 72 39 73 63 74 64 75
REMARK SMILES IDX 72 76 65 77 67 78 73 79 66 80 68 81 69 82 70 83 71 84 48 85
REMARK SMILES IDX 49 86 57 87 50 88 52 89 58 90 51 91 53 92 54 93 55 94 56 95
REMARK H PARENT 78 48 46 59
REMARK Flexibility Score: inf
ROOT
ATOM      1  C   UNL A   1      31.458  29.862  25.283  1.00  0.00     0.202 C 
ENDROOT
BRANCH   1   2
ATOM      2  O   UNL A   1      31.193  28.463  25.253  1.00  0.00    -0.374 OA
BRANCH   2   3
ATOM      3  C   UNL A   1      31.406  27.778  24.016  1.00  0.00     0.202 C 
BRANCH   3   4
ATOM      4  C   UNL A   1      32.425  26.635  24.009  1.00  0.00     0.261 C 
BRANCH   4   5
ATOM      5  O   UNL A   1      31.971  25.518  23.223  1.00  0.00    -0.460 OA
BRANCH   5   6
ATOM      6  C   UNL A   1      32.956  24.835  22.586  1.00  0.00     0.338 C 
ATOM      7  O   UNL A   1      33.578  25.228  21.608  1.00  0.00    -0.246 OA
BRANCH   6   8
ATOM      8  C   UNL A   1      33.321  23.567  23.300  1.00  0.00     0.067 C 
ATOM      9  C   UNL A   1      32.488  22.499  23.282  1.00  0.00     0.024 C 
BRANCH   9  10
ATOM     10  C   UNL A   1      32.777  21.100  23.704  1.00  0.00    -0.025 A 
ATOM     11  C   UNL A   1      33.546  18.417  24.050  1.00  0.00     0.067 A 
ATOM     12  C   UNL A   1      34.165  19.415  24.796  1.00  0.00     0.021 A 
ATOM     13  C   UNL A   1      32.462  18.724  23.227  1.00  0.00     0.021 A 
ATOM     14  C   UNL A   1      33.749  20.741  24.648  1.00  0.00     0.009 A 
ATOM     15  C   UNL A   1      32.086  20.063  23.054  1.00  0.00     0.009 A 
BRANCH  11  16
ATOM     16  S   UNL A   1      34.178  16.759  24.100  1.00  0.00     0.175 S 
ATOM     17  C   UNL A   1      32.872  15.834  24.871  1.00  0.00     0.163 C 
ATOM     18  O   UNL A   1      35.328  16.759  24.979  1.00  0.00    -0.224 OA
ATOM     19  O   UNL A   1      34.283  16.283  22.732  1.00  0.00    -0.224 OA
ENDBRANCH  11  16
ENDBRANCH   9  10
BRANCH   8  20
ATOM     20  C   UNL A   1      34.660  23.555  23.924  1.00  0.00    -0.011 A 
ATOM     21  C   UNL A   1      34.811  24.025  25.241  1.00  0.00     0.012 A 
ATOM     22  C   UNL A   1      35.772  23.051  23.239  1.00  0.00     0.012 A 
ATOM     23  C   UNL A   1      36.053  23.973  25.871  1.00  0.00     0.040 A 
ATOM     24  C   UNL A   1      37.012  22.991  23.875  1.00  0.00     0.040 A 
ATOM     25  C   UNL A   1      37.141  23.450  25.183  1.00  0.00     0.123 A 
ATOM     26  F   UNL A   1      38.329  23.376  25.795  1.00  0.00    -0.207 F 
ENDBRANCH   8  20
ENDBRANCH   6   8
ENDBRANCH   5   6
ENDBRANCH   4   5
ENDBRANCH   3   4
ENDBRANCH   2   3
ENDBRANCH   1   2
BRANCH   1  27
ATOM     27  C   UNL A   1      32.052  30.462  26.563  1.00  0.00     0.261 C 
BRANCH  27  28
ATOM     28  O   UNL A   1      33.480  30.563  26.527  1.00  0.00    -0.460 OA
BRANCH  28  29
ATOM     29  C   UNL A   1      33.998  31.430  27.430  1.00  0.00     0.338 C 
ATOM     30  O   UNL A   1      33.422  32.373  27.963  1.00  0.00    -0.246 OA
BRANCH  29  31
ATOM     31  C   UNL A   1      35.332  30.976  27.850  1.00  0.00     0.060 A 
ATOM     32  C   UNL A   1      35.554  29.594  27.906  1.00  0.00     0.016 A 
ATOM     33  C   UNL A   1      36.331  31.876  28.227  1.00  0.00     0.016 A 
ATOM     34  C   UNL A   1      36.761  29.102  28.390  1.00  0.00     0.010 A 
ATOM     35  C   UNL A   1      37.539  31.380  28.722  1.00  0.00     0.010 A 
ATOM     36  C   UNL A   1      37.743  29.993  28.840  1.00  0.00    -0.014 A 
BRANCH  36  37
ATOM     37  C   UNL A   1      38.922  29.469  29.568  1.00  0.00     0.031 A 
ATOM     38  C   UNL A   1      39.252  30.030  30.922  1.00  0.00     0.074 A 
ATOM     39  C   UNL A   1      39.686  28.505  29.026  1.00  0.00     0.049 A 
ATOM     40  N   UNL A   1      40.239  29.730  31.724  1.00  0.00    -0.248 NA
ATOM     41  C   UNL A   1      38.351  31.074  31.437  1.00  0.00     0.031 C 
ATOM     42  C   UNL A   1      39.465  27.888  27.719  1.00  0.00     0.029 A 
ATOM     43  N   UNL A   1      40.819  27.895  29.502  1.00  0.00    -0.354 N 
ATOM     44  C   UNL A   1      40.099  30.566  32.824  1.00  0.00     0.074 A 
ATOM     45  C   UNL A   1      38.940  31.398  32.579  1.00  0.00     0.031 C 
ATOM     46  C   UNL A   1      40.453  27.008  27.482  1.00  0.00     0.029 A 
ATOM     47  C   UNL A   1      41.384  27.017  28.609  1.00  0.00     0.049 A 
ATOM     48  H   UNL A   1      41.191  28.070  30.397  1.00  0.00     0.167 HD
ATOM     49  C   UNL A   1      40.858  30.628  33.943  1.00  0.00     0.034 A 
ATOM     50  C   UNL A   1      42.533  26.318  28.684  1.00  0.00     0.034 A 
ATOM     51  C   UNL A   1      42.000  29.789  34.187  1.00  0.00     0.049 A 
ATOM     52  C   UNL A   1      43.371  26.411  29.932  1.00  0.00     0.074 A 
ATOM     53  C   UNL A   1      42.800  29.730  35.314  1.00  0.00     0.029 A 
ATOM     54  N   UNL A   1      42.518  28.877  33.280  1.00  0.00    -0.354 N 
ATOM     55  N   UNL A   1      43.155  27.111  31.020  1.00  0.00    -0.248 NA
ATOM     56  C   UNL A   1      44.591  25.593  29.977  1.00  0.00     0.031 C 
ATOM     57  C   UNL A   1      43.822  28.805  35.075  1.00  0.00     0.029 A 
ATOM     58  C   UNL A   1      43.639  28.262  33.812  1.00  0.00     0.049 A 
ATOM     59  H   UNL A   1      42.145  28.693  32.388  1.00  0.00     0.167 HD
ATOM     60  C   UNL A   1      44.192  26.794  31.891  1.00  0.00     0.074 A 
ATOM     61  C   UNL A   1      45.025  25.825  31.209  1.00  0.00     0.031 C 
ATOM     62  C   UNL A   1      44.437  27.269  33.138  1.00  0.00     0.034 A 
BRANCH  49  63
ATOM     63  C   UNL A   1      40.463  31.633  34.994  1.00  0.00     0.023 A 
ATOM     64  C   UNL A   1      41.101  32.889  35.040  1.00  0.00     0.012 A 
ATOM     65  C   UNL A   1      39.442  31.343  35.921  1.00  0.00     0.148 A 
ATOM     66  C   UNL A   1      40.762  33.824  36.017  1.00  0.00     0.002 A 
ATOM     67  C   UNL A   1      39.077  32.297  36.862  1.00  0.00     0.091 A 
ATOM     68  F   UNL A   1      38.864  30.134  35.880  1.00  0.00    -0.205 F 
ATOM     69  C   UNL A   1      39.744  33.532  36.922  1.00  0.00     0.022 A 
BRANCH  67  70
ATOM     70  S   UNL A   1      37.725  32.042  38.017  1.00  0.00     0.127 S 
ATOM     71  O   UNL A   1      38.343  32.426  39.285  1.00  0.00    -0.237 OA
ATOM     72  O   UNL A   1      36.715  32.978  37.523  1.00  0.00    -0.237 OA
ATOM     73  O   UNL A   1      37.358  30.638  37.897  1.00  0.00    -0.744 OA
ENDBRANCH  67  70
ENDBRANCH  49  63
BRANCH  50  74
ATOM     74  C   UNL A   1      42.934  25.444  27.546  1.00  0.00     0.023 A 
ATOM     75  C   UNL A   1      43.878  25.907  26.610  1.00  0.00     0.012 A 
ATOM     76  C   UNL A   1      42.424  24.136  27.423  1.00  0.00     0.148 A 
ATOM     77  C   UNL A   1      44.292  25.089  25.558  1.00  0.00     0.002 A 
ATOM     78  C   UNL A   1      42.884  23.307  26.406  1.00  0.00     0.091 A 
ATOM     79  F   UNL A   1      41.519  23.722  28.320  1.00  0.00    -0.205 F 
ATOM     80  C   UNL A   1      43.806  23.787  25.463  1.00  0.00     0.022 A 
BRANCH  78  81
ATOM     81  S   UNL A   1      42.419  21.576  26.287  1.00  0.00     0.127 S 
ATOM     82  O   UNL A   1      42.637  21.112  27.654  1.00  0.00    -0.237 OA
ATOM     83  O   UNL A   1      41.016  21.671  25.882  1.00  0.00    -0.237 OA
ATOM     84  O   UNL A   1      43.297  20.999  25.279  1.00  0.00    -0.744 OA
ENDBRANCH  78  81
ENDBRANCH  50  74
BRANCH  62  85
ATOM     85  C   UNL A   1      45.640  26.730  33.869  1.00  0.00     0.023 A 
ATOM     86  C   UNL A   1      46.871  27.415  33.798  1.00  0.00     0.012 A 
ATOM     87  C   UNL A   1      45.531  25.590  34.690  1.00  0.00     0.148 A 
ATOM     88  C   UNL A   1      47.980  26.954  34.507  1.00  0.00     0.002 A 
ATOM     89  C   UNL A   1      46.627  25.167  35.433  1.00  0.00     0.091 A 
ATOM     90  F   UNL A   1      44.358  24.942  34.731  1.00  0.00    -0.205 F 
ATOM     91  C   UNL A   1      47.855  25.840  35.332  1.00  0.00     0.022 A 
BRANCH  89  92
ATOM     92  S   UNL A   1      46.532  23.800  36.596  1.00  0.00     0.127 S 
ATOM     93  O   UNL A   1      45.480  24.255  37.504  1.00  0.00    -0.237 OA
ATOM     94  O   UNL A   1      46.151  22.683  35.731  1.00  0.00    -0.237 OA
ATOM     95  O   UNL A   1      47.859  23.681  37.185  1.00  0.00    -0.744 OA
ENDBRANCH  89  92
ENDBRANCH  62  85
ENDBRANCH  36  37
ENDBRANCH  29  31
ENDBRANCH  28  29
ENDBRANCH  27  28
ENDBRANCH   1  27
TORSDOF 20
ENDMDL
