MODEL 1
REMARK VINA RESULT:     -12.0      0.000      0.000
REMARK SMILES O=C(OCCOCCOC(=O)c1cc(S(=O)(=O)NNC(=O)[C@H]2C=C(c3ccccc3)N=N2)ccc1F)c1ccc(-c2c3nc(c(-c4cccc(S(=O)(=O)[O-])c4F)c4ccc([nH]4)c(-c4cccc(S(=O)(=O)[O-])c4F)c4nc(c(-c5cccc(S(=O)(=O)[O-])c5F)c5ccc2[nH]5)C=C4)C=C3)cc1
REMARK SMILES IDX 7 1 6 2 5 3 4 4 3 5 2 6 1 7 37 8 38 9 99 10 39 11 98 12
REMARK SMILES IDX 40 13 41 14 42 15 92 16 43 17 97 18 91 19 93 20 44 21 96 22
REMARK SMILES IDX 90 23 89 24 45 26 77 27 57 28 76 29 58 30 61 31 75 32 94 33
REMARK SMILES IDX 59 34 60 35 74 37 95 38 62 39 46 40 47 41 55 42 48 43 50 44
REMARK SMILES IDX 56 45 49 46 51 47 52 48 53 49 54 50 78 51 79 52 87 53 80 54
REMARK SMILES IDX 82 55 88 56 81 57 83 58 84 59 85 60 86 61 63 62 64 63 72 64
REMARK SMILES IDX 65 65 67 66 73 67 66 68 68 69 69 70 70 71 71 72 8 73 9 74
REMARK SMILES IDX 10 75 11 76 12 77 13 78 35 79 14 80 34 81 36 82 33 83 15 84
REMARK SMILES IDX 16 85 17 86 18 87 19 89 20 90 21 92 22 93 23 94 32 95 24 96
REMARK SMILES IDX 31 97 25 98 26 99 30 100 27 101 29 102 28 103
REMARK H PARENT 93 25 61 36 18 88 19 91
REMARK Flexibility Score: inf
ROOT
ATOM      1  C   UNL A   1      34.457  30.491  27.333  1.00  0.00     0.202 C 
ENDROOT
BRANCH   1   2
ATOM      2  O   UNL A   1      35.317  31.602  27.611  1.00  0.00    -0.374 OA
BRANCH   2   3
ATOM      3  C   UNL A   1      34.708  32.842  27.943  1.00  0.00     0.202 C 
BRANCH   3   4
ATOM      4  C   UNL A   1      34.553  33.218  29.415  1.00  0.00     0.261 C 
BRANCH   4   5
ATOM      5  O   UNL A   1      35.027  32.216  30.327  1.00  0.00    -0.460 OA
BRANCH   5   6
ATOM      6  C   UNL A   1      36.248  32.159  30.902  1.00  0.00     0.338 C 
ATOM      7  O   UNL A   1      36.407  32.664  32.013  1.00  0.00    -0.246 OA
BRANCH   6   8
ATOM      8  C   UNL A   1      37.337  31.329  30.320  1.00  0.00     0.060 A 
ATOM      9  C   UNL A   1      37.270  29.954  30.107  1.00  0.00     0.016 A 
ATOM     10  C   UNL A   1      38.564  31.987  30.128  1.00  0.00     0.016 A 
ATOM     11  C   UNL A   1      38.429  29.216  30.031  1.00  0.00     0.010 A 
ATOM     12  C   UNL A   1      39.729  31.259  29.970  1.00  0.00     0.010 A 
ATOM     13  C   UNL A   1      39.656  29.876  30.044  1.00  0.00    -0.014 A 
BRANCH  13  14
ATOM     14  C   UNL A   1      40.841  29.044  30.029  1.00  0.00     0.031 A 
ATOM     15  C   UNL A   1      41.328  28.700  31.390  1.00  0.00     0.074 A 
ATOM     16  C   UNL A   1      41.395  28.620  28.876  1.00  0.00     0.049 A 
ATOM     17  N   UNL A   1      42.448  29.039  31.937  1.00  0.00    -0.248 NA
ATOM     18  C   UNL A   1      40.369  28.077  32.317  1.00  0.00     0.031 C 
ATOM     19  C   UNL A   1      40.846  28.718  27.520  1.00  0.00     0.029 A 
ATOM     20  N   UNL A   1      42.514  27.871  28.696  1.00  0.00    -0.354 N 
ATOM     21  C   UNL A   1      42.425  28.467  33.207  1.00  0.00     0.074 A 
ATOM     22  C   UNL A   1      41.069  28.058  33.452  1.00  0.00     0.031 C 
ATOM     23  C   UNL A   1      41.469  27.817  26.727  1.00  0.00     0.029 A 
ATOM     24  C   UNL A   1      42.540  27.191  27.481  1.00  0.00     0.049 A 
ATOM     25  H   UNL A   1      43.238  27.815  29.360  1.00  0.00     0.167 HD
ATOM     26  C   UNL A   1      43.573  28.150  33.864  1.00  0.00     0.034 A 
ATOM     27  C   UNL A   1      43.313  26.117  27.184  1.00  0.00     0.034 A 
ATOM     28  C   UNL A   1      44.708  28.835  33.313  1.00  0.00     0.049 A 
ATOM     29  C   UNL A   1      44.436  26.110  28.153  1.00  0.00     0.074 A 
ATOM     30  C   UNL A   1      45.074  30.158  33.183  1.00  0.00     0.029 A 
ATOM     31  N   UNL A   1      45.487  28.131  32.427  1.00  0.00    -0.354 N 
ATOM     32  N   UNL A   1      45.358  27.030  28.191  1.00  0.00    -0.248 NA
ATOM     33  C   UNL A   1      44.274  25.329  29.370  1.00  0.00     0.031 C 
ATOM     34  C   UNL A   1      45.701  30.239  31.907  1.00  0.00     0.029 A 
ATOM     35  C   UNL A   1      45.748  28.954  31.363  1.00  0.00     0.049 A 
ATOM     36  H   UNL A   1      45.799  27.204  32.537  1.00  0.00     0.167 HD
ATOM     37  C   UNL A   1      45.557  27.256  29.547  1.00  0.00     0.074 A 
ATOM     38  C   UNL A   1      44.938  26.116  30.221  1.00  0.00     0.031 C 
ATOM     39  C   UNL A   1      45.933  28.484  30.007  1.00  0.00     0.034 A 
BRANCH  26  40
ATOM     40  C   UNL A   1      43.720  26.956  34.768  1.00  0.00     0.023 A 
ATOM     41  C   UNL A   1      43.820  27.186  36.156  1.00  0.00     0.012 A 
ATOM     42  C   UNL A   1      44.029  25.654  34.305  1.00  0.00     0.148 A 
ATOM     43  C   UNL A   1      44.229  26.178  37.035  1.00  0.00     0.002 A 
ATOM     44  C   UNL A   1      44.354  24.635  35.189  1.00  0.00     0.091 A 
ATOM     45  F   UNL A   1      44.143  25.424  32.994  1.00  0.00    -0.205 F 
ATOM     46  C   UNL A   1      44.485  24.898  36.554  1.00  0.00     0.022 A 
BRANCH  44  47
ATOM     47  S   UNL A   1      44.642  22.954  34.627  1.00  0.00     0.127 S 
ATOM     48  O   UNL A   1      43.480  22.726  33.772  1.00  0.00    -0.237 OA
ATOM     49  O   UNL A   1      45.915  23.092  33.920  1.00  0.00    -0.237 OA
ATOM     50  O   UNL A   1      44.716  22.142  35.835  1.00  0.00    -0.744 OA
ENDBRANCH  44  47
ENDBRANCH  26  40
BRANCH  27  51
ATOM     51  C   UNL A   1      42.968  24.905  26.397  1.00  0.00     0.023 A 
ATOM     52  C   UNL A   1      43.881  24.423  25.436  1.00  0.00     0.012 A 
ATOM     53  C   UNL A   1      41.914  24.052  26.796  1.00  0.00     0.148 A 
ATOM     54  C   UNL A   1      43.776  23.122  24.927  1.00  0.00     0.002 A 
ATOM     55  C   UNL A   1      41.815  22.760  26.289  1.00  0.00     0.091 A 
ATOM     56  F   UNL A   1      41.068  24.469  27.746  1.00  0.00    -0.205 F 
ATOM     57  C   UNL A   1      42.752  22.286  25.363  1.00  0.00     0.022 A 
BRANCH  55  58
ATOM     58  S   UNL A   1      40.551  21.607  26.845  1.00  0.00     0.127 S 
ATOM     59  O   UNL A   1      40.900  20.396  26.102  1.00  0.00    -0.237 OA
ATOM     60  O   UNL A   1      40.815  21.543  28.280  1.00  0.00    -0.237 OA
ATOM     61  O   UNL A   1      39.275  22.198  26.464  1.00  0.00    -0.744 OA
ENDBRANCH  55  58
ENDBRANCH  27  51
BRANCH  39  62
ATOM     62  C   UNL A   1      46.348  29.529  29.001  1.00  0.00     0.023 A 
ATOM     63  C   UNL A   1      47.651  29.592  28.463  1.00  0.00     0.012 A 
ATOM     64  C   UNL A   1      45.341  30.326  28.435  1.00  0.00     0.148 A 
ATOM     65  C   UNL A   1      47.941  30.438  27.387  1.00  0.00     0.002 A 
ATOM     66  C   UNL A   1      45.618  31.122  27.332  1.00  0.00     0.091 A 
ATOM     67  F   UNL A   1      44.108  30.254  28.961  1.00  0.00    -0.205 F 
ATOM     68  C   UNL A   1      46.919  31.190  26.810  1.00  0.00     0.022 A 
BRANCH  66  69
ATOM     69  S   UNL A   1      44.315  31.990  26.457  1.00  0.00     0.127 S 
ATOM     70  O   UNL A   1      43.350  30.922  26.209  1.00  0.00    -0.237 OA
ATOM     71  O   UNL A   1      43.888  32.986  27.441  1.00  0.00    -0.237 OA
ATOM     72  O   UNL A   1      44.939  32.559  25.268  1.00  0.00    -0.744 OA
ENDBRANCH  66  69
ENDBRANCH  39  62
ENDBRANCH  13  14
ENDBRANCH   6   8
ENDBRANCH   5   6
ENDBRANCH   4   5
ENDBRANCH   3   4
ENDBRANCH   2   3
ENDBRANCH   1   2
BRANCH   1  73
ATOM     73  C   UNL A   1      32.934  30.704  27.292  1.00  0.00     0.261 C 
BRANCH  73  74
ATOM     74  O   UNL A   1      32.280  29.906  26.287  1.00  0.00    -0.460 OA
BRANCH  74  75
ATOM     75  C   UNL A   1      31.306  30.536  25.591  1.00  0.00     0.341 C 
ATOM     76  O   UNL A   1      30.927  31.688  25.714  1.00  0.00    -0.246 OA
BRANCH  75  77
ATOM     77  C   UNL A   1      30.930  29.718  24.431  1.00  0.00     0.097 A 
ATOM     78  C   UNL A   1      31.766  28.644  24.105  1.00  0.00     0.040 A 
ATOM     79  C   UNL A   1      29.804  29.978  23.665  1.00  0.00     0.137 A 
ATOM     80  C   UNL A   1      31.443  27.813  23.031  1.00  0.00     0.085 A 
ATOM     81  C   UNL A   1      29.506  29.172  22.562  1.00  0.00     0.041 A 
ATOM     82  F   UNL A   1      29.007  31.019  23.943  1.00  0.00    -0.206 F 
ATOM     83  C   UNL A   1      30.322  28.078  22.242  1.00  0.00     0.025 A 
BRANCH  80  84
ATOM     84  S   UNL A   1      32.543  26.467  22.705  1.00  0.00     0.257 S 
ATOM     85  O   UNL A   1      31.779  25.408  22.097  1.00  0.00    -0.205 OA
ATOM     86  O   UNL A   1      33.732  27.019  22.090  1.00  0.00    -0.205 OA
BRANCH  84  87
ATOM     87  N   UNL A   1      33.013  25.903  24.226  1.00  0.00    -0.123 NA
ATOM     88  H   UNL A   1      32.426  25.096  24.432  1.00  0.00     0.167 HD
BRANCH  87  89
ATOM     89  N   UNL A   1      34.365  25.499  24.460  1.00  0.00    -0.275 N 
ATOM     90  C   UNL A   1      34.814  24.255  24.833  1.00  0.00     0.265 C 
ATOM     91  H   UNL A   1      35.054  26.192  24.340  1.00  0.00     0.186 HD
ATOM     92  O   UNL A   1      36.036  24.074  24.782  1.00  0.00    -0.271 OA
BRANCH  90  93
ATOM     93  C   UNL A   1      33.844  23.224  25.454  1.00  0.00     0.244 C 
ATOM     94  C   UNL A   1      33.357  22.128  24.585  1.00  0.00     0.042 C 
ATOM     95  N   UNL A   1      34.622  22.461  26.486  1.00  0.00    -0.171 NA
ATOM     96  C   UNL A   1      33.927  21.019  25.049  1.00  0.00     0.091 C 
ATOM     97  N   UNL A   1      34.664  21.233  26.180  1.00  0.00    -0.155 NA
BRANCH  96  98
ATOM     98  C   UNL A   1      33.750  19.718  24.420  1.00  0.00     0.002 A 
ATOM     99  C   UNL A   1      34.666  18.683  24.626  1.00  0.00     0.010 A 
ATOM    100  C   UNL A   1      32.613  19.487  23.630  1.00  0.00     0.010 A 
ATOM    101  C   UNL A   1      34.438  17.427  24.061  1.00  0.00     0.001 A 
ATOM    102  C   UNL A   1      32.391  18.235  23.061  1.00  0.00     0.001 A 
ATOM    103  C   UNL A   1      33.302  17.204  23.281  1.00  0.00     0.000 A 
ENDBRANCH  96  98
ENDBRANCH  90  93
ENDBRANCH  87  89
ENDBRANCH  84  87
ENDBRANCH  80  84
ENDBRANCH  75  77
ENDBRANCH  74  75
ENDBRANCH  73  74
ENDBRANCH   1  73
TORSDOF 22
ENDMDL
MODEL 2
REMARK VINA RESULT:     -11.8      3.453      9.599
REMARK SMILES O=C(OCCOCCOC(=O)c1cc(S(=O)(=O)NNC(=O)[C@H]2C=C(c3ccccc3)N=N2)ccc1F)c1ccc(-c2c3nc(c(-c4cccc(S(=O)(=O)[O-])c4F)c4ccc([nH]4)c(-c4cccc(S(=O)(=O)[O-])c4F)c4nc(c(-c5cccc(S(=O)(=O)[O-])c5F)c5ccc2[nH]5)C=C4)C=C3)cc1
REMARK SMILES IDX 7 1 6 2 5 3 4 4 3 5 2 6 1 7 37 8 38 9 99 10 39 11 98 12
REMARK SMILES IDX 40 13 41 14 42 15 92 16 43 17 97 18 91 19 93 20 44 21 96 22
REMARK SMILES IDX 90 23 89 24 45 26 77 27 57 28 76 29 58 30 61 31 75 32 94 33
REMARK SMILES IDX 59 34 60 35 74 37 95 38 62 39 46 40 47 41 55 42 48 43 50 44
REMARK SMILES IDX 56 45 49 46 51 47 52 48 53 49 54 50 78 51 79 52 87 53 80 54
REMARK SMILES IDX 82 55 88 56 81 57 83 58 84 59 85 60 86 61 63 62 64 63 72 64
REMARK SMILES IDX 65 65 67 66 73 67 66 68 68 69 69 70 70 71 71 72 8 73 9 74
REMARK SMILES IDX 10 75 11 76 12 77 13 78 35 79 14 80 34 81 36 82 33 83 15 84
REMARK SMILES IDX 16 85 17 86 18 87 19 89 20 90 21 92 22 93 23 94 32 95 24 96
REMARK SMILES IDX 31 97 25 98 26 99 30 100 27 101 29 102 28 103
REMARK H PARENT 93 25 61 36 18 88 19 91
REMARK Flexibility Score: inf
ROOT
ATOM      1  C   UNL A   1      43.732  19.326  25.157  1.00  0.00     0.202 C 
ENDROOT
BRANCH   1   2
ATOM      2  O   UNL A   1      44.167  20.576  24.609  1.00  0.00    -0.374 OA
BRANCH   2   3
ATOM      3  C   UNL A   1      45.296  21.200  25.204  1.00  0.00     0.202 C 
BRANCH   3   4
ATOM      4  C   UNL A   1      45.072  22.306  26.234  1.00  0.00     0.261 C 
BRANCH   4   5
ATOM      5  O   UNL A   1      43.809  22.977  26.104  1.00  0.00    -0.460 OA
BRANCH   5   6
ATOM      6  C   UNL A   1      43.611  24.268  25.761  1.00  0.00     0.338 C 
ATOM      7  O   UNL A   1      43.875  24.626  24.614  1.00  0.00    -0.246 OA
BRANCH   6   8
ATOM      8  C   UNL A   1      42.896  25.206  26.668  1.00  0.00     0.060 A 
ATOM      9  C   UNL A   1      41.881  26.077  26.280  1.00  0.00     0.016 A 
ATOM     10  C   UNL A   1      43.415  25.305  27.970  1.00  0.00     0.016 A 
ATOM     11  C   UNL A   1      41.623  27.203  27.028  1.00  0.00     0.010 A 
ATOM     12  C   UNL A   1      43.102  26.391  28.766  1.00  0.00     0.010 A 
ATOM     13  C   UNL A   1      42.299  27.388  28.231  1.00  0.00    -0.014 A 
BRANCH  13  14
ATOM     14  C   UNL A   1      42.036  28.623  28.941  1.00  0.00     0.031 A 
ATOM     15  C   UNL A   1      42.947  29.728  28.544  1.00  0.00     0.074 A 
ATOM     16  C   UNL A   1      41.037  28.725  29.839  1.00  0.00     0.049 A 
ATOM     17  N   UNL A   1      43.821  30.333  29.277  1.00  0.00    -0.248 NA
ATOM     18  C   UNL A   1      43.030  30.057  27.111  1.00  0.00     0.031 C 
ATOM     19  C   UNL A   1      39.962  27.764  30.109  1.00  0.00     0.029 A 
ATOM     20  N   UNL A   1      40.688  29.792  30.605  1.00  0.00    -0.354 N 
ATOM     21  C   UNL A   1      44.405  31.285  28.444  1.00  0.00     0.074 A 
ATOM     22  C   UNL A   1      44.023  30.946  27.099  1.00  0.00     0.031 C 
ATOM     23  C   UNL A   1      38.949  28.404  30.736  1.00  0.00     0.029 A 
ATOM     24  C   UNL A   1      39.362  29.764  31.029  1.00  0.00     0.049 A 
ATOM     25  H   UNL A   1      41.312  30.516  30.838  1.00  0.00     0.167 HD
ATOM     26  C   UNL A   1      44.957  32.423  28.943  1.00  0.00     0.034 A 
ATOM     27  C   UNL A   1      38.644  30.825  31.474  1.00  0.00     0.034 A 
ATOM     28  C   UNL A   1      45.233  32.309  30.347  1.00  0.00     0.049 A 
ATOM     29  C   UNL A   1      39.617  31.863  31.891  1.00  0.00     0.074 A 
ATOM     30  C   UNL A   1      46.048  31.503  31.114  1.00  0.00     0.029 A 
ATOM     31  N   UNL A   1      44.309  32.850  31.207  1.00  0.00    -0.354 N 
ATOM     32  N   UNL A   1      40.431  31.722  32.898  1.00  0.00    -0.248 NA
ATOM     33  C   UNL A   1      39.999  32.866  30.908  1.00  0.00     0.031 C 
ATOM     34  C   UNL A   1      45.290  31.229  32.288  1.00  0.00     0.029 A 
ATOM     35  C   UNL A   1      44.090  31.939  32.205  1.00  0.00     0.049 A 
ATOM     36  H   UNL A   1      43.881  33.733  31.120  1.00  0.00     0.167 HD
ATOM     37  C   UNL A   1      41.630  32.259  32.445  1.00  0.00     0.074 A 
ATOM     38  C   UNL A   1      41.277  33.034  31.257  1.00  0.00     0.031 C 
ATOM     39  C   UNL A   1      42.827  31.784  32.894  1.00  0.00     0.034 A 
BRANCH  26  40
ATOM     40  C   UNL A   1      44.916  33.753  28.240  1.00  0.00     0.023 A 
ATOM     41  C   UNL A   1      46.135  34.297  27.783  1.00  0.00     0.012 A 
ATOM     42  C   UNL A   1      43.789  34.609  28.243  1.00  0.00     0.148 A 
ATOM     43  C   UNL A   1      46.231  35.631  27.374  1.00  0.00     0.002 A 
ATOM     44  C   UNL A   1      43.869  35.906  27.758  1.00  0.00     0.091 A 
ATOM     45  F   UNL A   1      42.659  34.218  28.842  1.00  0.00    -0.205 F 
ATOM     46  C   UNL A   1      45.095  36.433  27.349  1.00  0.00     0.022 A 
BRANCH  44  47
ATOM     47  S   UNL A   1      42.423  36.967  27.655  1.00  0.00     0.127 S 
ATOM     48  O   UNL A   1      42.737  37.779  26.483  1.00  0.00    -0.237 OA
ATOM     49  O   UNL A   1      41.352  35.988  27.463  1.00  0.00    -0.237 OA
ATOM     50  O   UNL A   1      42.363  37.675  28.926  1.00  0.00    -0.744 OA
ENDBRANCH  44  47
ENDBRANCH  26  40
BRANCH  27  51
ATOM     51  C   UNL A   1      37.219  31.162  31.220  1.00  0.00     0.023 A 
ATOM     52  C   UNL A   1      36.402  31.563  32.298  1.00  0.00     0.012 A 
ATOM     53  C   UNL A   1      36.748  31.397  29.909  1.00  0.00     0.148 A 
ATOM     54  C   UNL A   1      35.183  32.216  32.078  1.00  0.00     0.002 A 
ATOM     55  C   UNL A   1      35.537  32.047  29.695  1.00  0.00     0.091 A 
ATOM     56  F   UNL A   1      37.530  31.073  28.872  1.00  0.00    -0.205 F 
ATOM     57  C   UNL A   1      34.756  32.471  30.777  1.00  0.00     0.022 A 
BRANCH  55  58
ATOM     58  S   UNL A   1      34.948  32.458  28.045  1.00  0.00     0.127 S 
ATOM     59  O   UNL A   1      33.650  33.069  28.331  1.00  0.00    -0.237 OA
ATOM     60  O   UNL A   1      35.975  33.387  27.582  1.00  0.00    -0.237 OA
ATOM     61  O   UNL A   1      34.869  31.194  27.323  1.00  0.00    -0.744 OA
ENDBRANCH  55  58
ENDBRANCH  27  51
BRANCH  39  62
ATOM     62  C   UNL A   1      42.825  30.823  34.056  1.00  0.00     0.023 A 
ATOM     63  C   UNL A   1      42.847  29.422  33.886  1.00  0.00     0.012 A 
ATOM     64  C   UNL A   1      43.020  31.353  35.341  1.00  0.00     0.148 A 
ATOM     65  C   UNL A   1      43.052  28.571  34.977  1.00  0.00     0.002 A 
ATOM     66  C   UNL A   1      43.279  30.508  36.412  1.00  0.00     0.091 A 
ATOM     67  F   UNL A   1      42.995  32.687  35.485  1.00  0.00    -0.205 F 
ATOM     68  C   UNL A   1      43.286  29.116  36.238  1.00  0.00     0.022 A 
BRANCH  66  69
ATOM     69  S   UNL A   1      43.738  31.156  38.021  1.00  0.00     0.127 S 
ATOM     70  O   UNL A   1      44.423  30.015  38.625  1.00  0.00    -0.237 OA
ATOM     71  O   UNL A   1      44.610  32.278  37.669  1.00  0.00    -0.237 OA
ATOM     72  O   UNL A   1      42.492  31.552  38.666  1.00  0.00    -0.744 OA
ENDBRANCH  66  69
ENDBRANCH  39  62
ENDBRANCH  13  14
ENDBRANCH   6   8
ENDBRANCH   5   6
ENDBRANCH   4   5
ENDBRANCH   3   4
ENDBRANCH   2   3
ENDBRANCH   1   2
BRANCH   1  73
ATOM     73  C   UNL A   1      42.315  19.208  25.742  1.00  0.00     0.261 C 
BRANCH  73  74
ATOM     74  O   UNL A   1      41.664  20.483  25.903  1.00  0.00    -0.460 OA
BRANCH  74  75
ATOM     75  C   UNL A   1      40.767  20.552  26.913  1.00  0.00     0.341 C 
ATOM     76  O   UNL A   1      40.790  19.953  27.974  1.00  0.00    -0.246 OA
BRANCH  75  77
ATOM     77  C   UNL A   1      39.868  21.691  26.688  1.00  0.00     0.097 A 
ATOM     78  C   UNL A   1      38.790  21.497  25.816  1.00  0.00     0.040 A 
ATOM     79  C   UNL A   1      40.057  22.925  27.292  1.00  0.00     0.137 A 
ATOM     80  C   UNL A   1      37.885  22.534  25.588  1.00  0.00     0.085 A 
ATOM     81  C   UNL A   1      39.175  23.977  27.027  1.00  0.00     0.041 A 
ATOM     82  F   UNL A   1      41.099  23.140  28.107  1.00  0.00    -0.206 F 
ATOM     83  C   UNL A   1      38.078  23.785  26.176  1.00  0.00     0.025 A 
BRANCH  80  84
ATOM     84  S   UNL A   1      36.541  22.192  24.490  1.00  0.00     0.257 S 
ATOM     85  O   UNL A   1      36.865  22.755  23.204  1.00  0.00    -0.205 OA
ATOM     86  O   UNL A   1      36.187  20.798  24.661  1.00  0.00    -0.205 OA
BRANCH  84  87
ATOM     87  N   UNL A   1      35.242  23.088  25.090  1.00  0.00    -0.123 NA
ATOM     88  H   UNL A   1      35.524  23.433  26.007  1.00  0.00     0.167 HD
BRANCH  87  89
ATOM     89  N   UNL A   1      34.745  24.215  24.362  1.00  0.00    -0.275 N 
ATOM     90  C   UNL A   1      33.433  24.566  24.157  1.00  0.00     0.265 C 
ATOM     91  H   UNL A   1      35.421  24.808  23.962  1.00  0.00     0.186 HD
ATOM     92  O   UNL A   1      33.232  25.686  23.674  1.00  0.00    -0.271 OA
BRANCH  90  93
ATOM     93  C   UNL A   1      32.302  23.529  24.353  1.00  0.00     0.244 C 
ATOM     94  C   UNL A   1      32.360  22.288  23.548  1.00  0.00     0.042 C 
ATOM     95  N   UNL A   1      32.445  22.988  25.746  1.00  0.00    -0.171 NA
ATOM     96  C   UNL A   1      32.629  21.311  24.410  1.00  0.00     0.091 C 
ATOM     97  N   UNL A   1      32.666  21.741  25.707  1.00  0.00    -0.155 NA
BRANCH  96  98
ATOM     98  C   UNL A   1      32.831  19.929  23.999  1.00  0.00     0.002 A 
ATOM     99  C   UNL A   1      33.533  19.028  24.805  1.00  0.00     0.010 A 
ATOM    100  C   UNL A   1      32.270  19.483  22.793  1.00  0.00     0.010 A 
ATOM    101  C   UNL A   1      33.657  17.694  24.415  1.00  0.00     0.001 A 
ATOM    102  C   UNL A   1      32.401  18.153  22.401  1.00  0.00     0.001 A 
ATOM    103  C   UNL A   1      33.092  17.258  23.216  1.00  0.00     0.000 A 
ENDBRANCH  96  98
ENDBRANCH  90  93
ENDBRANCH  87  89
ENDBRANCH  84  87
ENDBRANCH  80  84
ENDBRANCH  75  77
ENDBRANCH  74  75
ENDBRANCH  73  74
ENDBRANCH   1  73
TORSDOF 22
ENDMDL
MODEL 3
REMARK VINA RESULT:     -11.7      5.111     11.613
REMARK SMILES O=C(OCCOCCOC(=O)c1cc(S(=O)(=O)NNC(=O)[C@H]2C=C(c3ccccc3)N=N2)ccc1F)c1ccc(-c2c3nc(c(-c4cccc(S(=O)(=O)[O-])c4F)c4ccc([nH]4)c(-c4cccc(S(=O)(=O)[O-])c4F)c4nc(c(-c5cccc(S(=O)(=O)[O-])c5F)c5ccc2[nH]5)C=C4)C=C3)cc1
REMARK SMILES IDX 7 1 6 2 5 3 4 4 3 5 2 6 1 7 37 8 38 9 99 10 39 11 98 12
REMARK SMILES IDX 40 13 41 14 42 15 92 16 43 17 97 18 91 19 93 20 44 21 96 22
REMARK SMILES IDX 90 23 89 24 45 26 77 27 57 28 76 29 58 30 61 31 75 32 94 33
REMARK SMILES IDX 59 34 60 35 74 37 95 38 62 39 46 40 47 41 55 42 48 43 50 44
REMARK SMILES IDX 56 45 49 46 51 47 52 48 53 49 54 50 78 51 79 52 87 53 80 54
REMARK SMILES IDX 82 55 88 56 81 57 83 58 84 59 85 60 86 61 63 62 64 63 72 64
REMARK SMILES IDX 65 65 67 66 73 67 66 68 68 69 69 70 70 71 71 72 8 73 9 74
REMARK SMILES IDX 10 75 11 76 12 77 13 78 35 79 14 80 34 81 36 82 33 83 15 84
REMARK SMILES IDX 16 85 17 86 18 87 19 89 20 90 21 92 22 93 23 94 32 95 24 96
REMARK SMILES IDX 31 97 25 98 26 99 30 100 27 101 29 102 28 103
REMARK H PARENT 93 25 61 36 18 88 19 91
REMARK Flexibility Score: inf
ROOT
ATOM      1  C   UNL A   1      43.864  19.463  25.008  1.00  0.00     0.202 C 
ENDROOT
BRANCH   1   2
ATOM      2  O   UNL A   1      42.912  20.241  25.744  1.00  0.00    -0.374 OA
BRANCH   2   3
ATOM      3  C   UNL A   1      42.184  19.590  26.776  1.00  0.00     0.202 C 
BRANCH   3   4
ATOM      4  C   UNL A   1      41.360  20.435  27.745  1.00  0.00     0.261 C 
BRANCH   4   5
ATOM      5  O   UNL A   1      41.638  21.842  27.674  1.00  0.00    -0.460 OA
BRANCH   5   6
ATOM      6  C   UNL A   1      40.739  22.837  27.511  1.00  0.00     0.338 C 
ATOM      7  O   UNL A   1      39.555  22.548  27.341  1.00  0.00    -0.246 OA
BRANCH   6   8
ATOM      8  C   UNL A   1      41.113  24.259  27.735  1.00  0.00     0.060 A 
ATOM      9  C   UNL A   1      42.142  24.695  28.566  1.00  0.00     0.016 A 
ATOM     10  C   UNL A   1      40.245  25.211  27.172  1.00  0.00     0.016 A 
ATOM     11  C   UNL A   1      42.112  25.972  29.080  1.00  0.00     0.010 A 
ATOM     12  C   UNL A   1      40.257  26.518  27.622  1.00  0.00     0.010 A 
ATOM     13  C   UNL A   1      41.116  26.849  28.660  1.00  0.00    -0.014 A 
BRANCH  13  14
ATOM     14  C   UNL A   1      41.095  28.156  29.285  1.00  0.00     0.031 A 
ATOM     15  C   UNL A   1      42.074  29.101  28.689  1.00  0.00     0.074 A 
ATOM     16  C   UNL A   1      40.238  28.451  30.281  1.00  0.00     0.049 A 
ATOM     17  N   UNL A   1      43.101  29.640  29.259  1.00  0.00    -0.248 NA
ATOM     18  C   UNL A   1      42.013  29.313  27.233  1.00  0.00     0.031 C 
ATOM     19  C   UNL A   1      39.098  27.660  30.758  1.00  0.00     0.029 A 
ATOM     20  N   UNL A   1      40.118  29.606  30.986  1.00  0.00    -0.354 N 
ATOM     21  C   UNL A   1      43.683  30.445  28.283  1.00  0.00     0.074 A 
ATOM     22  C   UNL A   1      43.096  30.063  27.028  1.00  0.00     0.031 C 
ATOM     23  C   UNL A   1      38.256  28.468  31.439  1.00  0.00     0.029 A 
ATOM     24  C   UNL A   1      38.863  29.781  31.562  1.00  0.00     0.049 A 
ATOM     25  H   UNL A   1      40.850  30.258  31.080  1.00  0.00     0.167 HD
ATOM     26  C   UNL A   1      44.427  31.535  28.613  1.00  0.00     0.034 A 
ATOM     27  C   UNL A   1      38.339  30.956  31.993  1.00  0.00     0.034 A 
ATOM     28  C   UNL A   1      44.863  31.488  29.980  1.00  0.00     0.049 A 
ATOM     29  C   UNL A   1      39.475  31.886  32.202  1.00  0.00     0.074 A 
ATOM     30  C   UNL A   1      45.666  30.640  30.714  1.00  0.00     0.029 A 
ATOM     31  N   UNL A   1      44.127  32.205  30.891  1.00  0.00    -0.354 N 
ATOM     32  N   UNL A   1      40.387  31.714  33.115  1.00  0.00    -0.248 NA
ATOM     33  C   UNL A   1      39.846  32.757  31.096  1.00  0.00     0.031 C 
ATOM     34  C   UNL A   1      45.035  30.553  31.988  1.00  0.00     0.029 A 
ATOM     35  C   UNL A   1      43.929  31.404  31.984  1.00  0.00     0.049 A 
ATOM     36  H   UNL A   1      43.800  33.127  30.778  1.00  0.00     0.167 HD
ATOM     37  C   UNL A   1      41.574  32.057  32.480  1.00  0.00     0.074 A 
ATOM     38  C   UNL A   1      41.169  32.783  31.278  1.00  0.00     0.031 C 
ATOM     39  C   UNL A   1      42.754  31.465  32.826  1.00  0.00     0.034 A 
BRANCH  26  40
ATOM     40  C   UNL A   1      44.457  32.805  27.806  1.00  0.00     0.023 A 
ATOM     41  C   UNL A   1      45.549  33.011  26.937  1.00  0.00     0.012 A 
ATOM     42  C   UNL A   1      43.613  33.913  28.054  1.00  0.00     0.148 A 
ATOM     43  C   UNL A   1      45.801  34.262  26.365  1.00  0.00     0.002 A 
ATOM     44  C   UNL A   1      43.817  35.130  27.420  1.00  0.00     0.091 A 
ATOM     45  F   UNL A   1      42.683  33.840  29.012  1.00  0.00    -0.205 F 
ATOM     46  C   UNL A   1      44.928  35.319  26.596  1.00  0.00     0.022 A 
BRANCH  44  47
ATOM     47  S   UNL A   1      42.691  36.512  27.641  1.00  0.00     0.127 S 
ATOM     48  O   UNL A   1      42.604  37.041  26.283  1.00  0.00    -0.237 OA
ATOM     49  O   UNL A   1      41.485  35.837  28.122  1.00  0.00    -0.237 OA
ATOM     50  O   UNL A   1      43.322  37.380  28.627  1.00  0.00    -0.744 OA
ENDBRANCH  44  47
ENDBRANCH  26  40
BRANCH  27  51
ATOM     51  C   UNL A   1      36.945  31.455  31.879  1.00  0.00     0.023 A 
ATOM     52  C   UNL A   1      36.281  31.918  33.034  1.00  0.00     0.012 A 
ATOM     53  C   UNL A   1      36.385  31.772  30.621  1.00  0.00     0.148 A 
ATOM     54  C   UNL A   1      35.128  32.709  32.939  1.00  0.00     0.002 A 
ATOM     55  C   UNL A   1      35.240  32.559  30.530  1.00  0.00     0.091 A 
ATOM     56  F   UNL A   1      37.027  31.388  29.511  1.00  0.00    -0.205 F 
ATOM     57  C   UNL A   1      34.615  33.040  31.687  1.00  0.00     0.022 A 
BRANCH  55  58
ATOM     58  S   UNL A   1      34.553  33.071  28.949  1.00  0.00     0.127 S 
ATOM     59  O   UNL A   1      34.139  31.792  28.371  1.00  0.00    -0.237 OA
ATOM     60  O   UNL A   1      33.455  33.940  29.367  1.00  0.00    -0.237 OA
ATOM     61  O   UNL A   1      35.640  33.728  28.235  1.00  0.00    -0.744 OA
ENDBRANCH  55  58
ENDBRANCH  27  51
BRANCH  39  62
ATOM     62  C   UNL A   1      42.784  30.598  34.060  1.00  0.00     0.023 A 
ATOM     63  C   UNL A   1      42.944  31.127  35.359  1.00  0.00     0.012 A 
ATOM     64  C   UNL A   1      42.431  29.247  33.917  1.00  0.00     0.148 A 
ATOM     65  C   UNL A   1      42.762  30.321  36.488  1.00  0.00     0.002 A 
ATOM     66  C   UNL A   1      42.197  28.464  35.039  1.00  0.00     0.091 A 
ATOM     67  F   UNL A   1      42.285  28.761  32.675  1.00  0.00    -0.205 F 
ATOM     68  C   UNL A   1      42.370  28.993  36.328  1.00  0.00     0.022 A 
BRANCH  66  69
ATOM     69  S   UNL A   1      41.545  26.799  34.896  1.00  0.00     0.127 S 
ATOM     70  O   UNL A   1      40.402  26.995  34.006  1.00  0.00    -0.237 OA
ATOM     71  O   UNL A   1      42.668  26.074  34.300  1.00  0.00    -0.237 OA
ATOM     72  O   UNL A   1      41.218  26.377  36.253  1.00  0.00    -0.744 OA
ENDBRANCH  66  69
ENDBRANCH  39  62
ENDBRANCH  13  14
ENDBRANCH   6   8
ENDBRANCH   5   6
ENDBRANCH   4   5
ENDBRANCH   3   4
ENDBRANCH   2   3
ENDBRANCH   1   2
BRANCH   1  73
ATOM     73  C   UNL A   1      44.810  20.163  24.018  1.00  0.00     0.261 C 
BRANCH  73  74
ATOM     74  O   UNL A   1      44.640  21.593  23.992  1.00  0.00    -0.460 OA
BRANCH  74  75
ATOM     75  C   UNL A   1      45.361  22.279  24.908  1.00  0.00     0.341 C 
ATOM     76  O   UNL A   1      46.397  21.936  25.451  1.00  0.00    -0.246 OA
BRANCH  75  77
ATOM     77  C   UNL A   1      44.876  23.663  24.971  1.00  0.00     0.097 A 
ATOM     78  C   UNL A   1      45.837  24.678  25.051  1.00  0.00     0.040 A 
ATOM     79  C   UNL A   1      43.527  23.985  24.964  1.00  0.00     0.137 A 
ATOM     80  C   UNL A   1      45.435  26.014  25.082  1.00  0.00     0.085 A 
ATOM     81  C   UNL A   1      43.125  25.322  25.041  1.00  0.00     0.041 A 
ATOM     82  F   UNL A   1      42.591  23.027  24.918  1.00  0.00    -0.206 F 
ATOM     83  C   UNL A   1      44.079  26.347  25.094  1.00  0.00     0.025 A 
BRANCH  80  84
ATOM     84  S   UNL A   1      46.717  27.230  25.158  1.00  0.00     0.257 S 
ATOM     85  O   UNL A   1      47.253  27.393  23.830  1.00  0.00    -0.205 OA
ATOM     86  O   UNL A   1      46.212  28.344  25.934  1.00  0.00    -0.205 OA
BRANCH  84  87
ATOM     87  N   UNL A   1      47.941  26.525  26.083  1.00  0.00    -0.123 NA
ATOM     88  H   UNL A   1      48.770  26.488  25.491  1.00  0.00     0.167 HD
BRANCH  87  89
ATOM     89  N   UNL A   1      48.345  27.118  27.321  1.00  0.00    -0.275 N 
ATOM     90  C   UNL A   1      47.796  26.918  28.564  1.00  0.00     0.265 C 
ATOM     91  H   UNL A   1      49.104  27.743  27.276  1.00  0.00     0.186 HD
ATOM     92  O   UNL A   1      48.428  27.374  29.523  1.00  0.00    -0.271 OA
BRANCH  90  93
ATOM     93  C   UNL A   1      46.378  26.320  28.709  1.00  0.00     0.244 C 
ATOM     94  C   UNL A   1      46.208  25.166  29.621  1.00  0.00     0.042 C 
ATOM     95  N   UNL A   1      45.533  27.360  29.385  1.00  0.00    -0.171 NA
ATOM     96  C   UNL A   1      45.502  25.621  30.652  1.00  0.00     0.091 C 
ATOM     97  N   UNL A   1      45.103  26.919  30.491  1.00  0.00    -0.155 NA
BRANCH  96  98
ATOM     98  C   UNL A   1      45.174  24.800  31.809  1.00  0.00     0.002 A 
ATOM     99  C   UNL A   1      44.225  23.778  31.727  1.00  0.00     0.010 A 
ATOM    100  C   UNL A   1      45.860  25.012  33.016  1.00  0.00     0.010 A 
ATOM    101  C   UNL A   1      43.977  22.967  32.836  1.00  0.00     0.001 A 
ATOM    102  C   UNL A   1      45.606  24.205  34.123  1.00  0.00     0.001 A 
ATOM    103  C   UNL A   1      44.667  23.180  34.030  1.00  0.00     0.000 A 
ENDBRANCH  96  98
ENDBRANCH  90  93
ENDBRANCH  87  89
ENDBRANCH  84  87
ENDBRANCH  80  84
ENDBRANCH  75  77
ENDBRANCH  74  75
ENDBRANCH  73  74
ENDBRANCH   1  73
TORSDOF 22
ENDMDL
