MODEL 1
REMARK VINA RESULT:     -11.6      0.000      0.000
REMARK SMILES O=C(OCCOCCOC(=O)[C@@H]1[C@@H](C(=O)Nc2ccc(F)c(F)c2)[C@H]2CC[C@@H]1O2)c1ccc(-c2c3nc(c(-c4cccc(S(=O)(=O)[O-])c4F)c4ccc([nH]4)c(-c4cccc(S(=O)(=O)[O-])c4F)c4nc(c(-c5cccc(S(=O)(=O)[O-])c5F)c5ccc2[nH]5)C=C4)C=C3)cc1
REMARK SMILES IDX 5 1 4 2 3 3 2 4 1 5 30 6 31 7 92 8 32 9 91 10 33 11 34 12
REMARK SMILES IDX 35 13 85 14 36 15 90 16 84 17 86 18 37 19 89 20 83 21 82 22
REMARK SMILES IDX 38 24 70 25 50 26 69 27 51 28 54 29 68 30 87 31 52 32 53 33
REMARK SMILES IDX 67 35 88 36 55 37 39 38 40 39 48 40 41 41 43 42 49 43 42 44
REMARK SMILES IDX 44 45 45 46 46 47 47 48 71 49 72 50 80 51 73 52 75 53 81 54
REMARK SMILES IDX 74 55 76 56 77 57 78 58 79 59 56 60 57 61 65 62 58 63 60 64
REMARK SMILES IDX 66 65 59 66 61 67 62 68 63 69 64 70 6 71 7 72 8 73 9 74
REMARK SMILES IDX 10 75 11 76 12 77 13 78 28 79 25 80 27 81 29 82 26 83 14 84
REMARK SMILES IDX 15 85 16 86 17 88 18 89 24 90 19 91 22 92 20 93 23 94 21 95
REMARK H PARENT 86 23 54 34 16 87
REMARK Flexibility Score: inf
ROOT
ATOM      1  C   UNL A   1      35.700  21.794  24.649  1.00  0.00     0.202 C 
ENDROOT
BRANCH   1   2
ATOM      2  C   UNL A   1      37.197  21.539  24.448  1.00  0.00     0.261 C 
BRANCH   2   3
ATOM      3  O   UNL A   1      37.796  21.045  25.656  1.00  0.00    -0.460 OA
BRANCH   3   4
ATOM      4  C   UNL A   1      39.080  21.191  26.064  1.00  0.00     0.338 C 
ATOM      5  O   UNL A   1      39.827  20.217  25.998  1.00  0.00    -0.246 OA
BRANCH   4   6
ATOM      6  C   UNL A   1      39.637  22.480  26.577  1.00  0.00     0.060 A 
ATOM      7  C   UNL A   1      39.183  23.745  26.206  1.00  0.00     0.016 A 
ATOM      8  C   UNL A   1      40.644  22.408  27.554  1.00  0.00     0.016 A 
ATOM      9  C   UNL A   1      39.753  24.899  26.700  1.00  0.00     0.010 A 
ATOM     10  C   UNL A   1      41.194  23.570  28.104  1.00  0.00     0.010 A 
ATOM     11  C   UNL A   1      40.757  24.819  27.654  1.00  0.00    -0.014 A 
BRANCH  11  12
ATOM     12  C   UNL A   1      41.369  26.096  28.039  1.00  0.00     0.031 A 
ATOM     13  C   UNL A   1      42.732  26.410  27.516  1.00  0.00     0.074 A 
ATOM     14  C   UNL A   1      40.601  27.018  28.649  1.00  0.00     0.049 A 
ATOM     15  N   UNL A   1      43.433  27.500  27.652  1.00  0.00    -0.248 NA
ATOM     16  C   UNL A   1      43.386  25.368  26.703  1.00  0.00     0.031 C 
ATOM     17  C   UNL A   1      39.210  26.811  29.070  1.00  0.00     0.029 A 
ATOM     18  N   UNL A   1      40.857  28.319  28.979  1.00  0.00    -0.354 N 
ATOM     19  C   UNL A   1      44.622  27.264  26.977  1.00  0.00     0.074 A 
ATOM     20  C   UNL A   1      44.551  25.932  26.423  1.00  0.00     0.031 C 
ATOM     21  C   UNL A   1      38.735  27.950  29.594  1.00  0.00     0.029 A 
ATOM     22  C   UNL A   1      39.803  28.938  29.609  1.00  0.00     0.049 A 
ATOM     23  H   UNL A   1      41.711  28.768  28.786  1.00  0.00     0.167 HD
ATOM     24  C   UNL A   1      45.677  28.097  26.837  1.00  0.00     0.034 A 
ATOM     25  C   UNL A   1      39.738  30.159  30.172  1.00  0.00     0.034 A 
ATOM     26  C   UNL A   1      45.710  29.415  27.404  1.00  0.00     0.049 A 
ATOM     27  C   UNL A   1      40.958  31.032  30.070  1.00  0.00     0.074 A 
ATOM     28  C   UNL A   1      46.745  30.329  27.409  1.00  0.00     0.029 A 
ATOM     29  N   UNL A   1      44.647  30.003  28.078  1.00  0.00    -0.354 N 
ATOM     30  N   UNL A   1      42.089  30.796  29.446  1.00  0.00    -0.248 NA
ATOM     31  C   UNL A   1      40.893  32.341  30.729  1.00  0.00     0.031 C 
ATOM     32  C   UNL A   1      46.313  31.462  28.108  1.00  0.00     0.029 A 
ATOM     33  C   UNL A   1      44.998  31.268  28.506  1.00  0.00     0.049 A 
ATOM     34  H   UNL A   1      43.770  29.580  28.228  1.00  0.00     0.167 HD
ATOM     35  C   UNL A   1      42.866  31.932  29.622  1.00  0.00     0.074 A 
ATOM     36  C   UNL A   1      42.056  32.871  30.378  1.00  0.00     0.031 C 
ATOM     37  C   UNL A   1      44.138  32.178  29.221  1.00  0.00     0.034 A 
BRANCH  24  38
ATOM     38  C   UNL A   1      46.867  27.576  26.083  1.00  0.00     0.023 A 
ATOM     39  C   UNL A   1      46.944  27.736  24.684  1.00  0.00     0.012 A 
ATOM     40  C   UNL A   1      47.901  26.902  26.760  1.00  0.00     0.148 A 
ATOM     41  C   UNL A   1      48.017  27.204  23.967  1.00  0.00     0.002 A 
ATOM     42  C   UNL A   1      48.986  26.411  26.046  1.00  0.00     0.091 A 
ATOM     43  F   UNL A   1      47.790  26.733  28.086  1.00  0.00    -0.205 F 
ATOM     44  C   UNL A   1      49.040  26.549  24.649  1.00  0.00     0.022 A 
BRANCH  42  45
ATOM     45  S   UNL A   1      50.379  25.597  26.834  1.00  0.00     0.127 S 
ATOM     46  O   UNL A   1      51.232  25.294  25.685  1.00  0.00    -0.237 OA
ATOM     47  O   UNL A   1      50.888  26.650  27.712  1.00  0.00    -0.237 OA
ATOM     48  O   UNL A   1      49.833  24.435  27.521  1.00  0.00    -0.744 OA
ENDBRANCH  42  45
ENDBRANCH  24  38
BRANCH  25  49
ATOM     49  C   UNL A   1      38.515  30.593  30.906  1.00  0.00     0.023 A 
ATOM     50  C   UNL A   1      38.366  30.306  32.276  1.00  0.00     0.012 A 
ATOM     51  C   UNL A   1      37.486  31.292  30.241  1.00  0.00     0.148 A 
ATOM     52  C   UNL A   1      37.203  30.672  32.957  1.00  0.00     0.002 A 
ATOM     53  C   UNL A   1      36.359  31.708  30.938  1.00  0.00     0.091 A 
ATOM     54  F   UNL A   1      37.629  31.538  28.930  1.00  0.00    -0.205 F 
ATOM     55  C   UNL A   1      36.204  31.381  32.293  1.00  0.00     0.022 A 
BRANCH  53  56
ATOM     56  S   UNL A   1      35.093  32.733  30.181  1.00  0.00     0.127 S 
ATOM     57  O   UNL A   1      34.168  32.934  31.292  1.00  0.00    -0.237 OA
ATOM     58  O   UNL A   1      35.856  33.920  29.789  1.00  0.00    -0.237 OA
ATOM     59  O   UNL A   1      34.583  31.956  29.059  1.00  0.00    -0.744 OA
ENDBRANCH  53  56
ENDBRANCH  25  49
BRANCH  37  60
ATOM     60  C   UNL A   1      44.708  33.525  29.569  1.00  0.00     0.023 A 
ATOM     61  C   UNL A   1      45.344  33.718  30.810  1.00  0.00     0.012 A 
ATOM     62  C   UNL A   1      44.665  34.576  28.636  1.00  0.00     0.148 A 
ATOM     63  C   UNL A   1      45.895  34.955  31.135  1.00  0.00     0.002 A 
ATOM     64  C   UNL A   1      45.267  35.788  28.942  1.00  0.00     0.091 A 
ATOM     65  F   UNL A   1      44.034  34.374  27.470  1.00  0.00    -0.205 F 
ATOM     66  C   UNL A   1      45.868  35.985  30.196  1.00  0.00     0.022 A 
BRANCH  64  67
ATOM     67  S   UNL A   1      45.374  37.127  27.752  1.00  0.00     0.127 S 
ATOM     68  O   UNL A   1      46.275  38.056  28.431  1.00  0.00    -0.237 OA
ATOM     69  O   UNL A   1      45.950  36.458  26.585  1.00  0.00    -0.237 OA
ATOM     70  O   UNL A   1      44.010  37.602  27.561  1.00  0.00    -0.744 OA
ENDBRANCH  64  67
ENDBRANCH  37  60
ENDBRANCH  11  12
ENDBRANCH   4   6
ENDBRANCH   3   4
ENDBRANCH   2   3
ENDBRANCH   1   2
BRANCH   1  71
ATOM     71  O   UNL A   1      35.326  23.152  24.891  1.00  0.00    -0.374 OA
BRANCH  71  72
ATOM     72  C   UNL A   1      34.880  23.482  26.214  1.00  0.00     0.202 C 
BRANCH  72  73
ATOM     73  C   UNL A   1      33.385  23.813  26.204  1.00  0.00     0.261 C 
BRANCH  73  74
ATOM     74  O   UNL A   1      33.258  25.238  26.115  1.00  0.00    -0.463 OA
BRANCH  74  75
ATOM     75  C   UNL A   1      32.033  25.688  26.479  1.00  0.00     0.312 C 
ATOM     76  O   UNL A   1      31.219  25.022  27.107  1.00  0.00    -0.252 OA
BRANCH  75  77
ATOM     77  C   UNL A   1      31.812  27.148  26.154  1.00  0.00     0.143 C 
ATOM     78  C   UNL A   1      32.688  27.595  24.985  1.00  0.00     0.124 C 
ATOM     79  C   UNL A   1      32.266  28.075  27.285  1.00  0.00     0.133 C 
ATOM     80  C   UNL A   1      33.487  28.751  25.629  1.00  0.00     0.132 C 
ATOM     81  C   UNL A   1      31.732  29.488  27.055  1.00  0.00     0.036 C 
ATOM     82  O   UNL A   1      33.671  28.232  26.973  1.00  0.00    -0.373 OA
ATOM     83  C   UNL A   1      32.701  30.010  25.996  1.00  0.00     0.035 C 
BRANCH  78  84
ATOM     84  C   UNL A   1      31.879  28.030  23.763  1.00  0.00     0.231 C 
ATOM     85  O   UNL A   1      31.446  29.176  23.640  1.00  0.00    -0.274 OA
ATOM     86  N   UNL A   1      31.729  27.153  22.718  1.00  0.00    -0.326 N 
ATOM     87  H   UNL A   1      31.581  27.555  21.831  1.00  0.00     0.169 HD
BRANCH  86  88
ATOM     88  C   UNL A   1      31.761  25.756  22.766  1.00  0.00     0.044 A 
ATOM     89  C   UNL A   1      30.677  25.033  23.265  1.00  0.00     0.029 A 
ATOM     90  C   UNL A   1      32.872  25.078  22.277  1.00  0.00     0.068 A 
ATOM     91  C   UNL A   1      30.753  23.649  23.426  1.00  0.00     0.044 A 
ATOM     92  C   UNL A   1      32.946  23.696  22.439  1.00  0.00     0.160 A 
ATOM     93  C   UNL A   1      31.906  22.988  23.033  1.00  0.00     0.158 A 
ATOM     94  F   UNL A   1      34.052  23.053  22.038  1.00  0.00    -0.204 F 
ATOM     95  F   UNL A   1      32.008  21.666  23.220  1.00  0.00    -0.204 F 
ENDBRANCH  86  88
ENDBRANCH  78  84
ENDBRANCH  75  77
ENDBRANCH  74  75
ENDBRANCH  73  74
ENDBRANCH  72  73
ENDBRANCH  71  72
ENDBRANCH   1  71
TORSDOF 19
ENDMDL
MODEL 2
REMARK VINA RESULT:     -11.6      2.353      8.156
REMARK SMILES O=C(OCCOCCOC(=O)[C@@H]1[C@@H](C(=O)Nc2ccc(F)c(F)c2)[C@H]2CC[C@@H]1O2)c1ccc(-c2c3nc(c(-c4cccc(S(=O)(=O)[O-])c4F)c4ccc([nH]4)c(-c4cccc(S(=O)(=O)[O-])c4F)c4nc(c(-c5cccc(S(=O)(=O)[O-])c5F)c5ccc2[nH]5)C=C4)C=C3)cc1
REMARK SMILES IDX 5 1 4 2 3 3 2 4 1 5 30 6 31 7 92 8 32 9 91 10 33 11 34 12
REMARK SMILES IDX 35 13 85 14 36 15 90 16 84 17 86 18 37 19 89 20 83 21 82 22
REMARK SMILES IDX 38 24 70 25 50 26 69 27 51 28 54 29 68 30 87 31 52 32 53 33
REMARK SMILES IDX 67 35 88 36 55 37 39 38 40 39 48 40 41 41 43 42 49 43 42 44
REMARK SMILES IDX 44 45 45 46 46 47 47 48 71 49 72 50 80 51 73 52 75 53 81 54
REMARK SMILES IDX 74 55 76 56 77 57 78 58 79 59 56 60 57 61 65 62 58 63 60 64
REMARK SMILES IDX 66 65 59 66 61 67 62 68 63 69 64 70 6 71 7 72 8 73 9 74
REMARK SMILES IDX 10 75 11 76 12 77 13 78 28 79 25 80 27 81 29 82 26 83 14 84
REMARK SMILES IDX 15 85 16 86 17 88 18 89 24 90 19 91 22 92 20 93 23 94 21 95
REMARK H PARENT 86 23 54 34 16 87
REMARK Flexibility Score: inf
ROOT
ATOM      1  C   UNL A   1      37.873  20.641  24.880  1.00  0.00     0.202 C 
ENDROOT
BRANCH   1   2
ATOM      2  C   UNL A   1      38.734  19.536  25.498  1.00  0.00     0.261 C 
BRANCH   2   3
ATOM      3  O   UNL A   1      40.068  20.007  25.744  1.00  0.00    -0.460 OA
BRANCH   3   4
ATOM      4  C   UNL A   1      40.585  20.458  26.914  1.00  0.00     0.338 C 
ATOM      5  O   UNL A   1      40.741  19.655  27.831  1.00  0.00    -0.246 OA
BRANCH   4   6
ATOM      6  C   UNL A   1      40.988  21.880  27.139  1.00  0.00     0.060 A 
ATOM      7  C   UNL A   1      40.674  22.940  26.289  1.00  0.00     0.016 A 
ATOM      8  C   UNL A   1      41.674  22.178  28.329  1.00  0.00     0.016 A 
ATOM      9  C   UNL A   1      41.093  24.228  26.541  1.00  0.00     0.010 A 
ATOM     10  C   UNL A   1      42.058  23.490  28.625  1.00  0.00     0.010 A 
ATOM     11  C   UNL A   1      41.783  24.512  27.712  1.00  0.00    -0.014 A 
BRANCH  11  12
ATOM     12  C   UNL A   1      42.275  25.888  27.839  1.00  0.00     0.031 A 
ATOM     13  C   UNL A   1      41.418  26.879  28.557  1.00  0.00     0.074 A 
ATOM     14  C   UNL A   1      43.555  26.145  27.514  1.00  0.00     0.049 A 
ATOM     15  N   UNL A   1      41.677  28.119  28.862  1.00  0.00    -0.248 NA
ATOM     16  C   UNL A   1      40.103  26.403  29.023  1.00  0.00     0.031 C 
ATOM     17  C   UNL A   1      44.486  25.174  26.926  1.00  0.00     0.029 A 
ATOM     18  N   UNL A   1      44.309  27.274  27.668  1.00  0.00    -0.354 N 
ATOM     19  C   UNL A   1      40.546  28.584  29.519  1.00  0.00     0.074 A 
ATOM     20  C   UNL A   1      39.600  27.494  29.580  1.00  0.00     0.031 C 
ATOM     21  C   UNL A   1      45.688  25.750  26.779  1.00  0.00     0.029 A 
ATOM     22  C   UNL A   1      45.593  27.142  27.196  1.00  0.00     0.049 A 
ATOM     23  H   UNL A   1      43.967  28.102  28.078  1.00  0.00     0.167 HD
ATOM     24  C   UNL A   1      40.329  29.817  30.026  1.00  0.00     0.034 A 
ATOM     25  C   UNL A   1      46.564  28.067  27.078  1.00  0.00     0.034 A 
ATOM     26  C   UNL A   1      41.295  30.875  29.946  1.00  0.00     0.049 A 
ATOM     27  C   UNL A   1      46.262  29.452  27.578  1.00  0.00     0.074 A 
ATOM     28  C   UNL A   1      41.172  32.191  30.343  1.00  0.00     0.029 A 
ATOM     29  N   UNL A   1      42.573  30.728  29.421  1.00  0.00    -0.354 N 
ATOM     30  N   UNL A   1      45.182  29.891  28.182  1.00  0.00    -0.248 NA
ATOM     31  C   UNL A   1      47.308  30.464  27.399  1.00  0.00     0.031 C 
ATOM     32  C   UNL A   1      42.370  32.846  30.035  1.00  0.00     0.029 A 
ATOM     33  C   UNL A   1      43.251  31.929  29.481  1.00  0.00     0.049 A 
ATOM     34  H   UNL A   1      42.941  29.890  29.058  1.00  0.00     0.167 HD
ATOM     35  C   UNL A   1      45.424  31.227  28.472  1.00  0.00     0.074 A 
ATOM     36  C   UNL A   1      46.771  31.510  28.011  1.00  0.00     0.031 C 
ATOM     37  C   UNL A   1      44.608  32.147  29.043  1.00  0.00     0.034 A 
BRANCH  24  38
ATOM     38  C   UNL A   1      38.991  30.071  30.662  1.00  0.00     0.023 A 
ATOM     39  C   UNL A   1      38.695  29.530  31.930  1.00  0.00     0.012 A 
ATOM     40  C   UNL A   1      38.014  30.828  29.987  1.00  0.00     0.148 A 
ATOM     41  C   UNL A   1      37.435  29.711  32.502  1.00  0.00     0.002 A 
ATOM     42  C   UNL A   1      36.776  31.039  30.580  1.00  0.00     0.091 A 
ATOM     43  F   UNL A   1      38.307  31.305  28.769  1.00  0.00    -0.205 F 
ATOM     44  C   UNL A   1      36.480  30.471  31.830  1.00  0.00     0.022 A 
BRANCH  42  45
ATOM     45  S   UNL A   1      35.495  32.044  29.823  1.00  0.00     0.127 S 
ATOM     46  O   UNL A   1      36.254  33.222  29.403  1.00  0.00    -0.237 OA
ATOM     47  O   UNL A   1      35.045  31.185  28.728  1.00  0.00    -0.237 OA
ATOM     48  O   UNL A   1      34.504  32.285  30.861  1.00  0.00    -0.744 OA
ENDBRANCH  42  45
ENDBRANCH  24  38
BRANCH  25  49
ATOM     49  C   UNL A   1      47.862  27.726  26.428  1.00  0.00     0.023 A 
ATOM     50  C   UNL A   1      48.988  27.405  27.209  1.00  0.00     0.012 A 
ATOM     51  C   UNL A   1      47.986  27.725  25.022  1.00  0.00     0.148 A 
ATOM     52  C   UNL A   1      50.218  27.129  26.606  1.00  0.00     0.002 A 
ATOM     53  C   UNL A   1      49.194  27.389  24.427  1.00  0.00     0.091 A 
ATOM     54  F   UNL A   1      46.912  28.056  24.290  1.00  0.00    -0.205 F 
ATOM     55  C   UNL A   1      50.319  27.111  25.216  1.00  0.00     0.022 A 
BRANCH  53  56
ATOM     56  S   UNL A   1      49.366  27.220  22.647  1.00  0.00     0.127 S 
ATOM     57  O   UNL A   1      48.499  26.078  22.370  1.00  0.00    -0.237 OA
ATOM     58  O   UNL A   1      48.862  28.509  22.168  1.00  0.00    -0.237 OA
ATOM     59  O   UNL A   1      50.788  27.012  22.412  1.00  0.00    -0.744 OA
ENDBRANCH  53  56
ENDBRANCH  25  49
BRANCH  37  60
ATOM     60  C   UNL A   1      45.171  33.529  29.225  1.00  0.00     0.023 A 
ATOM     61  C   UNL A   1      45.939  33.829  30.366  1.00  0.00     0.012 A 
ATOM     62  C   UNL A   1      44.987  34.506  28.229  1.00  0.00     0.148 A 
ATOM     63  C   UNL A   1      46.483  35.100  30.534  1.00  0.00     0.002 A 
ATOM     64  C   UNL A   1      45.581  35.751  28.376  1.00  0.00     0.091 A 
ATOM     65  F   UNL A   1      44.233  34.201  27.163  1.00  0.00    -0.205 F 
ATOM     66  C   UNL A   1      46.316  36.056  29.533  1.00  0.00     0.022 A 
BRANCH  64  67
ATOM     67  S   UNL A   1      45.508  36.999  27.088  1.00  0.00     0.127 S 
ATOM     68  O   UNL A   1      46.335  38.061  27.657  1.00  0.00    -0.237 OA
ATOM     69  O   UNL A   1      46.105  36.302  25.948  1.00  0.00    -0.237 OA
ATOM     70  O   UNL A   1      44.097  37.323  26.925  1.00  0.00    -0.744 OA
ENDBRANCH  64  67
ENDBRANCH  37  60
ENDBRANCH  11  12
ENDBRANCH   4   6
ENDBRANCH   3   4
ENDBRANCH   2   3
ENDBRANCH   1   2
BRANCH   1  71
ATOM     71  O   UNL A   1      37.517  21.714  25.754  1.00  0.00    -0.374 OA
BRANCH  71  72
ATOM     72  C   UNL A   1      36.131  21.843  26.101  1.00  0.00     0.202 C 
BRANCH  72  73
ATOM     73  C   UNL A   1      35.722  23.319  26.122  1.00  0.00     0.261 C 
BRANCH  73  74
ATOM     74  O   UNL A   1      36.146  23.902  24.882  1.00  0.00    -0.463 OA
BRANCH  74  75
ATOM     75  C   UNL A   1      35.362  23.554  23.834  1.00  0.00     0.312 C 
ATOM     76  O   UNL A   1      35.787  23.057  22.798  1.00  0.00    -0.252 OA
BRANCH  75  77
ATOM     77  C   UNL A   1      33.885  23.714  24.113  1.00  0.00     0.143 C 
ATOM     78  C   UNL A   1      33.132  22.405  23.882  1.00  0.00     0.124 C 
ATOM     79  C   UNL A   1      33.203  24.670  23.130  1.00  0.00     0.133 C 
ATOM     80  C   UNL A   1      32.096  22.834  22.818  1.00  0.00     0.132 C 
ATOM     81  C   UNL A   1      31.813  25.048  23.640  1.00  0.00     0.036 C 
ATOM     82  O   UNL A   1      32.886  23.772  22.039  1.00  0.00    -0.373 OA
ATOM     83  C   UNL A   1      31.005  23.806  23.271  1.00  0.00     0.035 C 
BRANCH  78  84
ATOM     84  C   UNL A   1      32.492  21.851  25.155  1.00  0.00     0.231 C 
ATOM     85  O   UNL A   1      32.159  22.578  26.091  1.00  0.00    -0.274 OA
ATOM     86  N   UNL A   1      32.170  20.518  25.212  1.00  0.00    -0.326 N 
ATOM     87  H   UNL A   1      31.432  20.273  25.817  1.00  0.00     0.169 HD
BRANCH  86  88
ATOM     88  C   UNL A   1      32.768  19.466  24.509  1.00  0.00     0.044 A 
ATOM     89  C   UNL A   1      32.166  18.939  23.366  1.00  0.00     0.029 A 
ATOM     90  C   UNL A   1      33.994  18.967  24.933  1.00  0.00     0.068 A 
ATOM     91  C   UNL A   1      32.697  17.814  22.732  1.00  0.00     0.044 A 
ATOM     92  C   UNL A   1      34.522  17.844  24.298  1.00  0.00     0.160 A 
ATOM     93  C   UNL A   1      33.866  17.255  23.222  1.00  0.00     0.158 A 
ATOM     94  F   UNL A   1      35.665  17.317  24.758  1.00  0.00    -0.204 F 
ATOM     95  F   UNL A   1      34.364  16.151  22.649  1.00  0.00    -0.204 F 
ENDBRANCH  86  88
ENDBRANCH  78  84
ENDBRANCH  75  77
ENDBRANCH  74  75
ENDBRANCH  73  74
ENDBRANCH  72  73
ENDBRANCH  71  72
ENDBRANCH   1  71
TORSDOF 19
ENDMDL
MODEL 3
REMARK VINA RESULT:     -11.6      4.956      9.995
REMARK SMILES O=C(OCCOCCOC(=O)[C@@H]1[C@@H](C(=O)Nc2ccc(F)c(F)c2)[C@H]2CC[C@@H]1O2)c1ccc(-c2c3nc(c(-c4cccc(S(=O)(=O)[O-])c4F)c4ccc([nH]4)c(-c4cccc(S(=O)(=O)[O-])c4F)c4nc(c(-c5cccc(S(=O)(=O)[O-])c5F)c5ccc2[nH]5)C=C4)C=C3)cc1
REMARK SMILES IDX 5 1 4 2 3 3 2 4 1 5 30 6 31 7 92 8 32 9 91 10 33 11 34 12
REMARK SMILES IDX 35 13 85 14 36 15 90 16 84 17 86 18 37 19 89 20 83 21 82 22
REMARK SMILES IDX 38 24 70 25 50 26 69 27 51 28 54 29 68 30 87 31 52 32 53 33
REMARK SMILES IDX 67 35 88 36 55 37 39 38 40 39 48 40 41 41 43 42 49 43 42 44
REMARK SMILES IDX 44 45 45 46 46 47 47 48 71 49 72 50 80 51 73 52 75 53 81 54
REMARK SMILES IDX 74 55 76 56 77 57 78 58 79 59 56 60 57 61 65 62 58 63 60 64
REMARK SMILES IDX 66 65 59 66 61 67 62 68 63 69 64 70 6 71 7 72 8 73 9 74
REMARK SMILES IDX 10 75 11 76 12 77 13 78 28 79 25 80 27 81 29 82 26 83 14 84
REMARK SMILES IDX 15 85 16 86 17 88 18 89 24 90 19 91 22 92 20 93 23 94 21 95
REMARK H PARENT 86 23 54 34 16 87
REMARK Flexibility Score: inf
ROOT
ATOM      1  C   UNL A   1      31.790  30.355  25.855  1.00  0.00     0.202 C 
ENDROOT
BRANCH   1   2
ATOM      2  C   UNL A   1      31.585  31.383  26.972  1.00  0.00     0.261 C 
BRANCH   2   3
ATOM      3  O   UNL A   1      32.418  32.534  26.764  1.00  0.00    -0.460 OA
BRANCH   3   4
ATOM      4  C   UNL A   1      33.194  33.171  27.676  1.00  0.00     0.338 C 
ATOM      5  O   UNL A   1      32.833  34.275  28.078  1.00  0.00    -0.246 OA
BRANCH   4   6
ATOM      6  C   UNL A   1      34.456  32.591  28.229  1.00  0.00     0.060 A 
ATOM      7  C   UNL A   1      34.591  31.288  28.704  1.00  0.00     0.016 A 
ATOM      8  C   UNL A   1      35.606  33.400  28.202  1.00  0.00     0.016 A 
ATOM      9  C   UNL A   1      35.779  30.818  29.221  1.00  0.00     0.010 A 
ATOM     10  C   UNL A   1      36.831  32.918  28.674  1.00  0.00     0.010 A 
ATOM     11  C   UNL A   1      36.907  31.628  29.204  1.00  0.00    -0.014 A 
BRANCH  11  12
ATOM     12  C   UNL A   1      38.093  31.076  29.870  1.00  0.00     0.031 A 
ATOM     13  C   UNL A   1      38.335  31.446  31.297  1.00  0.00     0.074 A 
ATOM     14  C   UNL A   1      38.777  30.095  29.254  1.00  0.00     0.049 A 
ATOM     15  N   UNL A   1      39.261  31.021  32.109  1.00  0.00    -0.248 NA
ATOM     16  C   UNL A   1      37.389  32.400  31.904  1.00  0.00     0.031 C 
ATOM     17  C   UNL A   1      38.501  29.598  27.900  1.00  0.00     0.029 A 
ATOM     18  N   UNL A   1      39.807  29.312  29.691  1.00  0.00    -0.354 N 
ATOM     19  C   UNL A   1      39.037  31.682  33.308  1.00  0.00     0.074 A 
ATOM     20  C   UNL A   1      37.882  32.531  33.126  1.00  0.00     0.031 C 
ATOM     21  C   UNL A   1      39.338  28.587  27.624  1.00  0.00     0.029 A 
ATOM     22  C   UNL A   1      40.247  28.413  28.747  1.00  0.00     0.049 A 
ATOM     23  H   UNL A   1      40.196  29.383  30.592  1.00  0.00     0.167 HD
ATOM     24  C   UNL A   1      39.740  31.580  34.457  1.00  0.00     0.034 A 
ATOM     25  C   UNL A   1      41.301  27.578  28.785  1.00  0.00     0.034 A 
ATOM     26  C   UNL A   1      40.883  30.724  34.598  1.00  0.00     0.049 A 
ATOM     27  C   UNL A   1      42.113  27.546  30.049  1.00  0.00     0.074 A 
ATOM     28  C   UNL A   1      41.734  30.588  35.677  1.00  0.00     0.029 A 
ATOM     29  N   UNL A   1      41.337  29.858  33.612  1.00  0.00    -0.354 N 
ATOM     30  N   UNL A   1      41.907  28.189  31.176  1.00  0.00    -0.248 NA
ATOM     31  C   UNL A   1      43.288  26.669  30.061  1.00  0.00     0.031 C 
ATOM     32  C   UNL A   1      42.717  29.654  35.332  1.00  0.00     0.029 A 
ATOM     33  C   UNL A   1      42.457  29.182  34.053  1.00  0.00     0.049 A 
ATOM     34  H   UNL A   1      40.920  29.742  32.727  1.00  0.00     0.167 HD
ATOM     35  C   UNL A   1      42.916  27.782  32.037  1.00  0.00     0.074 A 
ATOM     36  C   UNL A   1      43.707  26.806  31.311  1.00  0.00     0.031 C 
ATOM     37  C   UNL A   1      43.185  28.188  33.303  1.00  0.00     0.034 A 
BRANCH  24  38
ATOM     38  C   UNL A   1      39.303  32.443  35.607  1.00  0.00     0.023 A 
ATOM     39  C   UNL A   1      38.341  31.969  36.522  1.00  0.00     0.012 A 
ATOM     40  C   UNL A   1      39.831  33.738  35.766  1.00  0.00     0.148 A 
ATOM     41  C   UNL A   1      37.886  32.784  37.559  1.00  0.00     0.002 A 
ATOM     42  C   UNL A   1      39.404  34.530  36.825  1.00  0.00     0.091 A 
ATOM     43  F   UNL A   1      40.720  34.179  34.866  1.00  0.00    -0.205 F 
ATOM     44  C   UNL A   1      38.423  34.061  37.714  1.00  0.00     0.022 A 
BRANCH  42  45
ATOM     45  S   UNL A   1      40.069  36.167  37.143  1.00  0.00     0.127 S 
ATOM     46  O   UNL A   1      41.474  35.868  37.416  1.00  0.00    -0.237 OA
ATOM     47  O   UNL A   1      39.825  36.845  35.869  1.00  0.00    -0.237 OA
ATOM     48  O   UNL A   1      39.318  36.696  38.272  1.00  0.00    -0.744 OA
ENDBRANCH  42  45
ENDBRANCH  24  38
BRANCH  25  49
ATOM     49  C   UNL A   1      41.665  26.760  27.592  1.00  0.00     0.023 A 
ATOM     50  C   UNL A   1      42.289  27.356  26.480  1.00  0.00     0.012 A 
ATOM     51  C   UNL A   1      41.385  25.377  27.555  1.00  0.00     0.148 A 
ATOM     52  C   UNL A   1      42.591  26.602  25.344  1.00  0.00     0.002 A 
ATOM     53  C   UNL A   1      41.744  24.620  26.448  1.00  0.00     0.091 A 
ATOM     54  F   UNL A   1      40.769  24.825  28.611  1.00  0.00    -0.205 F 
ATOM     55  C   UNL A   1      42.329  25.234  25.330  1.00  0.00     0.022 A 
BRANCH  53  56
ATOM     56  S   UNL A   1      41.555  22.834  26.410  1.00  0.00     0.127 S 
ATOM     57  O   UNL A   1      42.039  22.455  27.734  1.00  0.00    -0.237 OA
ATOM     58  O   UNL A   1      40.112  22.685  26.213  1.00  0.00    -0.237 OA
ATOM     59  O   UNL A   1      42.359  22.382  25.283  1.00  0.00    -0.744 OA
ENDBRANCH  53  56
ENDBRANCH  25  49
BRANCH  37  60
ATOM     60  C   UNL A   1      44.364  27.549  33.981  1.00  0.00     0.023 A 
ATOM     61  C   UNL A   1      45.647  28.111  33.835  1.00  0.00     0.012 A 
ATOM     62  C   UNL A   1      44.183  26.429  34.813  1.00  0.00     0.148 A 
ATOM     63  C   UNL A   1      46.743  27.539  34.477  1.00  0.00     0.002 A 
ATOM     64  C   UNL A   1      45.269  25.900  35.495  1.00  0.00     0.091 A 
ATOM     65  F   UNL A   1      42.955  25.900  34.917  1.00  0.00    -0.205 F 
ATOM     66  C   UNL A   1      46.552  26.443  35.317  1.00  0.00     0.022 A 
BRANCH  64  67
ATOM     67  S   UNL A   1      45.093  24.562  36.678  1.00  0.00     0.127 S 
ATOM     68  O   UNL A   1      46.297  24.723  37.490  1.00  0.00    -0.237 OA
ATOM     69  O   UNL A   1      43.845  24.912  37.357  1.00  0.00    -0.237 OA
ATOM     70  O   UNL A   1      45.026  23.338  35.890  1.00  0.00    -0.744 OA
ENDBRANCH  64  67
ENDBRANCH  37  60
ENDBRANCH  11  12
ENDBRANCH   4   6
ENDBRANCH   3   4
ENDBRANCH   2   3
ENDBRANCH   1   2
BRANCH   1  71
ATOM     71  O   UNL A   1      33.116  30.260  25.332  1.00  0.00    -0.374 OA
BRANCH  71  72
ATOM     72  C   UNL A   1      33.703  28.953  25.268  1.00  0.00     0.202 C 
BRANCH  72  73
ATOM     73  C   UNL A   1      33.741  28.317  26.661  1.00  0.00     0.261 C 
BRANCH  73  74
ATOM     74  O   UNL A   1      33.585  26.902  26.494  1.00  0.00    -0.463 OA
BRANCH  74  75
ATOM     75  C   UNL A   1      32.298  26.528  26.293  1.00  0.00     0.312 C 
ATOM     76  O   UNL A   1      31.370  26.853  27.023  1.00  0.00    -0.252 OA
BRANCH  75  77
ATOM     77  C   UNL A   1      32.090  25.775  24.998  1.00  0.00     0.143 C 
ATOM     78  C   UNL A   1      30.981  26.409  24.161  1.00  0.00     0.124 C 
ATOM     79  C   UNL A   1      31.569  24.354  25.224  1.00  0.00     0.133 C 
ATOM     80  C   UNL A   1      30.004  25.221  24.003  1.00  0.00     0.132 C 
ATOM     81  C   UNL A   1      31.684  23.539  23.936  1.00  0.00     0.036 C 
ATOM     82  O   UNL A   1      30.141  24.587  25.302  1.00  0.00    -0.373 OA
ATOM     83  C   UNL A   1      30.480  24.047  23.146  1.00  0.00     0.035 C 
BRANCH  78  84
ATOM     84  C   UNL A   1      31.479  26.959  22.825  1.00  0.00     0.231 C 
ATOM     85  O   UNL A   1      32.529  26.575  22.309  1.00  0.00    -0.274 OA
ATOM     86  N   UNL A   1      30.678  27.823  22.120  1.00  0.00    -0.326 N 
ATOM     87  H   UNL A   1      30.808  27.839  21.144  1.00  0.00     0.169 HD
BRANCH  86  88
ATOM     88  C   UNL A   1      29.697  28.681  22.628  1.00  0.00     0.044 A 
ATOM     89  C   UNL A   1      28.375  28.256  22.761  1.00  0.00     0.029 A 
ATOM     90  C   UNL A   1      30.052  29.961  23.039  1.00  0.00     0.068 A 
ATOM     91  C   UNL A   1      27.373  29.145  23.154  1.00  0.00     0.044 A 
ATOM     92  C   UNL A   1      29.050  30.847  23.430  1.00  0.00     0.160 A 
ATOM     93  C   UNL A   1      27.717  30.451  23.463  1.00  0.00     0.158 A 
ATOM     94  F   UNL A   1      29.385  32.105  23.751  1.00  0.00    -0.204 F 
ATOM     95  F   UNL A   1      26.760  31.326  23.801  1.00  0.00    -0.204 F 
ENDBRANCH  86  88
ENDBRANCH  78  84
ENDBRANCH  75  77
ENDBRANCH  74  75
ENDBRANCH  73  74
ENDBRANCH  72  73
ENDBRANCH  71  72
ENDBRANCH   1  71
TORSDOF 19
ENDMDL
