MODEL 1
REMARK VINA RESULT:     -11.2      0.000      0.000
REMARK SMILES Cn1nc(N2CCC(CC(=O)OCCOCCOC(=O)c3ccc(-c4c5nc(c(-c6cccc(S(=O)(=O)[O-])c6F)c6ccc([nH]6)c(-c6cccc(S(=O)(=O)[O-])c6F)c6nc(c(-c7cccc(S(=O)(=O)[O-])c7F)c7ccc4[nH]7)C=C6)C=C5)cc3)CC2)c(=O)n(C)c1=O
REMARK SMILES IDX 16 1 15 2 14 3 13 4 12 5 10 6 11 7 9 8 8 9 5 10 6 11 85 12
REMARK SMILES IDX 7 13 84 14 4 15 1 16 2 17 3 18 90 19 88 20 91 21 86 22 89 23
REMARK SMILES IDX 87 24 17 25 18 26 19 27 20 28 21 29 22 30 83 31 23 32 82 33
REMARK SMILES IDX 24 34 25 35 26 36 76 37 27 38 81 39 75 40 77 41 28 42 80 43
REMARK SMILES IDX 74 44 73 45 29 47 61 48 41 49 60 50 42 51 45 52 59 53 78 54
REMARK SMILES IDX 43 55 44 56 58 58 79 59 46 60 30 61 31 62 39 63 32 64 34 65
REMARK SMILES IDX 40 66 33 67 35 68 36 69 37 70 38 71 62 72 63 73 71 74 64 75
REMARK SMILES IDX 66 76 72 77 65 78 67 79 68 80 69 81 70 82 47 83 48 84 56 85
REMARK SMILES IDX 49 86 51 87 57 88 50 89 52 90 53 91 54 92 55 93
REMARK H PARENT 77 46 45 57
REMARK Flexibility Score: inf
ROOT
ATOM      1  C   UNL A   1      37.535  20.702  24.776  1.00  0.00     0.202 C 
ENDROOT
BRANCH   1   2
ATOM      2  O   UNL A   1      36.192  20.520  25.217  1.00  0.00    -0.374 OA
BRANCH   2   3
ATOM      3  C   UNL A   1      35.555  21.637  25.837  1.00  0.00     0.202 C 
BRANCH   3   4
ATOM      4  C   UNL A   1      34.335  21.323  26.707  1.00  0.00     0.261 C 
BRANCH   4   5
ATOM      5  O   UNL A   1      33.776  22.524  27.273  1.00  0.00    -0.463 OA
BRANCH   5   6
ATOM      6  C   UNL A   1      32.513  22.843  26.905  1.00  0.00     0.306 C 
ATOM      7  O   UNL A   1      31.747  23.540  27.560  1.00  0.00    -0.252 OA
BRANCH   6   8
ATOM      8  C   UNL A   1      32.109  22.212  25.589  1.00  0.00     0.126 C 
BRANCH   8   9
ATOM      9  C   UNL A   1      32.001  23.114  24.341  1.00  0.00     0.003 C 
ATOM     10  N   UNL A   1      31.821  25.816  23.308  1.00  0.00    -0.351 N 
ATOM     11  C   UNL A   1      30.663  24.942  23.182  1.00  0.00     0.118 C 
ATOM     12  C   UNL A   1      33.108  25.143  23.219  1.00  0.00     0.118 C 
ATOM     13  C   UNL A   1      30.671  23.893  24.289  1.00  0.00     0.026 C 
ATOM     14  C   UNL A   1      33.198  24.094  24.331  1.00  0.00     0.026 C 
BRANCH  10  15
ATOM     15  C   UNL A   1      31.697  27.087  23.862  1.00  0.00     0.215 A 
ATOM     16  C   UNL A   1      32.893  28.900  26.727  1.00  0.00     0.180 C 
ATOM     17  N   UNL A   1      32.153  28.641  25.502  1.00  0.00    -0.216 N 
ATOM     18  N   UNL A   1      32.293  27.386  24.980  1.00  0.00    -0.145 NA
ATOM     19  C   UNL A   1      31.317  29.630  24.996  1.00  0.00     0.346 A 
ATOM     20  N   UNL A   1      30.624  29.311  23.844  1.00  0.00    -0.259 N 
ATOM     21  O   UNL A   1      31.212  30.737  25.530  1.00  0.00    -0.246 OA
ATOM     22  C   UNL A   1      30.814  28.130  23.160  1.00  0.00     0.299 A 
ATOM     23  C   UNL A   1      29.684  30.259  23.288  1.00  0.00     0.159 C 
ATOM     24  O   UNL A   1      30.314  27.871  22.069  1.00  0.00    -0.265 OA
ENDBRANCH  10  15
ENDBRANCH   8   9
ENDBRANCH   6   8
ENDBRANCH   5   6
ENDBRANCH   4   5
ENDBRANCH   3   4
ENDBRANCH   2   3
ENDBRANCH   1   2
BRANCH   1  25
ATOM     25  C   UNL A   1      38.617  19.915  25.529  1.00  0.00     0.261 C 
BRANCH  25  26
ATOM     26  O   UNL A   1      39.861  20.633  25.606  1.00  0.00    -0.460 OA
BRANCH  26  27
ATOM     27  C   UNL A   1      40.452  20.605  26.825  1.00  0.00     0.338 C 
ATOM     28  O   UNL A   1      40.867  19.616  27.420  1.00  0.00    -0.246 OA
BRANCH  27  29
ATOM     29  C   UNL A   1      40.719  21.975  27.298  1.00  0.00     0.060 A 
ATOM     30  C   UNL A   1      40.214  23.030  26.527  1.00  0.00     0.016 A 
ATOM     31  C   UNL A   1      41.507  22.231  28.422  1.00  0.00     0.016 A 
ATOM     32  C   UNL A   1      40.540  24.346  26.845  1.00  0.00     0.010 A 
ATOM     33  C   UNL A   1      41.840  23.554  28.735  1.00  0.00     0.010 A 
ATOM     34  C   UNL A   1      41.392  24.614  27.925  1.00  0.00    -0.014 A 
BRANCH  34  35
ATOM     35  C   UNL A   1      41.927  25.987  28.101  1.00  0.00     0.031 A 
ATOM     36  C   UNL A   1      41.057  27.031  28.747  1.00  0.00     0.074 A 
ATOM     37  C   UNL A   1      43.185  26.290  27.734  1.00  0.00     0.049 A 
ATOM     38  N   UNL A   1      41.326  28.283  29.011  1.00  0.00    -0.248 NA
ATOM     39  C   UNL A   1      39.707  26.608  29.158  1.00  0.00     0.031 C 
ATOM     40  C   UNL A   1      44.133  25.358  27.124  1.00  0.00     0.029 A 
ATOM     41  N   UNL A   1      43.880  27.472  27.814  1.00  0.00    -0.354 N 
ATOM     42  C   UNL A   1      40.180  28.801  29.604  1.00  0.00     0.074 A 
ATOM     43  C   UNL A   1      39.203  27.735  29.642  1.00  0.00     0.031 C 
ATOM     44  C   UNL A   1      45.284  26.008  26.876  1.00  0.00     0.029 A 
ATOM     45  C   UNL A   1      45.146  27.406  27.284  1.00  0.00     0.049 A 
ATOM     46  H   UNL A   1      43.505  28.290  28.214  1.00  0.00     0.167 HD
ATOM     47  C   UNL A   1      39.968  30.044  30.096  1.00  0.00     0.034 A 
ATOM     48  C   UNL A   1      46.084  28.365  27.136  1.00  0.00     0.034 A 
ATOM     49  C   UNL A   1      40.947  31.097  30.078  1.00  0.00     0.049 A 
ATOM     50  C   UNL A   1      45.800  29.757  27.643  1.00  0.00     0.074 A 
ATOM     51  C   UNL A   1      40.831  32.383  30.574  1.00  0.00     0.029 A 
ATOM     52  N   UNL A   1      42.218  30.991  29.535  1.00  0.00    -0.354 N 
ATOM     53  N   UNL A   1      44.749  30.203  28.287  1.00  0.00    -0.248 NA
ATOM     54  C   UNL A   1      46.844  30.772  27.428  1.00  0.00     0.031 C 
ATOM     55  C   UNL A   1      42.022  33.063  30.308  1.00  0.00     0.029 A 
ATOM     56  C   UNL A   1      42.891  32.192  29.673  1.00  0.00     0.049 A 
ATOM     57  H   UNL A   1      42.586  30.181  29.114  1.00  0.00     0.167 HD
ATOM     58  C   UNL A   1      45.016  31.536  28.582  1.00  0.00     0.074 A 
ATOM     59  C   UNL A   1      46.339  31.819  28.066  1.00  0.00     0.031 C 
ATOM     60  C   UNL A   1      44.230  32.449  29.206  1.00  0.00     0.034 A 
BRANCH  47  61
ATOM     61  C   UNL A   1      38.640  30.332  30.743  1.00  0.00     0.023 A 
ATOM     62  C   UNL A   1      38.412  29.912  32.070  1.00  0.00     0.012 A 
ATOM     63  C   UNL A   1      37.663  31.103  30.084  1.00  0.00     0.148 A 
ATOM     64  C   UNL A   1      37.226  30.239  32.724  1.00  0.00     0.002 A 
ATOM     65  C   UNL A   1      36.502  31.464  30.758  1.00  0.00     0.091 A 
ATOM     66  F   UNL A   1      37.892  31.476  28.816  1.00  0.00    -0.205 F 
ATOM     67  C   UNL A   1      36.278  31.026  32.073  1.00  0.00     0.022 A 
BRANCH  65  68
ATOM     68  S   UNL A   1      35.256  32.542  30.042  1.00  0.00     0.127 S 
ATOM     69  O   UNL A   1      36.047  33.728  29.714  1.00  0.00    -0.237 OA
ATOM     70  O   UNL A   1      34.811  31.767  28.883  1.00  0.00    -0.237 OA
ATOM     71  O   UNL A   1      34.246  32.735  31.073  1.00  0.00    -0.744 OA
ENDBRANCH  65  68
ENDBRANCH  47  61
BRANCH  48  72
ATOM     72  C   UNL A   1      47.401  28.031  26.522  1.00  0.00     0.023 A 
ATOM     73  C   UNL A   1      48.509  27.775  27.354  1.00  0.00     0.012 A 
ATOM     74  C   UNL A   1      47.559  27.937  25.124  1.00  0.00     0.148 A 
ATOM     75  C   UNL A   1      49.752  27.459  26.807  1.00  0.00     0.002 A 
ATOM     76  C   UNL A   1      48.786  27.563  24.589  1.00  0.00     0.091 A 
ATOM     77  F   UNL A   1      46.500  28.204  24.347  1.00  0.00    -0.205 F 
ATOM     78  C   UNL A   1      49.888  27.341  25.426  1.00  0.00     0.022 A 
BRANCH  76  79
ATOM     79  S   UNL A   1      49.016  27.251  22.835  1.00  0.00     0.127 S 
ATOM     80  O   UNL A   1      50.470  27.147  22.736  1.00  0.00    -0.237 OA
ATOM     81  O   UNL A   1      48.293  25.991  22.657  1.00  0.00    -0.237 OA
ATOM     82  O   UNL A   1      48.415  28.387  22.149  1.00  0.00    -0.744 OA
ENDBRANCH  76  79
ENDBRANCH  48  72
BRANCH  60  83
ATOM     83  C   UNL A   1      44.768  33.844  29.394  1.00  0.00     0.023 A 
ATOM     84  C   UNL A   1      45.515  34.152  30.548  1.00  0.00     0.012 A 
ATOM     85  C   UNL A   1      44.639  34.812  28.376  1.00  0.00     0.148 A 
ATOM     86  C   UNL A   1      46.107  35.406  30.697  1.00  0.00     0.002 A 
ATOM     87  C   UNL A   1      45.276  36.041  28.507  1.00  0.00     0.091 A 
ATOM     88  F   UNL A   1      43.914  34.505  27.290  1.00  0.00    -0.205 F 
ATOM     89  C   UNL A   1      46.000  36.344  29.672  1.00  0.00     0.022 A 
BRANCH  87  90
ATOM     90  S   UNL A   1      45.286  37.272  27.198  1.00  0.00     0.127 S 
ATOM     91  O   UNL A   1      46.032  38.363  27.821  1.00  0.00    -0.237 OA
ATOM     92  O   UNL A   1      46.001  36.578  26.126  1.00  0.00    -0.237 OA
ATOM     93  O   UNL A   1      43.889  37.562  26.906  1.00  0.00    -0.744 OA
ENDBRANCH  87  90
ENDBRANCH  60  83
ENDBRANCH  34  35
ENDBRANCH  27  29
ENDBRANCH  26  27
ENDBRANCH  25  26
ENDBRANCH   1  25
TORSDOF 19
ENDMDL
MODEL 2
REMARK VINA RESULT:     -11.2      5.000      8.463
REMARK SMILES Cn1nc(N2CCC(CC(=O)OCCOCCOC(=O)c3ccc(-c4c5nc(c(-c6cccc(S(=O)(=O)[O-])c6F)c6ccc([nH]6)c(-c6cccc(S(=O)(=O)[O-])c6F)c6nc(c(-c7cccc(S(=O)(=O)[O-])c7F)c7ccc4[nH]7)C=C6)C=C5)cc3)CC2)c(=O)n(C)c1=O
REMARK SMILES IDX 16 1 15 2 14 3 13 4 12 5 10 6 11 7 9 8 8 9 5 10 6 11 85 12
REMARK SMILES IDX 7 13 84 14 4 15 1 16 2 17 3 18 90 19 88 20 91 21 86 22 89 23
REMARK SMILES IDX 87 24 17 25 18 26 19 27 20 28 21 29 22 30 83 31 23 32 82 33
REMARK SMILES IDX 24 34 25 35 26 36 76 37 27 38 81 39 75 40 77 41 28 42 80 43
REMARK SMILES IDX 74 44 73 45 29 47 61 48 41 49 60 50 42 51 45 52 59 53 78 54
REMARK SMILES IDX 43 55 44 56 58 58 79 59 46 60 30 61 31 62 39 63 32 64 34 65
REMARK SMILES IDX 40 66 33 67 35 68 36 69 37 70 38 71 62 72 63 73 71 74 64 75
REMARK SMILES IDX 66 76 72 77 65 78 67 79 68 80 69 81 70 82 47 83 48 84 56 85
REMARK SMILES IDX 49 86 51 87 57 88 50 89 52 90 53 91 54 92 55 93
REMARK H PARENT 77 46 45 57
REMARK Flexibility Score: inf
ROOT
ATOM      1  C   UNL A   1      31.190  30.070  25.029  1.00  0.00     0.202 C 
ENDROOT
BRANCH   1   2
ATOM      2  O   UNL A   1      30.120  30.389  24.143  1.00  0.00    -0.374 OA
BRANCH   2   3
ATOM      3  C   UNL A   1      29.793  29.421  23.145  1.00  0.00     0.202 C 
BRANCH   3   4
ATOM      4  C   UNL A   1      30.447  28.045  23.297  1.00  0.00     0.261 C 
BRANCH   4   5
ATOM      5  O   UNL A   1      31.678  27.970  22.552  1.00  0.00    -0.463 OA
BRANCH   5   6
ATOM      6  C   UNL A   1      32.546  26.992  22.901  1.00  0.00     0.306 C 
ATOM      7  O   UNL A   1      32.704  25.942  22.289  1.00  0.00    -0.252 OA
BRANCH   6   8
ATOM      8  C   UNL A   1      33.301  27.307  24.176  1.00  0.00     0.126 C 
BRANCH   8   9
ATOM      9  C   UNL A   1      33.374  26.226  25.276  1.00  0.00     0.003 C 
ATOM     10  N   UNL A   1      33.287  23.401  25.911  1.00  0.00    -0.351 N 
ATOM     11  C   UNL A   1      32.191  24.249  26.357  1.00  0.00     0.118 C 
ATOM     12  C   UNL A   1      34.590  24.046  25.883  1.00  0.00     0.118 C 
ATOM     13  C   UNL A   1      32.048  25.454  25.433  1.00  0.00     0.026 C 
ATOM     14  C   UNL A   1      34.527  25.251  24.940  1.00  0.00     0.026 C 
BRANCH  10  15
ATOM     15  C   UNL A   1      33.036  22.229  25.203  1.00  0.00     0.215 A 
ATOM     16  C   UNL A   1      31.976  21.251  21.909  1.00  0.00     0.180 C 
ATOM     17  N   UNL A   1      32.386  21.106  23.298  1.00  0.00    -0.216 N 
ATOM     18  N   UNL A   1      32.625  22.273  23.968  1.00  0.00    -0.145 NA
ATOM     19  C   UNL A   1      32.432  19.835  23.859  1.00  0.00     0.346 A 
ATOM     20  N   UNL A   1      32.804  19.770  25.188  1.00  0.00    -0.259 N 
ATOM     21  O   UNL A   1      32.176  18.820  23.207  1.00  0.00    -0.246 OA
ATOM     22  C   UNL A   1      33.212  20.873  25.906  1.00  0.00     0.299 A 
ATOM     23  C   UNL A   1      32.815  18.492  25.867  1.00  0.00     0.159 C 
ATOM     24  O   UNL A   1      33.670  20.831  27.044  1.00  0.00    -0.265 OA
ENDBRANCH  10  15
ENDBRANCH   8   9
ENDBRANCH   6   8
ENDBRANCH   5   6
ENDBRANCH   4   5
ENDBRANCH   3   4
ENDBRANCH   2   3
ENDBRANCH   1   2
BRANCH   1  25
ATOM     25  C   UNL A   1      31.469  31.073  26.157  1.00  0.00     0.261 C 
BRANCH  25  26
ATOM     26  O   UNL A   1      32.684  30.772  26.867  1.00  0.00    -0.460 OA
BRANCH  26  27
ATOM     27  C   UNL A   1      33.361  31.858  27.310  1.00  0.00     0.338 C 
ATOM     28  O   UNL A   1      32.907  32.981  27.504  1.00  0.00    -0.246 OA
BRANCH  27  29
ATOM     29  C   UNL A   1      34.723  31.481  27.727  1.00  0.00     0.060 A 
ATOM     30  C   UNL A   1      35.032  30.114  27.746  1.00  0.00     0.016 A 
ATOM     31  C   UNL A   1      35.654  32.425  28.164  1.00  0.00     0.016 A 
ATOM     32  C   UNL A   1      36.255  29.682  28.252  1.00  0.00     0.010 A 
ATOM     33  C   UNL A   1      36.878  31.987  28.681  1.00  0.00     0.010 A 
ATOM     34  C   UNL A   1      37.169  30.613  28.765  1.00  0.00    -0.014 A 
BRANCH  34  35
ATOM     35  C   UNL A   1      38.349  30.127  29.522  1.00  0.00     0.031 A 
ATOM     36  C   UNL A   1      38.568  30.622  30.926  1.00  0.00     0.074 A 
ATOM     37  C   UNL A   1      39.188  29.223  28.986  1.00  0.00     0.049 A 
ATOM     38  N   UNL A   1      39.520  30.320  31.770  1.00  0.00    -0.248 NA
ATOM     39  C   UNL A   1      37.581  31.580  31.454  1.00  0.00     0.031 C 
ATOM     40  C   UNL A   1      39.065  28.648  27.648  1.00  0.00     0.029 A 
ATOM     41  N   UNL A   1      40.316  28.635  29.502  1.00  0.00    -0.354 N 
ATOM     42  C   UNL A   1      39.258  31.056  32.919  1.00  0.00     0.074 A 
ATOM     43  C   UNL A   1      38.069  31.838  32.659  1.00  0.00     0.031 C 
ATOM     44  C   UNL A   1      40.086  27.796  27.444  1.00  0.00     0.029 A 
ATOM     45  C   UNL A   1      40.947  27.785  28.626  1.00  0.00     0.049 A 
ATOM     46  H   UNL A   1      40.643  28.806  30.415  1.00  0.00     0.167 HD
ATOM     47  C   UNL A   1      39.929  31.061  34.094  1.00  0.00     0.034 A 
ATOM     48  C   UNL A   1      42.094  27.085  28.757  1.00  0.00     0.034 A 
ATOM     49  C   UNL A   1      41.097  30.268  34.360  1.00  0.00     0.049 A 
ATOM     50  C   UNL A   1      42.853  27.154  30.059  1.00  0.00     0.074 A 
ATOM     51  C   UNL A   1      41.833  30.190  35.529  1.00  0.00     0.029 A 
ATOM     52  N   UNL A   1      41.704  29.418  33.448  1.00  0.00    -0.354 N 
ATOM     53  N   UNL A   1      42.537  27.779  31.167  1.00  0.00    -0.248 NA
ATOM     54  C   UNL A   1      44.113  26.397  30.137  1.00  0.00     0.031 C 
ATOM     55  C   UNL A   1      42.900  29.313  35.317  1.00  0.00     0.029 A 
ATOM     56  C   UNL A   1      42.812  28.821  34.025  1.00  0.00     0.049 A 
ATOM     57  H   UNL A   1      41.393  29.262  32.527  1.00  0.00     0.167 HD
ATOM     58  C   UNL A   1      43.538  27.467  32.082  1.00  0.00     0.074 A 
ATOM     59  C   UNL A   1      44.459  26.577  31.405  1.00  0.00     0.031 C 
ATOM     60  C   UNL A   1      43.692  27.893  33.361  1.00  0.00     0.034 A 
BRANCH  47  61
ATOM     61  C   UNL A   1      39.396  31.920  35.211  1.00  0.00     0.023 A 
ATOM     62  C   UNL A   1      38.471  31.370  36.123  1.00  0.00     0.012 A 
ATOM     63  C   UNL A   1      39.883  33.224  35.419  1.00  0.00     0.148 A 
ATOM     64  C   UNL A   1      38.026  32.112  37.215  1.00  0.00     0.002 A 
ATOM     65  C   UNL A   1      39.468  33.942  36.536  1.00  0.00     0.091 A 
ATOM     66  F   UNL A   1      40.746  33.734  34.530  1.00  0.00    -0.205 F 
ATOM     67  C   UNL A   1      38.535  33.391  37.429  1.00  0.00     0.022 A 
BRANCH  65  68
ATOM     68  S   UNL A   1      40.124  35.563  36.949  1.00  0.00     0.127 S 
ATOM     69  O   UNL A   1      39.611  36.377  35.847  1.00  0.00    -0.237 OA
ATOM     70  O   UNL A   1      39.496  35.825  38.244  1.00  0.00    -0.237 OA
ATOM     71  O   UNL A   1      41.572  35.415  36.990  1.00  0.00    -0.744 OA
ENDBRANCH  65  68
ENDBRANCH  47  61
BRANCH  48  72
ATOM     72  C   UNL A   1      42.570  26.219  27.641  1.00  0.00     0.023 A 
ATOM     73  C   UNL A   1      43.499  26.730  26.715  1.00  0.00     0.012 A 
ATOM     74  C   UNL A   1      42.131  24.885  27.505  1.00  0.00     0.148 A 
ATOM     75  C   UNL A   1      43.963  25.942  25.661  1.00  0.00     0.002 A 
ATOM     76  C   UNL A   1      42.643  24.087  26.489  1.00  0.00     0.091 A 
ATOM     77  F   UNL A   1      41.231  24.421  28.383  1.00  0.00    -0.205 F 
ATOM     78  C   UNL A   1      43.545  24.618  25.556  1.00  0.00     0.022 A 
BRANCH  76  79
ATOM     79  S   UNL A   1      42.269  22.335  26.359  1.00  0.00     0.127 S 
ATOM     80  O   UNL A   1      43.090  21.936  25.219  1.00  0.00    -0.237 OA
ATOM     81  O   UNL A   1      42.727  21.834  27.656  1.00  0.00    -0.237 OA
ATOM     82  O   UNL A   1      40.829  22.252  26.161  1.00  0.00    -0.744 OA
ENDBRANCH  76  79
ENDBRANCH  48  72
BRANCH  60  83
ATOM     83  C   UNL A   1      44.885  27.400  34.139  1.00  0.00     0.023 A 
ATOM     84  C   UNL A   1      46.096  28.119  34.087  1.00  0.00     0.012 A 
ATOM     85  C   UNL A   1      44.773  26.300  35.015  1.00  0.00     0.148 A 
ATOM     86  C   UNL A   1      47.181  27.739  34.875  1.00  0.00     0.002 A 
ATOM     87  C   UNL A   1      45.842  25.959  35.836  1.00  0.00     0.091 A 
ATOM     88  F   UNL A   1      43.617  25.620  35.042  1.00  0.00    -0.205 F 
ATOM     89  C   UNL A   1      47.050  26.671  35.759  1.00  0.00     0.022 A 
BRANCH  87  90
ATOM     90  S   UNL A   1      45.733  24.668  37.082  1.00  0.00     0.127 S 
ATOM     91  O   UNL A   1      46.988  24.851  37.809  1.00  0.00    -0.237 OA
ATOM     92  O   UNL A   1      44.535  25.057  37.826  1.00  0.00    -0.237 OA
ATOM     93  O   UNL A   1      45.614  23.414  36.352  1.00  0.00    -0.744 OA
ENDBRANCH  87  90
ENDBRANCH  60  83
ENDBRANCH  34  35
ENDBRANCH  27  29
ENDBRANCH  26  27
ENDBRANCH  25  26
ENDBRANCH   1  25
TORSDOF 19
ENDMDL
MODEL 3
REMARK VINA RESULT:     -11.2      5.361      8.951
REMARK SMILES Cn1nc(N2CCC(CC(=O)OCCOCCOC(=O)c3ccc(-c4c5nc(c(-c6cccc(S(=O)(=O)[O-])c6F)c6ccc([nH]6)c(-c6cccc(S(=O)(=O)[O-])c6F)c6nc(c(-c7cccc(S(=O)(=O)[O-])c7F)c7ccc4[nH]7)C=C6)C=C5)cc3)CC2)c(=O)n(C)c1=O
REMARK SMILES IDX 16 1 15 2 14 3 13 4 12 5 10 6 11 7 9 8 8 9 5 10 6 11 85 12
REMARK SMILES IDX 7 13 84 14 4 15 1 16 2 17 3 18 90 19 88 20 91 21 86 22 89 23
REMARK SMILES IDX 87 24 17 25 18 26 19 27 20 28 21 29 22 30 83 31 23 32 82 33
REMARK SMILES IDX 24 34 25 35 26 36 76 37 27 38 81 39 75 40 77 41 28 42 80 43
REMARK SMILES IDX 74 44 73 45 29 47 61 48 41 49 60 50 42 51 45 52 59 53 78 54
REMARK SMILES IDX 43 55 44 56 58 58 79 59 46 60 30 61 31 62 39 63 32 64 34 65
REMARK SMILES IDX 40 66 33 67 35 68 36 69 37 70 38 71 62 72 63 73 71 74 64 75
REMARK SMILES IDX 66 76 72 77 65 78 67 79 68 80 69 81 70 82 47 83 48 84 56 85
REMARK SMILES IDX 49 86 51 87 57 88 50 89 52 90 53 91 54 92 55 93
REMARK H PARENT 77 46 45 57
REMARK Flexibility Score: inf
ROOT
ATOM      1  C   UNL A   1      31.576  31.920  26.642  1.00  0.00     0.202 C 
ENDROOT
BRANCH   1   2
ATOM      2  O   UNL A   1      31.784  30.568  26.241  1.00  0.00    -0.374 OA
BRANCH   2   3
ATOM      3  C   UNL A   1      32.238  29.657  27.242  1.00  0.00     0.202 C 
BRANCH   3   4
ATOM      4  C   UNL A   1      31.960  28.174  26.983  1.00  0.00     0.261 C 
BRANCH   4   5
ATOM      5  O   UNL A   1      32.791  27.668  25.920  1.00  0.00    -0.463 OA
BRANCH   5   6
ATOM      6  C   UNL A   1      32.187  27.427  24.733  1.00  0.00     0.306 C 
ATOM      7  O   UNL A   1      32.707  27.588  23.635  1.00  0.00    -0.252 OA
BRANCH   6   8
ATOM      8  C   UNL A   1      30.754  26.961  24.889  1.00  0.00     0.126 C 
BRANCH   8   9
ATOM      9  C   UNL A   1      30.453  25.450  24.776  1.00  0.00     0.003 C 
ATOM     10  N   UNL A   1      31.514  22.754  24.840  1.00  0.00    -0.351 N 
ATOM     11  C   UNL A   1      31.024  23.281  23.574  1.00  0.00     0.118 C 
ATOM     12  C   UNL A   1      30.802  23.228  26.017  1.00  0.00     0.118 C 
ATOM     13  C   UNL A   1      31.139  24.802  23.556  1.00  0.00     0.026 C 
ATOM     14  C   UNL A   1      30.908  24.754  26.081  1.00  0.00     0.026 C 
BRANCH  10  15
ATOM     15  C   UNL A   1      32.781  22.185  24.931  1.00  0.00     0.215 A 
ATOM     16  C   UNL A   1      36.194  23.261  25.272  1.00  0.00     0.180 C 
ATOM     17  N   UNL A   1      35.072  22.348  25.117  1.00  0.00    -0.216 N 
ATOM     18  N   UNL A   1      33.841  22.934  25.030  1.00  0.00    -0.145 NA
ATOM     19  C   UNL A   1      35.322  20.986  24.994  1.00  0.00     0.346 A 
ATOM     20  N   UNL A   1      34.215  20.177  24.824  1.00  0.00    -0.259 N 
ATOM     21  O   UNL A   1      36.462  20.520  25.052  1.00  0.00    -0.246 OA
ATOM     22  C   UNL A   1      32.924  20.656  24.876  1.00  0.00     0.299 A 
ATOM     23  C   UNL A   1      34.390  18.755  24.622  1.00  0.00     0.159 C 
ATOM     24  O   UNL A   1      31.919  19.950  24.858  1.00  0.00    -0.265 OA
ENDBRANCH  10  15
ENDBRANCH   8   9
ENDBRANCH   6   8
ENDBRANCH   5   6
ENDBRANCH   4   5
ENDBRANCH   3   4
ENDBRANCH   2   3
ENDBRANCH   1   2
BRANCH   1  25
ATOM     25  C   UNL A   1      32.730  32.598  27.393  1.00  0.00     0.261 C 
BRANCH  25  26
ATOM     26  O   UNL A   1      32.474  33.993  27.643  1.00  0.00    -0.460 OA
BRANCH  26  27
ATOM     27  C   UNL A   1      33.262  34.546  28.596  1.00  0.00     0.338 C 
ATOM     28  O   UNL A   1      33.010  35.533  29.279  1.00  0.00    -0.246 OA
BRANCH  27  29
ATOM     29  C   UNL A   1      34.429  33.686  28.861  1.00  0.00     0.060 A 
ATOM     30  C   UNL A   1      34.228  32.566  29.678  1.00  0.00     0.016 A 
ATOM     31  C   UNL A   1      35.705  34.002  28.392  1.00  0.00     0.016 A 
ATOM     32  C   UNL A   1      35.311  31.787  30.074  1.00  0.00     0.010 A 
ATOM     33  C   UNL A   1      36.794  33.222  28.799  1.00  0.00     0.010 A 
ATOM     34  C   UNL A   1      36.608  32.136  29.673  1.00  0.00    -0.014 A 
BRANCH  34  35
ATOM     35  C   UNL A   1      37.767  31.452  30.298  1.00  0.00     0.031 A 
ATOM     36  C   UNL A   1      38.134  31.790  31.718  1.00  0.00     0.074 A 
ATOM     37  C   UNL A   1      38.456  30.509  29.630  1.00  0.00     0.049 A 
ATOM     38  N   UNL A   1      39.094  31.307  32.462  1.00  0.00    -0.248 NA
ATOM     39  C   UNL A   1      37.305  32.803  32.394  1.00  0.00     0.031 C 
ATOM     40  C   UNL A   1      38.178  30.075  28.262  1.00  0.00     0.029 A 
ATOM     41  N   UNL A   1      39.535  29.752  30.011  1.00  0.00    -0.354 N 
ATOM     42  C   UNL A   1      38.997  31.961  33.683  1.00  0.00     0.074 A 
ATOM     43  C   UNL A   1      37.897  32.895  33.577  1.00  0.00     0.031 C 
ATOM     44  C   UNL A   1      39.074  29.133  27.914  1.00  0.00     0.029 A 
ATOM     45  C   UNL A   1      40.002  28.917  29.024  1.00  0.00     0.049 A 
ATOM     46  H   UNL A   1      39.938  29.802  30.908  1.00  0.00     0.167 HD
ATOM     47  C   UNL A   1      39.738  31.784  34.802  1.00  0.00     0.034 A 
ATOM     48  C   UNL A   1      41.062  28.082  29.012  1.00  0.00     0.034 A 
ATOM     49  C   UNL A   1      40.817  30.842  34.914  1.00  0.00     0.049 A 
ATOM     50  C   UNL A   1      41.906  27.947  30.255  1.00  0.00     0.074 A 
ATOM     51  C   UNL A   1      41.611  30.576  36.015  1.00  0.00     0.029 A 
ATOM     52  N   UNL A   1      41.258  30.013  33.894  1.00  0.00    -0.354 N 
ATOM     53  N   UNL A   1      41.739  28.501  31.431  1.00  0.00    -0.248 NA
ATOM     54  C   UNL A   1      43.068  27.047  30.178  1.00  0.00     0.031 C 
ATOM     55  C   UNL A   1      42.549  29.605  35.654  1.00  0.00     0.029 A 
ATOM     56  C   UNL A   1      42.320  29.245  34.336  1.00  0.00     0.049 A 
ATOM     57  H   UNL A   1      40.872  29.978  32.989  1.00  0.00     0.167 HD
ATOM     58  C   UNL A   1      42.752  27.996  32.241  1.00  0.00     0.074 A 
ATOM     59  C   UNL A   1      43.513  27.071  31.427  1.00  0.00     0.031 C 
ATOM     60  C   UNL A   1      43.037  28.285  33.535  1.00  0.00     0.034 A 
BRANCH  47  61
ATOM     61  C   UNL A   1      39.384  32.594  36.021  1.00  0.00     0.023 A 
ATOM     62  C   UNL A   1      39.856  33.919  36.130  1.00  0.00     0.012 A 
ATOM     63  C   UNL A   1      38.508  32.089  37.000  1.00  0.00     0.148 A 
ATOM     64  C   UNL A   1      39.475  34.721  37.204  1.00  0.00     0.002 A 
ATOM     65  C   UNL A   1      38.096  32.909  38.044  1.00  0.00     0.091 A 
ATOM     66  F   UNL A   1      38.087  30.821  36.887  1.00  0.00    -0.205 F 
ATOM     67  C   UNL A   1      38.585  34.221  38.152  1.00  0.00     0.022 A 
BRANCH  65  68
ATOM     68  S   UNL A   1      36.890  32.392  39.271  1.00  0.00     0.127 S 
ATOM     69  O   UNL A   1      37.181  30.962  39.385  1.00  0.00    -0.237 OA
ATOM     70  O   UNL A   1      37.279  33.187  40.436  1.00  0.00    -0.237 OA
ATOM     71  O   UNL A   1      35.584  32.717  38.717  1.00  0.00    -0.744 OA
ENDBRANCH  65  68
ENDBRANCH  47  61
BRANCH  48  72
ATOM     72  C   UNL A   1      41.358  27.271  27.797  1.00  0.00     0.023 A 
ATOM     73  C   UNL A   1      41.917  27.896  26.665  1.00  0.00     0.012 A 
ATOM     74  C   UNL A   1      41.116  25.882  27.762  1.00  0.00     0.148 A 
ATOM     75  C   UNL A   1      42.205  27.162  25.515  1.00  0.00     0.002 A 
ATOM     76  C   UNL A   1      41.461  25.146  26.634  1.00  0.00     0.091 A 
ATOM     77  F   UNL A   1      40.564  25.307  28.839  1.00  0.00    -0.205 F 
ATOM     78  C   UNL A   1      41.990  25.786  25.504  1.00  0.00     0.022 A 
BRANCH  76  79
ATOM     79  S   UNL A   1      41.348  23.354  26.581  1.00  0.00     0.127 S 
ATOM     80  O   UNL A   1      41.945  22.978  27.860  1.00  0.00    -0.237 OA
ATOM     81  O   UNL A   1      39.902  23.148  26.490  1.00  0.00    -0.237 OA
ATOM     82  O   UNL A   1      42.087  22.947  25.394  1.00  0.00    -0.744 OA
ENDBRANCH  76  79
ENDBRANCH  48  72
BRANCH  60  83
ATOM     83  C   UNL A   1      44.210  27.591  34.180  1.00  0.00     0.023 A 
ATOM     84  C   UNL A   1      45.480  28.200  34.154  1.00  0.00     0.012 A 
ATOM     85  C   UNL A   1      44.030  26.401  34.915  1.00  0.00     0.148 A 
ATOM     86  C   UNL A   1      46.557  27.626  34.829  1.00  0.00     0.002 A 
ATOM     87  C   UNL A   1      45.096  25.862  35.628  1.00  0.00     0.091 A 
ATOM     88  F   UNL A   1      42.817  25.828  34.918  1.00  0.00    -0.205 F 
ATOM     89  C   UNL A   1      46.362  26.468  35.576  1.00  0.00     0.022 A 
BRANCH  87  90
ATOM     90  S   UNL A   1      44.917  24.435  36.705  1.00  0.00     0.127 S 
ATOM     91  O   UNL A   1      43.970  24.931  37.702  1.00  0.00    -0.237 OA
ATOM     92  O   UNL A   1      44.373  23.426  35.795  1.00  0.00    -0.237 OA
ATOM     93  O   UNL A   1      46.252  24.141  37.209  1.00  0.00    -0.744 OA
ENDBRANCH  87  90
ENDBRANCH  60  83
ENDBRANCH  34  35
ENDBRANCH  27  29
ENDBRANCH  26  27
ENDBRANCH  25  26
ENDBRANCH   1  25
TORSDOF 19
ENDMDL
