MODEL 1
REMARK VINA RESULT:     -11.6      0.000      0.000
REMARK SMILES CCc1cc(OC(F)(F)F)cc2c1O[C@@H](C(F)(F)F)C(C(=O)OCCOCCOC(=O)c1ccc(-c3c4nc(c(-c5cccc(S(=O)(=O)[O-])c5F)c5ccc([nH]5)c(-c5cccc(S(=O)(=O)[O-])c5F)c5nc(c(-c6cccc(S(=O)(=O)[O-])c6F)c6ccc3[nH]6)C=C5)C=C4)cc1)=C2
REMARK SMILES IDX 27 1 26 2 25 3 24 4 23 5 21 6 22 7 20 8 3 9 4 10 13 11 5 12
REMARK SMILES IDX 12 13 14 14 11 15 95 16 15 17 2 18 1 19 6 20 7 21 8 22 9 23
REMARK SMILES IDX 10 24 16 25 17 26 18 27 19 28 28 29 29 30 30 31 31 32 32 33
REMARK SMILES IDX 33 34 94 35 34 36 93 37 35 38 36 39 37 40 87 41 38 42 92 43
REMARK SMILES IDX 86 44 88 45 39 46 91 47 85 48 84 49 40 51 72 52 52 53 71 54
REMARK SMILES IDX 53 55 56 56 70 57 89 58 54 59 55 60 69 62 90 63 57 64 41 65
REMARK SMILES IDX 42 66 50 67 43 68 45 69 51 70 44 71 46 72 47 73 48 74 49 75
REMARK SMILES IDX 73 76 74 77 82 78 75 79 77 80 83 81 76 82 78 83 79 84 80 85
REMARK SMILES IDX 81 86 58 87 59 88 67 89 60 90 62 91 68 92 61 93 63 94 64 95
REMARK SMILES IDX 65 96 66 97
REMARK H PARENT 88 50 56 61
REMARK Flexibility Score: inf
ROOT
ATOM      1  C   UNL A   1      35.735  20.079  24.957  1.00  0.00     0.202 C 
ENDROOT
BRANCH   1   2
ATOM      2  O   UNL A   1      34.866  21.068  24.411  1.00  0.00    -0.374 OA
BRANCH   2   3
ATOM      3  C   UNL A   1      33.460  20.858  24.488  1.00  0.00     0.202 C 
BRANCH   3   4
ATOM      4  C   UNL A   1      32.583  21.348  23.331  1.00  0.00     0.261 C 
BRANCH   4   5
ATOM      5  O   UNL A   1      32.277  22.746  23.431  1.00  0.00    -0.460 OA
BRANCH   5   6
ATOM      6  C   UNL A   1      33.053  23.544  22.662  1.00  0.00     0.338 C 
ATOM      7  O   UNL A   1      33.761  23.194  21.732  1.00  0.00    -0.246 OA
BRANCH   6   8
ATOM      8  C   UNL A   1      32.833  24.961  22.987  1.00  0.00     0.087 C 
ATOM      9  C   UNL A   1      31.764  28.522  24.863  1.00  0.00    -0.002 A 
ATOM     10  C   UNL A   1      30.879  29.401  24.221  1.00  0.00     0.054 A 
ATOM     11  C   UNL A   1      32.110  27.334  24.210  1.00  0.00     0.131 A 
ATOM     12  C   UNL A   1      30.347  29.093  22.962  1.00  0.00     0.130 A 
ATOM     13  C   UNL A   1      31.587  27.006  22.948  1.00  0.00     0.021 A 
ATOM     14  O   UNL A   1      32.919  26.458  24.894  1.00  0.00    -0.475 OA
ATOM     15  C   UNL A   1      30.718  27.902  22.324  1.00  0.00     0.058 A 
ATOM     16  C   UNL A   1      31.856  25.671  22.398  1.00  0.00     0.027 C 
ATOM     17  C   UNL A   1      33.712  25.615  24.026  1.00  0.00     0.316 C 
BRANCH   9  18
ATOM     18  C   UNL A   1      32.275  28.832  26.252  1.00  0.00     0.036 C 
ATOM     19  C   UNL A   1      31.759  30.150  26.816  1.00  0.00     0.009 C 
ENDBRANCH   9  18
BRANCH  12  20
ATOM     20  O   UNL A   1      29.449  29.856  22.266  1.00  0.00    -0.406 OA
BRANCH  20  21
ATOM     21  C   UNL A   1      28.161  30.034  22.833  1.00  0.00     0.573 C 
ATOM     22  F   UNL A   1      27.300  30.580  21.946  1.00  0.00    -0.132 F 
ATOM     23  F   UNL A   1      27.660  28.857  23.270  1.00  0.00    -0.132 F 
ATOM     24  F   UNL A   1      28.255  30.865  23.893  1.00  0.00    -0.132 F 
ENDBRANCH  20  21
ENDBRANCH  12  20
BRANCH  17  25
ATOM     25  C   UNL A   1      34.639  24.756  24.901  1.00  0.00     0.430 C 
ATOM     26  F   UNL A   1      35.583  24.129  24.160  1.00  0.00    -0.167 F 
ATOM     27  F   UNL A   1      35.326  25.561  25.762  1.00  0.00    -0.167 F 
ATOM     28  F   UNL A   1      33.992  23.849  25.656  1.00  0.00    -0.167 F 
ENDBRANCH  17  25
ENDBRANCH   6   8
ENDBRANCH   5   6
ENDBRANCH   4   5
ENDBRANCH   3   4
ENDBRANCH   2   3
ENDBRANCH   1   2
BRANCH   1  29
ATOM     29  C   UNL A   1      37.252  20.237  24.786  1.00  0.00     0.261 C 
BRANCH  29  30
ATOM     30  O   UNL A   1      37.790  21.374  25.476  1.00  0.00    -0.460 OA
BRANCH  30  31
ATOM     31  C   UNL A   1      39.021  21.172  26.009  1.00  0.00     0.338 C 
ATOM     32  O   UNL A   1      39.715  20.173  25.902  1.00  0.00    -0.246 OA
BRANCH  31  33
ATOM     33  C   UNL A   1      39.527  22.424  26.599  1.00  0.00     0.060 A 
ATOM     34  C   UNL A   1      38.958  23.624  26.153  1.00  0.00     0.016 A 
ATOM     35  C   UNL A   1      40.591  22.428  27.500  1.00  0.00     0.016 A 
ATOM     36  C   UNL A   1      39.486  24.841  26.573  1.00  0.00     0.010 A 
ATOM     37  C   UNL A   1      41.126  23.653  27.913  1.00  0.00     0.010 A 
ATOM     38  C   UNL A   1      40.601  24.862  27.420  1.00  0.00    -0.014 A 
BRANCH  38  39
ATOM     39  C   UNL A   1      41.292  26.149  27.673  1.00  0.00     0.031 A 
ATOM     40  C   UNL A   1      40.597  27.208  28.483  1.00  0.00     0.074 A 
ATOM     41  C   UNL A   1      42.536  26.359  27.207  1.00  0.00     0.049 A 
ATOM     42  N   UNL A   1      41.018  28.398  28.824  1.00  0.00    -0.248 NA
ATOM     43  C   UNL A   1      39.246  26.886  28.974  1.00  0.00     0.031 C 
ATOM     44  C   UNL A   1      43.312  25.405  26.414  1.00  0.00     0.029 A 
ATOM     45  N   UNL A   1      43.355  27.453  27.317  1.00  0.00    -0.354 N 
ATOM     46  C   UNL A   1      39.977  28.979  29.538  1.00  0.00     0.074 A 
ATOM     47  C   UNL A   1      38.898  28.015  29.572  1.00  0.00     0.031 C 
ATOM     48  C   UNL A   1      44.488  25.966  26.088  1.00  0.00     0.029 A 
ATOM     49  C   UNL A   1      44.537  27.324  26.626  1.00  0.00     0.049 A 
ATOM     50  H   UNL A   1      43.121  28.252  27.841  1.00  0.00     0.167 HD
ATOM     51  C   UNL A   1      39.929  30.198  30.125  1.00  0.00     0.034 A 
ATOM     52  C   UNL A   1      45.532  28.212  26.430  1.00  0.00     0.034 A 
ATOM     53  C   UNL A   1      41.011  31.145  30.104  1.00  0.00     0.049 A 
ATOM     54  C   UNL A   1      45.444  29.569  27.075  1.00  0.00     0.074 A 
ATOM     55  C   UNL A   1      41.081  32.383  30.717  1.00  0.00     0.029 A 
ATOM     56  N   UNL A   1      42.205  30.968  29.423  1.00  0.00    -0.354 N 
ATOM     57  N   UNL A   1      44.505  30.057  27.849  1.00  0.00    -0.248 NA
ATOM     58  C   UNL A   1      46.570  30.488  26.848  1.00  0.00     0.031 C 
ATOM     59  C   UNL A   1      42.302  32.974  30.372  1.00  0.00     0.029 A 
ATOM     60  C   UNL A   1      43.011  32.084  29.582  1.00  0.00     0.049 A 
ATOM     61  H   UNL A   1      42.446  30.168  28.903  1.00  0.00     0.167 HD
ATOM     62  C   UNL A   1      44.942  31.323  28.229  1.00  0.00     0.074 A 
ATOM     63  C   UNL A   1      46.241  31.515  27.618  1.00  0.00     0.031 C 
ATOM     64  C   UNL A   1      44.321  32.246  29.005  1.00  0.00     0.034 A 
BRANCH  51  65
ATOM     65  C   UNL A   1      38.664  30.577  30.851  1.00  0.00     0.023 A 
ATOM     66  C   UNL A   1      38.533  30.299  32.227  1.00  0.00     0.012 A 
ATOM     67  C   UNL A   1      37.631  31.264  30.183  1.00  0.00     0.148 A 
ATOM     68  C   UNL A   1      37.379  30.666  32.919  1.00  0.00     0.002 A 
ATOM     69  C   UNL A   1      36.506  31.670  30.889  1.00  0.00     0.091 A 
ATOM     70  F   UNL A   1      37.767  31.501  28.871  1.00  0.00    -0.205 F 
ATOM     71  C   UNL A   1      36.372  31.361  32.253  1.00  0.00     0.022 A 
BRANCH  69  72
ATOM     72  S   UNL A   1      35.191  32.639  30.143  1.00  0.00     0.127 S 
ATOM     73  O   UNL A   1      34.718  31.736  29.094  1.00  0.00    -0.237 OA
ATOM     74  O   UNL A   1      34.265  32.812  31.262  1.00  0.00    -0.237 OA
ATOM     75  O   UNL A   1      35.814  33.869  29.672  1.00  0.00    -0.744 OA
ENDBRANCH  69  72
ENDBRANCH  51  65
BRANCH  52  76
ATOM     76  C   UNL A   1      46.711  27.835  25.600  1.00  0.00     0.023 A 
ATOM     77  C   UNL A   1      46.674  28.024  24.205  1.00  0.00     0.012 A 
ATOM     78  C   UNL A   1      47.872  27.299  26.191  1.00  0.00     0.148 A 
ATOM     79  C   UNL A   1      47.761  27.655  23.410  1.00  0.00     0.002 A 
ATOM     80  C   UNL A   1      48.971  26.988  25.401  1.00  0.00     0.091 A 
ATOM     81  F   UNL A   1      47.880  27.113  27.519  1.00  0.00    -0.205 F 
ATOM     82  C   UNL A   1      48.911  27.147  24.008  1.00  0.00     0.022 A 
BRANCH  80  83
ATOM     83  S   UNL A   1      50.537  26.454  26.098  1.00  0.00     0.127 S 
ATOM     84  O   UNL A   1      50.999  27.670  26.762  1.00  0.00    -0.237 OA
ATOM     85  O   UNL A   1      50.114  25.381  26.999  1.00  0.00    -0.237 OA
ATOM     86  O   UNL A   1      51.341  26.007  24.969  1.00  0.00    -0.744 OA
ENDBRANCH  80  83
ENDBRANCH  52  76
BRANCH  64  87
ATOM     87  C   UNL A   1      45.049  33.538  29.276  1.00  0.00     0.023 A 
ATOM     88  C   UNL A   1      45.880  33.656  30.408  1.00  0.00     0.012 A 
ATOM     89  C   UNL A   1      44.962  34.613  28.368  1.00  0.00     0.148 A 
ATOM     90  C   UNL A   1      46.582  34.836  30.652  1.00  0.00     0.002 A 
ATOM     91  C   UNL A   1      45.705  35.765  28.590  1.00  0.00     0.091 A 
ATOM     92  F   UNL A   1      44.154  34.488  27.305  1.00  0.00    -0.205 F 
ATOM     93  C   UNL A   1      46.505  35.885  29.739  1.00  0.00     0.022 A 
BRANCH  91  94
ATOM     94  S   UNL A   1      45.745  37.128  27.419  1.00  0.00     0.127 S 
ATOM     95  O   UNL A   1      46.642  38.068  28.088  1.00  0.00    -0.237 OA
ATOM     96  O   UNL A   1      46.306  36.492  26.226  1.00  0.00    -0.237 OA
ATOM     97  O   UNL A   1      44.366  37.574  27.274  1.00  0.00    -0.744 OA
ENDBRANCH  91  94
ENDBRANCH  64  87
ENDBRANCH  38  39
ENDBRANCH  31  33
ENDBRANCH  30  31
ENDBRANCH  29  30
ENDBRANCH   1  29
TORSDOF 21
ENDMDL
MODEL 2
REMARK VINA RESULT:     -11.4      4.778     10.167
REMARK SMILES CCc1cc(OC(F)(F)F)cc2c1O[C@@H](C(F)(F)F)C(C(=O)OCCOCCOC(=O)c1ccc(-c3c4nc(c(-c5cccc(S(=O)(=O)[O-])c5F)c5ccc([nH]5)c(-c5cccc(S(=O)(=O)[O-])c5F)c5nc(c(-c6cccc(S(=O)(=O)[O-])c6F)c6ccc3[nH]6)C=C5)C=C4)cc1)=C2
REMARK SMILES IDX 27 1 26 2 25 3 24 4 23 5 21 6 22 7 20 8 3 9 4 10 13 11 5 12
REMARK SMILES IDX 12 13 14 14 11 15 95 16 15 17 2 18 1 19 6 20 7 21 8 22 9 23
REMARK SMILES IDX 10 24 16 25 17 26 18 27 19 28 28 29 29 30 30 31 31 32 32 33
REMARK SMILES IDX 33 34 94 35 34 36 93 37 35 38 36 39 37 40 87 41 38 42 92 43
REMARK SMILES IDX 86 44 88 45 39 46 91 47 85 48 84 49 40 51 72 52 52 53 71 54
REMARK SMILES IDX 53 55 56 56 70 57 89 58 54 59 55 60 69 62 90 63 57 64 41 65
REMARK SMILES IDX 42 66 50 67 43 68 45 69 51 70 44 71 46 72 47 73 48 74 49 75
REMARK SMILES IDX 73 76 74 77 82 78 75 79 77 80 83 81 76 82 78 83 79 84 80 85
REMARK SMILES IDX 81 86 58 87 59 88 67 89 60 90 62 91 68 92 61 93 63 94 64 95
REMARK SMILES IDX 65 96 66 97
REMARK H PARENT 88 50 56 61
REMARK Flexibility Score: inf
ROOT
ATOM      1  C   UNL A   1      30.990  29.150  24.920  1.00  0.00     0.202 C 
ENDROOT
BRANCH   1   2
ATOM      2  O   UNL A   1      31.351  28.921  23.561  1.00  0.00    -0.374 OA
BRANCH   2   3
ATOM      3  C   UNL A   1      30.648  27.923  22.827  1.00  0.00     0.202 C 
BRANCH   3   4
ATOM      4  C   UNL A   1      29.795  26.912  23.599  1.00  0.00     0.261 C 
BRANCH   4   5
ATOM      5  O   UNL A   1      30.490  25.679  23.836  1.00  0.00    -0.460 OA
BRANCH   5   6
ATOM      6  C   UNL A   1      30.658  25.376  25.145  1.00  0.00     0.338 C 
ATOM      7  O   UNL A   1      30.028  25.833  26.085  1.00  0.00    -0.246 OA
BRANCH   6   8
ATOM      8  C   UNL A   1      31.623  24.280  25.310  1.00  0.00     0.087 C 
ATOM      9  C   UNL A   1      34.753  21.584  24.779  1.00  0.00    -0.002 A 
ATOM     10  C   UNL A   1      34.476  20.209  24.725  1.00  0.00     0.054 A 
ATOM     11  C   UNL A   1      33.685  22.468  24.961  1.00  0.00     0.131 A 
ATOM     12  C   UNL A   1      33.164  19.734  24.842  1.00  0.00     0.130 A 
ATOM     13  C   UNL A   1      32.360  22.012  25.080  1.00  0.00     0.021 A 
ATOM     14  O   UNL A   1      33.974  23.811  24.935  1.00  0.00    -0.475 OA
ATOM     15  C   UNL A   1      32.112  20.640  25.035  1.00  0.00     0.058 A 
ATOM     16  C   UNL A   1      31.273  22.999  25.097  1.00  0.00     0.027 C 
ATOM     17  C   UNL A   1      33.043  24.612  25.700  1.00  0.00     0.316 C 
BRANCH   9  18
ATOM     18  C   UNL A   1      36.164  22.088  24.581  1.00  0.00     0.036 C 
ATOM     19  C   UNL A   1      37.237  21.084  24.986  1.00  0.00     0.009 C 
ENDBRANCH   9  18
BRANCH  12  20
ATOM     20  O   UNL A   1      32.779  18.423  24.765  1.00  0.00    -0.406 OA
BRANCH  20  21
ATOM     21  C   UNL A   1      33.366  17.626  23.750  1.00  0.00     0.573 C 
ATOM     22  F   UNL A   1      33.001  16.329  23.864  1.00  0.00    -0.132 F 
ATOM     23  F   UNL A   1      33.023  18.077  22.523  1.00  0.00    -0.132 F 
ATOM     24  F   UNL A   1      34.711  17.693  23.857  1.00  0.00    -0.132 F 
ENDBRANCH  20  21
ENDBRANCH  12  20
BRANCH  17  25
ATOM     25  C   UNL A   1      33.527  26.072  25.675  1.00  0.00     0.430 C 
ATOM     26  F   UNL A   1      33.244  26.669  24.493  1.00  0.00    -0.167 F 
ATOM     27  F   UNL A   1      32.853  26.790  26.618  1.00  0.00    -0.167 F 
ATOM     28  F   UNL A   1      34.838  26.217  25.944  1.00  0.00    -0.167 F 
ENDBRANCH  17  25
ENDBRANCH   6   8
ENDBRANCH   5   6
ENDBRANCH   4   5
ENDBRANCH   3   4
ENDBRANCH   2   3
ENDBRANCH   1   2
BRANCH   1  29
ATOM     29  C   UNL A   1      31.528  30.394  25.639  1.00  0.00     0.261 C 
BRANCH  29  30
ATOM     30  O   UNL A   1      32.852  30.222  26.167  1.00  0.00    -0.460 OA
BRANCH  30  31
ATOM     31  C   UNL A   1      33.265  31.230  26.975  1.00  0.00     0.338 C 
ATOM     32  O   UNL A   1      32.597  32.166  27.385  1.00  0.00    -0.246 OA
BRANCH  31  33
ATOM     33  C   UNL A   1      34.621  30.950  27.479  1.00  0.00     0.060 A 
ATOM     34  C   UNL A   1      34.977  29.607  27.660  1.00  0.00     0.016 A 
ATOM     35  C   UNL A   1      35.490  31.976  27.847  1.00  0.00     0.016 A 
ATOM     36  C   UNL A   1      36.191  29.285  28.259  1.00  0.00     0.010 A 
ATOM     37  C   UNL A   1      36.706  31.650  28.457  1.00  0.00     0.010 A 
ATOM     38  C   UNL A   1      37.042  30.306  28.700  1.00  0.00    -0.014 A 
BRANCH  38  39
ATOM     39  C   UNL A   1      38.216  29.957  29.536  1.00  0.00     0.031 A 
ATOM     40  C   UNL A   1      39.241  28.997  28.998  1.00  0.00     0.074 A 
ATOM     41  C   UNL A   1      38.376  30.510  30.752  1.00  0.00     0.049 A 
ATOM     42  N   UNL A   1      40.338  28.560  29.558  1.00  0.00    -0.248 NA
ATOM     43  C   UNL A   1      38.998  28.456  27.650  1.00  0.00     0.031 C 
ATOM     44  C   UNL A   1      37.452  31.456  31.377  1.00  0.00     0.029 A 
ATOM     45  N   UNL A   1      39.367  30.338  31.685  1.00  0.00    -0.354 N 
ATOM     46  C   UNL A   1      40.899  27.670  28.650  1.00  0.00     0.074 A 
ATOM     47  C   UNL A   1      40.015  27.620  27.506  1.00  0.00     0.031 C 
ATOM     48  C   UNL A   1      37.908  31.764  32.603  1.00  0.00     0.029 A 
ATOM     49  C   UNL A   1      39.139  31.018  32.857  1.00  0.00     0.049 A 
ATOM     50  H   UNL A   1      40.164  29.783  31.529  1.00  0.00     0.167 HD
ATOM     51  C   UNL A   1      42.053  26.970  28.753  1.00  0.00     0.034 A 
ATOM     52  C   UNL A   1      39.832  31.018  34.014  1.00  0.00     0.034 A 
ATOM     53  C   UNL A   1      42.938  27.037  29.885  1.00  0.00     0.049 A 
ATOM     54  C   UNL A   1      41.100  30.212  34.110  1.00  0.00     0.074 A 
ATOM     55  C   UNL A   1      44.159  26.409  30.059  1.00  0.00     0.029 A 
ATOM     56  N   UNL A   1      42.692  27.761  31.041  1.00  0.00    -0.354 N 
ATOM     57  N   UNL A   1      41.681  29.471  33.196  1.00  0.00    -0.248 NA
ATOM     58  C   UNL A   1      41.829  30.268  35.385  1.00  0.00     0.031 C 
ATOM     59  C   UNL A   1      44.632  26.721  31.339  1.00  0.00     0.029 A 
ATOM     60  C   UNL A   1      43.728  27.579  31.943  1.00  0.00     0.049 A 
ATOM     61  H   UNL A   1      41.899  28.321  31.198  1.00  0.00     0.167 HD
ATOM     62  C   UNL A   1      42.857  29.004  33.774  1.00  0.00     0.074 A 
ATOM     63  C   UNL A   1      42.917  29.564  35.107  1.00  0.00     0.031 C 
ATOM     64  C   UNL A   1      43.798  28.177  33.251  1.00  0.00     0.034 A 
BRANCH  51  65
ATOM     65  C   UNL A   1      42.434  26.072  27.603  1.00  0.00     0.023 A 
ATOM     66  C   UNL A   1      43.284  26.553  26.588  1.00  0.00     0.012 A 
ATOM     67  C   UNL A   1      41.996  24.734  27.563  1.00  0.00     0.148 A 
ATOM     68  C   UNL A   1      43.666  25.727  25.531  1.00  0.00     0.002 A 
ATOM     69  C   UNL A   1      42.419  23.903  26.533  1.00  0.00     0.091 A 
ATOM     70  F   UNL A   1      41.172  24.301  28.527  1.00  0.00    -0.205 F 
ATOM     71  C   UNL A   1      43.243  24.400  25.510  1.00  0.00     0.022 A 
BRANCH  69  72
ATOM     72  S   UNL A   1      41.996  22.159  26.459  1.00  0.00     0.127 S 
ATOM     73  O   UNL A   1      40.547  22.215  26.268  1.00  0.00    -0.237 OA
ATOM     74  O   UNL A   1      42.749  21.710  25.288  1.00  0.00    -0.237 OA
ATOM     75  O   UNL A   1      42.436  21.583  27.723  1.00  0.00    -0.744 OA
ENDBRANCH  69  72
ENDBRANCH  51  65
BRANCH  52  76
ATOM     76  C   UNL A   1      39.351  31.826  35.169  1.00  0.00     0.023 A 
ATOM     77  C   UNL A   1      38.453  31.260  36.093  1.00  0.00     0.012 A 
ATOM     78  C   UNL A   1      39.789  33.151  35.359  1.00  0.00     0.148 A 
ATOM     79  C   UNL A   1      37.973  32.011  37.169  1.00  0.00     0.002 A 
ATOM     80  C   UNL A   1      39.354  33.873  36.463  1.00  0.00     0.091 A 
ATOM     81  F   UNL A   1      40.633  33.676  34.459  1.00  0.00    -0.205 F 
ATOM     82  C   UNL A   1      38.431  33.312  37.359  1.00  0.00     0.022 A 
BRANCH  80  83
ATOM     83  S   UNL A   1      39.992  35.504  36.858  1.00  0.00     0.127 S 
ATOM     84  O   UNL A   1      39.540  36.288  35.711  1.00  0.00    -0.237 OA
ATOM     85  O   UNL A   1      39.304  35.798  38.116  1.00  0.00    -0.237 OA
ATOM     86  O   UNL A   1      41.434  35.345  36.986  1.00  0.00    -0.744 OA
ENDBRANCH  80  83
ENDBRANCH  52  76
BRANCH  64  87
ATOM     87  C   UNL A   1      44.999  27.855  34.104  1.00  0.00     0.023 A 
ATOM     88  C   UNL A   1      46.135  28.686  34.066  1.00  0.00     0.012 A 
ATOM     89  C   UNL A   1      44.971  26.764  34.996  1.00  0.00     0.148 A 
ATOM     90  C   UNL A   1      47.241  28.414  34.872  1.00  0.00     0.002 A 
ATOM     91  C   UNL A   1      46.054  26.531  35.835  1.00  0.00     0.091 A 
ATOM     92  F   UNL A   1      43.886  25.975  35.007  1.00  0.00    -0.205 F 
ATOM     93  C   UNL A   1      47.195  27.346  35.764  1.00  0.00     0.022 A 
BRANCH  91  94
ATOM     94  S   UNL A   1      46.045  25.238  37.083  1.00  0.00     0.127 S 
ATOM     95  O   UNL A   1      45.001  25.709  37.991  1.00  0.00    -0.237 OA
ATOM     96  O   UNL A   1      45.685  24.055  36.300  1.00  0.00    -0.237 OA
ATOM     97  O   UNL A   1      47.390  25.208  37.641  1.00  0.00    -0.744 OA
ENDBRANCH  91  94
ENDBRANCH  64  87
ENDBRANCH  38  39
ENDBRANCH  31  33
ENDBRANCH  30  31
ENDBRANCH  29  30
ENDBRANCH   1  29
TORSDOF 21
ENDMDL
MODEL 3
REMARK VINA RESULT:     -11.3      4.749      8.168
REMARK SMILES CCc1cc(OC(F)(F)F)cc2c1O[C@@H](C(F)(F)F)C(C(=O)OCCOCCOC(=O)c1ccc(-c3c4nc(c(-c5cccc(S(=O)(=O)[O-])c5F)c5ccc([nH]5)c(-c5cccc(S(=O)(=O)[O-])c5F)c5nc(c(-c6cccc(S(=O)(=O)[O-])c6F)c6ccc3[nH]6)C=C5)C=C4)cc1)=C2
REMARK SMILES IDX 27 1 26 2 25 3 24 4 23 5 21 6 22 7 20 8 3 9 4 10 13 11 5 12
REMARK SMILES IDX 12 13 14 14 11 15 95 16 15 17 2 18 1 19 6 20 7 21 8 22 9 23
REMARK SMILES IDX 10 24 16 25 17 26 18 27 19 28 28 29 29 30 30 31 31 32 32 33
REMARK SMILES IDX 33 34 94 35 34 36 93 37 35 38 36 39 37 40 87 41 38 42 92 43
REMARK SMILES IDX 86 44 88 45 39 46 91 47 85 48 84 49 40 51 72 52 52 53 71 54
REMARK SMILES IDX 53 55 56 56 70 57 89 58 54 59 55 60 69 62 90 63 57 64 41 65
REMARK SMILES IDX 42 66 50 67 43 68 45 69 51 70 44 71 46 72 47 73 48 74 49 75
REMARK SMILES IDX 73 76 74 77 82 78 75 79 77 80 83 81 76 82 78 83 79 84 80 85
REMARK SMILES IDX 81 86 58 87 59 88 67 89 60 90 62 91 68 92 61 93 63 94 64 95
REMARK SMILES IDX 65 96 66 97
REMARK H PARENT 88 50 56 61
REMARK Flexibility Score: inf
ROOT
ATOM      1  C   UNL A   1      30.975  29.691  25.004  1.00  0.00     0.202 C 
ENDROOT
BRANCH   1   2
ATOM      2  O   UNL A   1      31.607  29.324  23.780  1.00  0.00    -0.374 OA
BRANCH   2   3
ATOM      3  C   UNL A   1      30.998  28.323  22.971  1.00  0.00     0.202 C 
BRANCH   3   4
ATOM      4  C   UNL A   1      30.068  27.306  23.642  1.00  0.00     0.261 C 
BRANCH   4   5
ATOM      5  O   UNL A   1      30.709  26.041  23.860  1.00  0.00    -0.460 OA
BRANCH   5   6
ATOM      6  C   UNL A   1      30.739  25.646  25.154  1.00  0.00     0.338 C 
ATOM      7  O   UNL A   1      29.943  25.953  26.027  1.00  0.00    -0.246 OA
BRANCH   6   8
ATOM      8  C   UNL A   1      31.794  24.646  25.373  1.00  0.00     0.087 C 
ATOM      9  C   UNL A   1      35.153  22.216  24.984  1.00  0.00    -0.002 A 
ATOM     10  C   UNL A   1      34.999  20.821  24.985  1.00  0.00     0.054 A 
ATOM     11  C   UNL A   1      34.010  23.010  25.120  1.00  0.00     0.131 A 
ATOM     12  C   UNL A   1      33.732  20.237  25.109  1.00  0.00     0.130 A 
ATOM     13  C   UNL A   1      32.729  22.445  25.245  1.00  0.00     0.021 A 
ATOM     14  O   UNL A   1      34.181  24.371  25.040  1.00  0.00    -0.475 OA
ATOM     15  C   UNL A   1      32.602  21.055  25.255  1.00  0.00     0.058 A 
ATOM     16  C   UNL A   1      31.560  23.332  25.211  1.00  0.00     0.027 C 
ATOM     17  C   UNL A   1      33.174  25.118  25.763  1.00  0.00     0.316 C 
BRANCH   9  18
ATOM     18  C   UNL A   1      36.518  22.833  24.779  1.00  0.00     0.036 C 
ATOM     19  C   UNL A   1      37.671  21.862  25.001  1.00  0.00     0.009 C 
ENDBRANCH   9  18
BRANCH  12  20
ATOM     20  O   UNL A   1      33.463  18.896  25.083  1.00  0.00    -0.406 OA
BRANCH  20  21
ATOM     21  C   UNL A   1      32.893  18.365  23.898  1.00  0.00     0.573 C 
ATOM     22  F   UNL A   1      32.545  19.344  23.033  1.00  0.00    -0.132 F 
ATOM     23  F   UNL A   1      33.750  17.517  23.288  1.00  0.00    -0.132 F 
ATOM     24  F   UNL A   1      31.778  17.672  24.216  1.00  0.00    -0.132 F 
ENDBRANCH  20  21
ENDBRANCH  12  20
BRANCH  17  25
ATOM     25  C   UNL A   1      33.529  26.612  25.682  1.00  0.00     0.430 C 
ATOM     26  F   UNL A   1      32.702  27.362  26.448  1.00  0.00    -0.167 F 
ATOM     27  F   UNL A   1      34.779  26.810  26.190  1.00  0.00    -0.167 F 
ATOM     28  F   UNL A   1      33.541  27.102  24.428  1.00  0.00    -0.167 F 
ENDBRANCH  17  25
ENDBRANCH   6   8
ENDBRANCH   5   6
ENDBRANCH   4   5
ENDBRANCH   3   4
ENDBRANCH   2   3
ENDBRANCH   1   2
BRANCH   1  29
ATOM     29  C   UNL A   1      31.557  30.845  25.831  1.00  0.00     0.261 C 
BRANCH  29  30
ATOM     30  O   UNL A   1      32.702  30.469  26.611  1.00  0.00    -0.460 OA
BRANCH  30  31
ATOM     31  C   UNL A   1      33.324  31.508  27.224  1.00  0.00     0.338 C 
ATOM     32  O   UNL A   1      32.832  32.580  27.537  1.00  0.00    -0.246 OA
BRANCH  31  33
ATOM     33  C   UNL A   1      34.671  31.102  27.661  1.00  0.00     0.060 A 
ATOM     34  C   UNL A   1      34.937  29.729  27.744  1.00  0.00     0.016 A 
ATOM     35  C   UNL A   1      35.622  32.039  28.062  1.00  0.00     0.016 A 
ATOM     36  C   UNL A   1      36.144  29.286  28.276  1.00  0.00     0.010 A 
ATOM     37  C   UNL A   1      36.830  31.591  28.607  1.00  0.00     0.010 A 
ATOM     38  C   UNL A   1      37.078  30.214  28.751  1.00  0.00    -0.014 A 
BRANCH  38  39
ATOM     39  C   UNL A   1      38.249  29.731  29.521  1.00  0.00     0.031 A 
ATOM     40  C   UNL A   1      38.427  30.179  30.946  1.00  0.00     0.074 A 
ATOM     41  C   UNL A   1      39.130  28.882  28.963  1.00  0.00     0.049 A 
ATOM     42  N   UNL A   1      39.372  29.877  31.796  1.00  0.00    -0.248 NA
ATOM     43  C   UNL A   1      37.403  31.091  31.485  1.00  0.00     0.031 C 
ATOM     44  C   UNL A   1      39.060  28.374  27.593  1.00  0.00     0.029 A 
ATOM     45  N   UNL A   1      40.268  28.314  29.476  1.00  0.00    -0.354 N 
ATOM     46  C   UNL A   1      39.080  30.584  32.956  1.00  0.00     0.074 A 
ATOM     47  C   UNL A   1      37.874  31.340  32.698  1.00  0.00     0.031 C 
ATOM     48  C   UNL A   1      40.125  27.587  27.365  1.00  0.00     0.029 A 
ATOM     49  C   UNL A   1      40.962  27.556  28.563  1.00  0.00     0.049 A 
ATOM     50  H   UNL A   1      40.558  28.436  30.408  1.00  0.00     0.167 HD
ATOM     51  C   UNL A   1      39.746  30.590  34.134  1.00  0.00     0.034 A 
ATOM     52  C   UNL A   1      42.151  26.930  28.674  1.00  0.00     0.034 A 
ATOM     53  C   UNL A   1      40.934  29.822  34.393  1.00  0.00     0.049 A 
ATOM     54  C   UNL A   1      42.883  26.972  29.989  1.00  0.00     0.074 A 
ATOM     55  C   UNL A   1      41.650  29.717  35.572  1.00  0.00     0.029 A 
ATOM     56  N   UNL A   1      41.591  29.040  33.455  1.00  0.00    -0.354 N 
ATOM     57  N   UNL A   1      42.530  27.546  31.114  1.00  0.00    -0.248 NA
ATOM     58  C   UNL A   1      44.163  26.252  30.061  1.00  0.00     0.031 C 
ATOM     59  C   UNL A   1      42.765  28.905  35.336  1.00  0.00     0.029 A 
ATOM     60  C   UNL A   1      42.717  28.467  34.023  1.00  0.00     0.049 A 
ATOM     61  H   UNL A   1      41.301  28.912  32.524  1.00  0.00     0.167 HD
ATOM     62  C   UNL A   1      43.523  27.226  32.035  1.00  0.00     0.074 A 
ATOM     63  C   UNL A   1      44.480  26.389  31.341  1.00  0.00     0.031 C 
ATOM     64  C   UNL A   1      43.639  27.599  33.334  1.00  0.00     0.034 A 
BRANCH  51  65
ATOM     65  C   UNL A   1      39.200  31.451  35.245  1.00  0.00     0.023 A 
ATOM     66  C   UNL A   1      38.274  30.913  36.161  1.00  0.00     0.012 A 
ATOM     67  C   UNL A   1      39.649  32.775  35.413  1.00  0.00     0.148 A 
ATOM     68  C   UNL A   1      37.779  31.689  37.209  1.00  0.00     0.002 A 
ATOM     69  C   UNL A   1      39.188  33.527  36.487  1.00  0.00     0.091 A 
ATOM     70  F   UNL A   1      40.514  33.275  34.519  1.00  0.00    -0.205 F 
ATOM     71  C   UNL A   1      38.244  32.991  37.377  1.00  0.00     0.022 A 
BRANCH  69  72
ATOM     72  S   UNL A   1      39.786  35.184  36.838  1.00  0.00     0.127 S 
ATOM     73  O   UNL A   1      39.280  35.930  35.686  1.00  0.00    -0.237 OA
ATOM     74  O   UNL A   1      39.119  35.489  38.103  1.00  0.00    -0.237 OA
ATOM     75  O   UNL A   1      41.236  35.079  36.923  1.00  0.00    -0.744 OA
ENDBRANCH  69  72
ENDBRANCH  51  65
BRANCH  52  76
ATOM     76  C   UNL A   1      42.714  26.191  27.509  1.00  0.00     0.023 A 
ATOM     77  C   UNL A   1      43.634  26.828  26.655  1.00  0.00     0.012 A 
ATOM     78  C   UNL A   1      42.348  24.856  27.253  1.00  0.00     0.148 A 
ATOM     79  C   UNL A   1      44.153  26.158  25.545  1.00  0.00     0.002 A 
ATOM     80  C   UNL A   1      42.912  24.177  26.181  1.00  0.00     0.091 A 
ATOM     81  F   UNL A   1      41.459  24.273  28.071  1.00  0.00    -0.205 F 
ATOM     82  C   UNL A   1      43.800  24.831  25.314  1.00  0.00     0.022 A 
BRANCH  80  83
ATOM     83  S   UNL A   1      42.618  22.429  25.886  1.00  0.00     0.127 S 
ATOM     84  O   UNL A   1      43.338  22.212  24.635  1.00  0.00    -0.237 OA
ATOM     85  O   UNL A   1      43.231  21.819  27.066  1.00  0.00    -0.237 OA
ATOM     86  O   UNL A   1      41.171  22.279  25.817  1.00  0.00    -0.744 OA
ENDBRANCH  80  83
ENDBRANCH  52  76
BRANCH  64  87
ATOM     87  C   UNL A   1      44.821  27.076  34.111  1.00  0.00     0.023 A 
ATOM     88  C   UNL A   1      46.031  27.797  34.125  1.00  0.00     0.012 A 
ATOM     89  C   UNL A   1      44.706  25.903  34.884  1.00  0.00     0.148 A 
ATOM     90  C   UNL A   1      47.121  27.337  34.863  1.00  0.00     0.002 A 
ATOM     91  C   UNL A   1      45.779  25.481  35.659  1.00  0.00     0.091 A 
ATOM     92  F   UNL A   1      43.551  25.222  34.846  1.00  0.00    -0.205 F 
ATOM     93  C   UNL A   1      46.992  26.188  35.639  1.00  0.00     0.022 A 
BRANCH  91  94
ATOM     94  S   UNL A   1      45.672  24.068  36.765  1.00  0.00     0.127 S 
ATOM     95  O   UNL A   1      46.997  24.073  37.381  1.00  0.00    -0.237 OA
ATOM     96  O   UNL A   1      44.581  24.459  37.660  1.00  0.00    -0.237 OA
ATOM     97  O   UNL A   1      45.379  22.918  35.922  1.00  0.00    -0.744 OA
ENDBRANCH  91  94
ENDBRANCH  64  87
ENDBRANCH  38  39
ENDBRANCH  31  33
ENDBRANCH  30  31
ENDBRANCH  29  30
ENDBRANCH   1  29
TORSDOF 21
ENDMDL
