MODEL 1
REMARK VINA RESULT:     -10.6      0.000      0.000
REMARK SMILES CCOC(=O)c1cccc(NC(=O)CCC(=O)OCCOCCOC(=O)c2ccc(-c3c4nc(c(-c5cccc(S(=O)(=O)[O-])c5F)c5ccc([nH]5)c(-c5cccc(S(=O)(=O)[O-])c5F)c5nc(c(-c6cccc(S(=O)(=O)[O-])c6F)c6ccc3[nH]6)C=C5)C=C4)cc2)c1
REMARK SMILES IDX 19 1 18 2 16 3 17 4 15 5 14 6 12 7 11 8 13 10 10 11 6 12
REMARK SMILES IDX 7 13 90 14 8 15 9 16 4 17 5 18 3 19 2 20 1 21 20 22 21 23
REMARK SMILES IDX 22 24 23 25 24 26 25 27 26 28 27 29 28 30 89 31 29 32 88 33
REMARK SMILES IDX 30 34 31 35 32 36 82 37 33 38 87 39 81 40 83 41 34 42 86 43
REMARK SMILES IDX 80 44 79 45 35 47 67 48 47 49 66 50 48 51 51 52 65 53 84 54
REMARK SMILES IDX 49 55 50 56 64 58 85 59 52 60 36 61 37 62 45 63 38 64 40 65
REMARK SMILES IDX 46 66 39 67 41 68 42 69 43 70 44 71 68 72 69 73 77 74 70 75
REMARK SMILES IDX 72 76 78 77 71 78 73 79 74 80 75 81 76 82 53 83 54 84 62 85
REMARK SMILES IDX 55 86 57 87 63 88 56 89 58 90 59 91 60 92 61 93
REMARK H PARENT 11 9 83 46 51 57
REMARK Flexibility Score: inf
ROOT
ATOM      1  C   UNL A   1      33.670  20.703  26.358  1.00  0.00     0.261 C 
ENDROOT
BRANCH   1   2
ATOM      2  O   UNL A   1      32.746  19.977  25.211  1.00  0.00    -0.463 OA
BRANCH   2   3
ATOM      3  C   UNL A   1      32.442  20.574  24.033  1.00  0.00     0.306 C 
ATOM      4  O   UNL A   1      32.150  19.972  23.007  1.00  0.00    -0.252 OA
BRANCH   3   5
ATOM      5  C   UNL A   1      32.371  22.093  24.168  1.00  0.00     0.132 C 
BRANCH   5   6
ATOM      6  C   UNL A   1      32.716  22.986  22.964  1.00  0.00     0.112 C 
BRANCH   6   7
ATOM      7  C   UNL A   1      34.075  23.653  22.943  1.00  0.00     0.224 C 
ATOM      8  N   UNL A   1      34.231  24.997  23.082  1.00  0.00    -0.326 N 
ATOM      9  H   UNL A   1      35.159  25.316  23.004  1.00  0.00     0.169 HD
ATOM     10  O   UNL A   1      35.085  22.963  22.781  1.00  0.00    -0.275 OA
BRANCH   8  11
ATOM     11  C   UNL A   1      33.283  26.000  23.320  1.00  0.00     0.042 A 
ATOM     12  C   UNL A   1      31.813  27.665  25.528  1.00  0.00     0.062 A 
ATOM     13  C   UNL A   1      30.565  28.155  24.335  1.00  0.00     0.016 A 
ATOM     14  C   UNL A   1      33.164  26.591  25.026  1.00  0.00     0.041 A 
ATOM     15  C   UNL A   1      30.651  27.587  22.633  1.00  0.00     0.003 A 
ATOM     16  C   UNL A   1      32.022  26.522  22.121  1.00  0.00     0.026 A 
BRANCH  12  17
ATOM     17  C   UNL A   1      31.773  28.359  26.828  1.00  0.00     0.338 C 
ATOM     18  O   UNL A   1      31.402  27.821  27.856  1.00  0.00    -0.246 OA
BRANCH  17  19
ATOM     19  O   UNL A   1      32.005  29.675  26.619  1.00  0.00    -0.462 OA
BRANCH  19  20
ATOM     20  C   UNL A   1      33.389  30.073  26.570  1.00  0.00     0.230 C 
ATOM     21  C   UNL A   1      34.270  29.181  27.432  1.00  0.00     0.049 C 
ENDBRANCH  19  20
ENDBRANCH  17  19
ENDBRANCH  12  17
ENDBRANCH   8  11
ENDBRANCH   6   7
ENDBRANCH   5   6
ENDBRANCH   3   5
ENDBRANCH   2   3
ENDBRANCH   1   2
BRANCH   1  22
ATOM     22  C   UNL A   1      35.620  21.650  26.057  1.00  0.00     0.202 C 
BRANCH  22  23
ATOM     23  O   UNL A   1      36.842  21.287  25.156  1.00  0.00    -0.374 OA
BRANCH  23  24
ATOM     24  C   UNL A   1      37.353  19.963  24.986  1.00  0.00     0.202 C 
BRANCH  24  25
ATOM     25  C   UNL A   1      38.774  19.502  25.375  1.00  0.00     0.261 C 
BRANCH  25  26
ATOM     26  O   UNL A   1      39.649  20.439  25.995  1.00  0.00    -0.460 OA
BRANCH  26  27
ATOM     27  C   UNL A   1      40.907  19.977  26.200  1.00  0.00     0.338 C 
ATOM     28  O   UNL A   1      41.279  18.819  26.120  1.00  0.00    -0.246 OA
BRANCH  27  29
ATOM     29  C   UNL A   1      41.822  21.126  26.379  1.00  0.00     0.060 A 
ATOM     30  C   UNL A   1      42.226  21.438  27.681  1.00  0.00     0.016 A 
ATOM     31  C   UNL A   1      42.258  21.904  25.303  1.00  0.00     0.016 A 
ATOM     32  C   UNL A   1      43.051  22.539  27.918  1.00  0.00     0.010 A 
ATOM     33  C   UNL A   1      43.060  23.026  25.545  1.00  0.00     0.010 A 
ATOM     34  C   UNL A   1      43.434  23.367  26.858  1.00  0.00    -0.014 A 
BRANCH  34  35
ATOM     35  C   UNL A   1      43.998  24.711  27.149  1.00  0.00     0.031 A 
ATOM     36  C   UNL A   1      43.064  25.763  27.684  1.00  0.00     0.074 A 
ATOM     37  C   UNL A   1      45.298  25.002  26.968  1.00  0.00     0.049 A 
ATOM     38  N   UNL A   1      43.297  27.015  27.978  1.00  0.00    -0.248 NA
ATOM     39  C   UNL A   1      41.675  25.336  27.924  1.00  0.00     0.031 C 
ATOM     40  C   UNL A   1      46.322  24.068  26.510  1.00  0.00     0.029 A 
ATOM     41  N   UNL A   1      45.974  26.188  27.135  1.00  0.00    -0.354 N 
ATOM     42  C   UNL A   1      42.082  27.534  28.407  1.00  0.00     0.074 A 
ATOM     43  C   UNL A   1      41.111  26.464  28.324  1.00  0.00     0.031 C 
ATOM     44  C   UNL A   1      47.495  24.721  26.411  1.00  0.00     0.029 A 
ATOM     45  C   UNL A   1      47.296  26.127  26.763  1.00  0.00     0.049 A 
ATOM     46  H   UNL A   1      45.550  27.003  27.487  1.00  0.00     0.167 HD
ATOM     47  C   UNL A   1      41.793  28.785  28.838  1.00  0.00     0.034 A 
ATOM     48  C   UNL A   1      48.229  27.100  26.690  1.00  0.00     0.034 A 
ATOM     49  C   UNL A   1      42.749  29.855  28.900  1.00  0.00     0.049 A 
ATOM     50  C   UNL A   1      47.863  28.511  27.086  1.00  0.00     0.074 A 
ATOM     51  C   UNL A   1      42.556  31.157  29.327  1.00  0.00     0.029 A 
ATOM     52  N   UNL A   1      44.071  29.760  28.496  1.00  0.00    -0.354 N 
ATOM     53  N   UNL A   1      46.730  28.973  27.559  1.00  0.00    -0.248 NA
ATOM     54  C   UNL A   1      48.915  29.533  26.959  1.00  0.00     0.031 C 
ATOM     55  C   UNL A   1      43.748  31.861  29.130  1.00  0.00     0.029 A 
ATOM     56  C   UNL A   1      44.702  30.984  28.641  1.00  0.00     0.049 A 
ATOM     57  H   UNL A   1      44.499  28.942  28.155  1.00  0.00     0.167 HD
ATOM     58  C   UNL A   1      46.947  30.322  27.829  1.00  0.00     0.074 A 
ATOM     59  C   UNL A   1      48.323  30.601  27.475  1.00  0.00     0.031 C 
ATOM     60  C   UNL A   1      46.084  31.243  28.327  1.00  0.00     0.034 A 
BRANCH  47  61
ATOM     61  C   UNL A   1      40.368  29.055  29.248  1.00  0.00     0.023 A 
ATOM     62  C   UNL A   1      39.427  29.495  28.293  1.00  0.00     0.012 A 
ATOM     63  C   UNL A   1      39.962  28.883  30.586  1.00  0.00     0.148 A 
ATOM     64  C   UNL A   1      38.126  29.819  28.675  1.00  0.00     0.002 A 
ATOM     65  C   UNL A   1      38.649  29.155  30.948  1.00  0.00     0.091 A 
ATOM     66  F   UNL A   1      40.873  28.483  31.485  1.00  0.00    -0.205 F 
ATOM     67  C   UNL A   1      37.735  29.643  30.000  1.00  0.00     0.022 A 
BRANCH  65  68
ATOM     68  S   UNL A   1      38.029  28.885  32.611  1.00  0.00     0.127 S 
ATOM     69  O   UNL A   1      38.920  29.735  33.400  1.00  0.00    -0.237 OA
ATOM     70  O   UNL A   1      36.653  29.374  32.507  1.00  0.00    -0.237 OA
ATOM     71  O   UNL A   1      38.148  27.456  32.858  1.00  0.00    -0.744 OA
ENDBRANCH  65  68
ENDBRANCH  47  61
BRANCH  48  72
ATOM     72  C   UNL A   1      49.617  26.780  26.245  1.00  0.00     0.023 A 
ATOM     73  C   UNL A   1      50.496  26.121  27.128  1.00  0.00     0.012 A 
ATOM     74  C   UNL A   1      50.071  27.128  24.959  1.00  0.00     0.148 A 
ATOM     75  C   UNL A   1      51.810  25.841  26.748  1.00  0.00     0.002 A 
ATOM     76  C   UNL A   1      51.364  26.798  24.567  1.00  0.00     0.091 A 
ATOM     77  F   UNL A   1      49.225  27.767  24.140  1.00  0.00    -0.205 F 
ATOM     78  C   UNL A   1      52.240  26.170  25.466  1.00  0.00     0.022 A 
BRANCH  76  79
ATOM     79  S   UNL A   1      51.977  27.083  22.904  1.00  0.00     0.127 S 
ATOM     80  O   UNL A   1      53.032  26.078  22.795  1.00  0.00    -0.237 OA
ATOM     81  O   UNL A   1      50.784  26.816  22.100  1.00  0.00    -0.237 OA
ATOM     82  O   UNL A   1      52.427  28.467  22.878  1.00  0.00    -0.744 OA
ENDBRANCH  76  79
ENDBRANCH  48  72
BRANCH  60  83
ATOM     83  C   UNL A   1      46.605  32.638  28.584  1.00  0.00     0.023 A 
ATOM     84  C   UNL A   1      47.137  32.984  29.842  1.00  0.00     0.012 A 
ATOM     85  C   UNL A   1      46.643  33.582  27.537  1.00  0.00     0.148 A 
ATOM     86  C   UNL A   1      47.667  34.255  30.062  1.00  0.00     0.002 A 
ATOM     87  C   UNL A   1      47.224  34.828  27.748  1.00  0.00     0.091 A 
ATOM     88  F   UNL A   1      46.120  33.242  26.350  1.00  0.00    -0.205 F 
ATOM     89  C   UNL A   1      47.723  35.171  29.014  1.00  0.00     0.022 A 
BRANCH  87  90
ATOM     90  S   UNL A   1      47.431  36.032  26.431  1.00  0.00     0.127 S 
ATOM     91  O   UNL A   1      46.121  36.680  26.411  1.00  0.00    -0.237 OA
ATOM     92  O   UNL A   1      48.516  36.868  26.948  1.00  0.00    -0.237 OA
ATOM     93  O   UNL A   1      47.766  35.272  25.235  1.00  0.00    -0.744 OA
ENDBRANCH  87  90
ENDBRANCH  60  83
ENDBRANCH  34  35
ENDBRANCH  27  29
ENDBRANCH  26  27
ENDBRANCH  25  26
ENDBRANCH  24  25
ENDBRANCH  23  24
ENDBRANCH  22  23
ENDBRANCH   1  22
TORSDOF 23
ENDMDL
MODEL 2
REMARK VINA RESULT:     -10.6      2.363      8.044
REMARK SMILES CCOC(=O)c1cccc(NC(=O)CCC(=O)OCCOCCOC(=O)c2ccc(-c3c4nc(c(-c5cccc(S(=O)(=O)[O-])c5F)c5ccc([nH]5)c(-c5cccc(S(=O)(=O)[O-])c5F)c5nc(c(-c6cccc(S(=O)(=O)[O-])c6F)c6ccc3[nH]6)C=C5)C=C4)cc2)c1
REMARK SMILES IDX 19 1 18 2 16 3 17 4 15 5 14 6 12 7 11 8 13 10 10 11 6 12
REMARK SMILES IDX 7 13 90 14 8 15 9 16 4 17 5 18 3 19 2 20 1 21 20 22 21 23
REMARK SMILES IDX 22 24 23 25 24 26 25 27 26 28 27 29 28 30 89 31 29 32 88 33
REMARK SMILES IDX 30 34 31 35 32 36 82 37 33 38 87 39 81 40 83 41 34 42 86 43
REMARK SMILES IDX 80 44 79 45 35 47 67 48 47 49 66 50 48 51 51 52 65 53 84 54
REMARK SMILES IDX 49 55 50 56 64 58 85 59 52 60 36 61 37 62 45 63 38 64 40 65
REMARK SMILES IDX 46 66 39 67 41 68 42 69 43 70 44 71 68 72 69 73 77 74 70 75
REMARK SMILES IDX 72 76 78 77 71 78 73 79 74 80 75 81 76 82 53 83 54 84 62 85
REMARK SMILES IDX 55 86 57 87 63 88 56 89 58 90 59 91 60 92 61 93
REMARK H PARENT 11 9 83 46 51 57
REMARK Flexibility Score: inf
ROOT
ATOM      1  C   UNL A   1      35.447  23.341  26.213  1.00  0.00     0.261 C 
ENDROOT
BRANCH   1   2
ATOM      2  O   UNL A   1      34.411  22.493  25.262  1.00  0.00    -0.463 OA
BRANCH   2   3
ATOM      3  C   UNL A   1      33.243  23.011  24.812  1.00  0.00     0.306 C 
ATOM      4  O   UNL A   1      32.948  23.130  23.628  1.00  0.00    -0.252 OA
BRANCH   3   5
ATOM      5  C   UNL A   1      32.274  23.306  25.954  1.00  0.00     0.132 C 
BRANCH   5   6
ATOM      6  C   UNL A   1      30.801  22.878  25.840  1.00  0.00     0.112 C 
BRANCH   6   7
ATOM      7  C   UNL A   1      29.806  23.504  26.794  1.00  0.00     0.224 C 
ATOM      8  N   UNL A   1      29.391  24.794  26.675  1.00  0.00    -0.326 N 
ATOM      9  H   UNL A   1      28.780  25.099  27.384  1.00  0.00     0.169 HD
ATOM     10  O   UNL A   1      29.358  22.832  27.728  1.00  0.00    -0.275 OA
BRANCH   8  11
ATOM     11  C   UNL A   1      29.694  25.757  25.705  1.00  0.00     0.042 A 
ATOM     12  C   UNL A   1      31.484  28.235  25.025  1.00  0.00     0.062 A 
ATOM     13  C   UNL A   1      30.379  28.671  23.681  1.00  0.00     0.016 A 
ATOM     14  C   UNL A   1      31.143  26.788  26.036  1.00  0.00     0.041 A 
ATOM     15  C   UNL A   1      28.930  27.670  23.323  1.00  0.00     0.003 A 
ATOM     16  C   UNL A   1      28.597  26.202  24.326  1.00  0.00     0.026 A 
BRANCH  12  17
ATOM     17  C   UNL A   1      32.750  28.987  25.092  1.00  0.00     0.338 C 
ATOM     18  O   UNL A   1      32.839  30.093  25.594  1.00  0.00    -0.246 OA
BRANCH  17  19
ATOM     19  O   UNL A   1      33.672  28.341  24.343  1.00  0.00    -0.462 OA
BRANCH  19  20
ATOM     20  C   UNL A   1      34.056  28.988  23.115  1.00  0.00     0.230 C 
ATOM     21  C   UNL A   1      33.931  28.059  21.917  1.00  0.00     0.049 C 
ENDBRANCH  19  20
ENDBRANCH  17  19
ENDBRANCH  12  17
ENDBRANCH   8  11
ENDBRANCH   6   7
ENDBRANCH   5   6
ENDBRANCH   3   5
ENDBRANCH   2   3
ENDBRANCH   1   2
BRANCH   1  22
ATOM     22  C   UNL A   1      37.629  23.381  26.055  1.00  0.00     0.202 C 
BRANCH  22  23
ATOM     23  O   UNL A   1      38.693  22.256  25.858  1.00  0.00    -0.374 OA
BRANCH  23  24
ATOM     24  C   UNL A   1      38.420  20.981  25.271  1.00  0.00     0.202 C 
BRANCH  24  25
ATOM     25  C   UNL A   1      39.187  19.678  25.579  1.00  0.00     0.261 C 
BRANCH  25  26
ATOM     26  O   UNL A   1      40.089  19.661  26.681  1.00  0.00    -0.460 OA
BRANCH  26  27
ATOM     27  C   UNL A   1      41.398  19.606  26.330  1.00  0.00     0.338 C 
ATOM     28  O   UNL A   1      41.976  18.662  25.820  1.00  0.00    -0.246 OA
BRANCH  27  29
ATOM     29  C   UNL A   1      42.002  20.945  26.510  1.00  0.00     0.060 A 
ATOM     30  C   UNL A   1      42.261  21.370  27.817  1.00  0.00     0.016 A 
ATOM     31  C   UNL A   1      42.289  21.783  25.429  1.00  0.00     0.016 A 
ATOM     32  C   UNL A   1      42.788  22.642  28.053  1.00  0.00     0.010 A 
ATOM     33  C   UNL A   1      42.787  23.069  25.668  1.00  0.00     0.010 A 
ATOM     34  C   UNL A   1      43.010  23.516  26.983  1.00  0.00    -0.014 A 
BRANCH  34  35
ATOM     35  C   UNL A   1      43.223  24.962  27.256  1.00  0.00     0.031 A 
ATOM     36  C   UNL A   1      44.556  25.556  26.889  1.00  0.00     0.074 A 
ATOM     37  C   UNL A   1      42.270  25.742  27.794  1.00  0.00     0.049 A 
ATOM     38  N   UNL A   1      45.003  26.772  27.059  1.00  0.00    -0.248 NA
ATOM     39  C   UNL A   1      45.513  24.648  26.234  1.00  0.00     0.031 C 
ATOM     40  C   UNL A   1      40.919  25.313  28.146  1.00  0.00     0.029 A 
ATOM     41  N   UNL A   1      42.307  27.068  28.156  1.00  0.00    -0.354 N 
ATOM     42  C   UNL A   1      46.301  26.769  26.563  1.00  0.00     0.074 A 
ATOM     43  C   UNL A   1      46.573  25.427  26.095  1.00  0.00     0.031 C 
ATOM     44  C   UNL A   1      40.262  26.351  28.694  1.00  0.00     0.029 A 
ATOM     45  C   UNL A   1      41.156  27.507  28.767  1.00  0.00     0.049 A 
ATOM     46  H   UNL A   1      43.086  27.647  27.994  1.00  0.00     0.167 HD
ATOM     47  C   UNL A   1      47.190  27.789  26.493  1.00  0.00     0.034 A 
ATOM     48  C   UNL A   1      40.869  28.695  29.339  1.00  0.00     0.034 A 
ATOM     49  C   UNL A   1      46.931  29.116  26.977  1.00  0.00     0.049 A 
ATOM     50  C   UNL A   1      41.908  29.791  29.336  1.00  0.00     0.074 A 
ATOM     51  C   UNL A   1      47.765  30.221  26.948  1.00  0.00     0.029 A 
ATOM     52  N   UNL A   1      45.762  29.516  27.606  1.00  0.00    -0.354 N 
ATOM     53  N   UNL A   1      43.105  29.799  28.799  1.00  0.00    -0.248 NA
ATOM     54  C   UNL A   1      41.546  31.055  29.999  1.00  0.00     0.031 C 
ATOM     55  C   UNL A   1      47.120  31.271  27.607  1.00  0.00     0.029 A 
ATOM     56  C   UNL A   1      45.859  30.843  27.990  1.00  0.00     0.049 A 
ATOM     57  H   UNL A   1      44.979  28.940  27.757  1.00  0.00     0.167 HD
ATOM     58  C   UNL A   1      43.616  31.076  29.017  1.00  0.00     0.074 A 
ATOM     59  C   UNL A   1      42.596  31.817  29.729  1.00  0.00     0.031 C 
ATOM     60  C   UNL A   1      44.822  31.586  28.660  1.00  0.00     0.034 A 
BRANCH  47  61
ATOM     61  C   UNL A   1      48.537  27.482  25.891  1.00  0.00     0.023 A 
ATOM     62  C   UNL A   1      49.608  27.083  26.719  1.00  0.00     0.012 A 
ATOM     63  C   UNL A   1      48.746  27.599  24.504  1.00  0.00     0.148 A 
ATOM     64  C   UNL A   1      50.878  26.868  26.183  1.00  0.00     0.002 A 
ATOM     65  C   UNL A   1      50.000  27.330  23.970  1.00  0.00     0.091 A 
ATOM     66  F   UNL A   1      47.723  27.998  23.734  1.00  0.00    -0.205 F 
ATOM     67  C   UNL A   1      51.072  26.985  24.810  1.00  0.00     0.022 A 
BRANCH  65  68
ATOM     68  S   UNL A   1      50.331  27.375  22.206  1.00  0.00     0.127 S 
ATOM     69  O   UNL A   1      51.732  26.958  22.158  1.00  0.00    -0.237 OA
ATOM     70  O   UNL A   1      49.382  26.387  21.692  1.00  0.00    -0.237 OA
ATOM     71  O   UNL A   1      50.072  28.744  21.783  1.00  0.00    -0.744 OA
ENDBRANCH  65  68
ENDBRANCH  47  61
BRANCH  48  72
ATOM     72  C   UNL A   1      39.528  28.932  29.949  1.00  0.00     0.023 A 
ATOM     73  C   UNL A   1      39.233  28.387  31.215  1.00  0.00     0.012 A 
ATOM     74  C   UNL A   1      38.544  29.687  29.282  1.00  0.00     0.148 A 
ATOM     75  C   UNL A   1      37.975  28.565  31.792  1.00  0.00     0.002 A 
ATOM     76  C   UNL A   1      37.311  29.907  29.886  1.00  0.00     0.091 A 
ATOM     77  F   UNL A   1      38.839  30.184  28.074  1.00  0.00    -0.205 F 
ATOM     78  C   UNL A   1      37.018  29.333  31.133  1.00  0.00     0.022 A 
BRANCH  76  79
ATOM     79  S   UNL A   1      36.054  30.968  29.168  1.00  0.00     0.127 S 
ATOM     80  O   UNL A   1      36.859  32.048  28.602  1.00  0.00    -0.237 OA
ATOM     81  O   UNL A   1      35.440  30.075  28.185  1.00  0.00    -0.237 OA
ATOM     82  O   UNL A   1      35.180  31.350  30.268  1.00  0.00    -0.744 OA
ENDBRANCH  76  79
ENDBRANCH  48  72
BRANCH  60  83
ATOM     83  C   UNL A   1      45.099  33.038  28.971  1.00  0.00     0.023 A 
ATOM     84  C   UNL A   1      44.712  34.050  28.071  1.00  0.00     0.012 A 
ATOM     85  C   UNL A   1      45.670  33.399  30.209  1.00  0.00     0.148 A 
ATOM     86  C   UNL A   1      44.919  35.394  28.382  1.00  0.00     0.002 A 
ATOM     87  C   UNL A   1      45.822  34.742  30.536  1.00  0.00     0.091 A 
ATOM     88  F   UNL A   1      46.046  32.424  31.048  1.00  0.00    -0.205 F 
ATOM     89  C   UNL A   1      45.461  35.740  29.618  1.00  0.00     0.022 A 
BRANCH  87  90
ATOM     90  S   UNL A   1      46.416  35.283  32.143  1.00  0.00     0.127 S 
ATOM     91  O   UNL A   1      45.455  34.650  33.044  1.00  0.00    -0.237 OA
ATOM     92  O   UNL A   1      47.760  34.706  32.184  1.00  0.00    -0.237 OA
ATOM     93  O   UNL A   1      46.379  36.739  32.120  1.00  0.00    -0.744 OA
ENDBRANCH  87  90
ENDBRANCH  60  83
ENDBRANCH  34  35
ENDBRANCH  27  29
ENDBRANCH  26  27
ENDBRANCH  25  26
ENDBRANCH  24  25
ENDBRANCH  23  24
ENDBRANCH  22  23
ENDBRANCH   1  22
TORSDOF 23
ENDMDL
MODEL 3
REMARK VINA RESULT:     -10.4      2.183      7.834
REMARK SMILES CCOC(=O)c1cccc(NC(=O)CCC(=O)OCCOCCOC(=O)c2ccc(-c3c4nc(c(-c5cccc(S(=O)(=O)[O-])c5F)c5ccc([nH]5)c(-c5cccc(S(=O)(=O)[O-])c5F)c5nc(c(-c6cccc(S(=O)(=O)[O-])c6F)c6ccc3[nH]6)C=C5)C=C4)cc2)c1
REMARK SMILES IDX 19 1 18 2 16 3 17 4 15 5 14 6 12 7 11 8 13 10 10 11 6 12
REMARK SMILES IDX 7 13 90 14 8 15 9 16 4 17 5 18 3 19 2 20 1 21 20 22 21 23
REMARK SMILES IDX 22 24 23 25 24 26 25 27 26 28 27 29 28 30 89 31 29 32 88 33
REMARK SMILES IDX 30 34 31 35 32 36 82 37 33 38 87 39 81 40 83 41 34 42 86 43
REMARK SMILES IDX 80 44 79 45 35 47 67 48 47 49 66 50 48 51 51 52 65 53 84 54
REMARK SMILES IDX 49 55 50 56 64 58 85 59 52 60 36 61 37 62 45 63 38 64 40 65
REMARK SMILES IDX 46 66 39 67 41 68 42 69 43 70 44 71 68 72 69 73 77 74 70 75
REMARK SMILES IDX 72 76 78 77 71 78 73 79 74 80 75 81 76 82 53 83 54 84 62 85
REMARK SMILES IDX 55 86 57 87 63 88 56 89 58 90 59 91 60 92 61 93
REMARK H PARENT 11 9 83 46 51 57
REMARK Flexibility Score: inf
ROOT
ATOM      1  C   UNL A   1      35.047  22.842  25.691  1.00  0.00     0.261 C 
ENDROOT
BRANCH   1   2
ATOM      2  O   UNL A   1      34.157  21.725  24.881  1.00  0.00    -0.463 OA
BRANCH   2   3
ATOM      3  C   UNL A   1      33.080  22.055  24.129  1.00  0.00     0.306 C 
ATOM      4  O   UNL A   1      32.512  21.291  23.358  1.00  0.00    -0.252 OA
BRANCH   3   5
ATOM      5  C   UNL A   1      32.566  23.455  24.456  1.00  0.00     0.132 C 
BRANCH   5   6
ATOM      6  C   UNL A   1      31.143  23.640  25.007  1.00  0.00     0.112 C 
BRANCH   6   7
ATOM      7  C   UNL A   1      30.993  24.158  26.422  1.00  0.00     0.224 C 
ATOM      8  N   UNL A   1      31.296  25.439  26.766  1.00  0.00    -0.326 N 
ATOM      9  H   UNL A   1      31.203  25.642  27.725  1.00  0.00     0.169 HD
ATOM     10  O   UNL A   1      30.596  23.396  27.307  1.00  0.00    -0.275 OA
BRANCH   8  11
ATOM     11  C   UNL A   1      31.718  26.515  25.976  1.00  0.00     0.042 A 
ATOM     12  C   UNL A   1      30.897  28.491  23.689  1.00  0.00     0.062 A 
ATOM     13  C   UNL A   1      32.621  28.920  23.435  1.00  0.00     0.016 A 
ATOM     14  C   UNL A   1      30.446  27.292  24.950  1.00  0.00     0.041 A 
ATOM     15  C   UNL A   1      33.910  28.168  24.434  1.00  0.00     0.003 A 
ATOM     16  C   UNL A   1      33.456  26.976  25.718  1.00  0.00     0.026 A 
BRANCH  12  17
ATOM     17  C   UNL A   1      29.911  29.322  22.975  1.00  0.00     0.338 C 
ATOM     18  O   UNL A   1      29.521  29.070  21.849  1.00  0.00    -0.246 OA
BRANCH  17  19
ATOM     19  O   UNL A   1      29.711  30.455  23.687  1.00  0.00    -0.462 OA
BRANCH  19  20
ATOM     20  C   UNL A   1      28.432  31.095  23.510  1.00  0.00     0.230 C 
ATOM     21  C   UNL A   1      28.562  32.458  22.848  1.00  0.00     0.049 C 
ENDBRANCH  19  20
ENDBRANCH  17  19
ENDBRANCH  12  17
ENDBRANCH   8  11
ENDBRANCH   6   7
ENDBRANCH   5   6
ENDBRANCH   3   5
ENDBRANCH   2   3
ENDBRANCH   1   2
BRANCH   1  22
ATOM     22  C   UNL A   1      37.227  23.033  25.680  1.00  0.00     0.202 C 
BRANCH  22  23
ATOM     23  O   UNL A   1      38.379  21.984  25.781  1.00  0.00    -0.374 OA
BRANCH  23  24
ATOM     24  C   UNL A   1      38.332  20.677  25.205  1.00  0.00     0.202 C 
BRANCH  24  25
ATOM     25  C   UNL A   1      39.240  19.496  25.604  1.00  0.00     0.261 C 
BRANCH  25  26
ATOM     26  O   UNL A   1      40.186  19.686  26.652  1.00  0.00    -0.460 OA
BRANCH  26  27
ATOM     27  C   UNL A   1      41.480  19.636  26.252  1.00  0.00     0.338 C 
ATOM     28  O   UNL A   1      42.040  18.696  25.714  1.00  0.00    -0.246 OA
BRANCH  27  29
ATOM     29  C   UNL A   1      42.089  20.975  26.416  1.00  0.00     0.060 A 
ATOM     30  C   UNL A   1      42.484  21.354  27.703  1.00  0.00     0.016 A 
ATOM     31  C   UNL A   1      42.250  21.855  25.344  1.00  0.00     0.016 A 
ATOM     32  C   UNL A   1      43.022  22.623  27.929  1.00  0.00     0.010 A 
ATOM     33  C   UNL A   1      42.760  23.138  25.576  1.00  0.00     0.010 A 
ATOM     34  C   UNL A   1      43.120  23.539  26.876  1.00  0.00    -0.014 A 
BRANCH  34  35
ATOM     35  C   UNL A   1      43.348  24.976  27.179  1.00  0.00     0.031 A 
ATOM     36  C   UNL A   1      44.689  25.563  26.828  1.00  0.00     0.074 A 
ATOM     37  C   UNL A   1      42.403  25.756  27.732  1.00  0.00     0.049 A 
ATOM     38  N   UNL A   1      45.150  26.770  27.025  1.00  0.00    -0.248 NA
ATOM     39  C   UNL A   1      45.638  24.657  26.157  1.00  0.00     0.031 C 
ATOM     40  C   UNL A   1      41.047  25.335  28.071  1.00  0.00     0.029 A 
ATOM     41  N   UNL A   1      42.455  27.073  28.122  1.00  0.00    -0.354 N 
ATOM     42  C   UNL A   1      46.449  26.762  26.532  1.00  0.00     0.074 A 
ATOM     43  C   UNL A   1      46.707  25.427  26.037  1.00  0.00     0.031 C 
ATOM     44  C   UNL A   1      40.400  26.369  28.640  1.00  0.00     0.029 A 
ATOM     45  C   UNL A   1      41.307  27.512  28.738  1.00  0.00     0.049 A 
ATOM     46  H   UNL A   1      43.241  27.647  27.974  1.00  0.00     0.167 HD
ATOM     47  C   UNL A   1      47.349  27.773  26.485  1.00  0.00     0.034 A 
ATOM     48  C   UNL A   1      41.032  28.692  29.335  1.00  0.00     0.034 A 
ATOM     49  C   UNL A   1      47.105  29.093  26.996  1.00  0.00     0.049 A 
ATOM     50  C   UNL A   1      42.084  29.776  29.357  1.00  0.00     0.074 A 
ATOM     51  C   UNL A   1      47.951  30.188  26.992  1.00  0.00     0.029 A 
ATOM     52  N   UNL A   1      45.939  29.493  27.630  1.00  0.00    -0.354 N 
ATOM     53  N   UNL A   1      43.281  29.781  28.823  1.00  0.00    -0.248 NA
ATOM     54  C   UNL A   1      41.734  31.029  30.046  1.00  0.00     0.031 C 
ATOM     55  C   UNL A   1      47.316  31.232  27.672  1.00  0.00     0.029 A 
ATOM     56  C   UNL A   1      46.049  30.810  28.043  1.00  0.00     0.049 A 
ATOM     57  H   UNL A   1      45.148  28.923  27.768  1.00  0.00     0.167 HD
ATOM     58  C   UNL A   1      43.807  31.047  29.069  1.00  0.00     0.074 A 
ATOM     59  C   UNL A   1      42.793  31.785  29.794  1.00  0.00     0.031 C 
ATOM     60  C   UNL A   1      45.019  31.551  28.726  1.00  0.00     0.034 A 
BRANCH  47  61
ATOM     61  C   UNL A   1      48.695  27.463  25.880  1.00  0.00     0.023 A 
ATOM     62  C   UNL A   1      48.880  27.545  24.485  1.00  0.00     0.012 A 
ATOM     63  C   UNL A   1      49.776  27.079  26.697  1.00  0.00     0.148 A 
ATOM     64  C   UNL A   1      50.098  27.189  23.907  1.00  0.00     0.002 A 
ATOM     65  C   UNL A   1      51.003  26.779  26.119  1.00  0.00     0.091 A 
ATOM     66  F   UNL A   1      49.579  26.987  28.020  1.00  0.00    -0.205 F 
ATOM     67  C   UNL A   1      51.161  26.813  24.724  1.00  0.00     0.022 A 
BRANCH  65  68
ATOM     68  S   UNL A   1      52.454  26.362  27.091  1.00  0.00     0.127 S 
ATOM     69  O   UNL A   1      53.446  27.292  26.554  1.00  0.00    -0.237 OA
ATOM     70  O   UNL A   1      52.007  26.665  28.451  1.00  0.00    -0.237 OA
ATOM     71  O   UNL A   1      52.717  24.953  26.838  1.00  0.00    -0.744 OA
ENDBRANCH  65  68
ENDBRANCH  47  61
BRANCH  48  72
ATOM     72  C   UNL A   1      39.693  28.931  29.947  1.00  0.00     0.023 A 
ATOM     73  C   UNL A   1      39.370  28.323  31.176  1.00  0.00     0.012 A 
ATOM     74  C   UNL A   1      38.737  29.752  29.317  1.00  0.00     0.148 A 
ATOM     75  C   UNL A   1      38.111  28.503  31.752  1.00  0.00     0.002 A 
ATOM     76  C   UNL A   1      37.505  29.971  29.923  1.00  0.00     0.091 A 
ATOM     77  F   UNL A   1      39.057  30.309  28.142  1.00  0.00    -0.205 F 
ATOM     78  C   UNL A   1      37.183  29.335  31.132  1.00  0.00     0.022 A 
BRANCH  76  79
ATOM     79  S   UNL A   1      36.284  31.108  29.257  1.00  0.00     0.127 S 
ATOM     80  O   UNL A   1      35.514  31.455  30.448  1.00  0.00    -0.237 OA
ATOM     81  O   UNL A   1      37.133  32.179  28.736  1.00  0.00    -0.237 OA
ATOM     82  O   UNL A   1      35.559  30.360  28.239  1.00  0.00    -0.744 OA
ENDBRANCH  76  79
ENDBRANCH  48  72
BRANCH  60  83
ATOM     83  C   UNL A   1      45.312  32.993  29.067  1.00  0.00     0.023 A 
ATOM     84  C   UNL A   1      45.811  33.342  30.338  1.00  0.00     0.012 A 
ATOM     85  C   UNL A   1      45.172  33.994  28.084  1.00  0.00     0.148 A 
ATOM     86  C   UNL A   1      46.132  34.666  30.634  1.00  0.00     0.002 A 
ATOM     87  C   UNL A   1      45.547  35.302  28.369  1.00  0.00     0.091 A 
ATOM     88  F   UNL A   1      44.682  33.648  26.885  1.00  0.00    -0.205 F 
ATOM     89  C   UNL A   1      46.013  35.643  29.648  1.00  0.00     0.022 A 
BRANCH  87  90
ATOM     90  S   UNL A   1      45.524  36.605  27.132  1.00  0.00     0.127 S 
ATOM     91  O   UNL A   1      46.372  37.620  27.753  1.00  0.00    -0.237 OA
ATOM     92  O   UNL A   1      46.121  35.939  25.973  1.00  0.00    -0.237 OA
ATOM     93  O   UNL A   1      44.127  36.981  26.964  1.00  0.00    -0.744 OA
ENDBRANCH  87  90
ENDBRANCH  60  83
ENDBRANCH  34  35
ENDBRANCH  27  29
ENDBRANCH  26  27
ENDBRANCH  25  26
ENDBRANCH  24  25
ENDBRANCH  23  24
ENDBRANCH  22  23
ENDBRANCH   1  22
TORSDOF 23
ENDMDL
