MODEL 1
REMARK VINA RESULT:     -12.4      0.000      0.000
REMARK SMILES CN1C(=O)[C@@H]2CC=CC[C@]2(C(=O)OCCOCCOC(=O)c2ccc(-c3c4nc(c(-c5cccc(S(=O)(=O)[O-])c5F)c5ccc([nH]5)c(-c5cccc(S(=O)(=O)[O-])c5F)c5nc(c(-c6cccc(S(=O)(=O)[O-])c6F)c6ccc3[nH]6)C=C5)C=C4)cc2)[C@H]1c1ccccc1
REMARK SMILES IDX 17 1 16 2 15 3 14 4 13 5 11 6 12 7 10 8 1 9 2 10 3 11 85 12
REMARK SMILES IDX 4 13 5 14 6 15 9 16 7 17 8 18 86 19 87 20 91 21 88 22 90 23
REMARK SMILES IDX 89 24 18 25 19 26 20 27 21 28 22 29 23 30 84 31 24 32 83 33
REMARK SMILES IDX 25 34 26 35 27 36 77 37 28 38 82 39 76 40 78 41 29 42 81 43
REMARK SMILES IDX 75 44 74 45 30 47 62 48 42 49 61 50 43 51 46 52 60 53 79 54
REMARK SMILES IDX 44 55 45 56 59 58 80 59 47 60 31 61 32 62 40 63 33 64 35 65
REMARK SMILES IDX 41 66 34 67 36 68 37 69 38 70 39 71 63 72 64 73 72 74 65 75
REMARK SMILES IDX 67 76 73 77 66 78 68 79 69 80 70 81 71 82 48 83 49 84 57 85
REMARK SMILES IDX 50 86 52 87 58 88 51 89 53 90 54 91 55 92 56 93
REMARK H PARENT 78 46 46 57
REMARK Flexibility Score: inf
ROOT
ATOM      1  C   UNL A   1      35.714  20.420  24.965  1.00  0.00     0.202 C 
ENDROOT
BRANCH   1   2
ATOM      2  O   UNL A   1      35.279  21.653  25.547  1.00  0.00    -0.374 OA
BRANCH   2   3
ATOM      3  C   UNL A   1      34.241  21.584  26.532  1.00  0.00     0.202 C 
BRANCH   3   4
ATOM      4  C   UNL A   1      34.291  22.854  27.404  1.00  0.00     0.261 C 
BRANCH   4   5
ATOM      5  O   UNL A   1      33.757  23.905  26.583  1.00  0.00    -0.463 OA
BRANCH   5   6
ATOM      6  C   UNL A   1      32.419  24.082  26.315  1.00  0.00     0.315 C 
ATOM      7  O   UNL A   1      31.531  24.213  27.139  1.00  0.00    -0.251 OA
BRANCH   6   8
ATOM      8  C   UNL A   1      32.327  24.343  24.793  1.00  0.00     0.108 C 
ATOM      9  C   UNL A   1      31.904  27.665  22.963  1.00  0.00     0.147 C 
ATOM     10  N   UNL A   1      32.244  26.332  23.432  1.00  0.00    -0.337 N 
ATOM     11  C   UNL A   1      33.319  25.618  22.962  1.00  0.00     0.227 C 
ATOM     12  C   UNL A   1      31.758  25.823  24.684  1.00  0.00     0.133 C 
ATOM     13  O   UNL A   1      34.013  25.945  22.009  1.00  0.00    -0.275 OA
ATOM     14  C   UNL A   1      33.552  24.383  23.840  1.00  0.00     0.102 C 
ATOM     15  C   UNL A   1      33.803  23.210  22.863  1.00  0.00     0.041 C 
ATOM     16  C   UNL A   1      31.388  23.161  24.456  1.00  0.00     0.049 C 
ATOM     17  C   UNL A   1      32.619  22.383  22.482  1.00  0.00    -0.030 C 
ATOM     18  C   UNL A   1      31.501  22.384  23.201  1.00  0.00    -0.030 C 
BRANCH  12  19
ATOM     19  C   UNL A   1      32.212  26.752  25.831  1.00  0.00    -0.024 A 
ATOM     20  C   UNL A   1      31.273  27.374  26.675  1.00  0.00     0.006 A 
ATOM     21  C   UNL A   1      33.554  27.162  25.906  1.00  0.00     0.006 A 
ATOM     22  C   UNL A   1      31.624  28.493  27.425  1.00  0.00     0.000 A 
ATOM     23  C   UNL A   1      33.907  28.269  26.682  1.00  0.00     0.000 A 
ATOM     24  C   UNL A   1      32.935  28.959  27.403  1.00  0.00     0.000 A 
ENDBRANCH  12  19
ENDBRANCH   6   8
ENDBRANCH   5   6
ENDBRANCH   4   5
ENDBRANCH   3   4
ENDBRANCH   2   3
ENDBRANCH   1   2
BRANCH   1  25
ATOM     25  C   UNL A   1      37.237  20.144  24.979  1.00  0.00     0.261 C 
BRANCH  25  26
ATOM     26  O   UNL A   1      38.038  21.270  25.335  1.00  0.00    -0.460 OA
BRANCH  26  27
ATOM     27  C   UNL A   1      39.182  20.953  25.983  1.00  0.00     0.338 C 
ATOM     28  O   UNL A   1      39.784  19.904  25.956  1.00  0.00    -0.246 OA
BRANCH  27  29
ATOM     29  C   UNL A   1      39.667  22.179  26.622  1.00  0.00     0.060 A 
ATOM     30  C   UNL A   1      39.162  23.405  26.179  1.00  0.00     0.016 A 
ATOM     31  C   UNL A   1      40.639  22.101  27.619  1.00  0.00     0.016 A 
ATOM     32  C   UNL A   1      39.679  24.584  26.704  1.00  0.00     0.010 A 
ATOM     33  C   UNL A   1      41.154  23.280  28.141  1.00  0.00     0.010 A 
ATOM     34  C   UNL A   1      40.707  24.522  27.654  1.00  0.00    -0.014 A 
BRANCH  34  35
ATOM     35  C   UNL A   1      41.461  25.731  28.034  1.00  0.00     0.031 A 
ATOM     36  C   UNL A   1      40.725  26.823  28.755  1.00  0.00     0.074 A 
ATOM     37  C   UNL A   1      42.743  25.881  27.662  1.00  0.00     0.049 A 
ATOM     38  N   UNL A   1      41.107  28.042  29.021  1.00  0.00    -0.248 NA
ATOM     39  C   UNL A   1      39.364  26.499  29.221  1.00  0.00     0.031 C 
ATOM     40  C   UNL A   1      43.546  24.875  26.967  1.00  0.00     0.029 A 
ATOM     41  N   UNL A   1      43.576  26.964  27.775  1.00  0.00    -0.354 N 
ATOM     42  C   UNL A   1      40.018  28.647  29.637  1.00  0.00     0.074 A 
ATOM     43  C   UNL A   1      38.960  27.664  29.704  1.00  0.00     0.031 C 
ATOM     44  C   UNL A   1      44.745  25.406  26.673  1.00  0.00     0.029 A 
ATOM     45  C   UNL A   1      44.773  26.797  27.120  1.00  0.00     0.049 A 
ATOM     46  H   UNL A   1      43.341  27.778  28.276  1.00  0.00     0.167 HD
ATOM     47  C   UNL A   1      39.915  29.912  30.106  1.00  0.00     0.034 A 
ATOM     48  C   UNL A   1      45.754  27.686  26.870  1.00  0.00     0.034 A 
ATOM     49  C   UNL A   1      40.982  30.871  30.040  1.00  0.00     0.049 A 
ATOM     50  C   UNL A   1      45.605  29.098  27.376  1.00  0.00     0.074 A 
ATOM     51  C   UNL A   1      41.007  32.162  30.531  1.00  0.00     0.029 A 
ATOM     52  N   UNL A   1      42.206  30.646  29.428  1.00  0.00    -0.354 N 
ATOM     53  N   UNL A   1      44.612  29.634  28.046  1.00  0.00    -0.248 NA
ATOM     54  C   UNL A   1      46.719  30.021  27.116  1.00  0.00     0.031 C 
ATOM     55  C   UNL A   1      42.234  32.733  30.180  1.00  0.00     0.029 A 
ATOM     56  C   UNL A   1      42.991  31.780  29.516  1.00  0.00     0.049 A 
ATOM     57  H   UNL A   1      42.476  29.804  28.996  1.00  0.00     0.167 HD
ATOM     58  C   UNL A   1      45.002  30.938  28.330  1.00  0.00     0.074 A 
ATOM     59  C   UNL A   1      46.323  31.111  27.761  1.00  0.00     0.031 C 
ATOM     60  C   UNL A   1      44.329  31.906  28.998  1.00  0.00     0.034 A 
BRANCH  47  61
ATOM     61  C   UNL A   1      38.610  30.328  30.730  1.00  0.00     0.023 A 
ATOM     62  C   UNL A   1      38.348  30.029  32.082  1.00  0.00     0.012 A 
ATOM     63  C   UNL A   1      37.663  31.062  29.989  1.00  0.00     0.148 A 
ATOM     64  C   UNL A   1      37.151  30.423  32.678  1.00  0.00     0.002 A 
ATOM     65  C   UNL A   1      36.494  31.494  30.602  1.00  0.00     0.091 A 
ATOM     66  F   UNL A   1      37.920  31.316  28.698  1.00  0.00    -0.205 F 
ATOM     67  C   UNL A   1      36.231  31.164  31.941  1.00  0.00     0.022 A 
BRANCH  65  68
ATOM     68  S   UNL A   1      35.284  32.522  29.765  1.00  0.00     0.127 S 
ATOM     69  O   UNL A   1      34.826  31.631  28.699  1.00  0.00    -0.237 OA
ATOM     70  O   UNL A   1      34.303  32.762  30.823  1.00  0.00    -0.237 OA
ATOM     71  O   UNL A   1      36.002  33.708  29.318  1.00  0.00    -0.744 OA
ENDBRANCH  65  68
ENDBRANCH  47  61
BRANCH  48  72
ATOM     72  C   UNL A   1      46.968  27.265  26.119  1.00  0.00     0.023 A 
ATOM     73  C   UNL A   1      47.034  27.484  24.730  1.00  0.00     0.012 A 
ATOM     74  C   UNL A   1      48.063  26.668  26.773  1.00  0.00     0.148 A 
ATOM     75  C   UNL A   1      48.155  27.085  24.000  1.00  0.00     0.002 A 
ATOM     76  C   UNL A   1      49.198  26.325  26.050  1.00  0.00     0.091 A 
ATOM     77  F   UNL A   1      47.977  26.463  28.096  1.00  0.00    -0.205 F 
ATOM     78  C   UNL A   1      49.240  26.515  24.660  1.00  0.00     0.022 A 
BRANCH  76  79
ATOM     79  S   UNL A   1      50.691  25.701  26.831  1.00  0.00     0.127 S 
ATOM     80  O   UNL A   1      50.224  24.441  27.403  1.00  0.00    -0.237 OA
ATOM     81  O   UNL A   1      51.590  25.563  25.686  1.00  0.00    -0.237 OA
ATOM     82  O   UNL A   1      51.088  26.722  27.791  1.00  0.00    -0.744 OA
ENDBRANCH  76  79
ENDBRANCH  48  72
BRANCH  60  83
ATOM     83  C   UNL A   1      45.023  33.221  29.231  1.00  0.00     0.023 A 
ATOM     84  C   UNL A   1      45.873  33.390  30.340  1.00  0.00     0.012 A 
ATOM     85  C   UNL A   1      44.926  34.245  28.266  1.00  0.00     0.148 A 
ATOM     86  C   UNL A   1      46.604  34.568  30.495  1.00  0.00     0.002 A 
ATOM     87  C   UNL A   1      45.699  35.391  28.398  1.00  0.00     0.091 A 
ATOM     88  F   UNL A   1      44.099  34.065  27.227  1.00  0.00    -0.205 F 
ATOM     89  C   UNL A   1      46.530  35.558  29.517  1.00  0.00     0.022 A 
BRANCH  87  90
ATOM     90  S   UNL A   1      45.751  36.669  27.138  1.00  0.00     0.127 S 
ATOM     91  O   UNL A   1      46.625  37.664  27.760  1.00  0.00    -0.237 OA
ATOM     92  O   UNL A   1      46.345  35.959  26.005  1.00  0.00    -0.237 OA
ATOM     93  O   UNL A   1      44.374  37.096  26.936  1.00  0.00    -0.744 OA
ENDBRANCH  87  90
ENDBRANCH  60  83
ENDBRANCH  34  35
ENDBRANCH  27  29
ENDBRANCH  26  27
ENDBRANCH  25  26
ENDBRANCH   1  25
TORSDOF 18
ENDMDL
MODEL 2
REMARK VINA RESULT:     -12.1      5.055      9.985
REMARK SMILES CN1C(=O)[C@@H]2CC=CC[C@]2(C(=O)OCCOCCOC(=O)c2ccc(-c3c4nc(c(-c5cccc(S(=O)(=O)[O-])c5F)c5ccc([nH]5)c(-c5cccc(S(=O)(=O)[O-])c5F)c5nc(c(-c6cccc(S(=O)(=O)[O-])c6F)c6ccc3[nH]6)C=C5)C=C4)cc2)[C@H]1c1ccccc1
REMARK SMILES IDX 17 1 16 2 15 3 14 4 13 5 11 6 12 7 10 8 1 9 2 10 3 11 85 12
REMARK SMILES IDX 4 13 5 14 6 15 9 16 7 17 8 18 86 19 87 20 91 21 88 22 90 23
REMARK SMILES IDX 89 24 18 25 19 26 20 27 21 28 22 29 23 30 84 31 24 32 83 33
REMARK SMILES IDX 25 34 26 35 27 36 77 37 28 38 82 39 76 40 78 41 29 42 81 43
REMARK SMILES IDX 75 44 74 45 30 47 62 48 42 49 61 50 43 51 46 52 60 53 79 54
REMARK SMILES IDX 44 55 45 56 59 58 80 59 47 60 31 61 32 62 40 63 33 64 35 65
REMARK SMILES IDX 41 66 34 67 36 68 37 69 38 70 39 71 63 72 64 73 72 74 65 75
REMARK SMILES IDX 67 76 73 77 66 78 68 79 69 80 70 81 71 82 48 83 49 84 57 85
REMARK SMILES IDX 50 86 52 87 58 88 51 89 53 90 54 91 55 92 56 93
REMARK H PARENT 78 46 46 57
REMARK Flexibility Score: inf
ROOT
ATOM      1  C   UNL A   1      31.426  29.889  25.672  1.00  0.00     0.202 C 
ENDROOT
BRANCH   1   2
ATOM      2  O   UNL A   1      32.269  29.512  24.579  1.00  0.00    -0.374 OA
BRANCH   2   3
ATOM      3  C   UNL A   1      33.575  29.019  24.897  1.00  0.00     0.202 C 
BRANCH   3   4
ATOM      4  C   UNL A   1      34.136  28.260  23.678  1.00  0.00     0.261 C 
BRANCH   4   5
ATOM      5  O   UNL A   1      34.014  26.867  24.004  1.00  0.00    -0.463 OA
BRANCH   5   6
ATOM      6  C   UNL A   1      33.480  25.913  23.168  1.00  0.00     0.315 C 
ATOM      7  O   UNL A   1      33.908  25.594  22.073  1.00  0.00    -0.251 OA
BRANCH   6   8
ATOM      8  C   UNL A   1      32.416  25.168  24.007  1.00  0.00     0.108 C 
ATOM      9  C   UNL A   1      32.739  21.857  25.877  1.00  0.00     0.147 C 
ATOM     10  N   UNL A   1      32.449  23.199  25.398  1.00  0.00    -0.337 N 
ATOM     11  C   UNL A   1      31.981  24.204  26.208  1.00  0.00     0.227 C 
ATOM     12  C   UNL A   1      33.004  23.701  24.172  1.00  0.00     0.133 C 
ATOM     13  O   UNL A   1      31.615  24.056  27.367  1.00  0.00    -0.275 OA
ATOM     14  C   UNL A   1      32.035  25.544  25.465  1.00  0.00     0.102 C 
ATOM     15  C   UNL A   1      30.684  26.242  25.751  1.00  0.00     0.041 C 
ATOM     16  C   UNL A   1      31.228  25.387  23.040  1.00  0.00     0.049 C 
ATOM     17  C   UNL A   1      29.595  26.039  24.751  1.00  0.00    -0.030 C 
ATOM     18  C   UNL A   1      29.845  25.619  23.515  1.00  0.00    -0.030 C 
BRANCH  12  19
ATOM     19  C   UNL A   1      34.545  23.652  24.244  1.00  0.00    -0.024 A 
ATOM     20  C   UNL A   1      35.293  22.939  23.288  1.00  0.00     0.006 A 
ATOM     21  C   UNL A   1      35.206  24.132  25.388  1.00  0.00     0.006 A 
ATOM     22  C   UNL A   1      36.604  22.554  23.555  1.00  0.00     0.000 A 
ATOM     23  C   UNL A   1      36.531  23.765  25.638  1.00  0.00     0.000 A 
ATOM     24  C   UNL A   1      37.212  22.941  24.745  1.00  0.00     0.000 A 
ENDBRANCH  12  19
ENDBRANCH   6   8
ENDBRANCH   5   6
ENDBRANCH   4   5
ENDBRANCH   3   4
ENDBRANCH   2   3
ENDBRANCH   1   2
BRANCH   1  25
ATOM     25  C   UNL A   1      31.758  31.227  26.378  1.00  0.00     0.261 C 
BRANCH  25  26
ATOM     26  O   UNL A   1      32.731  31.119  27.416  1.00  0.00    -0.460 OA
BRANCH  26  27
ATOM     27  C   UNL A   1      33.466  32.239  27.604  1.00  0.00     0.338 C 
ATOM     28  O   UNL A   1      33.086  33.388  27.584  1.00  0.00    -0.246 OA
BRANCH  27  29
ATOM     29  C   UNL A   1      34.810  31.809  27.999  1.00  0.00     0.060 A 
ATOM     30  C   UNL A   1      35.015  30.459  28.299  1.00  0.00     0.016 A 
ATOM     31  C   UNL A   1      35.833  32.751  28.104  1.00  0.00     0.016 A 
ATOM     32  C   UNL A   1      36.257  30.048  28.769  1.00  0.00     0.010 A 
ATOM     33  C   UNL A   1      37.073  32.337  28.573  1.00  0.00     0.010 A 
ATOM     34  C   UNL A   1      37.274  30.996  28.948  1.00  0.00    -0.014 A 
BRANCH  34  35
ATOM     35  C   UNL A   1      38.504  30.656  29.687  1.00  0.00     0.031 A 
ATOM     36  C   UNL A   1      39.433  29.644  29.081  1.00  0.00     0.074 A 
ATOM     37  C   UNL A   1      38.734  31.174  30.905  1.00  0.00     0.049 A 
ATOM     38  N   UNL A   1      40.461  29.043  29.614  1.00  0.00    -0.248 NA
ATOM     39  C   UNL A   1      39.148  29.239  27.693  1.00  0.00     0.031 C 
ATOM     40  C   UNL A   1      37.896  32.169  31.572  1.00  0.00     0.029 A 
ATOM     41  N   UNL A   1      39.718  30.889  31.816  1.00  0.00    -0.354 N 
ATOM     42  C   UNL A   1      40.914  28.152  28.647  1.00  0.00     0.074 A 
ATOM     43  C   UNL A   1      40.049  28.290  27.497  1.00  0.00     0.031 C 
ATOM     44  C   UNL A   1      38.377  32.380  32.809  1.00  0.00     0.029 A 
ATOM     45  C   UNL A   1      39.524  31.502  33.031  1.00  0.00     0.049 A 
ATOM     46  H   UNL A   1      40.485  30.305  31.620  1.00  0.00     0.167 HD
ATOM     47  C   UNL A   1      41.962  27.299  28.717  1.00  0.00     0.034 A 
ATOM     48  C   UNL A   1      40.173  31.332  34.199  1.00  0.00     0.034 A 
ATOM     49  C   UNL A   1      42.817  27.186  29.865  1.00  0.00     0.049 A 
ATOM     50  C   UNL A   1      41.318  30.354  34.261  1.00  0.00     0.074 A 
ATOM     51  C   UNL A   1      43.939  26.396  30.025  1.00  0.00     0.029 A 
ATOM     52  N   UNL A   1      42.632  27.873  31.055  1.00  0.00    -0.354 N 
ATOM     53  N   UNL A   1      41.803  29.590  33.312  1.00  0.00    -0.248 NA
ATOM     54  C   UNL A   1      42.024  30.233  35.546  1.00  0.00     0.031 C 
ATOM     55  C   UNL A   1      44.409  26.573  31.330  1.00  0.00     0.029 A 
ATOM     56  C   UNL A   1      43.611  27.514  31.962  1.00  0.00     0.049 A 
ATOM     57  H   UNL A   1      41.910  28.520  31.228  1.00  0.00     0.167 HD
ATOM     58  C   UNL A   1      42.897  28.936  33.867  1.00  0.00     0.074 A 
ATOM     59  C   UNL A   1      43.005  29.396  35.237  1.00  0.00     0.031 C 
ATOM     60  C   UNL A   1      43.735  28.035  33.299  1.00  0.00     0.034 A 
BRANCH  47  61
ATOM     61  C   UNL A   1      42.241  26.427  27.522  1.00  0.00     0.023 A 
ATOM     62  C   UNL A   1      42.953  26.946  26.421  1.00  0.00     0.012 A 
ATOM     63  C   UNL A   1      41.841  25.076  27.512  1.00  0.00     0.148 A 
ATOM     64  C   UNL A   1      43.232  26.144  25.315  1.00  0.00     0.002 A 
ATOM     65  C   UNL A   1      42.166  24.271  26.429  1.00  0.00     0.091 A 
ATOM     66  F   UNL A   1      41.145  24.609  28.558  1.00  0.00    -0.205 F 
ATOM     67  C   UNL A   1      42.849  24.805  25.325  1.00  0.00     0.022 A 
BRANCH  65  68
ATOM     68  S   UNL A   1      41.791  22.516  26.380  1.00  0.00     0.127 S 
ATOM     69  O   UNL A   1      42.478  22.101  25.156  1.00  0.00    -0.237 OA
ATOM     70  O   UNL A   1      42.406  22.036  27.617  1.00  0.00    -0.237 OA
ATOM     71  O   UNL A   1      40.338  22.415  26.341  1.00  0.00    -0.744 OA
ENDBRANCH  65  68
ENDBRANCH  47  61
BRANCH  48  72
ATOM     72  C   UNL A   1      39.767  32.115  35.398  1.00  0.00     0.023 A 
ATOM     73  C   UNL A   1      40.252  33.425  35.568  1.00  0.00     0.012 A 
ATOM     74  C   UNL A   1      38.890  31.577  36.361  1.00  0.00     0.148 A 
ATOM     75  C   UNL A   1      39.899  34.175  36.691  1.00  0.00     0.002 A 
ATOM     76  C   UNL A   1      38.498  32.348  37.447  1.00  0.00     0.091 A 
ATOM     77  F   UNL A   1      38.445  30.325  36.183  1.00  0.00    -0.205 F 
ATOM     78  C   UNL A   1      39.015  33.641  37.625  1.00  0.00     0.022 A 
BRANCH  76  79
ATOM     79  S   UNL A   1      37.269  31.793  38.633  1.00  0.00     0.127 S 
ATOM     80  O   UNL A   1      37.073  30.403  38.231  1.00  0.00    -0.237 OA
ATOM     81  O   UNL A   1      37.977  31.974  39.901  1.00  0.00    -0.237 OA
ATOM     82  O   UNL A   1      36.122  32.672  38.452  1.00  0.00    -0.744 OA
ENDBRANCH  76  79
ENDBRANCH  48  72
BRANCH  60  83
ATOM     83  C   UNL A   1      44.897  27.534  34.115  1.00  0.00     0.023 A 
ATOM     84  C   UNL A   1      46.099  28.266  34.164  1.00  0.00     0.012 A 
ATOM     85  C   UNL A   1      44.739  26.399  34.936  1.00  0.00     0.148 A 
ATOM     86  C   UNL A   1      47.135  27.863  35.007  1.00  0.00     0.002 A 
ATOM     87  C   UNL A   1      45.753  26.037  35.813  1.00  0.00     0.091 A 
ATOM     88  F   UNL A   1      43.590  25.712  34.860  1.00  0.00    -0.205 F 
ATOM     89  C   UNL A   1      46.955  26.761  35.842  1.00  0.00     0.022 A 
BRANCH  87  90
ATOM     90  S   UNL A   1      45.570  24.701  37.000  1.00  0.00     0.127 S 
ATOM     91  O   UNL A   1      45.414  23.543  36.121  1.00  0.00    -0.237 OA
ATOM     92  O   UNL A   1      46.843  24.755  37.720  1.00  0.00    -0.237 OA
ATOM     93  O   UNL A   1      44.401  25.030  37.804  1.00  0.00    -0.744 OA
ENDBRANCH  87  90
ENDBRANCH  60  83
ENDBRANCH  34  35
ENDBRANCH  27  29
ENDBRANCH  26  27
ENDBRANCH  25  26
ENDBRANCH   1  25
TORSDOF 18
ENDMDL
MODEL 3
REMARK VINA RESULT:     -12.1      0.612      7.705
REMARK SMILES CN1C(=O)[C@@H]2CC=CC[C@]2(C(=O)OCCOCCOC(=O)c2ccc(-c3c4nc(c(-c5cccc(S(=O)(=O)[O-])c5F)c5ccc([nH]5)c(-c5cccc(S(=O)(=O)[O-])c5F)c5nc(c(-c6cccc(S(=O)(=O)[O-])c6F)c6ccc3[nH]6)C=C5)C=C4)cc2)[C@H]1c1ccccc1
REMARK SMILES IDX 17 1 16 2 15 3 14 4 13 5 11 6 12 7 10 8 1 9 2 10 3 11 85 12
REMARK SMILES IDX 4 13 5 14 6 15 9 16 7 17 8 18 86 19 87 20 91 21 88 22 90 23
REMARK SMILES IDX 89 24 18 25 19 26 20 27 21 28 22 29 23 30 84 31 24 32 83 33
REMARK SMILES IDX 25 34 26 35 27 36 77 37 28 38 82 39 76 40 78 41 29 42 81 43
REMARK SMILES IDX 75 44 74 45 30 47 62 48 42 49 61 50 43 51 46 52 60 53 79 54
REMARK SMILES IDX 44 55 45 56 59 58 80 59 47 60 31 61 32 62 40 63 33 64 35 65
REMARK SMILES IDX 41 66 34 67 36 68 37 69 38 70 39 71 63 72 64 73 72 74 65 75
REMARK SMILES IDX 67 76 73 77 66 78 68 79 69 80 70 81 71 82 48 83 49 84 57 85
REMARK SMILES IDX 50 86 52 87 58 88 51 89 53 90 54 91 55 92 56 93
REMARK H PARENT 78 46 46 57
REMARK Flexibility Score: inf
ROOT
ATOM      1  C   UNL A   1      36.274  20.335  25.169  1.00  0.00     0.202 C 
ENDROOT
BRANCH   1   2
ATOM      2  O   UNL A   1      35.921  21.439  26.008  1.00  0.00    -0.374 OA
BRANCH   2   3
ATOM      3  C   UNL A   1      34.527  21.737  26.147  1.00  0.00     0.202 C 
BRANCH   3   4
ATOM      4  C   UNL A   1      34.354  22.845  27.205  1.00  0.00     0.261 C 
BRANCH   4   5
ATOM      5  O   UNL A   1      33.815  23.972  26.497  1.00  0.00    -0.463 OA
BRANCH   5   6
ATOM      6  C   UNL A   1      32.476  24.171  26.250  1.00  0.00     0.315 C 
ATOM      7  O   UNL A   1      31.605  24.332  27.088  1.00  0.00    -0.251 OA
BRANCH   6   8
ATOM      8  C   UNL A   1      32.360  24.411  24.727  1.00  0.00     0.108 C 
ATOM      9  C   UNL A   1      31.961  27.711  22.853  1.00  0.00     0.147 C 
ATOM     10  N   UNL A   1      32.286  26.379  23.336  1.00  0.00    -0.337 N 
ATOM     11  C   UNL A   1      33.340  25.641  22.858  1.00  0.00     0.227 C 
ATOM     12  C   UNL A   1      31.814  25.898  24.605  1.00  0.00     0.133 C 
ATOM     13  O   UNL A   1      34.023  25.941  21.888  1.00  0.00    -0.275 OA
ATOM     14  C   UNL A   1      33.568  24.415  23.751  1.00  0.00     0.102 C 
ATOM     15  C   UNL A   1      33.782  23.223  22.788  1.00  0.00     0.041 C 
ATOM     16  C   UNL A   1      31.396  23.240  24.425  1.00  0.00     0.049 C 
ATOM     17  C   UNL A   1      32.578  22.411  22.441  1.00  0.00    -0.030 C 
ATOM     18  C   UNL A   1      31.473  22.442  23.180  1.00  0.00    -0.030 C 
BRANCH  12  19
ATOM     19  C   UNL A   1      32.304  26.837  25.728  1.00  0.00    -0.024 A 
ATOM     20  C   UNL A   1      31.392  27.494  26.574  1.00  0.00     0.006 A 
ATOM     21  C   UNL A   1      33.656  27.218  25.778  1.00  0.00     0.006 A 
ATOM     22  C   UNL A   1      31.778  28.618  27.300  1.00  0.00     0.000 A 
ATOM     23  C   UNL A   1      34.044  28.331  26.530  1.00  0.00     0.000 A 
ATOM     24  C   UNL A   1      33.097  29.054  27.252  1.00  0.00     0.000 A 
ENDBRANCH  12  19
ENDBRANCH   6   8
ENDBRANCH   5   6
ENDBRANCH   4   5
ENDBRANCH   3   4
ENDBRANCH   2   3
ENDBRANCH   1   2
BRANCH   1  25
ATOM     25  C   UNL A   1      37.786  20.046  25.000  1.00  0.00     0.261 C 
BRANCH  25  26
ATOM     26  O   UNL A   1      38.628  21.184  25.180  1.00  0.00    -0.460 OA
BRANCH  26  27
ATOM     27  C   UNL A   1      39.482  21.082  26.222  1.00  0.00     0.338 C 
ATOM     28  O   UNL A   1      40.029  20.085  26.639  1.00  0.00    -0.246 OA
BRANCH  27  29
ATOM     29  C   UNL A   1      39.765  22.444  26.682  1.00  0.00     0.060 A 
ATOM     30  C   UNL A   1      38.999  23.493  26.164  1.00  0.00     0.016 A 
ATOM     31  C   UNL A   1      40.805  22.667  27.584  1.00  0.00     0.016 A 
ATOM     32  C   UNL A   1      39.314  24.801  26.513  1.00  0.00     0.010 A 
ATOM     33  C   UNL A   1      41.116  23.975  27.930  1.00  0.00     0.010 A 
ATOM     34  C   UNL A   1      40.401  25.045  27.362  1.00  0.00    -0.014 A 
BRANCH  34  35
ATOM     35  C   UNL A   1      40.931  26.410  27.542  1.00  0.00     0.031 A 
ATOM     36  C   UNL A   1      42.324  26.694  27.058  1.00  0.00     0.074 A 
ATOM     37  C   UNL A   1      40.217  27.339  28.199  1.00  0.00     0.049 A 
ATOM     38  N   UNL A   1      43.075  27.739  27.270  1.00  0.00    -0.248 NA
ATOM     39  C   UNL A   1      42.962  25.645  26.243  1.00  0.00     0.031 C 
ATOM     40  C   UNL A   1      38.854  27.161  28.698  1.00  0.00     0.029 A 
ATOM     41  N   UNL A   1      40.567  28.601  28.603  1.00  0.00    -0.354 N 
ATOM     42  C   UNL A   1      44.291  27.454  26.661  1.00  0.00     0.074 A 
ATOM     43  C   UNL A   1      44.179  26.138  26.073  1.00  0.00     0.031 C 
ATOM     44  C   UNL A   1      38.497  28.260  29.384  1.00  0.00     0.029 A 
ATOM     45  C   UNL A   1      39.622  29.192  29.408  1.00  0.00     0.049 A 
ATOM     46  H   UNL A   1      41.409  29.039  28.343  1.00  0.00     0.167 HD
ATOM     47  C   UNL A   1      45.400  28.226  26.597  1.00  0.00     0.034 A 
ATOM     48  C   UNL A   1      39.684  30.335  30.119  1.00  0.00     0.034 A 
ATOM     49  C   UNL A   1      45.487  29.537  27.178  1.00  0.00     0.049 A 
ATOM     50  C   UNL A   1      40.941  31.164  30.057  1.00  0.00     0.074 A 
ATOM     51  C   UNL A   1      46.541  30.429  27.128  1.00  0.00     0.029 A 
ATOM     52  N   UNL A   1      44.486  30.134  27.929  1.00  0.00    -0.354 N 
ATOM     53  N   UNL A   1      42.051  30.934  29.396  1.00  0.00    -0.248 NA
ATOM     54  C   UNL A   1      40.948  32.424  30.816  1.00  0.00     0.031 C 
ATOM     55  C   UNL A   1      46.192  31.551  27.886  1.00  0.00     0.029 A 
ATOM     56  C   UNL A   1      44.902  31.378  28.362  1.00  0.00     0.049 A 
ATOM     57  H   UNL A   1      43.610  29.731  28.124  1.00  0.00     0.167 HD
ATOM     58  C   UNL A   1      42.866  32.038  29.619  1.00  0.00     0.074 A 
ATOM     59  C   UNL A   1      42.121  32.939  30.474  1.00  0.00     0.031 C 
ATOM     60  C   UNL A   1      44.117  32.284  29.160  1.00  0.00     0.034 A 
BRANCH  47  61
ATOM     61  C   UNL A   1      46.601  27.676  25.876  1.00  0.00     0.023 A 
ATOM     62  C   UNL A   1      46.768  27.916  24.498  1.00  0.00     0.012 A 
ATOM     63  C   UNL A   1      47.594  26.963  26.578  1.00  0.00     0.148 A 
ATOM     64  C   UNL A   1      47.884  27.426  23.821  1.00  0.00     0.002 A 
ATOM     65  C   UNL A   1      48.727  26.521  25.908  1.00  0.00     0.091 A 
ATOM     66  F   UNL A   1      47.406  26.725  27.884  1.00  0.00    -0.205 F 
ATOM     67  C   UNL A   1      48.867  26.740  24.529  1.00  0.00     0.022 A 
BRANCH  65  68
ATOM     68  S   UNL A   1      50.088  25.700  26.744  1.00  0.00     0.127 S 
ATOM     69  O   UNL A   1      51.050  25.541  25.653  1.00  0.00    -0.237 OA
ATOM     70  O   UNL A   1      50.468  26.687  27.753  1.00  0.00    -0.237 OA
ATOM     71  O   UNL A   1      49.543  24.459  27.278  1.00  0.00    -0.744 OA
ENDBRANCH  65  68
ENDBRANCH  47  61
BRANCH  48  72
ATOM     72  C   UNL A   1      38.519  30.769  30.937  1.00  0.00     0.023 A 
ATOM     73  C   UNL A   1      38.512  30.517  32.322  1.00  0.00     0.012 A 
ATOM     74  C   UNL A   1      37.428  31.444  30.356  1.00  0.00     0.148 A 
ATOM     75  C   UNL A   1      37.425  30.900  33.109  1.00  0.00     0.002 A 
ATOM     76  C   UNL A   1      36.375  31.872  31.154  1.00  0.00     0.091 A 
ATOM     77  F   UNL A   1      37.451  31.668  29.034  1.00  0.00    -0.205 F 
ATOM     78  C   UNL A   1      36.362  31.585  32.528  1.00  0.00     0.022 A 
BRANCH  76  79
ATOM     79  S   UNL A   1      35.023  32.869  30.518  1.00  0.00     0.127 S 
ATOM     80  O   UNL A   1      34.587  32.082  29.368  1.00  0.00    -0.237 OA
ATOM     81  O   UNL A   1      34.097  32.872  31.651  1.00  0.00    -0.237 OA
ATOM     82  O   UNL A   1      35.603  34.169  30.211  1.00  0.00    -0.744 OA
ENDBRANCH  76  79
ENDBRANCH  48  72
BRANCH  60  83
ATOM     83  C   UNL A   1      44.748  33.609  29.497  1.00  0.00     0.023 A 
ATOM     84  C   UNL A   1      45.577  33.736  30.627  1.00  0.00     0.012 A 
ATOM     85  C   UNL A   1      44.614  34.694  28.606  1.00  0.00     0.148 A 
ATOM     86  C   UNL A   1      46.251  34.932  30.875  1.00  0.00     0.002 A 
ATOM     87  C   UNL A   1      45.332  35.861  28.830  1.00  0.00     0.091 A 
ATOM     88  F   UNL A   1      43.807  34.552  27.544  1.00  0.00    -0.205 F 
ATOM     89  C   UNL A   1      46.142  35.986  29.970  1.00  0.00     0.022 A 
BRANCH  87  90
ATOM     90  S   UNL A   1      45.339  37.228  27.664  1.00  0.00     0.127 S 
ATOM     91  O   UNL A   1      46.197  38.196  28.347  1.00  0.00    -0.237 OA
ATOM     92  O   UNL A   1      45.934  36.615  26.476  1.00  0.00    -0.237 OA
ATOM     93  O   UNL A   1      43.949  37.635  27.509  1.00  0.00    -0.744 OA
ENDBRANCH  87  90
ENDBRANCH  60  83
ENDBRANCH  34  35
ENDBRANCH  27  29
ENDBRANCH  26  27
ENDBRANCH  25  26
ENDBRANCH   1  25
TORSDOF 18
ENDMDL
