MODEL 1
REMARK VINA RESULT:     -13.3      0.000      0.000
REMARK SMILES CC[C@H](C)[C@H](NC(=O)[C@@H](C)Oc1ccc2c(C)c(C)c(=O)oc2c1C)C(=O)OCCOCCOC(=O)c1ccc(-c2c3nc(c(-c4cccc(S(=O)(=O)[O-])c4F)c4ccc([nH]4)c(-c4cccc(S(=O)(=O)[O-])c4F)c4nc(c(-c5cccc(S(=O)(=O)[O-])c5F)c5ccc2[nH]5)C=C4)C=C3)cc1
REMARK SMILES IDX 30 1 29 2 28 3 26 4 27 5 5 6 3 7 4 8 2 9 1 10 6 11 7 12 8 14
REMARK SMILES IDX 9 15 10 16 11 17 12 18 13 19 24 20 14 21 23 22 25 23 15 24
REMARK SMILES IDX 22 25 16 26 20 27 17 28 18 29 21 30 19 31 31 32 32 33 33 34
REMARK SMILES IDX 34 35 35 36 36 37 37 38 38 39 99 40 39 41 98 42 40 43 41 44
REMARK SMILES IDX 42 45 92 46 43 47 97 48 91 49 93 50 44 51 96 52 90 53 89 54
REMARK SMILES IDX 45 56 77 57 57 58 76 59 58 60 61 61 75 62 94 63 59 64 60 65
REMARK SMILES IDX 74 67 95 68 62 69 46 70 47 71 55 72 48 73 50 74 56 75 49 76
REMARK SMILES IDX 51 77 52 78 53 79 54 80 78 81 79 82 87 83 80 84 82 85 88 86
REMARK SMILES IDX 81 87 83 88 84 89 85 90 86 91 63 92 64 93 72 94 65 95 67 96
REMARK SMILES IDX 73 97 66 98 68 99 69 100 70 101 71 102
REMARK H PARENT 6 13 93 55 61 66
REMARK Flexibility Score: inf
ROOT
ATOM      1  C   UNL A   1      33.101  25.266  26.277  1.00  0.00     0.202 C 
ENDROOT
BRANCH   1   2
ATOM      2  C   UNL A   1      33.099  23.745  26.577  1.00  0.00     0.261 C 
BRANCH   2   3
ATOM      3  O   UNL A   1      34.394  23.300  26.884  1.00  0.00    -0.462 OA
BRANCH   3   4
ATOM      4  C   UNL A   1      34.498  21.997  26.569  1.00  0.00     0.328 C 
ATOM      5  O   UNL A   1      33.961  21.079  27.194  1.00  0.00    -0.250 OA
BRANCH   4   6
ATOM      6  C   UNL A   1      35.332  21.821  25.328  1.00  0.00     0.195 C 
BRANCH   6   7
ATOM      7  C   UNL A   1      36.856  21.831  25.678  1.00  0.00     0.019 C 
ATOM      8  C   UNL A   1      37.656  20.699  25.003  1.00  0.00     0.010 C 
BRANCH   7   9
ATOM      9  C   UNL A   1      37.468  23.188  25.253  1.00  0.00     0.002 C 
ATOM     10  C   UNL A   1      37.955  24.012  26.434  1.00  0.00     0.004 C 
ENDBRANCH   7   9
ENDBRANCH   6   7
BRANCH   6  11
ATOM     11  N   UNL A   1      35.017  22.818  24.242  1.00  0.00    -0.339 N 
ATOM     12  C   UNL A   1      34.191  22.801  23.145  1.00  0.00     0.261 C 
ATOM     13  H   UNL A   1      35.511  23.664  24.340  1.00  0.00     0.164 HD
ATOM     14  O   UNL A   1      34.842  23.051  22.112  1.00  0.00    -0.271 OA
BRANCH  12  15
ATOM     15  C   UNL A   1      32.436  22.706  23.063  1.00  0.00     0.258 C 
ATOM     16  C   UNL A   1      32.165  21.196  22.767  1.00  0.00     0.064 C 
BRANCH  15  17
ATOM     17  O   UNL A   1      31.014  23.619  23.264  1.00  0.00    -0.480 OA
BRANCH  17  18
ATOM     18  C   UNL A   1      30.588  25.035  23.387  1.00  0.00     0.127 A 
ATOM     19  C   UNL A   1      29.547  25.266  24.309  1.00  0.00     0.047 A 
ATOM     20  C   UNL A   1      31.052  26.301  22.795  1.00  0.00     0.035 A 
ATOM     21  C   UNL A   1      28.681  26.407  24.272  1.00  0.00     0.016 A 
ATOM     22  C   UNL A   1      30.144  27.441  22.812  1.00  0.00     0.145 A 
ATOM     23  C   UNL A   1      32.271  26.780  21.975  1.00  0.00     0.052 C 
ATOM     24  C   UNL A   1      28.913  27.483  23.424  1.00  0.00     0.021 A 
ATOM     25  O   UNL A   1      30.553  28.597  22.068  1.00  0.00    -0.422 OA
ATOM     26  C   UNL A   1      27.994  28.611  23.118  1.00  0.00    -0.030 A 
ATOM     27  C   UNL A   1      29.797  29.726  21.855  1.00  0.00     0.339 A 
ATOM     28  C   UNL A   1      26.561  28.471  23.552  1.00  0.00     0.045 C 
ATOM     29  C   UNL A   1      28.415  29.669  22.382  1.00  0.00     0.038 A 
ATOM     30  O   UNL A   1      30.236  30.684  21.227  1.00  0.00    -0.246 OA
ATOM     31  C   UNL A   1      27.561  30.850  21.991  1.00  0.00     0.052 C 
ENDBRANCH  17  18
ENDBRANCH  15  17
ENDBRANCH  12  15
ENDBRANCH   6  11
ENDBRANCH   4   6
ENDBRANCH   3   4
ENDBRANCH   2   3
ENDBRANCH   1   2
BRANCH   1  32
ATOM     32  O   UNL A   1      31.911  26.100  26.393  1.00  0.00    -0.374 OA
BRANCH  32  33
ATOM     33  C   UNL A   1      31.484  27.505  26.594  1.00  0.00     0.202 C 
BRANCH  33  34
ATOM     34  C   UNL A   1      31.935  29.101  27.266  1.00  0.00     0.261 C 
BRANCH  34  35
ATOM     35  O   UNL A   1      32.974  30.245  26.803  1.00  0.00    -0.460 OA
BRANCH  35  36
ATOM     36  C   UNL A   1      33.644  31.366  27.323  1.00  0.00     0.338 C 
ATOM     37  O   UNL A   1      33.206  32.426  27.769  1.00  0.00    -0.246 OA
BRANCH  36  38
ATOM     38  C   UNL A   1      35.028  31.174  27.827  1.00  0.00     0.060 A 
ATOM     39  C   UNL A   1      35.359  29.834  28.173  1.00  0.00     0.016 A 
ATOM     40  C   UNL A   1      35.957  32.175  28.014  1.00  0.00     0.016 A 
ATOM     41  C   UNL A   1      36.632  29.472  28.589  1.00  0.00     0.010 A 
ATOM     42  C   UNL A   1      37.219  31.823  28.525  1.00  0.00     0.010 A 
ATOM     43  C   UNL A   1      37.565  30.480  28.803  1.00  0.00    -0.014 A 
BRANCH  43  44
ATOM     44  C   UNL A   1      38.809  30.159  29.539  1.00  0.00     0.031 A 
ATOM     45  C   UNL A   1      39.730  29.137  28.938  1.00  0.00     0.074 A 
ATOM     46  C   UNL A   1      39.116  30.732  30.718  1.00  0.00     0.049 A 
ATOM     47  N   UNL A   1      40.767  28.550  29.472  1.00  0.00    -0.248 NA
ATOM     48  C   UNL A   1      39.443  28.722  27.553  1.00  0.00     0.031 C 
ATOM     49  C   UNL A   1      38.367  31.803  31.370  1.00  0.00     0.029 A 
ATOM     50  N   UNL A   1      40.139  30.453  31.593  1.00  0.00    -0.354 N 
ATOM     51  C   UNL A   1      41.225  27.662  28.508  1.00  0.00     0.074 A 
ATOM     52  C   UNL A   1      40.377  27.806  27.348  1.00  0.00     0.031 C 
ATOM     53  C   UNL A   1      38.920  32.050  32.571  1.00  0.00     0.029 A 
ATOM     54  C   UNL A   1      40.040  31.131  32.785  1.00  0.00     0.049 A 
ATOM     55  H   UNL A   1      40.872  29.828  31.386  1.00  0.00     0.167 HD
ATOM     56  C   UNL A   1      42.259  26.796  28.584  1.00  0.00     0.034 A 
ATOM     57  C   UNL A   1      40.742  30.995  33.931  1.00  0.00     0.034 A 
ATOM     58  C   UNL A   1      43.112  26.649  29.726  1.00  0.00     0.049 A 
ATOM     59  C   UNL A   1      41.849  29.972  34.018  1.00  0.00     0.074 A 
ATOM     60  C   UNL A   1      44.189  25.795  29.881  1.00  0.00     0.029 A 
ATOM     61  N   UNL A   1      42.986  27.362  30.904  1.00  0.00    -0.354 N 
ATOM     62  N   UNL A   1      42.295  29.160  33.091  1.00  0.00    -0.248 NA
ATOM     63  C   UNL A   1      42.558  29.856  35.304  1.00  0.00     0.031 C 
ATOM     64  C   UNL A   1      44.707  25.981  31.164  1.00  0.00     0.029 A 
ATOM     65  C   UNL A   1      43.965  26.967  31.796  1.00  0.00     0.049 A 
ATOM     66  H   UNL A   1      42.301  28.046  31.082  1.00  0.00     0.167 HD
ATOM     67  C   UNL A   1      43.350  28.459  33.670  1.00  0.00     0.074 A 
ATOM     68  C   UNL A   1      43.483  28.944  35.027  1.00  0.00     0.031 C 
ATOM     69  C   UNL A   1      44.129  27.493  33.125  1.00  0.00     0.034 A 
BRANCH  56  70
ATOM     70  C   UNL A   1      42.535  25.939  27.387  1.00  0.00     0.023 A 
ATOM     71  C   UNL A   1      43.273  26.473  26.313  1.00  0.00     0.012 A 
ATOM     72  C   UNL A   1      42.140  24.589  27.365  1.00  0.00     0.148 A 
ATOM     73  C   UNL A   1      43.612  25.671  25.226  1.00  0.00     0.002 A 
ATOM     74  C   UNL A   1      42.510  23.787  26.293  1.00  0.00     0.091 A 
ATOM     75  F   UNL A   1      41.420  24.118  28.393  1.00  0.00    -0.205 F 
ATOM     76  C   UNL A   1      43.243  24.327  25.222  1.00  0.00     0.022 A 
BRANCH  74  77
ATOM     77  S   UNL A   1      42.132  22.034  26.216  1.00  0.00     0.127 S 
ATOM     78  O   UNL A   1      43.000  21.593  25.124  1.00  0.00    -0.237 OA
ATOM     79  O   UNL A   1      42.538  21.577  27.544  1.00  0.00    -0.237 OA
ATOM     80  O   UNL A   1      40.704  21.939  25.943  1.00  0.00    -0.744 OA
ENDBRANCH  74  77
ENDBRANCH  56  70
BRANCH  57  81
ATOM     81  C   UNL A   1      40.425  31.864  35.099  1.00  0.00     0.023 A 
ATOM     82  C   UNL A   1      41.250  32.970  35.376  1.00  0.00     0.012 A 
ATOM     83  C   UNL A   1      39.302  31.619  35.913  1.00  0.00     0.148 A 
ATOM     84  C   UNL A   1      40.967  33.815  36.450  1.00  0.00     0.002 A 
ATOM     85  C   UNL A   1      39.003  32.486  36.958  1.00  0.00     0.091 A 
ATOM     86  F   UNL A   1      38.540  30.551  35.636  1.00  0.00    -0.205 F 
ATOM     87  C   UNL A   1      39.840  33.580  37.233  1.00  0.00     0.022 A 
BRANCH  85  88
ATOM     88  S   UNL A   1      37.530  32.322  37.971  1.00  0.00     0.127 S 
ATOM     89  O   UNL A   1      36.538  33.046  37.180  1.00  0.00    -0.237 OA
ATOM     90  O   UNL A   1      37.352  30.870  38.002  1.00  0.00    -0.237 OA
ATOM     91  O   UNL A   1      37.860  32.925  39.255  1.00  0.00    -0.744 OA
ENDBRANCH  85  88
ENDBRANCH  57  81
BRANCH  69  92
ATOM     92  C   UNL A   1      45.229  26.889  33.956  1.00  0.00     0.023 A 
ATOM     93  C   UNL A   1      46.478  27.536  34.030  1.00  0.00     0.012 A 
ATOM     94  C   UNL A   1      44.970  25.782  34.790  1.00  0.00     0.148 A 
ATOM     95  C   UNL A   1      47.452  27.089  34.921  1.00  0.00     0.002 A 
ATOM     96  C   UNL A   1      45.934  25.362  35.698  1.00  0.00     0.091 A 
ATOM     97  F   UNL A   1      43.772  25.185  34.701  1.00  0.00    -0.205 F 
ATOM     98  C   UNL A   1      47.178  26.013  35.763  1.00  0.00     0.022 A 
BRANCH  96  99
ATOM     99  S   UNL A   1      45.648  24.036  36.876  1.00  0.00     0.127 S 
ATOM    100  O   UNL A   1      45.408  22.898  35.990  1.00  0.00    -0.237 OA
ATOM    101  O   UNL A   1      46.916  23.988  37.602  1.00  0.00    -0.237 OA
ATOM    102  O   UNL A   1      44.501  24.445  37.677  1.00  0.00    -0.744 OA
ENDBRANCH  96  99
ENDBRANCH  69  92
ENDBRANCH  43  44
ENDBRANCH  36  38
ENDBRANCH  35  36
ENDBRANCH  34  35
ENDBRANCH  33  34
ENDBRANCH  32  33
ENDBRANCH   1  32
TORSDOF 23
ENDMDL
MODEL 2
REMARK VINA RESULT:     -12.5      4.713     10.013
REMARK SMILES CC[C@H](C)[C@H](NC(=O)[C@@H](C)Oc1ccc2c(C)c(C)c(=O)oc2c1C)C(=O)OCCOCCOC(=O)c1ccc(-c2c3nc(c(-c4cccc(S(=O)(=O)[O-])c4F)c4ccc([nH]4)c(-c4cccc(S(=O)(=O)[O-])c4F)c4nc(c(-c5cccc(S(=O)(=O)[O-])c5F)c5ccc2[nH]5)C=C4)C=C3)cc1
REMARK SMILES IDX 30 1 29 2 28 3 26 4 27 5 5 6 3 7 4 8 2 9 1 10 6 11 7 12 8 14
REMARK SMILES IDX 9 15 10 16 11 17 12 18 13 19 24 20 14 21 23 22 25 23 15 24
REMARK SMILES IDX 22 25 16 26 20 27 17 28 18 29 21 30 19 31 31 32 32 33 33 34
REMARK SMILES IDX 34 35 35 36 36 37 37 38 38 39 99 40 39 41 98 42 40 43 41 44
REMARK SMILES IDX 42 45 92 46 43 47 97 48 91 49 93 50 44 51 96 52 90 53 89 54
REMARK SMILES IDX 45 56 77 57 57 58 76 59 58 60 61 61 75 62 94 63 59 64 60 65
REMARK SMILES IDX 74 67 95 68 62 69 46 70 47 71 55 72 48 73 50 74 56 75 49 76
REMARK SMILES IDX 51 77 52 78 53 79 54 80 78 81 79 82 87 83 80 84 82 85 88 86
REMARK SMILES IDX 81 87 83 88 84 89 85 90 86 91 63 92 64 93 72 94 65 95 67 96
REMARK SMILES IDX 73 97 66 98 68 99 69 100 70 101 71 102
REMARK H PARENT 6 13 93 55 61 66
REMARK Flexibility Score: inf
ROOT
ATOM      1  C   UNL A   1      33.618  26.218  22.121  1.00  0.00     0.202 C 
ENDROOT
BRANCH   1   2
ATOM      2  C   UNL A   1      33.060  27.211  23.171  1.00  0.00     0.261 C 
BRANCH   2   3
ATOM      3  O   UNL A   1      32.532  28.350  22.545  1.00  0.00    -0.462 OA
BRANCH   3   4
ATOM      4  C   UNL A   1      31.191  28.251  22.507  1.00  0.00     0.328 C 
ATOM      5  O   UNL A   1      30.567  27.448  21.809  1.00  0.00    -0.250 OA
BRANCH   4   6
ATOM      6  C   UNL A   1      30.565  29.233  23.460  1.00  0.00     0.195 C 
BRANCH   6   7
ATOM      7  C   UNL A   1      30.039  30.491  22.694  1.00  0.00     0.019 C 
ATOM      8  C   UNL A   1      29.191  30.153  21.452  1.00  0.00     0.010 C 
BRANCH   7   9
ATOM      9  C   UNL A   1      29.183  31.352  23.655  1.00  0.00     0.002 C 
ATOM     10  C   UNL A   1      27.701  31.015  23.588  1.00  0.00     0.004 C 
ENDBRANCH   7   9
ENDBRANCH   6   7
BRANCH   6  11
ATOM     11  N   UNL A   1      31.467  29.628  24.601  1.00  0.00    -0.339 N 
ATOM     12  C   UNL A   1      31.631  29.174  25.887  1.00  0.00     0.261 C 
ATOM     13  H   UNL A   1      32.069  30.374  24.376  1.00  0.00     0.164 HD
ATOM     14  O   UNL A   1      31.489  30.110  26.695  1.00  0.00    -0.271 OA
BRANCH  12  15
ATOM     15  C   UNL A   1      32.197  27.609  26.460  1.00  0.00     0.258 C 
ATOM     16  C   UNL A   1      33.729  27.828  26.671  1.00  0.00     0.064 C 
BRANCH  15  17
ATOM     17  O   UNL A   1      31.669  26.057  26.914  1.00  0.00    -0.480 OA
BRANCH  17  18
ATOM     18  C   UNL A   1      31.530  24.696  26.337  1.00  0.00     0.127 A 
ATOM     19  C   UNL A   1      31.658  23.642  27.263  1.00  0.00     0.047 A 
ATOM     20  C   UNL A   1      31.225  24.177  24.994  1.00  0.00     0.035 A 
ATOM     21  C   UNL A   1      32.015  22.300  26.907  1.00  0.00     0.016 A 
ATOM     22  C   UNL A   1      31.579  22.796  24.692  1.00  0.00     0.145 A 
ATOM     23  C   UNL A   1      30.715  24.755  23.653  1.00  0.00     0.052 C 
ATOM     24  C   UNL A   1      32.089  21.882  25.584  1.00  0.00     0.021 A 
ATOM     25  O   UNL A   1      31.437  22.381  23.327  1.00  0.00    -0.422 OA
ATOM     26  C   UNL A   1      32.657  20.610  25.065  1.00  0.00    -0.030 A 
ATOM     27  C   UNL A   1      31.826  21.168  22.810  1.00  0.00     0.339 A 
ATOM     28  C   UNL A   1      33.475  19.780  26.016  1.00  0.00     0.045 C 
ATOM     29  C   UNL A   1      32.527  20.274  23.758  1.00  0.00     0.038 A 
ATOM     30  O   UNL A   1      31.643  20.883  21.632  1.00  0.00    -0.246 OA
ATOM     31  C   UNL A   1      33.087  19.024  23.123  1.00  0.00     0.052 C 
ENDBRANCH  17  18
ENDBRANCH  15  17
ENDBRANCH  12  15
ENDBRANCH   6  11
ENDBRANCH   4   6
ENDBRANCH   3   4
ENDBRANCH   2   3
ENDBRANCH   1   2
BRANCH   1  32
ATOM     32  O   UNL A   1      33.755  24.788  22.372  1.00  0.00    -0.374 OA
BRANCH  32  33
ATOM     33  C   UNL A   1      34.736  23.766  22.809  1.00  0.00     0.202 C 
BRANCH  33  34
ATOM     34  C   UNL A   1      35.590  23.047  24.207  1.00  0.00     0.261 C 
BRANCH  34  35
ATOM     35  O   UNL A   1      36.948  22.189  24.355  1.00  0.00    -0.460 OA
BRANCH  35  36
ATOM     36  C   UNL A   1      37.800  21.685  25.352  1.00  0.00     0.338 C 
ATOM     37  O   UNL A   1      38.245  20.551  25.529  1.00  0.00    -0.246 OA
BRANCH  36  38
ATOM     38  C   UNL A   1      38.659  22.651  26.084  1.00  0.00     0.060 A 
ATOM     39  C   UNL A   1      38.249  24.010  25.986  1.00  0.00     0.016 A 
ATOM     40  C   UNL A   1      39.803  22.333  26.785  1.00  0.00     0.016 A 
ATOM     41  C   UNL A   1      38.897  25.027  26.671  1.00  0.00     0.010 A 
ATOM     42  C   UNL A   1      40.515  23.377  27.403  1.00  0.00     0.010 A 
ATOM     43  C   UNL A   1      40.064  24.717  27.360  1.00  0.00    -0.014 A 
BRANCH  43  44
ATOM     44  C   UNL A   1      40.936  25.820  27.824  1.00  0.00     0.031 A 
ATOM     45  C   UNL A   1      40.306  26.903  28.652  1.00  0.00     0.074 A 
ATOM     46  C   UNL A   1      42.243  25.885  27.513  1.00  0.00     0.049 A 
ATOM     47  N   UNL A   1      40.802  28.057  29.011  1.00  0.00    -0.248 NA
ATOM     48  C   UNL A   1      38.937  26.653  29.137  1.00  0.00     0.031 C 
ATOM     49  C   UNL A   1      43.006  24.862  26.801  1.00  0.00     0.029 A 
ATOM     50  N   UNL A   1      43.153  26.891  27.735  1.00  0.00    -0.354 N 
ATOM     51  C   UNL A   1      39.790  28.688  29.720  1.00  0.00     0.074 A 
ATOM     52  C   UNL A   1      38.664  27.785  29.768  1.00  0.00     0.031 C 
ATOM     53  C   UNL A   1      44.254  25.319  26.591  1.00  0.00     0.029 A 
ATOM     54  C   UNL A   1      44.366  26.678  27.124  1.00  0.00     0.049 A 
ATOM     55  H   UNL A   1      42.956  27.688  28.279  1.00  0.00     0.167 HD
ATOM     56  C   UNL A   1      39.794  29.918  30.278  1.00  0.00     0.034 A 
ATOM     57  C   UNL A   1      45.428  27.500  26.972  1.00  0.00     0.034 A 
ATOM     58  C   UNL A   1      40.906  30.822  30.243  1.00  0.00     0.049 A 
ATOM     59  C   UNL A   1      45.385  28.896  27.544  1.00  0.00     0.074 A 
ATOM     60  C   UNL A   1      40.992  32.089  30.792  1.00  0.00     0.029 A 
ATOM     61  N   UNL A   1      42.116  30.562  29.627  1.00  0.00    -0.354 N 
ATOM     62  N   UNL A   1      44.436  29.473  28.240  1.00  0.00    -0.248 NA
ATOM     63  C   UNL A   1      46.564  29.751  27.321  1.00  0.00     0.031 C 
ATOM     64  C   UNL A   1      42.255  32.604  30.493  1.00  0.00     0.029 A 
ATOM     65  C   UNL A   1      42.959  31.647  29.779  1.00  0.00     0.049 A 
ATOM     66  H   UNL A   1      42.343  29.731  29.152  1.00  0.00     0.167 HD
ATOM     67  C   UNL A   1      44.912  30.742  28.560  1.00  0.00     0.074 A 
ATOM     68  C   UNL A   1      46.236  30.851  27.989  1.00  0.00     0.031 C 
ATOM     69  C   UNL A   1      44.297  31.729  29.256  1.00  0.00     0.034 A 
BRANCH  56  70
ATOM     70  C   UNL A   1      38.551  30.362  30.988  1.00  0.00     0.023 A 
ATOM     71  C   UNL A   1      38.411  30.093  32.363  1.00  0.00     0.012 A 
ATOM     72  C   UNL A   1      37.571  31.114  30.317  1.00  0.00     0.148 A 
ATOM     73  C   UNL A   1      37.303  30.567  33.063  1.00  0.00     0.002 A 
ATOM     74  C   UNL A   1      36.486  31.611  31.027  1.00  0.00     0.091 A 
ATOM     75  F   UNL A   1      37.724  31.334  29.003  1.00  0.00    -0.205 F 
ATOM     76  C   UNL A   1      36.349  31.335  32.398  1.00  0.00     0.022 A 
BRANCH  74  77
ATOM     77  S   UNL A   1      35.231  32.655  30.280  1.00  0.00     0.127 S 
ATOM     78  O   UNL A   1      34.327  32.880  31.407  1.00  0.00    -0.237 OA
ATOM     79  O   UNL A   1      36.010  33.825  29.877  1.00  0.00    -0.237 OA
ATOM     80  O   UNL A   1      34.665  31.885  29.181  1.00  0.00    -0.744 OA
ENDBRANCH  74  77
ENDBRANCH  56  70
BRANCH  57  81
ATOM     81  C   UNL A   1      46.637  27.018  26.250  1.00  0.00     0.023 A 
ATOM     82  C   UNL A   1      46.697  27.144  24.849  1.00  0.00     0.012 A 
ATOM     83  C   UNL A   1      47.734  26.464  26.939  1.00  0.00     0.148 A 
ATOM     84  C   UNL A   1      47.825  26.721  24.145  1.00  0.00     0.002 A 
ATOM     85  C   UNL A   1      48.871  26.081  26.237  1.00  0.00     0.091 A 
ATOM     86  F   UNL A   1      47.647  26.343  28.271  1.00  0.00    -0.205 F 
ATOM     87  C   UNL A   1      48.915  26.200  24.838  1.00  0.00     0.022 A 
BRANCH  85  88
ATOM     88  S   UNL A   1      50.359  25.479  27.042  1.00  0.00     0.127 S 
ATOM     89  O   UNL A   1      49.868  24.288  27.730  1.00  0.00    -0.237 OA
ATOM     90  O   UNL A   1      51.229  25.214  25.895  1.00  0.00    -0.237 OA
ATOM     91  O   UNL A   1      50.807  26.559  27.911  1.00  0.00    -0.744 OA
ENDBRANCH  85  88
ENDBRANCH  57  81
BRANCH  69  92
ATOM     92  C   UNL A   1      45.031  33.023  29.489  1.00  0.00     0.023 A 
ATOM     93  C   UNL A   1      45.967  33.111  30.538  1.00  0.00     0.012 A 
ATOM     94  C   UNL A   1      44.916  34.085  28.568  1.00  0.00     0.148 A 
ATOM     95  C   UNL A   1      46.777  34.238  30.667  1.00  0.00     0.002 A 
ATOM     96  C   UNL A   1      45.750  35.191  28.684  1.00  0.00     0.091 A 
ATOM     97  F   UNL A   1      44.019  33.974  27.578  1.00  0.00    -0.205 F 
ATOM     98  C   UNL A   1      46.678  35.271  29.736  1.00  0.00     0.022 A 
BRANCH  96  99
ATOM     99  S   UNL A   1      45.752  36.535  27.493  1.00  0.00     0.127 S 
ATOM    100  O   UNL A   1      46.932  37.295  27.905  1.00  0.00    -0.237 OA
ATOM    101  O   UNL A   1      45.897  35.824  26.224  1.00  0.00    -0.237 OA
ATOM    102  O   UNL A   1      44.483  37.230  27.663  1.00  0.00    -0.744 OA
ENDBRANCH  96  99
ENDBRANCH  69  92
ENDBRANCH  43  44
ENDBRANCH  36  38
ENDBRANCH  35  36
ENDBRANCH  34  35
ENDBRANCH  33  34
ENDBRANCH  32  33
ENDBRANCH   1  32
TORSDOF 23
ENDMDL
MODEL 3
REMARK VINA RESULT:     -11.3      1.893      2.381
REMARK SMILES CC[C@H](C)[C@H](NC(=O)[C@@H](C)Oc1ccc2c(C)c(C)c(=O)oc2c1C)C(=O)OCCOCCOC(=O)c1ccc(-c2c3nc(c(-c4cccc(S(=O)(=O)[O-])c4F)c4ccc([nH]4)c(-c4cccc(S(=O)(=O)[O-])c4F)c4nc(c(-c5cccc(S(=O)(=O)[O-])c5F)c5ccc2[nH]5)C=C4)C=C3)cc1
REMARK SMILES IDX 30 1 29 2 28 3 26 4 27 5 5 6 3 7 4 8 2 9 1 10 6 11 7 12 8 14
REMARK SMILES IDX 9 15 10 16 11 17 12 18 13 19 24 20 14 21 23 22 25 23 15 24
REMARK SMILES IDX 22 25 16 26 20 27 17 28 18 29 21 30 19 31 31 32 32 33 33 34
REMARK SMILES IDX 34 35 35 36 36 37 37 38 38 39 99 40 39 41 98 42 40 43 41 44
REMARK SMILES IDX 42 45 92 46 43 47 97 48 91 49 93 50 44 51 96 52 90 53 89 54
REMARK SMILES IDX 45 56 77 57 57 58 76 59 58 60 61 61 75 62 94 63 59 64 60 65
REMARK SMILES IDX 74 67 95 68 62 69 46 70 47 71 55 72 48 73 50 74 56 75 49 76
REMARK SMILES IDX 51 77 52 78 53 79 54 80 78 81 79 82 87 83 80 84 82 85 88 86
REMARK SMILES IDX 81 87 83 88 84 89 85 90 86 91 63 92 64 93 72 94 65 95 67 96
REMARK SMILES IDX 73 97 66 98 68 99 69 100 70 101 71 102
REMARK H PARENT 6 13 93 55 61 66
REMARK Flexibility Score: inf
ROOT
ATOM      1  C   UNL A   1      32.779  24.350  26.365  1.00  0.00     0.202 C 
ENDROOT
BRANCH   1   2
ATOM      2  C   UNL A   1      32.599  22.968  27.043  1.00  0.00     0.261 C 
BRANCH   2   3
ATOM      3  O   UNL A   1      33.645  22.102  26.686  1.00  0.00    -0.462 OA
BRANCH   3   4
ATOM      4  C   UNL A   1      33.236  21.308  25.681  1.00  0.00     0.328 C 
ATOM      5  O   UNL A   1      32.099  20.842  25.574  1.00  0.00    -0.250 OA
BRANCH   4   6
ATOM      6  C   UNL A   1      34.350  21.099  24.691  1.00  0.00     0.195 C 
BRANCH   6   7
ATOM      7  C   UNL A   1      35.393  20.069  25.238  1.00  0.00     0.019 C 
ATOM      8  C   UNL A   1      35.330  18.694  24.545  1.00  0.00     0.010 C 
BRANCH   7   9
ATOM      9  C   UNL A   1      36.819  20.646  25.061  1.00  0.00     0.002 C 
ATOM     10  C   UNL A   1      37.862  19.570  24.803  1.00  0.00     0.004 C 
ENDBRANCH   7   9
ENDBRANCH   6   7
BRANCH   6  11
ATOM     11  N   UNL A   1      35.022  22.377  24.258  1.00  0.00    -0.339 N 
ATOM     12  C   UNL A   1      34.911  23.185  23.153  1.00  0.00     0.261 C 
ATOM     13  H   UNL A   1      35.687  22.702  24.908  1.00  0.00     0.164 HD
ATOM     14  O   UNL A   1      36.022  23.328  22.610  1.00  0.00    -0.271 OA
BRANCH  12  15
ATOM     15  C   UNL A   1      33.543  24.145  22.600  1.00  0.00     0.258 C 
ATOM     16  C   UNL A   1      32.476  23.072  22.211  1.00  0.00     0.064 C 
BRANCH  15  17
ATOM     17  O   UNL A   1      32.986  25.743  22.429  1.00  0.00    -0.480 OA
BRANCH  17  18
ATOM     18  C   UNL A   1      31.993  26.665  23.034  1.00  0.00     0.127 A 
ATOM     19  C   UNL A   1      30.714  26.111  23.241  1.00  0.00     0.047 A 
ATOM     20  C   UNL A   1      32.050  28.048  23.536  1.00  0.00     0.035 A 
ATOM     21  C   UNL A   1      29.514  26.885  23.367  1.00  0.00     0.016 A 
ATOM     22  C   UNL A   1      30.798  28.782  23.676  1.00  0.00     0.145 A 
ATOM     23  C   UNL A   1      33.151  29.083  23.862  1.00  0.00     0.052 C 
ATOM     24  C   UNL A   1      29.537  28.270  23.476  1.00  0.00     0.021 A 
ATOM     25  O   UNL A   1      30.904  30.176  23.990  1.00  0.00    -0.422 OA
ATOM     26  C   UNL A   1      28.386  29.206  23.385  1.00  0.00    -0.030 A 
ATOM     27  C   UNL A   1      29.861  31.071  24.047  1.00  0.00     0.339 A 
ATOM     28  C   UNL A   1      27.087  28.655  22.865  1.00  0.00     0.045 C 
ATOM     29  C   UNL A   1      28.541  30.525  23.659  1.00  0.00     0.038 A 
ATOM     30  O   UNL A   1      30.037  32.245  24.350  1.00  0.00    -0.246 OA
ATOM     31  C   UNL A   1      27.449  31.564  23.572  1.00  0.00     0.052 C 
ENDBRANCH  17  18
ENDBRANCH  15  17
ENDBRANCH  12  15
ENDBRANCH   6  11
ENDBRANCH   4   6
ENDBRANCH   3   4
ENDBRANCH   2   3
ENDBRANCH   1   2
BRANCH   1  32
ATOM     32  O   UNL A   1      31.816  25.436  26.506  1.00  0.00    -0.374 OA
BRANCH  32  33
ATOM     33  C   UNL A   1      31.695  26.838  26.972  1.00  0.00     0.202 C 
BRANCH  33  34
ATOM     34  C   UNL A   1      32.580  28.343  27.364  1.00  0.00     0.261 C 
BRANCH  34  35
ATOM     35  O   UNL A   1      34.120  28.796  27.204  1.00  0.00    -0.460 OA
BRANCH  35  36
ATOM     36  C   UNL A   1      34.930  29.933  27.368  1.00  0.00     0.338 C 
ATOM     37  O   UNL A   1      34.633  31.124  27.454  1.00  0.00    -0.246 OA
BRANCH  36  38
ATOM     38  C   UNL A   1      36.288  29.740  27.938  1.00  0.00     0.060 A 
ATOM     39  C   UNL A   1      36.315  29.154  29.235  1.00  0.00     0.016 A 
ATOM     40  C   UNL A   1      37.470  30.117  27.337  1.00  0.00     0.016 A 
ATOM     41  C   UNL A   1      37.503  28.838  29.877  1.00  0.00     0.010 A 
ATOM     42  C   UNL A   1      38.672  29.883  28.028  1.00  0.00     0.010 A 
ATOM     43  C   UNL A   1      38.696  29.237  29.287  1.00  0.00    -0.014 A 
BRANCH  43  44
ATOM     44  C   UNL A   1      39.940  29.198  30.089  1.00  0.00     0.031 A 
ATOM     45  C   UNL A   1      40.940  28.123  29.773  1.00  0.00     0.074 A 
ATOM     46  C   UNL A   1      40.181  30.069  31.086  1.00  0.00     0.049 A 
ATOM     47  N   UNL A   1      41.999  27.762  30.445  1.00  0.00    -0.248 NA
ATOM     48  C   UNL A   1      40.714  27.354  28.536  1.00  0.00     0.031 C 
ATOM     49  C   UNL A   1      39.349  31.216  31.441  1.00  0.00     0.029 A 
ATOM     50  N   UNL A   1      41.198  30.091  32.011  1.00  0.00    -0.354 N 
ATOM     51  C   UNL A   1      42.537  26.694  29.741  1.00  0.00     0.074 A 
ATOM     52  C   UNL A   1      41.709  26.481  28.577  1.00  0.00     0.031 C 
ATOM     53  C   UNL A   1      39.855  31.795  32.545  1.00  0.00     0.029 A 
ATOM     54  C   UNL A   1      41.027  31.039  32.992  1.00  0.00     0.049 A 
ATOM     55  H   UNL A   1      41.975  29.486  31.975  1.00  0.00     0.167 HD
ATOM     56  C   UNL A   1      43.622  25.948  30.041  1.00  0.00     0.034 A 
ATOM     57  C   UNL A   1      41.709  31.245  34.140  1.00  0.00     0.034 A 
ATOM     58  C   UNL A   1      44.454  26.152  31.189  1.00  0.00     0.049 A 
ATOM     59  C   UNL A   1      42.877  30.355  34.491  1.00  0.00     0.074 A 
ATOM     60  C   UNL A   1      45.581  25.440  31.563  1.00  0.00     0.029 A 
ATOM     61  N   UNL A   1      44.254  27.128  32.147  1.00  0.00    -0.354 N 
ATOM     62  N   UNL A   1      43.397  29.368  33.803  1.00  0.00    -0.248 NA
ATOM     63  C   UNL A   1      43.561  30.616  35.769  1.00  0.00     0.031 C 
ATOM     64  C   UNL A   1      46.055  25.979  32.760  1.00  0.00     0.029 A 
ATOM     65  C   UNL A   1      45.236  27.039  33.117  1.00  0.00     0.049 A 
ATOM     66  H   UNL A   1      43.523  27.787  32.141  1.00  0.00     0.167 HD
ATOM     67  C   UNL A   1      44.480  28.910  34.548  1.00  0.00     0.074 A 
ATOM     68  C   UNL A   1      44.549  29.729  35.738  1.00  0.00     0.031 C 
ATOM     69  C   UNL A   1      45.333  27.893  34.271  1.00  0.00     0.034 A 
BRANCH  56  70
ATOM     70  C   UNL A   1      43.982  24.837  29.102  1.00  0.00     0.023 A 
ATOM     71  C   UNL A   1      43.223  23.651  29.114  1.00  0.00     0.012 A 
ATOM     72  C   UNL A   1      45.010  25.003  28.156  1.00  0.00     0.148 A 
ATOM     73  C   UNL A   1      43.486  22.638  28.195  1.00  0.00     0.002 A 
ATOM     74  C   UNL A   1      45.245  24.003  27.221  1.00  0.00     0.091 A 
ATOM     75  F   UNL A   1      45.727  26.135  28.184  1.00  0.00    -0.205 F 
ATOM     76  C   UNL A   1      44.487  22.819  27.242  1.00  0.00     0.022 A 
BRANCH  74  77
ATOM     77  S   UNL A   1      46.472  24.158  25.921  1.00  0.00     0.127 S 
ATOM     78  O   UNL A   1      47.677  24.472  26.688  1.00  0.00    -0.237 OA
ATOM     79  O   UNL A   1      46.455  22.822  25.327  1.00  0.00    -0.237 OA
ATOM     80  O   UNL A   1      46.003  25.225  25.046  1.00  0.00    -0.744 OA
ENDBRANCH  74  77
ENDBRANCH  56  70
BRANCH  57  81
ATOM     81  C   UNL A   1      41.308  32.356  35.047  1.00  0.00     0.023 A 
ATOM     82  C   UNL A   1      41.943  33.605  34.925  1.00  0.00     0.012 A 
ATOM     83  C   UNL A   1      40.288  32.191  36.005  1.00  0.00     0.148 A 
ATOM     84  C   UNL A   1      41.575  34.673  35.746  1.00  0.00     0.002 A 
ATOM     85  C   UNL A   1      39.899  33.268  36.793  1.00  0.00     0.091 A 
ATOM     86  F   UNL A   1      39.708  30.987  36.111  1.00  0.00    -0.205 F 
ATOM     87  C   UNL A   1      40.548  34.508  36.671  1.00  0.00     0.022 A 
BRANCH  85  88
ATOM     88  S   UNL A   1      38.531  33.185  37.954  1.00  0.00     0.127 S 
ATOM     89  O   UNL A   1      38.452  34.565  38.425  1.00  0.00    -0.237 OA
ATOM     90  O   UNL A   1      37.430  32.767  37.085  1.00  0.00    -0.237 OA
ATOM     91  O   UNL A   1      38.920  32.206  38.959  1.00  0.00    -0.744 OA
ENDBRANCH  85  88
ENDBRANCH  57  81
BRANCH  69  92
ATOM     92  C   UNL A   1      46.449  27.595  35.236  1.00  0.00     0.023 A 
ATOM     93  C   UNL A   1      47.671  28.286  35.117  1.00  0.00     0.012 A 
ATOM     94  C   UNL A   1      46.227  26.761  36.351  1.00  0.00     0.148 A 
ATOM     95  C   UNL A   1      48.655  28.150  36.095  1.00  0.00     0.002 A 
ATOM     96  C   UNL A   1      47.200  26.657  37.338  1.00  0.00     0.091 A 
ATOM     97  F   UNL A   1      45.054  26.116  36.439  1.00  0.00    -0.205 F 
ATOM     98  C   UNL A   1      48.416  27.348  37.210  1.00  0.00     0.022 A 
BRANCH  96  99
ATOM     99  S   UNL A   1      46.957  25.710  38.845  1.00  0.00     0.127 S 
ATOM    100  O   UNL A   1      48.221  25.936  39.545  1.00  0.00    -0.237 OA
ATOM    101  O   UNL A   1      45.800  26.374  39.445  1.00  0.00    -0.237 OA
ATOM    102  O   UNL A   1      46.722  24.334  38.427  1.00  0.00    -0.744 OA
ENDBRANCH  96  99
ENDBRANCH  69  92
ENDBRANCH  43  44
ENDBRANCH  36  38
ENDBRANCH  35  36
ENDBRANCH  34  35
ENDBRANCH  33  34
ENDBRANCH  32  33
ENDBRANCH   1  32
TORSDOF 23
ENDMDL
