MODEL 1
REMARK VINA RESULT:     -10.6      0.000      0.000
REMARK SMILES CCOc1cc(N2CCC[C@@H](C(=O)OCCOCCOC(=O)c3ccc(-c4c5nc(c(-c6cccc(S(=O)(=O)[O-])c6F)c6ccc([nH]6)c(-c6cccc(S(=O)(=O)[O-])c6F)c6nc(c(-c7cccc(S(=O)(=O)[O-])c7F)c7ccc4[nH]7)C=C6)C=C5)cc3)C2)nc(SC)n1
REMARK SMILES IDX 17 1 16 2 15 3 14 4 12 5 13 6 11 7 7 8 8 9 86 10 9 11 10 12
REMARK SMILES IDX 6 13 4 14 5 15 91 16 88 17 87 18 3 19 2 20 1 21 89 22 90 23
REMARK SMILES IDX 18 24 19 25 20 26 21 27 22 28 23 29 24 30 85 31 25 32 84 33
REMARK SMILES IDX 26 34 27 35 28 36 78 37 29 38 83 39 77 40 79 41 30 42 82 43
REMARK SMILES IDX 76 44 75 45 31 47 63 48 43 49 62 50 44 51 47 52 61 53 80 54
REMARK SMILES IDX 45 55 46 56 60 58 81 59 48 60 32 61 33 62 41 63 34 64 36 65
REMARK SMILES IDX 42 66 35 67 37 68 38 69 39 70 40 71 64 72 65 73 73 74 66 75
REMARK SMILES IDX 68 76 74 77 67 78 69 79 70 80 71 81 72 82 49 83 50 84 58 85
REMARK SMILES IDX 51 86 53 87 59 88 52 89 54 90 55 91 56 92 57 93
REMARK H PARENT 79 46 47 57
REMARK Flexibility Score: inf
ROOT
ATOM      1  O   UNL A   1      35.130  34.579  30.751  1.00  0.00    -0.374 OA
ENDROOT
BRANCH   1   2
ATOM      2  C   UNL A   1      33.929  34.981  30.095  1.00  0.00     0.202 C 
BRANCH   2   3
ATOM      3  C   UNL A   1      33.711  34.461  28.671  1.00  0.00     0.261 C 
BRANCH   3   4
ATOM      4  O   UNL A   1      33.831  33.029  28.604  1.00  0.00    -0.463 OA
BRANCH   4   5
ATOM      5  C   UNL A   1      32.953  32.411  27.774  1.00  0.00     0.310 C 
ATOM      6  O   UNL A   1      32.036  32.975  27.186  1.00  0.00    -0.252 OA
BRANCH   5   7
ATOM      7  C   UNL A   1      33.269  30.946  27.553  1.00  0.00     0.118 C 
ATOM      8  N   UNL A   1      33.276  28.979  26.115  1.00  0.00    -0.356 N 
ATOM      9  C   UNL A   1      34.708  28.741  26.259  1.00  0.00     0.118 C 
ATOM     10  C   UNL A   1      32.809  30.363  26.207  1.00  0.00     0.133 C 
ATOM     11  C   UNL A   1      35.169  29.278  27.606  1.00  0.00     0.022 C 
ATOM     12  C   UNL A   1      34.778  30.742  27.763  1.00  0.00     0.019 C 
BRANCH   8  13
ATOM     13  C   UNL A   1      32.493  27.914  25.737  1.00  0.00     0.137 A 
ATOM     14  C   UNL A   1      31.784  25.696  25.868  1.00  0.00     0.219 A 
ATOM     15  C   UNL A   1      32.724  26.643  26.199  1.00  0.00     0.115 A 
ATOM     16  N   UNL A   1      30.751  25.903  25.043  1.00  0.00    -0.187 NA
ATOM     17  C   UNL A   1      30.650  27.149  24.576  1.00  0.00     0.192 A 
ATOM     18  N   UNL A   1      31.454  28.168  24.921  1.00  0.00    -0.205 NA
BRANCH  14  19
ATOM     19  O   UNL A   1      31.914  24.426  26.374  1.00  0.00    -0.478 OA
BRANCH  19  20
ATOM     20  C   UNL A   1      30.625  23.855  26.639  1.00  0.00     0.228 C 
ATOM     21  C   UNL A   1      30.563  22.429  26.108  1.00  0.00     0.049 C 
ENDBRANCH  19  20
ENDBRANCH  14  19
BRANCH  17  22
ATOM     22  S   UNL A   1      29.351  27.471  23.402  1.00  0.00    -0.089 SA
ATOM     23  C   UNL A   1      30.187  28.681  22.345  1.00  0.00     0.094 C 
ENDBRANCH  17  22
ENDBRANCH   8  13
ENDBRANCH   5   7
ENDBRANCH   4   5
ENDBRANCH   3   4
ENDBRANCH   2   3
ENDBRANCH   1   2
BRANCH   1  24
ATOM     24  C   UNL A   1      35.222  34.775  32.162  1.00  0.00     0.202 C 
BRANCH  24  25
ATOM     25  C   UNL A   1      34.493  33.773  33.067  1.00  0.00     0.261 C 
BRANCH  25  26
ATOM     26  O   UNL A   1      34.983  32.429  32.920  1.00  0.00    -0.460 OA
BRANCH  26  27
ATOM     27  C   UNL A   1      36.207  32.216  33.460  1.00  0.00     0.338 C 
ATOM     28  O   UNL A   1      36.558  32.467  34.608  1.00  0.00    -0.246 OA
BRANCH  27  29
ATOM     29  C   UNL A   1      37.060  31.450  32.535  1.00  0.00     0.060 A 
ATOM     30  C   UNL A   1      38.146  30.757  33.087  1.00  0.00     0.016 A 
ATOM     31  C   UNL A   1      36.867  31.480  31.152  1.00  0.00     0.016 A 
ATOM     32  C   UNL A   1      39.078  30.142  32.254  1.00  0.00     0.010 A 
ATOM     33  C   UNL A   1      37.808  30.865  30.317  1.00  0.00     0.010 A 
ATOM     34  C   UNL A   1      38.940  30.231  30.863  1.00  0.00    -0.014 A 
BRANCH  34  35
ATOM     35  C   UNL A   1      40.058  29.780  29.999  1.00  0.00     0.031 A 
ATOM     36  C   UNL A   1      41.259  30.671  29.825  1.00  0.00     0.074 A 
ATOM     37  C   UNL A   1      40.022  28.573  29.406  1.00  0.00     0.049 A 
ATOM     38  N   UNL A   1      42.364  30.448  29.161  1.00  0.00    -0.248 NA
ATOM     39  C   UNL A   1      41.210  31.985  30.485  1.00  0.00     0.031 C 
ATOM     40  C   UNL A   1      38.914  27.624  29.493  1.00  0.00     0.029 A 
ATOM     41  N   UNL A   1      40.942  27.946  28.603  1.00  0.00    -0.354 N 
ATOM     42  C   UNL A   1      43.132  31.598  29.305  1.00  0.00     0.074 A 
ATOM     43  C   UNL A   1      42.358  32.525  30.102  1.00  0.00     0.031 C 
ATOM     44  C   UNL A   1      39.211  26.539  28.755  1.00  0.00     0.029 A 
ATOM     45  C   UNL A   1      40.522  26.723  28.137  1.00  0.00     0.049 A 
ATOM     46  H   UNL A   1      41.819  28.336  28.382  1.00  0.00     0.167 HD
ATOM     47  C   UNL A   1      44.376  31.852  28.836  1.00  0.00     0.034 A 
ATOM     48  C   UNL A   1      41.127  25.853  27.302  1.00  0.00     0.034 A 
ATOM     49  C   UNL A   1      45.155  30.921  28.064  1.00  0.00     0.049 A 
ATOM     50  C   UNL A   1      42.512  26.159  26.797  1.00  0.00     0.074 A 
ATOM     51  C   UNL A   1      46.443  31.070  27.579  1.00  0.00     0.029 A 
ATOM     52  N   UNL A   1      44.717  29.671  27.655  1.00  0.00    -0.354 N 
ATOM     53  N   UNL A   1      43.274  27.196  27.049  1.00  0.00    -0.248 NA
ATOM     54  C   UNL A   1      43.139  25.153  25.925  1.00  0.00     0.031 C 
ATOM     55  C   UNL A   1      46.778  29.916  26.863  1.00  0.00     0.029 A 
ATOM     56  C   UNL A   1      45.707  29.039  26.921  1.00  0.00     0.049 A 
ATOM     57  H   UNL A   1      43.834  29.289  27.858  1.00  0.00     0.167 HD
ATOM     58  C   UNL A   1      44.483  26.948  26.406  1.00  0.00     0.074 A 
ATOM     59  C   UNL A   1      44.357  25.655  25.765  1.00  0.00     0.031 C 
ATOM     60  C   UNL A   1      45.592  27.726  26.342  1.00  0.00     0.034 A 
BRANCH  47  61
ATOM     61  C   UNL A   1      44.992  33.184  29.174  1.00  0.00     0.023 A 
ATOM     62  C   UNL A   1      45.738  33.322  30.364  1.00  0.00     0.012 A 
ATOM     63  C   UNL A   1      44.885  34.278  28.295  1.00  0.00     0.148 A 
ATOM     64  C   UNL A   1      46.342  34.537  30.686  1.00  0.00     0.002 A 
ATOM     65  C   UNL A   1      45.525  35.473  28.601  1.00  0.00     0.091 A 
ATOM     66  F   UNL A   1      44.152  34.134  27.181  1.00  0.00    -0.205 F 
ATOM     67  C   UNL A   1      46.244  35.607  29.801  1.00  0.00     0.022 A 
BRANCH  65  68
ATOM     68  S   UNL A   1      45.522  36.883  27.489  1.00  0.00     0.127 S 
ATOM     69  O   UNL A   1      46.140  36.316  26.291  1.00  0.00    -0.237 OA
ATOM     70  O   UNL A   1      44.094  37.173  27.361  1.00  0.00    -0.237 OA
ATOM     71  O   UNL A   1      46.293  37.922  28.159  1.00  0.00    -0.744 OA
ENDBRANCH  65  68
ENDBRANCH  47  61
BRANCH  48  72
ATOM     72  C   UNL A   1      40.445  24.579  26.939  1.00  0.00     0.023 A 
ATOM     73  C   UNL A   1      39.212  24.617  26.261  1.00  0.00     0.012 A 
ATOM     74  C   UNL A   1      41.024  23.331  27.242  1.00  0.00     0.148 A 
ATOM     75  C   UNL A   1      38.552  23.437  25.917  1.00  0.00     0.002 A 
ATOM     76  C   UNL A   1      40.390  22.159  26.847  1.00  0.00     0.091 A 
ATOM     77  F   UNL A   1      42.189  23.315  27.905  1.00  0.00    -0.205 F 
ATOM     78  C   UNL A   1      39.146  22.209  26.200  1.00  0.00     0.022 A 
BRANCH  76  79
ATOM     79  S   UNL A   1      41.148  20.544  27.050  1.00  0.00     0.127 S 
ATOM     80  O   UNL A   1      42.529  20.807  26.654  1.00  0.00    -0.237 OA
ATOM     81  O   UNL A   1      40.952  20.295  28.479  1.00  0.00    -0.237 OA
ATOM     82  O   UNL A   1      40.397  19.648  26.180  1.00  0.00    -0.744 OA
ENDBRANCH  76  79
ENDBRANCH  48  72
BRANCH  60  83
ATOM     83  C   UNL A   1      46.784  27.188  25.591  1.00  0.00     0.023 A 
ATOM     84  C   UNL A   1      47.563  26.159  26.154  1.00  0.00     0.012 A 
ATOM     85  C   UNL A   1      47.085  27.654  24.295  1.00  0.00     0.148 A 
ATOM     86  C   UNL A   1      48.646  25.627  25.454  1.00  0.00     0.002 A 
ATOM     87  C   UNL A   1      48.136  27.086  23.586  1.00  0.00     0.091 A 
ATOM     88  F   UNL A   1      46.345  28.648  23.783  1.00  0.00    -0.205 F 
ATOM     89  C   UNL A   1      48.925  26.081  24.168  1.00  0.00     0.022 A 
BRANCH  87  90
ATOM     90  S   UNL A   1      48.502  27.546  21.887  1.00  0.00     0.127 S 
ATOM     91  O   UNL A   1      49.621  28.471  22.064  1.00  0.00    -0.237 OA
ATOM     92  O   UNL A   1      48.863  26.262  21.285  1.00  0.00    -0.237 OA
ATOM     93  O   UNL A   1      47.276  28.132  21.363  1.00  0.00    -0.744 OA
ENDBRANCH  87  90
ENDBRANCH  60  83
ENDBRANCH  34  35
ENDBRANCH  27  29
ENDBRANCH  26  27
ENDBRANCH  25  26
ENDBRANCH  24  25
ENDBRANCH   1  24
TORSDOF 21
ENDMDL
MODEL 2
REMARK VINA RESULT:     -10.3      2.347      9.189
REMARK SMILES CCOc1cc(N2CCC[C@@H](C(=O)OCCOCCOC(=O)c3ccc(-c4c5nc(c(-c6cccc(S(=O)(=O)[O-])c6F)c6ccc([nH]6)c(-c6cccc(S(=O)(=O)[O-])c6F)c6nc(c(-c7cccc(S(=O)(=O)[O-])c7F)c7ccc4[nH]7)C=C6)C=C5)cc3)C2)nc(SC)n1
REMARK SMILES IDX 17 1 16 2 15 3 14 4 12 5 13 6 11 7 7 8 8 9 86 10 9 11 10 12
REMARK SMILES IDX 6 13 4 14 5 15 91 16 88 17 87 18 3 19 2 20 1 21 89 22 90 23
REMARK SMILES IDX 18 24 19 25 20 26 21 27 22 28 23 29 24 30 85 31 25 32 84 33
REMARK SMILES IDX 26 34 27 35 28 36 78 37 29 38 83 39 77 40 79 41 30 42 82 43
REMARK SMILES IDX 76 44 75 45 31 47 63 48 43 49 62 50 44 51 47 52 61 53 80 54
REMARK SMILES IDX 45 55 46 56 60 58 81 59 48 60 32 61 33 62 41 63 34 64 36 65
REMARK SMILES IDX 42 66 35 67 37 68 38 69 39 70 40 71 64 72 65 73 73 74 66 75
REMARK SMILES IDX 68 76 74 77 67 78 69 79 70 80 71 81 72 82 49 83 50 84 58 85
REMARK SMILES IDX 51 86 53 87 59 88 52 89 54 90 55 91 56 92 57 93
REMARK H PARENT 79 46 47 57
REMARK Flexibility Score: inf
ROOT
ATOM      1  O   UNL A   1      37.828  21.400  24.408  1.00  0.00    -0.374 OA
ENDROOT
BRANCH   1   2
ATOM      2  C   UNL A   1      36.753  22.337  24.354  1.00  0.00     0.202 C 
BRANCH   2   3
ATOM      3  C   UNL A   1      35.357  21.809  24.693  1.00  0.00     0.261 C 
BRANCH   3   4
ATOM      4  O   UNL A   1      34.417  22.079  23.639  1.00  0.00    -0.463 OA
BRANCH   4   5
ATOM      5  C   UNL A   1      33.109  21.968  23.985  1.00  0.00     0.310 C 
ATOM      6  O   UNL A   1      32.432  20.956  23.835  1.00  0.00    -0.252 OA
BRANCH   5   7
ATOM      7  C   UNL A   1      32.567  23.201  24.679  1.00  0.00     0.118 C 
ATOM      8  N   UNL A   1      31.124  25.164  24.678  1.00  0.00    -0.356 N 
ATOM      9  C   UNL A   1      30.430  24.792  25.906  1.00  0.00     0.118 C 
ATOM     10  C   UNL A   1      31.631  24.080  23.835  1.00  0.00     0.133 C 
ATOM     11  C   UNL A   1      31.361  23.954  26.770  1.00  0.00     0.022 C 
ATOM     12  C   UNL A   1      31.891  22.760  25.986  1.00  0.00     0.019 C 
BRANCH   8  13
ATOM     13  C   UNL A   1      31.104  26.490  24.318  1.00  0.00     0.137 A 
ATOM     14  C   UNL A   1      30.359  28.294  23.040  1.00  0.00     0.219 A 
ATOM     15  C   UNL A   1      30.428  26.932  23.207  1.00  0.00     0.115 A 
ATOM     16  N   UNL A   1      30.996  29.190  23.803  1.00  0.00    -0.187 NA
ATOM     17  C   UNL A   1      31.694  28.667  24.813  1.00  0.00     0.192 A 
ATOM     18  N   UNL A   1      31.741  27.361  25.122  1.00  0.00    -0.205 NA
BRANCH  14  19
ATOM     19  O   UNL A   1      29.623  28.798  21.996  1.00  0.00    -0.478 OA
BRANCH  19  20
ATOM     20  C   UNL A   1      28.718  29.811  22.459  1.00  0.00     0.228 C 
ATOM     21  C   UNL A   1      27.427  29.174  22.957  1.00  0.00     0.049 C 
ENDBRANCH  19  20
ENDBRANCH  14  19
BRANCH  17  22
ATOM     22  S   UNL A   1      32.640  29.796  25.814  1.00  0.00    -0.089 SA
ATOM     23  C   UNL A   1      32.845  28.786  27.303  1.00  0.00     0.094 C 
ENDBRANCH  17  22
ENDBRANCH   8  13
ENDBRANCH   5   7
ENDBRANCH   4   5
ENDBRANCH   3   4
ENDBRANCH   2   3
ENDBRANCH   1   2
BRANCH   1  24
ATOM     24  C   UNL A   1      38.303  20.996  25.691  1.00  0.00     0.202 C 
BRANCH  24  25
ATOM     25  C   UNL A   1      39.320  19.848  25.742  1.00  0.00     0.261 C 
BRANCH  25  26
ATOM     26  O   UNL A   1      40.306  20.021  26.775  1.00  0.00    -0.460 OA
BRANCH  26  27
ATOM     27  C   UNL A   1      41.429  20.667  26.376  1.00  0.00     0.338 C 
ATOM     28  O   UNL A   1      42.252  20.272  25.557  1.00  0.00    -0.246 OA
BRANCH  27  29
ATOM     29  C   UNL A   1      41.464  22.036  26.918  1.00  0.00     0.060 A 
ATOM     30  C   UNL A   1      41.199  23.086  26.029  1.00  0.00     0.016 A 
ATOM     31  C   UNL A   1      41.840  22.301  28.237  1.00  0.00     0.016 A 
ATOM     32  C   UNL A   1      41.367  24.407  26.438  1.00  0.00     0.010 A 
ATOM     33  C   UNL A   1      42.013  23.630  28.644  1.00  0.00     0.010 A 
ATOM     34  C   UNL A   1      41.819  24.686  27.734  1.00  0.00    -0.014 A 
BRANCH  34  35
ATOM     35  C   UNL A   1      42.218  26.074  28.073  1.00  0.00     0.031 A 
ATOM     36  C   UNL A   1      43.604  26.548  27.725  1.00  0.00     0.074 A 
ATOM     37  C   UNL A   1      41.342  26.917  28.651  1.00  0.00     0.049 A 
ATOM     38  N   UNL A   1      44.136  27.732  27.883  1.00  0.00    -0.248 NA
ATOM     39  C   UNL A   1      44.509  25.558  27.119  1.00  0.00     0.031 C 
ATOM     40  C   UNL A   1      39.976  26.576  29.042  1.00  0.00     0.029 A 
ATOM     41  N   UNL A   1      41.481  28.231  29.019  1.00  0.00    -0.354 N 
ATOM     42  C   UNL A   1      45.442  27.626  27.417  1.00  0.00     0.074 A 
ATOM     43  C   UNL A   1      45.628  26.257  26.989  1.00  0.00     0.031 C 
ATOM     44  C   UNL A   1      39.405  27.650  29.613  1.00  0.00     0.029 A 
ATOM     45  C   UNL A   1      40.368  28.749  29.638  1.00  0.00     0.049 A 
ATOM     46  H   UNL A   1      42.299  28.754  28.856  1.00  0.00     0.167 HD
ATOM     47  C   UNL A   1      46.393  28.586  27.332  1.00  0.00     0.034 A 
ATOM     48  C   UNL A   1      40.154  29.971  30.169  1.00  0.00     0.034 A 
ATOM     49  C   UNL A   1      46.201  29.953  27.735  1.00  0.00     0.049 A 
ATOM     50  C   UNL A   1      41.228  31.021  30.058  1.00  0.00     0.074 A 
ATOM     51  C   UNL A   1      47.091  31.010  27.647  1.00  0.00     0.029 A 
ATOM     52  N   UNL A   1      45.043  30.453  28.309  1.00  0.00    -0.354 N 
ATOM     53  N   UNL A   1      42.410  30.938  29.497  1.00  0.00    -0.248 NA
ATOM     54  C   UNL A   1      40.921  32.348  30.615  1.00  0.00     0.031 C 
ATOM     55  C   UNL A   1      46.476  32.146  28.185  1.00  0.00     0.029 A 
ATOM     56  C   UNL A   1      45.195  31.802  28.585  1.00  0.00     0.049 A 
ATOM     57  H   UNL A   1      44.232  29.928  28.492  1.00  0.00     0.167 HD
ATOM     58  C   UNL A   1      42.969  32.208  29.594  1.00  0.00     0.074 A 
ATOM     59  C   UNL A   1      41.989  33.046  30.254  1.00  0.00     0.031 C 
ATOM     60  C   UNL A   1      44.189  32.639  29.185  1.00  0.00     0.034 A 
BRANCH  47  61
ATOM     61  C   UNL A   1      47.726  28.198  26.747  1.00  0.00     0.023 A 
ATOM     62  C   UNL A   1      48.824  27.978  27.605  1.00  0.00     0.012 A 
ATOM     63  C   UNL A   1      47.880  27.995  25.362  1.00  0.00     0.148 A 
ATOM     64  C   UNL A   1      50.060  27.591  27.091  1.00  0.00     0.002 A 
ATOM     65  C   UNL A   1      49.103  27.567  24.861  1.00  0.00     0.091 A 
ATOM     66  F   UNL A   1      46.831  28.232  24.561  1.00  0.00    -0.205 F 
ATOM     67  C   UNL A   1      50.197  27.376  25.721  1.00  0.00     0.022 A 
BRANCH  65  68
ATOM     68  S   UNL A   1      49.357  27.189  23.123  1.00  0.00     0.127 S 
ATOM     69  O   UNL A   1      50.776  26.836  23.102  1.00  0.00    -0.237 OA
ATOM     70  O   UNL A   1      48.445  26.064  22.916  1.00  0.00    -0.237 OA
ATOM     71  O   UNL A   1      49.001  28.399  22.395  1.00  0.00    -0.744 OA
ENDBRANCH  65  68
ENDBRANCH  47  61
BRANCH  48  72
ATOM     72  C   UNL A   1      38.842  30.283  30.802  1.00  0.00     0.023 A 
ATOM     73  C   UNL A   1      38.554  29.792  32.090  1.00  0.00     0.012 A 
ATOM     74  C   UNL A   1      37.888  31.085  30.144  1.00  0.00     0.148 A 
ATOM     75  C   UNL A   1      37.330  30.066  32.699  1.00  0.00     0.002 A 
ATOM     76  C   UNL A   1      36.694  31.403  30.779  1.00  0.00     0.091 A 
ATOM     77  F   UNL A   1      38.172  31.529  28.912  1.00  0.00    -0.205 F 
ATOM     78  C   UNL A   1      36.405  30.880  32.049  1.00  0.00     0.022 A 
BRANCH  76  79
ATOM     79  S   UNL A   1      35.508  32.551  30.072  1.00  0.00     0.127 S 
ATOM     80  O   UNL A   1      36.204  33.827  30.213  1.00  0.00    -0.237 OA
ATOM     81  O   UNL A   1      35.392  32.059  28.699  1.00  0.00    -0.237 OA
ATOM     82  O   UNL A   1      34.295  32.397  30.865  1.00  0.00    -0.744 OA
ENDBRANCH  76  79
ENDBRANCH  48  72
BRANCH  60  83
ATOM     83  C   UNL A   1      44.525  34.094  29.393  1.00  0.00     0.023 A 
ATOM     84  C   UNL A   1      45.206  34.499  30.557  1.00  0.00     0.012 A 
ATOM     85  C   UNL A   1      44.228  35.048  28.399  1.00  0.00     0.148 A 
ATOM     86  C   UNL A   1      45.555  35.836  30.745  1.00  0.00     0.002 A 
ATOM     87  C   UNL A   1      44.622  36.369  28.572  1.00  0.00     0.091 A 
ATOM     88  F   UNL A   1      43.561  34.648  27.306  1.00  0.00    -0.205 F 
ATOM     89  C   UNL A   1      45.274  36.768  29.749  1.00  0.00     0.022 A 
BRANCH  87  90
ATOM     90  S   UNL A   1      44.383  37.613  27.296  1.00  0.00     0.127 S 
ATOM     91  O   UNL A   1      43.177  37.127  26.628  1.00  0.00    -0.237 OA
ATOM     92  O   UNL A   1      44.197  38.835  28.079  1.00  0.00    -0.237 OA
ATOM     93  O   UNL A   1      45.599  37.594  26.493  1.00  0.00    -0.744 OA
ENDBRANCH  87  90
ENDBRANCH  60  83
ENDBRANCH  34  35
ENDBRANCH  27  29
ENDBRANCH  26  27
ENDBRANCH  25  26
ENDBRANCH  24  25
ENDBRANCH   1  24
TORSDOF 21
ENDMDL
MODEL 3
REMARK VINA RESULT:     -10.3      5.311      8.283
REMARK SMILES CCOc1cc(N2CCC[C@@H](C(=O)OCCOCCOC(=O)c3ccc(-c4c5nc(c(-c6cccc(S(=O)(=O)[O-])c6F)c6ccc([nH]6)c(-c6cccc(S(=O)(=O)[O-])c6F)c6nc(c(-c7cccc(S(=O)(=O)[O-])c7F)c7ccc4[nH]7)C=C6)C=C5)cc3)C2)nc(SC)n1
REMARK SMILES IDX 17 1 16 2 15 3 14 4 12 5 13 6 11 7 7 8 8 9 86 10 9 11 10 12
REMARK SMILES IDX 6 13 4 14 5 15 91 16 88 17 87 18 3 19 2 20 1 21 89 22 90 23
REMARK SMILES IDX 18 24 19 25 20 26 21 27 22 28 23 29 24 30 85 31 25 32 84 33
REMARK SMILES IDX 26 34 27 35 28 36 78 37 29 38 83 39 77 40 79 41 30 42 82 43
REMARK SMILES IDX 76 44 75 45 31 47 63 48 43 49 62 50 44 51 47 52 61 53 80 54
REMARK SMILES IDX 45 55 46 56 60 58 81 59 48 60 32 61 33 62 41 63 34 64 36 65
REMARK SMILES IDX 42 66 35 67 37 68 38 69 39 70 40 71 64 72 65 73 73 74 66 75
REMARK SMILES IDX 68 76 74 77 67 78 69 79 70 80 71 81 72 82 49 83 50 84 58 85
REMARK SMILES IDX 51 86 53 87 59 88 52 89 54 90 55 91 56 92 57 93
REMARK H PARENT 79 46 47 57
REMARK Flexibility Score: inf
ROOT
ATOM      1  O   UNL A   1      32.786  30.633  25.783  1.00  0.00    -0.374 OA
ENDROOT
BRANCH   1   2
ATOM      2  C   UNL A   1      32.842  29.219  25.600  1.00  0.00     0.202 C 
BRANCH   2   3
ATOM      3  C   UNL A   1      33.002  28.713  24.164  1.00  0.00     0.261 C 
BRANCH   3   4
ATOM      4  O   UNL A   1      33.555  27.386  24.127  1.00  0.00    -0.463 OA
BRANCH   4   5
ATOM      5  C   UNL A   1      33.431  26.738  22.941  1.00  0.00     0.310 C 
ATOM      6  O   UNL A   1      33.683  27.232  21.847  1.00  0.00    -0.252 OA
BRANCH   5   7
ATOM      7  C   UNL A   1      33.036  25.283  23.093  1.00  0.00     0.118 C 
ATOM      8  N   UNL A   1      33.062  23.208  24.371  1.00  0.00    -0.356 N 
ATOM      9  C   UNL A   1      31.609  23.077  24.399  1.00  0.00     0.118 C 
ATOM     10  C   UNL A   1      33.617  24.562  24.320  1.00  0.00     0.133 C 
ATOM     11  C   UNL A   1      31.024  23.752  23.168  1.00  0.00     0.022 C 
ATOM     12  C   UNL A   1      31.502  25.196  23.068  1.00  0.00     0.019 C 
BRANCH   8  13
ATOM     13  C   UNL A   1      33.803  22.067  24.563  1.00  0.00     0.137 A 
ATOM     14  C   UNL A   1      34.084  19.753  24.663  1.00  0.00     0.219 A 
ATOM     15  C   UNL A   1      33.223  20.824  24.619  1.00  0.00     0.115 A 
ATOM     16  N   UNL A   1      35.414  19.848  24.777  1.00  0.00    -0.187 NA
ATOM     17  C   UNL A   1      35.886  21.096  24.796  1.00  0.00     0.192 A 
ATOM     18  N   UNL A   1      35.139  22.203  24.654  1.00  0.00    -0.205 NA
BRANCH  14  19
ATOM     19  O   UNL A   1      33.565  18.482  24.632  1.00  0.00    -0.478 OA
BRANCH  19  20
ATOM     20  C   UNL A   1      34.574  17.535  24.255  1.00  0.00     0.228 C 
ATOM     21  C   UNL A   1      34.026  16.571  23.212  1.00  0.00     0.049 C 
ENDBRANCH  19  20
ENDBRANCH  14  19
BRANCH  17  22
ATOM     22  S   UNL A   1      37.639  21.296  25.037  1.00  0.00    -0.089 SA
ATOM     23  C   UNL A   1      38.153  19.560  24.997  1.00  0.00     0.094 C 
ENDBRANCH  17  22
ENDBRANCH   8  13
ENDBRANCH   5   7
ENDBRANCH   4   5
ENDBRANCH   3   4
ENDBRANCH   2   3
ENDBRANCH   1   2
BRANCH   1  24
ATOM     24  C   UNL A   1      32.774  31.137  27.118  1.00  0.00     0.202 C 
BRANCH  24  25
ATOM     25  C   UNL A   1      32.244  32.560  27.334  1.00  0.00     0.261 C 
BRANCH  25  26
ATOM     26  O   UNL A   1      33.292  33.544  27.391  1.00  0.00    -0.460 OA
BRANCH  26  27
ATOM     27  C   UNL A   1      33.359  34.226  28.560  1.00  0.00     0.338 C 
ATOM     28  O   UNL A   1      32.538  35.031  28.989  1.00  0.00    -0.246 OA
BRANCH  27  29
ATOM     29  C   UNL A   1      34.480  33.743  29.384  1.00  0.00     0.060 A 
ATOM     30  C   UNL A   1      35.761  34.212  29.063  1.00  0.00     0.016 A 
ATOM     31  C   UNL A   1      34.306  32.782  30.383  1.00  0.00     0.016 A 
ATOM     32  C   UNL A   1      36.879  33.678  29.699  1.00  0.00     0.010 A 
ATOM     33  C   UNL A   1      35.432  32.244  31.017  1.00  0.00     0.010 A 
ATOM     34  C   UNL A   1      36.726  32.659  30.647  1.00  0.00    -0.014 A 
BRANCH  34  35
ATOM     35  C   UNL A   1      37.930  31.942  31.134  1.00  0.00     0.031 A 
ATOM     36  C   UNL A   1      38.487  32.278  32.491  1.00  0.00     0.074 A 
ATOM     37  C   UNL A   1      38.500  30.975  30.391  1.00  0.00     0.049 A 
ATOM     38  N   UNL A   1      39.494  31.738  33.129  1.00  0.00    -0.248 NA
ATOM     39  C   UNL A   1      37.823  33.365  33.229  1.00  0.00     0.031 C 
ATOM     40  C   UNL A   1      38.058  30.564  29.061  1.00  0.00     0.029 A 
ATOM     41  N   UNL A   1      39.582  30.173  30.651  1.00  0.00    -0.354 N 
ATOM     42  C   UNL A   1      39.598  32.430  34.330  1.00  0.00     0.074 A 
ATOM     43  C   UNL A   1      38.565  33.442  34.325  1.00  0.00     0.031 C 
ATOM     44  C   UNL A   1      38.875  29.596  28.610  1.00  0.00     0.029 A 
ATOM     45  C   UNL A   1      39.902  29.328  29.616  1.00  0.00     0.049 A 
ATOM     46  H   UNL A   1      40.083  30.201  31.499  1.00  0.00     0.167 HD
ATOM     47  C   UNL A   1      40.460  32.227  35.354  1.00  0.00     0.034 A 
ATOM     48  C   UNL A   1      40.912  28.442  29.492  1.00  0.00     0.034 A 
ATOM     49  C   UNL A   1      41.472  31.205  35.369  1.00  0.00     0.049 A 
ATOM     50  C   UNL A   1      41.855  28.234  30.647  1.00  0.00     0.074 A 
ATOM     51  C   UNL A   1      42.365  30.893  36.379  1.00  0.00     0.029 A 
ATOM     52  N   UNL A   1      41.731  30.333  34.323  1.00  0.00    -0.354 N 
ATOM     53  N   UNL A   1      41.858  28.809  31.826  1.00  0.00    -0.248 NA
ATOM     54  C   UNL A   1      42.909  27.223  30.471  1.00  0.00     0.031 C 
ATOM     55  C   UNL A   1      43.177  29.842  35.937  1.00  0.00     0.029 A 
ATOM     56  C   UNL A   1      42.773  29.485  34.661  1.00  0.00     0.049 A 
ATOM     57  H   UNL A   1      41.246  30.318  33.468  1.00  0.00     0.167 HD
ATOM     58  C   UNL A   1      42.881  28.200  32.546  1.00  0.00     0.074 A 
ATOM     59  C   UNL A   1      43.467  27.202  31.675  1.00  0.00     0.031 C 
ATOM     60  C   UNL A   1      43.306  28.454  33.809  1.00  0.00     0.034 A 
BRANCH  47  61
ATOM     61  C   UNL A   1      40.325  33.111  36.566  1.00  0.00     0.023 A 
ATOM     62  C   UNL A   1      41.034  34.330  36.619  1.00  0.00     0.012 A 
ATOM     63  C   UNL A   1      39.458  32.770  37.621  1.00  0.00     0.148 A 
ATOM     64  C   UNL A   1      40.904  35.179  37.716  1.00  0.00     0.002 A 
ATOM     65  C   UNL A   1      39.301  33.641  38.692  1.00  0.00     0.091 A 
ATOM     66  F   UNL A   1      38.812  31.596  37.563  1.00  0.00    -0.205 F 
ATOM     67  C   UNL A   1      40.030  34.840  38.747  1.00  0.00     0.022 A 
BRANCH  65  68
ATOM     68  S   UNL A   1      38.143  33.329  40.029  1.00  0.00     0.127 S 
ATOM     69  O   UNL A   1      38.745  32.163  40.675  1.00  0.00    -0.237 OA
ATOM     70  O   UNL A   1      38.225  34.567  40.805  1.00  0.00    -0.237 OA
ATOM     71  O   UNL A   1      36.853  33.097  39.394  1.00  0.00    -0.744 OA
ENDBRANCH  65  68
ENDBRANCH  47  61
BRANCH  48  72
ATOM     72  C   UNL A   1      41.045  27.641  28.242  1.00  0.00     0.023 A 
ATOM     73  C   UNL A   1      41.760  28.168  27.149  1.00  0.00     0.012 A 
ATOM     74  C   UNL A   1      40.488  26.352  28.141  1.00  0.00     0.148 A 
ATOM     75  C   UNL A   1      41.892  27.439  25.968  1.00  0.00     0.002 A 
ATOM     76  C   UNL A   1      40.672  25.607  26.982  1.00  0.00     0.091 A 
ATOM     77  F   UNL A   1      39.796  25.874  29.185  1.00  0.00    -0.205 F 
ATOM     78  C   UNL A   1      41.358  26.155  25.887  1.00  0.00     0.022 A 
BRANCH  76  79
ATOM     79  S   UNL A   1      40.136  23.898  26.846  1.00  0.00     0.127 S 
ATOM     80  O   UNL A   1      40.843  23.455  25.647  1.00  0.00    -0.237 OA
ATOM     81  O   UNL A   1      40.627  23.326  28.100  1.00  0.00    -0.237 OA
ATOM     82  O   UNL A   1      38.682  23.952  26.744  1.00  0.00    -0.744 OA
ENDBRANCH  76  79
ENDBRANCH  48  72
BRANCH  60  83
ATOM     83  C   UNL A   1      44.431  27.610  34.353  1.00  0.00     0.023 A 
ATOM     84  C   UNL A   1      45.766  28.013  34.164  1.00  0.00     0.012 A 
ATOM     85  C   UNL A   1      44.158  26.456  35.114  1.00  0.00     0.148 A 
ATOM     86  C   UNL A   1      46.815  27.262  34.693  1.00  0.00     0.002 A 
ATOM     87  C   UNL A   1      45.206  25.739  35.679  1.00  0.00     0.091 A 
ATOM     88  F   UNL A   1      42.881  26.076  35.267  1.00  0.00    -0.205 F 
ATOM     89  C   UNL A   1      46.536  26.133  35.460  1.00  0.00     0.022 A 
BRANCH  87  90
ATOM     90  S   UNL A   1      44.928  24.329  36.759  1.00  0.00     0.127 S 
ATOM     91  O   UNL A   1      44.251  23.396  35.860  1.00  0.00    -0.237 OA
ATOM     92  O   UNL A   1      46.291  23.942  37.126  1.00  0.00    -0.237 OA
ATOM     93  O   UNL A   1      44.127  24.831  37.867  1.00  0.00    -0.744 OA
ENDBRANCH  87  90
ENDBRANCH  60  83
ENDBRANCH  34  35
ENDBRANCH  27  29
ENDBRANCH  26  27
ENDBRANCH  25  26
ENDBRANCH  24  25
ENDBRANCH   1  24
TORSDOF 21
ENDMDL
