MODEL 1
REMARK VINA RESULT:     -11.7      0.000      0.000
REMARK SMILES CCCC(=O)Nc1cccc(C(=O)N[C@@H](C(=O)OCCOCCOC(=O)c2ccc(-c3c4nc(c(-c5cccc(S(=O)(=O)[O-])c5F)c5ccc([nH]5)c(-c5cccc(S(=O)(=O)[O-])c5F)c5nc(c(-c6cccc(S(=O)(=O)[O-])c6F)c6ccc3[nH]6)C=C5)C=C4)cc2)c2c(C)n[nH]c2C)c1
REMARK SMILES IDX 20 1 19 2 18 3 16 4 17 5 15 6 14 7 12 8 13 9 11 11 7 12 8 13
REMARK SMILES IDX 97 14 9 15 10 16 6 17 4 18 5 19 3 21 2 22 1 23 90 24 91 25
REMARK SMILES IDX 95 26 92 27 93 28 94 29 96 30 21 32 22 33 23 34 24 35 25 36
REMARK SMILES IDX 26 37 27 38 28 39 89 40 29 41 88 42 30 43 31 44 32 45 82 46
REMARK SMILES IDX 33 47 87 48 81 49 83 50 34 51 86 52 80 53 79 54 35 56 67 57
REMARK SMILES IDX 47 58 66 59 48 60 51 61 65 62 84 63 49 64 50 65 64 67 85 68
REMARK SMILES IDX 52 69 36 70 37 71 45 72 38 73 40 74 46 75 39 76 41 77 42 78
REMARK SMILES IDX 43 79 44 80 68 81 69 82 77 83 70 84 72 85 78 86 71 87 73 88
REMARK SMILES IDX 74 89 75 90 76 91 53 92 54 93 62 94 55 95 57 96 63 97 56 98
REMARK SMILES IDX 58 99 59 100 60 101 61 102
REMARK H PARENT 14 10 6 20 94 31 83 55 51 66
REMARK Flexibility Score: inf
ROOT
ATOM      1  C   UNL A   1      35.923  21.942  25.142  1.00  0.00     0.202 C 
ENDROOT
BRANCH   1   2
ATOM      2  C   UNL A   1      35.711  23.435  24.854  1.00  0.00     0.261 C 
BRANCH   2   3
ATOM      3  O   UNL A   1      34.960  24.094  25.880  1.00  0.00    -0.461 OA
BRANCH   3   4
ATOM      4  C   UNL A   1      33.660  23.694  26.003  1.00  0.00     0.333 C 
ATOM      5  O   UNL A   1      33.281  22.846  26.802  1.00  0.00    -0.249 OA
BRANCH   4   6
ATOM      6  C   UNL A   1      32.709  24.470  25.063  1.00  0.00     0.227 C 
BRANCH   6   7
ATOM      7  N   UNL A   1      31.364  24.560  25.625  1.00  0.00    -0.335 N 
ATOM      8  C   UNL A   1      30.621  25.659  25.993  1.00  0.00     0.252 C 
ATOM      9  O   UNL A   1      29.496  25.455  26.446  1.00  0.00    -0.269 OA
ATOM     10  H   UNL A   1      30.917  23.693  25.765  1.00  0.00     0.165 HD
BRANCH   8  11
ATOM     11  C   UNL A   1      31.076  27.070  25.768  1.00  0.00     0.041 A 
ATOM     12  C   UNL A   1      31.252  29.098  24.438  1.00  0.00     0.041 A 
ATOM     13  C   UNL A   1      31.695  29.815  25.541  1.00  0.00     0.026 A 
ATOM     14  C   UNL A   1      31.062  27.717  24.528  1.00  0.00     0.040 A 
ATOM     15  C   UNL A   1      31.846  29.158  26.763  1.00  0.00     0.003 A 
ATOM     16  C   UNL A   1      31.510  27.802  26.883  1.00  0.00     0.014 A 
BRANCH  12  17
ATOM     17  N   UNL A   1      31.074  29.737  23.202  1.00  0.00    -0.326 N 
ATOM     18  C   UNL A   1      29.870  29.831  22.541  1.00  0.00     0.224 C 
ATOM     19  O   UNL A   1      29.829  29.682  21.319  1.00  0.00    -0.275 OA
ATOM     20  H   UNL A   1      31.863  30.145  22.779  1.00  0.00     0.169 HD
BRANCH  18  21
ATOM     21  C   UNL A   1      28.631  30.274  23.319  1.00  0.00     0.100 C 
BRANCH  21  22
ATOM     22  C   UNL A   1      27.356  29.470  23.100  1.00  0.00     0.006 C 
ATOM     23  C   UNL A   1      27.479  28.026  23.570  1.00  0.00     0.004 C 
ENDBRANCH  21  22
ENDBRANCH  18  21
ENDBRANCH  12  17
ENDBRANCH   8  11
ENDBRANCH   6   7
BRANCH   6  24
ATOM     24  C   UNL A   1      32.695  23.992  23.617  1.00  0.00     0.029 A 
ATOM     25  C   UNL A   1      32.558  22.640  23.128  1.00  0.00     0.065 A 
ATOM     26  C   UNL A   1      32.986  24.714  22.459  1.00  0.00     0.038 A 
ATOM     27  C   UNL A   1      32.329  21.362  23.856  1.00  0.00     0.069 C 
ATOM     28  N   UNL A   1      32.704  22.570  21.800  1.00  0.00    -0.180 NA
ATOM     29  N   UNL A   1      32.980  23.817  21.430  1.00  0.00    -0.282 N 
ATOM     30  C   UNL A   1      33.333  26.134  22.205  1.00  0.00     0.066 C 
ATOM     31  H   UNL A   1      33.164  24.071  20.496  1.00  0.00     0.190 HD
ENDBRANCH   6  24
ENDBRANCH   4   6
ENDBRANCH   3   4
ENDBRANCH   2   3
ENDBRANCH   1   2
BRANCH   1  32
ATOM     32  O   UNL A   1      37.239  21.410  25.050  1.00  0.00    -0.374 OA
BRANCH  32  33
ATOM     33  C   UNL A   1      37.403  20.012  24.816  1.00  0.00     0.202 C 
BRANCH  33  34
ATOM     34  C   UNL A   1      38.755  19.340  25.091  1.00  0.00     0.261 C 
BRANCH  34  35
ATOM     35  O   UNL A   1      39.316  19.685  26.370  1.00  0.00    -0.460 OA
BRANCH  35  36
ATOM     36  C   UNL A   1      40.587  20.144  26.322  1.00  0.00     0.338 C 
ATOM     37  O   UNL A   1      41.537  19.624  25.736  1.00  0.00    -0.246 OA
BRANCH  36  38
ATOM     38  C   UNL A   1      40.684  21.487  26.904  1.00  0.00     0.060 A 
ATOM     39  C   UNL A   1      40.057  22.540  26.223  1.00  0.00     0.016 A 
ATOM     40  C   UNL A   1      41.498  21.735  28.010  1.00  0.00     0.016 A 
ATOM     41  C   UNL A   1      40.281  23.856  26.615  1.00  0.00     0.010 A 
ATOM     42  C   UNL A   1      41.737  23.059  28.389  1.00  0.00     0.010 A 
ATOM     43  C   UNL A   1      41.166  24.122  27.666  1.00  0.00    -0.014 A 
BRANCH  43  44
ATOM     44  C   UNL A   1      41.638  25.508  27.877  1.00  0.00     0.031 A 
ATOM     45  C   UNL A   1      43.026  25.872  27.426  1.00  0.00     0.074 A 
ATOM     46  C   UNL A   1      40.842  26.428  28.448  1.00  0.00     0.049 A 
ATOM     47  N   UNL A   1      43.671  27.002  27.555  1.00  0.00    -0.248 NA
ATOM     48  C   UNL A   1      43.790  24.819  26.737  1.00  0.00     0.031 C 
ATOM     49  C   UNL A   1      39.472  26.192  28.896  1.00  0.00     0.029 A 
ATOM     50  N   UNL A   1      41.086  27.738  28.772  1.00  0.00    -0.354 N 
ATOM     51  C   UNL A   1      44.926  26.785  27.001  1.00  0.00     0.074 A 
ATOM     52  C   UNL A   1      44.955  25.417  26.535  1.00  0.00     0.031 C 
ATOM     53  C   UNL A   1      39.005  27.314  29.473  1.00  0.00     0.029 A 
ATOM     54  C   UNL A   1      40.056  28.329  29.461  1.00  0.00     0.049 A 
ATOM     55  H   UNL A   1      41.917  28.207  28.533  1.00  0.00     0.167 HD
ATOM     56  C   UNL A   1      45.959  27.652  26.883  1.00  0.00     0.034 A 
ATOM     57  C   UNL A   1      39.985  29.542  30.045  1.00  0.00     0.034 A 
ATOM     58  C   UNL A   1      45.916  29.016  27.335  1.00  0.00     0.049 A 
ATOM     59  C   UNL A   1      41.158  30.480  29.928  1.00  0.00     0.074 A 
ATOM     60  C   UNL A   1      46.892  29.991  27.228  1.00  0.00     0.029 A 
ATOM     61  N   UNL A   1      44.842  29.595  27.996  1.00  0.00    -0.354 N 
ATOM     62  N   UNL A   1      42.304  30.297  29.315  1.00  0.00    -0.248 NA
ATOM     63  C   UNL A   1      41.020  31.801  30.556  1.00  0.00     0.031 C 
ATOM     64  C   UNL A   1      46.419  31.150  27.853  1.00  0.00     0.029 A 
ATOM     65  C   UNL A   1      45.135  30.908  28.316  1.00  0.00     0.049 A 
ATOM     66  H   UNL A   1      43.995  29.137  28.206  1.00  0.00     0.167 HD
ATOM     67  C   UNL A   1      43.006  31.491  29.449  1.00  0.00     0.074 A 
ATOM     68  C   UNL A   1      42.148  32.394  30.191  1.00  0.00     0.031 C 
ATOM     69  C   UNL A   1      44.249  31.809  29.009  1.00  0.00     0.034 A 
BRANCH  56  70
ATOM     70  C   UNL A   1      47.222  27.149  26.235  1.00  0.00     0.023 A 
ATOM     71  C   UNL A   1      47.444  27.371  24.860  1.00  0.00     0.012 A 
ATOM     72  C   UNL A   1      48.206  26.487  26.994  1.00  0.00     0.148 A 
ATOM     73  C   UNL A   1      48.608  26.910  24.245  1.00  0.00     0.002 A 
ATOM     74  C   UNL A   1      49.384  26.072  26.384  1.00  0.00     0.091 A 
ATOM     75  F   UNL A   1      47.967  26.263  28.294  1.00  0.00    -0.205 F 
ATOM     76  C   UNL A   1      49.581  26.271  25.007  1.00  0.00     0.022 A 
BRANCH  74  77
ATOM     77  S   UNL A   1      50.730  25.310  27.298  1.00  0.00     0.127 S 
ATOM     78  O   UNL A   1      51.074  26.364  28.251  1.00  0.00    -0.237 OA
ATOM     79  O   UNL A   1      50.077  24.142  27.891  1.00  0.00    -0.237 OA
ATOM     80  O   UNL A   1      51.756  24.997  26.314  1.00  0.00    -0.744 OA
ENDBRANCH  74  77
ENDBRANCH  56  70
BRANCH  57  81
ATOM     81  C   UNL A   1      38.747  29.943  30.771  1.00  0.00     0.023 A 
ATOM     82  C   UNL A   1      38.576  29.565  32.116  1.00  0.00     0.012 A 
ATOM     83  C   UNL A   1      37.757  30.725  30.145  1.00  0.00     0.148 A 
ATOM     84  C   UNL A   1      37.427  29.936  32.817  1.00  0.00     0.002 A 
ATOM     85  C   UNL A   1      36.642  31.138  30.865  1.00  0.00     0.091 A 
ATOM     86  F   UNL A   1      37.933  31.063  28.859  1.00  0.00    -0.205 F 
ATOM     87  C   UNL A   1      36.467  30.730  32.196  1.00  0.00     0.022 A 
BRANCH  85  88
ATOM     88  S   UNL A   1      35.420  32.269  30.189  1.00  0.00     0.127 S 
ATOM     89  O   UNL A   1      34.924  31.519  29.036  1.00  0.00    -0.237 OA
ATOM     90  O   UNL A   1      34.475  32.388  31.299  1.00  0.00    -0.237 OA
ATOM     91  O   UNL A   1      36.142  33.495  29.880  1.00  0.00    -0.744 OA
ENDBRANCH  85  88
ENDBRANCH  57  81
BRANCH  69  92
ATOM     92  C   UNL A   1      44.748  33.206  29.271  1.00  0.00     0.023 A 
ATOM     93  C   UNL A   1      45.307  33.534  30.522  1.00  0.00     0.012 A 
ATOM     94  C   UNL A   1      44.741  34.171  28.244  1.00  0.00     0.148 A 
ATOM     95  C   UNL A   1      45.819  34.808  30.757  1.00  0.00     0.002 A 
ATOM     96  C   UNL A   1      45.300  35.423  28.469  1.00  0.00     0.091 A 
ATOM     97  F   UNL A   1      44.190  33.846  27.065  1.00  0.00    -0.205 F 
ATOM     98  C   UNL A   1      45.828  35.748  29.729  1.00  0.00     0.022 A 
BRANCH  96  99
ATOM     99  S   UNL A   1      45.446  36.660  27.174  1.00  0.00     0.127 S 
ATOM    100  O   UNL A   1      46.285  37.668  27.820  1.00  0.00    -0.237 OA
ATOM    101  O   UNL A   1      46.108  35.911  26.104  1.00  0.00    -0.237 OA
ATOM    102  O   UNL A   1      44.088  37.082  26.865  1.00  0.00    -0.744 OA
ENDBRANCH  96  99
ENDBRANCH  69  92
ENDBRANCH  43  44
ENDBRANCH  36  38
ENDBRANCH  35  36
ENDBRANCH  34  35
ENDBRANCH  33  34
ENDBRANCH  32  33
ENDBRANCH   1  32
TORSDOF 23
ENDMDL
MODEL 2
REMARK VINA RESULT:     -11.5      4.753     10.518
REMARK SMILES CCCC(=O)Nc1cccc(C(=O)N[C@@H](C(=O)OCCOCCOC(=O)c2ccc(-c3c4nc(c(-c5cccc(S(=O)(=O)[O-])c5F)c5ccc([nH]5)c(-c5cccc(S(=O)(=O)[O-])c5F)c5nc(c(-c6cccc(S(=O)(=O)[O-])c6F)c6ccc3[nH]6)C=C5)C=C4)cc2)c2c(C)n[nH]c2C)c1
REMARK SMILES IDX 20 1 19 2 18 3 16 4 17 5 15 6 14 7 12 8 13 9 11 11 7 12 8 13
REMARK SMILES IDX 97 14 9 15 10 16 6 17 4 18 5 19 3 21 2 22 1 23 90 24 91 25
REMARK SMILES IDX 95 26 92 27 93 28 94 29 96 30 21 32 22 33 23 34 24 35 25 36
REMARK SMILES IDX 26 37 27 38 28 39 89 40 29 41 88 42 30 43 31 44 32 45 82 46
REMARK SMILES IDX 33 47 87 48 81 49 83 50 34 51 86 52 80 53 79 54 35 56 67 57
REMARK SMILES IDX 47 58 66 59 48 60 51 61 65 62 84 63 49 64 50 65 64 67 85 68
REMARK SMILES IDX 52 69 36 70 37 71 45 72 38 73 40 74 46 75 39 76 41 77 42 78
REMARK SMILES IDX 43 79 44 80 68 81 69 82 77 83 70 84 72 85 78 86 71 87 73 88
REMARK SMILES IDX 74 89 75 90 76 91 53 92 54 93 62 94 55 95 57 96 63 97 56 98
REMARK SMILES IDX 58 99 59 100 60 101 61 102
REMARK H PARENT 14 10 6 20 94 31 83 55 51 66
REMARK Flexibility Score: inf
ROOT
ATOM      1  C   UNL A   1      31.630  29.141  25.384  1.00  0.00     0.202 C 
ENDROOT
BRANCH   1   2
ATOM      2  C   UNL A   1      30.889  28.364  24.287  1.00  0.00     0.261 C 
BRANCH   2   3
ATOM      3  O   UNL A   1      30.690  26.987  24.624  1.00  0.00    -0.461 OA
BRANCH   3   4
ATOM      4  C   UNL A   1      30.916  26.097  23.614  1.00  0.00     0.333 C 
ATOM      5  O   UNL A   1      30.796  26.372  22.425  1.00  0.00    -0.249 OA
BRANCH   4   6
ATOM      6  C   UNL A   1      31.396  24.721  24.129  1.00  0.00     0.227 C 
BRANCH   6   7
ATOM      7  N   UNL A   1      30.850  24.431  25.453  1.00  0.00    -0.335 N 
ATOM      8  C   UNL A   1      31.026  23.338  26.272  1.00  0.00     0.252 C 
ATOM      9  O   UNL A   1      30.445  23.346  27.356  1.00  0.00    -0.269 OA
ATOM     10  H   UNL A   1      30.262  25.131  25.819  1.00  0.00     0.165 HD
BRANCH   8  11
ATOM     11  C   UNL A   1      31.961  22.211  25.948  1.00  0.00     0.041 A 
ATOM     12  C   UNL A   1      32.667  20.304  24.616  1.00  0.00     0.041 A 
ATOM     13  C   UNL A   1      33.917  20.312  25.218  1.00  0.00     0.026 A 
ATOM     14  C   UNL A   1      31.665  21.168  25.065  1.00  0.00     0.040 A 
ATOM     15  C   UNL A   1      34.192  21.263  26.202  1.00  0.00     0.003 A 
ATOM     16  C   UNL A   1      33.231  22.225  26.543  1.00  0.00     0.014 A 
BRANCH  12  17
ATOM     17  N   UNL A   1      32.369  19.371  23.611  1.00  0.00    -0.326 N 
ATOM     18  C   UNL A   1      32.695  18.035  23.670  1.00  0.00     0.224 C 
ATOM     19  O   UNL A   1      33.112  17.461  22.662  1.00  0.00    -0.275 OA
ATOM     20  H   UNL A   1      31.896  19.694  22.812  1.00  0.00     0.169 HD
BRANCH  18  21
ATOM     21  C   UNL A   1      32.383  17.252  24.945  1.00  0.00     0.100 C 
BRANCH  21  22
ATOM     22  C   UNL A   1      33.164  15.963  25.170  1.00  0.00     0.006 C 
ATOM     23  C   UNL A   1      34.673  16.173  25.137  1.00  0.00     0.004 C 
ENDBRANCH  21  22
ENDBRANCH  18  21
ENDBRANCH  12  17
ENDBRANCH   8  11
ENDBRANCH   6   7
BRANCH   6  24
ATOM     24  C   UNL A   1      32.900  24.493  24.066  1.00  0.00     0.029 A 
ATOM     25  C   UNL A   1      33.933  25.156  24.828  1.00  0.00     0.065 A 
ATOM     26  C   UNL A   1      33.628  23.735  23.149  1.00  0.00     0.038 A 
ATOM     27  C   UNL A   1      33.840  26.174  25.911  1.00  0.00     0.069 C 
ATOM     28  N   UNL A   1      35.158  24.791  24.435  1.00  0.00    -0.180 NA
ATOM     29  N   UNL A   1      34.947  23.960  23.419  1.00  0.00    -0.282 N 
ATOM     30  C   UNL A   1      33.239  22.873  22.005  1.00  0.00     0.066 C 
ATOM     31  H   UNL A   1      35.677  23.544  22.905  1.00  0.00     0.190 HD
ENDBRANCH   6  24
ENDBRANCH   4   6
ENDBRANCH   3   4
ENDBRANCH   2   3
ENDBRANCH   1   2
BRANCH   1  32
ATOM     32  O   UNL A   1      31.347  30.526  25.548  1.00  0.00    -0.374 OA
BRANCH  32  33
ATOM     33  C   UNL A   1      31.825  31.194  26.714  1.00  0.00     0.202 C 
BRANCH  33  34
ATOM     34  C   UNL A   1      31.661  32.713  26.852  1.00  0.00     0.261 C 
BRANCH  34  35
ATOM     35  O   UNL A   1      32.909  33.428  26.826  1.00  0.00    -0.460 OA
BRANCH  35  36
ATOM     36  C   UNL A   1      33.435  33.687  28.044  1.00  0.00     0.338 C 
ATOM     37  O   UNL A   1      32.916  34.346  28.947  1.00  0.00    -0.246 OA
BRANCH  36  38
ATOM     38  C   UNL A   1      34.659  32.909  28.265  1.00  0.00     0.060 A 
ATOM     39  C   UNL A   1      34.519  31.564  28.639  1.00  0.00     0.016 A 
ATOM     40  C   UNL A   1      35.912  33.521  28.256  1.00  0.00     0.016 A 
ATOM     41  C   UNL A   1      35.629  30.837  29.053  1.00  0.00     0.010 A 
ATOM     42  C   UNL A   1      37.023  32.794  28.692  1.00  0.00     0.010 A 
ATOM     43  C   UNL A   1      36.876  31.465  29.134  1.00  0.00    -0.014 A 
BRANCH  43  44
ATOM     44  C   UNL A   1      37.977  30.793  29.859  1.00  0.00     0.031 A 
ATOM     45  C   UNL A   1      38.244  31.185  31.286  1.00  0.00     0.074 A 
ATOM     46  C   UNL A   1      38.716  29.843  29.261  1.00  0.00     0.049 A 
ATOM     47  N   UNL A   1      39.183  30.775  32.097  1.00  0.00    -0.248 NA
ATOM     48  C   UNL A   1      37.327  32.174  31.878  1.00  0.00     0.031 C 
ATOM     49  C   UNL A   1      38.527  29.366  27.894  1.00  0.00     0.029 A 
ATOM     50  N   UNL A   1      39.793  29.131  29.725  1.00  0.00    -0.354 N 
ATOM     51  C   UNL A   1      38.996  31.481  33.279  1.00  0.00     0.074 A 
ATOM     52  C   UNL A   1      37.856  32.348  33.081  1.00  0.00     0.031 C 
ATOM     53  C   UNL A   1      39.483  28.463  27.613  1.00  0.00     0.029 A 
ATOM     54  C   UNL A   1      40.365  28.327  28.771  1.00  0.00     0.049 A 
ATOM     55  H   UNL A   1      40.122  29.192  30.650  1.00  0.00     0.167 HD
ATOM     56  C   UNL A   1      39.706  31.408  34.429  1.00  0.00     0.034 A 
ATOM     57  C   UNL A   1      41.493  27.590  28.818  1.00  0.00     0.034 A 
ATOM     58  C   UNL A   1      40.829  30.532  34.623  1.00  0.00     0.049 A 
ATOM     59  C   UNL A   1      42.285  27.547  30.098  1.00  0.00     0.074 A 
ATOM     60  C   UNL A   1      41.594  30.349  35.761  1.00  0.00     0.029 A 
ATOM     61  N   UNL A   1      41.359  29.700  33.647  1.00  0.00    -0.354 N 
ATOM     62  N   UNL A   1      42.042  28.145  31.241  1.00  0.00    -0.248 NA
ATOM     63  C   UNL A   1      43.490  26.706  30.108  1.00  0.00     0.031 C 
ATOM     64  C   UNL A   1      42.606  29.431  35.462  1.00  0.00     0.029 A 
ATOM     65  C   UNL A   1      42.449  29.014  34.150  1.00  0.00     0.049 A 
ATOM     66  H   UNL A   1      41.010  29.613  32.729  1.00  0.00     0.167 HD
ATOM     67  C   UNL A   1      43.039  27.722  32.115  1.00  0.00     0.074 A 
ATOM     68  C   UNL A   1      43.881  26.807  31.371  1.00  0.00     0.031 C 
ATOM     69  C   UNL A   1      43.245  28.067  33.410  1.00  0.00     0.034 A 
BRANCH  56  70
ATOM     70  C   UNL A   1      39.284  32.298  35.569  1.00  0.00     0.023 A 
ATOM     71  C   UNL A   1      38.401  31.809  36.554  1.00  0.00     0.012 A 
ATOM     72  C   UNL A   1      39.788  33.608  35.683  1.00  0.00     0.148 A 
ATOM     73  C   UNL A   1      37.999  32.622  37.614  1.00  0.00     0.002 A 
ATOM     74  C   UNL A   1      39.420  34.396  36.767  1.00  0.00     0.091 A 
ATOM     75  F   UNL A   1      40.606  34.064  34.724  1.00  0.00    -0.205 F 
ATOM     76  C   UNL A   1      38.516  33.910  37.726  1.00  0.00     0.022 A 
BRANCH  74  77
ATOM     77  S   UNL A   1      40.092  36.039  37.041  1.00  0.00     0.127 S 
ATOM     78  O   UNL A   1      41.516  35.751  37.212  1.00  0.00    -0.237 OA
ATOM     79  O   UNL A   1      39.755  36.723  35.792  1.00  0.00    -0.237 OA
ATOM     80  O   UNL A   1      39.414  36.559  38.219  1.00  0.00    -0.744 OA
ENDBRANCH  74  77
ENDBRANCH  56  70
BRANCH  57  81
ATOM     81  C   UNL A   1      41.923  26.816  27.619  1.00  0.00     0.023 A 
ATOM     82  C   UNL A   1      42.612  27.469  26.580  1.00  0.00     0.012 A 
ATOM     83  C   UNL A   1      41.681  25.431  27.521  1.00  0.00     0.148 A 
ATOM     84  C   UNL A   1      43.030  26.761  25.452  1.00  0.00     0.002 A 
ATOM     85  C   UNL A   1      42.150  24.723  26.421  1.00  0.00     0.091 A 
ATOM     86  F   UNL A   1      41.011  24.833  28.516  1.00  0.00    -0.205 F 
ATOM     87  C   UNL A   1      42.808  25.389  25.377  1.00  0.00     0.022 A 
BRANCH  85  88
ATOM     88  S   UNL A   1      42.025  22.935  26.301  1.00  0.00     0.127 S 
ATOM     89  O   UNL A   1      42.662  22.676  25.011  1.00  0.00    -0.237 OA
ATOM     90  O   UNL A   1      42.797  22.502  27.466  1.00  0.00    -0.237 OA
ATOM     91  O   UNL A   1      40.603  22.629  26.375  1.00  0.00    -0.744 OA
ENDBRANCH  85  88
ENDBRANCH  57  81
BRANCH  69  92
ATOM     92  C   UNL A   1      44.399  27.420  34.132  1.00  0.00     0.023 A 
ATOM     93  C   UNL A   1      45.649  28.066  34.187  1.00  0.00     0.012 A 
ATOM     94  C   UNL A   1      44.216  26.208  34.828  1.00  0.00     0.148 A 
ATOM     95  C   UNL A   1      46.708  27.502  34.896  1.00  0.00     0.002 A 
ATOM     96  C   UNL A   1      45.260  25.677  35.575  1.00  0.00     0.091 A 
ATOM     97  F   UNL A   1      43.024  25.599  34.750  1.00  0.00    -0.205 F 
ATOM     98  C   UNL A   1      46.511  26.315  35.600  1.00  0.00     0.022 A 
BRANCH  96  99
ATOM     99  S   UNL A   1      45.067  24.209  36.593  1.00  0.00     0.127 S 
ATOM    100  O   UNL A   1      44.138  23.413  35.792  1.00  0.00    -0.237 OA
ATOM    101  O   UNL A   1      46.433  23.684  36.642  1.00  0.00    -0.237 OA
ATOM    102  O   UNL A   1      44.551  24.672  37.872  1.00  0.00    -0.744 OA
ENDBRANCH  96  99
ENDBRANCH  69  92
ENDBRANCH  43  44
ENDBRANCH  36  38
ENDBRANCH  35  36
ENDBRANCH  34  35
ENDBRANCH  33  34
ENDBRANCH  32  33
ENDBRANCH   1  32
TORSDOF 23
ENDMDL
MODEL 3
REMARK VINA RESULT:     -10.9      5.592      9.351
REMARK SMILES CCCC(=O)Nc1cccc(C(=O)N[C@@H](C(=O)OCCOCCOC(=O)c2ccc(-c3c4nc(c(-c5cccc(S(=O)(=O)[O-])c5F)c5ccc([nH]5)c(-c5cccc(S(=O)(=O)[O-])c5F)c5nc(c(-c6cccc(S(=O)(=O)[O-])c6F)c6ccc3[nH]6)C=C5)C=C4)cc2)c2c(C)n[nH]c2C)c1
REMARK SMILES IDX 20 1 19 2 18 3 16 4 17 5 15 6 14 7 12 8 13 9 11 11 7 12 8 13
REMARK SMILES IDX 97 14 9 15 10 16 6 17 4 18 5 19 3 21 2 22 1 23 90 24 91 25
REMARK SMILES IDX 95 26 92 27 93 28 94 29 96 30 21 32 22 33 23 34 24 35 25 36
REMARK SMILES IDX 26 37 27 38 28 39 89 40 29 41 88 42 30 43 31 44 32 45 82 46
REMARK SMILES IDX 33 47 87 48 81 49 83 50 34 51 86 52 80 53 79 54 35 56 67 57
REMARK SMILES IDX 47 58 66 59 48 60 51 61 65 62 84 63 49 64 50 65 64 67 85 68
REMARK SMILES IDX 52 69 36 70 37 71 45 72 38 73 40 74 46 75 39 76 41 77 42 78
REMARK SMILES IDX 43 79 44 80 68 81 69 82 77 83 70 84 72 85 78 86 71 87 73 88
REMARK SMILES IDX 74 89 75 90 76 91 53 92 54 93 62 94 55 95 57 96 63 97 56 98
REMARK SMILES IDX 58 99 59 100 60 101 61 102
REMARK H PARENT 14 10 6 20 94 31 83 55 51 66
REMARK Flexibility Score: inf
ROOT
ATOM      1  C   UNL A   1      31.807  30.165  26.086  1.00  0.00     0.202 C 
ENDROOT
BRANCH   1   2
ATOM      2  C   UNL A   1      31.480  28.704  25.745  1.00  0.00     0.261 C 
BRANCH   2   3
ATOM      3  O   UNL A   1      32.481  28.093  24.922  1.00  0.00    -0.461 OA
BRANCH   3   4
ATOM      4  C   UNL A   1      32.329  28.280  23.578  1.00  0.00     0.333 C 
ATOM      5  O   UNL A   1      32.948  29.118  22.933  1.00  0.00    -0.249 OA
BRANCH   4   6
ATOM      6  C   UNL A   1      31.331  27.281  22.948  1.00  0.00     0.227 C 
BRANCH   6   7
ATOM      7  N   UNL A   1      31.795  26.822  21.641  1.00  0.00    -0.335 N 
ATOM      8  C   UNL A   1      32.620  25.773  21.304  1.00  0.00     0.252 C 
ATOM      9  O   UNL A   1      32.854  25.599  20.109  1.00  0.00    -0.269 OA
ATOM     10  H   UNL A   1      31.464  27.349  20.878  1.00  0.00     0.165 HD
BRANCH   8  11
ATOM     11  C   UNL A   1      33.148  24.789  22.305  1.00  0.00     0.041 A 
ATOM     12  C   UNL A   1      33.144  22.628  23.420  1.00  0.00     0.041 A 
ATOM     13  C   UNL A   1      34.384  22.888  23.987  1.00  0.00     0.026 A 
ATOM     14  C   UNL A   1      32.485  23.619  22.688  1.00  0.00     0.040 A 
ATOM     15  C   UNL A   1      35.008  24.110  23.726  1.00  0.00     0.003 A 
ATOM     16  C   UNL A   1      34.409  25.041  22.867  1.00  0.00     0.014 A 
BRANCH  12  17
ATOM     17  N   UNL A   1      32.503  21.402  23.650  1.00  0.00    -0.326 N 
ATOM     18  C   UNL A   1      32.001  21.003  24.868  1.00  0.00     0.224 C 
ATOM     19  O   UNL A   1      32.144  19.836  25.237  1.00  0.00    -0.275 OA
ATOM     20  H   UNL A   1      32.404  20.787  22.889  1.00  0.00     0.169 HD
BRANCH  18  21
ATOM     21  C   UNL A   1      31.139  21.978  25.669  1.00  0.00     0.100 C 
BRANCH  21  22
ATOM     22  C   UNL A   1      31.864  22.913  26.629  1.00  0.00     0.006 C 
ATOM     23  C   UNL A   1      31.318  24.336  26.593  1.00  0.00     0.004 C 
ENDBRANCH  21  22
ENDBRANCH  18  21
ENDBRANCH  12  17
ENDBRANCH   8  11
ENDBRANCH   6   7
BRANCH   6  24
ATOM     24  C   UNL A   1      29.882  27.748  22.910  1.00  0.00     0.029 A 
ATOM     25  C   UNL A   1      29.358  28.979  22.367  1.00  0.00     0.065 A 
ATOM     26  C   UNL A   1      28.771  27.188  23.540  1.00  0.00     0.038 A 
ATOM     27  C   UNL A   1      30.038  30.091  21.646  1.00  0.00     0.069 C 
ATOM     28  N   UNL A   1      28.050  29.116  22.607  1.00  0.00    -0.180 NA
ATOM     29  N   UNL A   1      27.730  28.045  23.327  1.00  0.00    -0.282 N 
ATOM     30  C   UNL A   1      28.577  25.976  24.376  1.00  0.00     0.066 C 
ATOM     31  H   UNL A   1      26.823  27.885  23.676  1.00  0.00     0.190 HD
ENDBRANCH   6  24
ENDBRANCH   4   6
ENDBRANCH   3   4
ENDBRANCH   2   3
ENDBRANCH   1   2
BRANCH   1  32
ATOM     32  O   UNL A   1      33.171  30.546  26.214  1.00  0.00    -0.374 OA
BRANCH  32  33
ATOM     33  C   UNL A   1      33.734  30.666  27.519  1.00  0.00     0.202 C 
BRANCH  33  34
ATOM     34  C   UNL A   1      34.274  32.019  28.002  1.00  0.00     0.261 C 
BRANCH  34  35
ATOM     35  O   UNL A   1      33.430  33.130  27.652  1.00  0.00    -0.460 OA
BRANCH  35  36
ATOM     36  C   UNL A   1      33.424  34.138  28.553  1.00  0.00     0.338 C 
ATOM     37  O   UNL A   1      32.555  35.002  28.687  1.00  0.00    -0.246 OA
BRANCH  36  38
ATOM     38  C   UNL A   1      34.509  33.980  29.527  1.00  0.00     0.060 A 
ATOM     39  C   UNL A   1      35.808  34.314  29.118  1.00  0.00     0.016 A 
ATOM     40  C   UNL A   1      34.282  33.376  30.764  1.00  0.00     0.016 A 
ATOM     41  C   UNL A   1      36.896  33.999  29.925  1.00  0.00     0.010 A 
ATOM     42  C   UNL A   1      35.379  33.042  31.564  1.00  0.00     0.010 A 
ATOM     43  C   UNL A   1      36.689  33.312  31.126  1.00  0.00    -0.014 A 
BRANCH  43  44
ATOM     44  C   UNL A   1      37.848  32.710  31.822  1.00  0.00     0.031 A 
ATOM     45  C   UNL A   1      38.552  31.549  31.176  1.00  0.00     0.074 A 
ATOM     46  C   UNL A   1      38.273  33.198  33.000  1.00  0.00     0.049 A 
ATOM     47  N   UNL A   1      39.549  30.832  31.621  1.00  0.00    -0.248 NA
ATOM     48  C   UNL A   1      38.064  31.142  29.847  1.00  0.00     0.031 C 
ATOM     49  C   UNL A   1      37.684  34.336  33.701  1.00  0.00     0.029 A 
ATOM     50  N   UNL A   1      39.284  32.775  33.825  1.00  0.00    -0.354 N 
ATOM     51  C   UNL A   1      39.783  29.866  30.650  1.00  0.00     0.074 A 
ATOM     52  C   UNL A   1      38.824  30.087  29.591  1.00  0.00     0.031 C 
ATOM     53  C   UNL A   1      38.321  34.500  34.874  1.00  0.00     0.029 A 
ATOM     54  C   UNL A   1      39.338  33.459  35.014  1.00  0.00     0.049 A 
ATOM     55  H   UNL A   1      39.909  32.053  33.587  1.00  0.00     0.167 HD
ATOM     56  C   UNL A   1      40.720  28.889  30.638  1.00  0.00     0.034 A 
ATOM     57  C   UNL A   1      40.101  33.247  36.105  1.00  0.00     0.034 A 
ATOM     58  C   UNL A   1      41.680  28.686  31.689  1.00  0.00     0.049 A 
ATOM     59  C   UNL A   1      41.115  32.133  36.082  1.00  0.00     0.074 A 
ATOM     60  C   UNL A   1      42.698  27.752  31.758  1.00  0.00     0.029 A 
ATOM     61  N   UNL A   1      41.732  29.423  32.863  1.00  0.00    -0.354 N 
ATOM     62  N   UNL A   1      41.393  31.289  35.117  1.00  0.00    -0.248 NA
ATOM     63  C   UNL A   1      41.942  31.961  37.284  1.00  0.00     0.031 C 
ATOM     64  C   UNL A   1      43.344  27.903  32.990  1.00  0.00     0.029 A 
ATOM     65  C   UNL A   1      42.753  28.955  33.671  1.00  0.00     0.049 A 
ATOM     66  H   UNL A   1      41.129  30.169  33.089  1.00  0.00     0.167 HD
ATOM     67  C   UNL A   1      42.451  30.512  35.579  1.00  0.00     0.074 A 
ATOM     68  C   UNL A   1      42.771  30.998  36.907  1.00  0.00     0.031 C 
ATOM     69  C   UNL A   1      43.092  29.485  34.968  1.00  0.00     0.034 A 
BRANCH  56  70
ATOM     70  C   UNL A   1      40.751  27.967  29.447  1.00  0.00     0.023 A 
ATOM     71  C   UNL A   1      39.918  26.829  29.417  1.00  0.00     0.012 A 
ATOM     72  C   UNL A   1      41.580  28.245  28.343  1.00  0.00     0.148 A 
ATOM     73  C   UNL A   1      39.937  25.964  28.322  1.00  0.00     0.002 A 
ATOM     74  C   UNL A   1      41.559  27.404  27.237  1.00  0.00     0.091 A 
ATOM     75  F   UNL A   1      42.383  29.316  28.401  1.00  0.00    -0.205 F 
ATOM     76  C   UNL A   1      40.748  26.257  27.230  1.00  0.00     0.022 A 
BRANCH  74  77
ATOM     77  S   UNL A   1      42.509  27.739  25.750  1.00  0.00     0.127 S 
ATOM     78  O   UNL A   1      42.038  26.683  24.854  1.00  0.00    -0.237 OA
ATOM     79  O   UNL A   1      42.060  29.085  25.393  1.00  0.00    -0.237 OA
ATOM     80  O   UNL A   1      43.909  27.651  26.140  1.00  0.00    -0.744 OA
ENDBRANCH  74  77
ENDBRANCH  56  70
BRANCH  57  81
ATOM     81  C   UNL A   1      39.946  34.124  37.299  1.00  0.00     0.023 A 
ATOM     82  C   UNL A   1      40.453  35.437  37.269  1.00  0.00     0.012 A 
ATOM     83  C   UNL A   1      39.270  33.673  38.451  1.00  0.00     0.148 A 
ATOM     84  C   UNL A   1      40.313  36.277  38.375  1.00  0.00     0.002 A 
ATOM     85  C   UNL A   1      39.085  34.534  39.526  1.00  0.00     0.091 A 
ATOM     86  F   UNL A   1      38.808  32.415  38.463  1.00  0.00    -0.205 F 
ATOM     87  C   UNL A   1      39.621  35.830  39.498  1.00  0.00     0.022 A 
BRANCH  85  88
ATOM     88  S   UNL A   1      38.096  34.089  40.959  1.00  0.00     0.127 S 
ATOM     89  O   UNL A   1      37.765  35.401  41.513  1.00  0.00    -0.237 OA
ATOM     90  O   UNL A   1      36.975  33.381  40.340  1.00  0.00    -0.237 OA
ATOM     91  O   UNL A   1      38.951  33.252  41.788  1.00  0.00    -0.744 OA
ENDBRANCH  85  88
ENDBRANCH  57  81
BRANCH  69  92
ATOM     92  C   UNL A   1      44.239  28.840  35.700  1.00  0.00     0.023 A 
ATOM     93  C   UNL A   1      45.546  29.341  35.547  1.00  0.00     0.012 A 
ATOM     94  C   UNL A   1      44.005  27.787  36.607  1.00  0.00     0.148 A 
ATOM     95  C   UNL A   1      46.607  28.784  36.260  1.00  0.00     0.002 A 
ATOM     96  C   UNL A   1      45.058  27.271  37.353  1.00  0.00     0.091 A 
ATOM     97  F   UNL A   1      42.757  27.312  36.728  1.00  0.00    -0.205 F 
ATOM     98  C   UNL A   1      46.362  27.760  37.171  1.00  0.00     0.022 A 
BRANCH  96  99
ATOM     99  S   UNL A   1      44.818  26.022  38.622  1.00  0.00     0.127 S 
ATOM    100  O   UNL A   1      46.167  25.896  39.172  1.00  0.00    -0.237 OA
ATOM    101  O   UNL A   1      43.853  26.667  39.514  1.00  0.00    -0.237 OA
ATOM    102  O   UNL A   1      44.312  24.842  37.935  1.00  0.00    -0.744 OA
ENDBRANCH  96  99
ENDBRANCH  69  92
ENDBRANCH  43  44
ENDBRANCH  36  38
ENDBRANCH  35  36
ENDBRANCH  34  35
ENDBRANCH  33  34
ENDBRANCH  32  33
ENDBRANCH   1  32
TORSDOF 23
ENDMDL
