MODEL 1
REMARK VINA RESULT:     -10.9      0.000      0.000
REMARK SMILES O=C(OCCOCCOC(=O)C1CC2(CCCC2)C1)c1ccc(-c2c3nc(c(-c4cccc(S(=O)(=O)[O-])c4F)c4ccc([nH]4)c(-c4cccc(S(=O)(=O)[O-])c4F)c4nc(c(-c5cccc(S(=O)(=O)[O-])c5F)c5ccc2[nH]5)C=C4)C=C3)cc1
REMARK SMILES IDX 4 1 3 2 2 3 1 4 20 5 21 6 82 7 22 8 81 9 23 10 24 11 25 12
REMARK SMILES IDX 75 13 26 14 80 15 74 16 76 17 27 18 79 19 73 20 72 21 28 23
REMARK SMILES IDX 60 24 40 25 59 26 41 27 44 28 58 29 77 30 42 31 43 32 57 34
REMARK SMILES IDX 78 35 45 36 29 37 30 38 38 39 31 40 33 41 39 42 32 43 34 44
REMARK SMILES IDX 35 45 36 46 37 47 61 48 62 49 70 50 63 51 65 52 71 53 64 54
REMARK SMILES IDX 66 55 67 56 68 57 69 58 46 59 47 60 55 61 48 62 50 63 56 64
REMARK SMILES IDX 49 65 51 66 52 67 53 68 54 69 5 70 6 71 7 72 8 73 9 74 10 75
REMARK SMILES IDX 11 76 12 77 13 78 19 79 14 80 15 81 18 82 16 83 17 84
REMARK H PARENT 76 22 44 33
REMARK Flexibility Score: inf
ROOT
ATOM      1  C   UNL A   1      31.378  32.164  26.983  1.00  0.00     0.261 C 
ENDROOT
BRANCH   1   2
ATOM      2  O   UNL A   1      32.463  33.099  26.919  1.00  0.00    -0.460 OA
BRANCH   2   3
ATOM      3  C   UNL A   1      33.249  33.512  27.941  1.00  0.00     0.338 C 
ATOM      4  O   UNL A   1      32.918  34.524  28.556  1.00  0.00    -0.246 OA
BRANCH   3   5
ATOM      5  C   UNL A   1      34.481  32.786  28.389  1.00  0.00     0.060 A 
ATOM      6  C   UNL A   1      34.547  31.437  28.748  1.00  0.00     0.016 A 
ATOM      7  C   UNL A   1      35.682  33.517  28.358  1.00  0.00     0.016 A 
ATOM      8  C   UNL A   1      35.734  30.828  29.091  1.00  0.00     0.010 A 
ATOM      9  C   UNL A   1      36.890  32.920  28.720  1.00  0.00     0.010 A 
ATOM     10  C   UNL A   1      36.899  31.577  29.111  1.00  0.00    -0.014 A 
BRANCH  10  11
ATOM     11  C   UNL A   1      38.032  30.958  29.797  1.00  0.00     0.031 A 
ATOM     12  C   UNL A   1      38.173  31.245  31.257  1.00  0.00     0.074 A 
ATOM     13  C   UNL A   1      38.753  30.020  29.164  1.00  0.00     0.049 A 
ATOM     14  N   UNL A   1      39.071  30.826  32.099  1.00  0.00    -0.248 NA
ATOM     15  C   UNL A   1      37.137  32.109  31.858  1.00  0.00     0.031 C 
ATOM     16  C   UNL A   1      38.529  29.569  27.788  1.00  0.00     0.029 A 
ATOM     17  N   UNL A   1      39.795  29.257  29.603  1.00  0.00    -0.354 N 
ATOM     18  C   UNL A   1      38.756  31.431  33.306  1.00  0.00     0.074 A 
ATOM     19  C   UNL A   1      37.563  32.217  33.104  1.00  0.00     0.031 C 
ATOM     20  C   UNL A   1      39.417  28.605  27.494  1.00  0.00     0.029 A 
ATOM     21  C   UNL A   1      40.306  28.428  28.635  1.00  0.00     0.049 A 
ATOM     22  H   UNL A   1      40.145  29.296  30.523  1.00  0.00     0.167 HD
ATOM     23  C   UNL A   1      39.430  31.348  34.473  1.00  0.00     0.034 A 
ATOM     24  C   UNL A   1      41.404  27.652  28.675  1.00  0.00     0.034 A 
ATOM     25  C   UNL A   1      40.613  30.552  34.618  1.00  0.00     0.049 A 
ATOM     26  C   UNL A   1      42.187  27.643  29.959  1.00  0.00     0.074 A 
ATOM     27  C   UNL A   1      41.438  30.413  35.715  1.00  0.00     0.029 A 
ATOM     28  N   UNL A   1      41.147  29.762  33.604  1.00  0.00    -0.354 N 
ATOM     29  N   UNL A   1      41.916  28.245  31.095  1.00  0.00    -0.248 NA
ATOM     30  C   UNL A   1      43.417  26.845  29.977  1.00  0.00     0.031 C 
ATOM     31  C   UNL A   1      42.496  29.573  35.349  1.00  0.00     0.029 A 
ATOM     32  C   UNL A   1      42.300  29.143  34.042  1.00  0.00     0.049 A 
ATOM     33  H   UNL A   1      40.760  29.660  32.705  1.00  0.00     0.167 HD
ATOM     34  C   UNL A   1      42.919  27.872  31.977  1.00  0.00     0.074 A 
ATOM     35  C   UNL A   1      43.797  26.979  31.241  1.00  0.00     0.031 C 
ATOM     36  C   UNL A   1      43.109  28.230  33.272  1.00  0.00     0.034 A 
BRANCH  23  37
ATOM     37  C   UNL A   1      38.947  32.216  35.602  1.00  0.00     0.023 A 
ATOM     38  C   UNL A   1      39.287  33.584  35.661  1.00  0.00     0.012 A 
ATOM     39  C   UNL A   1      38.208  31.643  36.656  1.00  0.00     0.148 A 
ATOM     40  C   UNL A   1      38.949  34.351  36.777  1.00  0.00     0.002 A 
ATOM     41  C   UNL A   1      37.831  32.426  37.740  1.00  0.00     0.091 A 
ATOM     42  F   UNL A   1      37.928  30.334  36.601  1.00  0.00    -0.205 F 
ATOM     43  C   UNL A   1      38.217  33.774  37.812  1.00  0.00     0.022 A 
BRANCH  41  44
ATOM     44  S   UNL A   1      36.835  31.787  39.090  1.00  0.00     0.127 S 
ATOM     45  O   UNL A   1      37.609  32.212  40.255  1.00  0.00    -0.237 OA
ATOM     46  O   UNL A   1      35.573  32.503  38.900  1.00  0.00    -0.237 OA
ATOM     47  O   UNL A   1      36.755  30.346  38.884  1.00  0.00    -0.744 OA
ENDBRANCH  41  44
ENDBRANCH  23  37
BRANCH  24  48
ATOM     48  C   UNL A   1      41.813  26.859  27.483  1.00  0.00     0.023 A 
ATOM     49  C   UNL A   1      42.417  27.503  26.387  1.00  0.00     0.012 A 
ATOM     50  C   UNL A   1      41.633  25.460  27.440  1.00  0.00     0.148 A 
ATOM     51  C   UNL A   1      42.810  26.775  25.262  1.00  0.00     0.002 A 
ATOM     52  C   UNL A   1      42.073  24.735  26.339  1.00  0.00     0.091 A 
ATOM     53  F   UNL A   1      41.046  24.864  28.488  1.00  0.00    -0.205 F 
ATOM     54  C   UNL A   1      42.647  25.392  25.241  1.00  0.00     0.022 A 
BRANCH  52  55
ATOM     55  S   UNL A   1      42.006  22.940  26.271  1.00  0.00     0.127 S 
ATOM     56  O   UNL A   1      42.747  22.569  27.474  1.00  0.00    -0.237 OA
ATOM     57  O   UNL A   1      40.566  22.690  26.331  1.00  0.00    -0.237 OA
ATOM     58  O   UNL A   1      42.631  22.568  25.008  1.00  0.00    -0.744 OA
ENDBRANCH  52  55
ENDBRANCH  24  48
BRANCH  36  59
ATOM     59  C   UNL A   1      44.272  27.604  33.987  1.00  0.00     0.023 A 
ATOM     60  C   UNL A   1      45.529  28.237  33.988  1.00  0.00     0.012 A 
ATOM     61  C   UNL A   1      44.080  26.427  34.735  1.00  0.00     0.148 A 
ATOM     62  C   UNL A   1      46.591  27.685  34.702  1.00  0.00     0.002 A 
ATOM     63  C   UNL A   1      45.123  25.919  35.492  1.00  0.00     0.091 A 
ATOM     64  F   UNL A   1      42.877  25.834  34.698  1.00  0.00    -0.205 F 
ATOM     65  C   UNL A   1      46.384  26.537  35.465  1.00  0.00     0.022 A 
BRANCH  63  66
ATOM     66  S   UNL A   1      44.907  24.520  36.596  1.00  0.00     0.127 S 
ATOM     67  O   UNL A   1      44.536  23.460  35.661  1.00  0.00    -0.237 OA
ATOM     68  O   UNL A   1      46.241  24.381  37.181  1.00  0.00    -0.237 OA
ATOM     69  O   UNL A   1      43.871  24.912  37.543  1.00  0.00    -0.744 OA
ENDBRANCH  63  66
ENDBRANCH  36  59
ENDBRANCH  10  11
ENDBRANCH   3   5
ENDBRANCH   2   3
ENDBRANCH   1   2
BRANCH   1  70
ATOM     70  C   UNL A   1      31.609  31.003  26.012  1.00  0.00     0.202 C 
BRANCH  70  71
ATOM     71  O   UNL A   1      32.395  29.945  26.554  1.00  0.00    -0.374 OA
BRANCH  71  72
ATOM     72  C   UNL A   1      33.588  29.560  25.861  1.00  0.00     0.202 C 
BRANCH  72  73
ATOM     73  C   UNL A   1      33.236  29.131  24.438  1.00  0.00     0.261 C 
BRANCH  73  74
ATOM     74  O   UNL A   1      34.031  27.975  24.156  1.00  0.00    -0.463 OA
BRANCH  74  75
ATOM     75  C   UNL A   1      33.277  26.945  23.690  1.00  0.00     0.309 C 
ATOM     76  O   UNL A   1      32.207  27.095  23.087  1.00  0.00    -0.252 OA
BRANCH  75  77
ATOM     77  C   UNL A   1      33.924  25.565  23.986  1.00  0.00     0.100 C 
ATOM     78  C   UNL A   1      34.261  25.132  25.460  1.00  0.00     0.022 C 
ATOM     79  C   UNL A   1      32.840  24.497  24.091  1.00  0.00     0.022 C 
ATOM     80  C   UNL A   1      32.693  24.963  25.625  1.00  0.00    -0.028 C 
ATOM     81  C   UNL A   1      32.283  26.268  26.357  1.00  0.00     0.007 C 
ATOM     82  C   UNL A   1      31.567  24.038  26.068  1.00  0.00     0.007 C 
ATOM     83  C   UNL A   1      30.768  26.319  26.322  1.00  0.00     0.001 C 
ATOM     84  C   UNL A   1      30.350  24.954  25.793  1.00  0.00     0.001 C 
ENDBRANCH  75  77
ENDBRANCH  74  75
ENDBRANCH  73  74
ENDBRANCH  72  73
ENDBRANCH  71  72
ENDBRANCH  70  71
ENDBRANCH   1  70
TORSDOF 17
ENDMDL
MODEL 2
REMARK VINA RESULT:     -10.6      5.321     10.846
REMARK SMILES O=C(OCCOCCOC(=O)C1CC2(CCCC2)C1)c1ccc(-c2c3nc(c(-c4cccc(S(=O)(=O)[O-])c4F)c4ccc([nH]4)c(-c4cccc(S(=O)(=O)[O-])c4F)c4nc(c(-c5cccc(S(=O)(=O)[O-])c5F)c5ccc2[nH]5)C=C4)C=C3)cc1
REMARK SMILES IDX 4 1 3 2 2 3 1 4 20 5 21 6 82 7 22 8 81 9 23 10 24 11 25 12
REMARK SMILES IDX 75 13 26 14 80 15 74 16 76 17 27 18 79 19 73 20 72 21 28 23
REMARK SMILES IDX 60 24 40 25 59 26 41 27 44 28 58 29 77 30 42 31 43 32 57 34
REMARK SMILES IDX 78 35 45 36 29 37 30 38 38 39 31 40 33 41 39 42 32 43 34 44
REMARK SMILES IDX 35 45 36 46 37 47 61 48 62 49 70 50 63 51 65 52 71 53 64 54
REMARK SMILES IDX 66 55 67 56 68 57 69 58 46 59 47 60 55 61 48 62 50 63 56 64
REMARK SMILES IDX 49 65 51 66 52 67 53 68 54 69 5 70 6 71 7 72 8 73 9 74 10 75
REMARK SMILES IDX 11 76 12 77 13 78 19 79 14 80 15 81 18 82 16 83 17 84
REMARK H PARENT 76 22 44 33
REMARK Flexibility Score: inf
ROOT
ATOM      1  C   UNL A   1      37.656  20.942  24.866  1.00  0.00     0.261 C 
ENDROOT
BRANCH   1   2
ATOM      2  O   UNL A   1      38.476  20.340  25.876  1.00  0.00    -0.460 OA
BRANCH   2   3
ATOM      3  C   UNL A   1      39.734  20.696  26.228  1.00  0.00     0.338 C 
ATOM      4  O   UNL A   1      40.626  19.856  26.121  1.00  0.00    -0.246 OA
BRANCH   3   5
ATOM      5  C   UNL A   1      40.108  22.065  26.708  1.00  0.00     0.060 A 
ATOM      6  C   UNL A   1      39.493  23.260  26.324  1.00  0.00     0.016 A 
ATOM      7  C   UNL A   1      41.110  22.130  27.692  1.00  0.00     0.016 A 
ATOM      8  C   UNL A   1      39.856  24.476  26.859  1.00  0.00     0.010 A 
ATOM      9  C   UNL A   1      41.503  23.355  28.231  1.00  0.00     0.010 A 
ATOM     10  C   UNL A   1      40.885  24.528  27.785  1.00  0.00    -0.014 A 
BRANCH  10  11
ATOM     11  C   UNL A   1      41.428  25.860  28.047  1.00  0.00     0.031 A 
ATOM     12  C   UNL A   1      42.748  26.182  27.424  1.00  0.00     0.074 A 
ATOM     13  C   UNL A   1      40.653  26.784  28.635  1.00  0.00     0.049 A 
ATOM     14  N   UNL A   1      43.446  27.277  27.486  1.00  0.00    -0.248 NA
ATOM     15  C   UNL A   1      43.355  25.124  26.590  1.00  0.00     0.031 C 
ATOM     16  C   UNL A   1      39.278  26.566  29.093  1.00  0.00     0.029 A 
ATOM     17  N   UNL A   1      40.899  28.095  28.919  1.00  0.00    -0.354 N 
ATOM     18  C   UNL A   1      44.604  27.017  26.768  1.00  0.00     0.074 A 
ATOM     19  C   UNL A   1      44.504  25.677  26.245  1.00  0.00     0.031 C 
ATOM     20  C   UNL A   1      38.803  27.711  29.607  1.00  0.00     0.029 A 
ATOM     21  C   UNL A   1      39.862  28.712  29.575  1.00  0.00     0.049 A 
ATOM     22  H   UNL A   1      41.736  28.555  28.677  1.00  0.00     0.167 HD
ATOM     23  C   UNL A   1      45.667  27.832  26.590  1.00  0.00     0.034 A 
ATOM     24  C   UNL A   1      39.813  29.939  30.122  1.00  0.00     0.034 A 
ATOM     25  C   UNL A   1      45.714  29.157  27.135  1.00  0.00     0.049 A 
ATOM     26  C   UNL A   1      41.041  30.797  29.984  1.00  0.00     0.074 A 
ATOM     27  C   UNL A   1      46.740  30.078  27.091  1.00  0.00     0.029 A 
ATOM     28  N   UNL A   1      44.671  29.742  27.848  1.00  0.00    -0.354 N 
ATOM     29  N   UNL A   1      42.157  30.543  29.339  1.00  0.00    -0.248 NA
ATOM     30  C   UNL A   1      41.006  32.110  30.636  1.00  0.00     0.031 C 
ATOM     31  C   UNL A   1      46.333  31.204  27.817  1.00  0.00     0.029 A 
ATOM     32  C   UNL A   1      45.032  31.007  28.264  1.00  0.00     0.049 A 
ATOM     33  H   UNL A   1      43.803  29.316  28.029  1.00  0.00     0.167 HD
ATOM     34  C   UNL A   1      42.946  31.675  29.473  1.00  0.00     0.074 A 
ATOM     35  C   UNL A   1      42.169  32.623  30.254  1.00  0.00     0.031 C 
ATOM     36  C   UNL A   1      44.196  31.920  29.005  1.00  0.00     0.034 A 
BRANCH  23  37
ATOM     37  C   UNL A   1      46.857  27.253  25.877  1.00  0.00     0.023 A 
ATOM     38  C   UNL A   1      47.785  26.438  26.560  1.00  0.00     0.012 A 
ATOM     39  C   UNL A   1      47.094  27.587  24.529  1.00  0.00     0.148 A 
ATOM     40  C   UNL A   1      48.955  26.015  25.929  1.00  0.00     0.002 A 
ATOM     41  C   UNL A   1      48.237  27.119  23.893  1.00  0.00     0.091 A 
ATOM     42  F   UNL A   1      46.222  28.393  23.908  1.00  0.00    -0.205 F 
ATOM     43  C   UNL A   1      49.178  26.350  24.596  1.00  0.00     0.022 A 
BRANCH  41  44
ATOM     44  S   UNL A   1      48.578  27.447  22.161  1.00  0.00     0.127 S 
ATOM     45  O   UNL A   1      47.430  28.269  21.783  1.00  0.00    -0.237 OA
ATOM     46  O   UNL A   1      49.849  28.167  22.234  1.00  0.00    -0.237 OA
ATOM     47  O   UNL A   1      48.653  26.144  21.512  1.00  0.00    -0.744 OA
ENDBRANCH  41  44
ENDBRANCH  23  37
BRANCH  24  48
ATOM     48  C   UNL A   1      38.593  30.400  30.839  1.00  0.00     0.023 A 
ATOM     49  C   UNL A   1      38.455  30.151  32.218  1.00  0.00     0.012 A 
ATOM     50  C   UNL A   1      37.575  31.111  30.168  1.00  0.00     0.148 A 
ATOM     51  C   UNL A   1      37.318  30.579  32.908  1.00  0.00     0.002 A 
ATOM     52  C   UNL A   1      36.471  31.577  30.870  1.00  0.00     0.091 A 
ATOM     53  F   UNL A   1      37.717  31.329  28.852  1.00  0.00    -0.205 F 
ATOM     54  C   UNL A   1      36.332  31.298  32.238  1.00  0.00     0.022 A 
BRANCH  52  55
ATOM     55  S   UNL A   1      35.206  32.607  30.116  1.00  0.00     0.127 S 
ATOM     56  O   UNL A   1      34.268  32.784  31.222  1.00  0.00    -0.237 OA
ATOM     57  O   UNL A   1      35.967  33.803  29.755  1.00  0.00    -0.237 OA
ATOM     58  O   UNL A   1      34.701  31.847  28.980  1.00  0.00    -0.744 OA
ENDBRANCH  52  55
ENDBRANCH  24  48
BRANCH  36  59
ATOM     59  C   UNL A   1      44.767  33.283  29.270  1.00  0.00     0.023 A 
ATOM     60  C   UNL A   1      45.504  33.528  30.443  1.00  0.00     0.012 A 
ATOM     61  C   UNL A   1      44.643  34.293  28.296  1.00  0.00     0.148 A 
ATOM     62  C   UNL A   1      46.084  34.777  30.658  1.00  0.00     0.002 A 
ATOM     63  C   UNL A   1      45.275  35.511  28.489  1.00  0.00     0.091 A 
ATOM     64  F   UNL A   1      43.916  34.037  27.198  1.00  0.00    -0.205 F 
ATOM     65  C   UNL A   1      45.983  35.761  29.676  1.00  0.00     0.022 A 
BRANCH  63  66
ATOM     66  S   UNL A   1      45.298  36.784  27.224  1.00  0.00     0.127 S 
ATOM     67  O   UNL A   1      46.089  37.829  27.870  1.00  0.00    -0.237 OA
ATOM     68  O   UNL A   1      45.969  36.105  26.116  1.00  0.00    -0.237 OA
ATOM     69  O   UNL A   1      43.903  37.121  26.970  1.00  0.00    -0.744 OA
ENDBRANCH  63  66
ENDBRANCH  36  59
ENDBRANCH  10  11
ENDBRANCH   3   5
ENDBRANCH   2   3
ENDBRANCH   1   2
BRANCH   1  70
ATOM     70  C   UNL A   1      36.280  21.302  25.433  1.00  0.00     0.202 C 
BRANCH  70  71
ATOM     71  O   UNL A   1      35.377  21.832  24.466  1.00  0.00    -0.374 OA
BRANCH  71  72
ATOM     72  C   UNL A   1      34.827  23.135  24.691  1.00  0.00     0.202 C 
BRANCH  72  73
ATOM     73  C   UNL A   1      33.548  23.014  25.517  1.00  0.00     0.261 C 
BRANCH  73  74
ATOM     74  O   UNL A   1      33.112  24.350  25.786  1.00  0.00    -0.463 OA
BRANCH  74  75
ATOM     75  C   UNL A   1      31.799  24.393  26.132  1.00  0.00     0.309 C 
ATOM     76  O   UNL A   1      31.373  24.081  27.251  1.00  0.00    -0.252 OA
BRANCH  75  77
ATOM     77  C   UNL A   1      30.903  24.894  24.968  1.00  0.00     0.100 C 
ATOM     78  C   UNL A   1      29.890  26.079  25.180  1.00  0.00     0.022 C 
ATOM     79  C   UNL A   1      31.667  25.912  24.127  1.00  0.00     0.022 C 
ATOM     80  C   UNL A   1      31.182  26.998  25.211  1.00  0.00    -0.028 C 
ATOM     81  C   UNL A   1      31.401  27.230  26.729  1.00  0.00     0.007 C 
ATOM     82  C   UNL A   1      31.853  28.243  24.646  1.00  0.00     0.007 C 
ATOM     83  C   UNL A   1      32.765  27.878  26.868  1.00  0.00     0.001 C 
ATOM     84  C   UNL A   1      33.180  28.211  25.442  1.00  0.00     0.001 C 
ENDBRANCH  75  77
ENDBRANCH  74  75
ENDBRANCH  73  74
ENDBRANCH  72  73
ENDBRANCH  71  72
ENDBRANCH  70  71
ENDBRANCH   1  70
TORSDOF 17
ENDMDL
MODEL 3
REMARK VINA RESULT:     -10.6      1.531      1.980
REMARK SMILES O=C(OCCOCCOC(=O)C1CC2(CCCC2)C1)c1ccc(-c2c3nc(c(-c4cccc(S(=O)(=O)[O-])c4F)c4ccc([nH]4)c(-c4cccc(S(=O)(=O)[O-])c4F)c4nc(c(-c5cccc(S(=O)(=O)[O-])c5F)c5ccc2[nH]5)C=C4)C=C3)cc1
REMARK SMILES IDX 4 1 3 2 2 3 1 4 20 5 21 6 82 7 22 8 81 9 23 10 24 11 25 12
REMARK SMILES IDX 75 13 26 14 80 15 74 16 76 17 27 18 79 19 73 20 72 21 28 23
REMARK SMILES IDX 60 24 40 25 59 26 41 27 44 28 58 29 77 30 42 31 43 32 57 34
REMARK SMILES IDX 78 35 45 36 29 37 30 38 38 39 31 40 33 41 39 42 32 43 34 44
REMARK SMILES IDX 35 45 36 46 37 47 61 48 62 49 70 50 63 51 65 52 71 53 64 54
REMARK SMILES IDX 66 55 67 56 68 57 69 58 46 59 47 60 55 61 48 62 50 63 56 64
REMARK SMILES IDX 49 65 51 66 52 67 53 68 54 69 5 70 6 71 7 72 8 73 9 74 10 75
REMARK SMILES IDX 11 76 12 77 13 78 19 79 14 80 15 81 18 82 16 83 17 84
REMARK H PARENT 76 22 44 33
REMARK Flexibility Score: inf
ROOT
ATOM      1  C   UNL A   1      31.554  32.220  27.076  1.00  0.00     0.261 C 
ENDROOT
BRANCH   1   2
ATOM      2  O   UNL A   1      32.668  33.120  27.004  1.00  0.00    -0.460 OA
BRANCH   2   3
ATOM      3  C   UNL A   1      33.466  33.518  28.023  1.00  0.00     0.338 C 
ATOM      4  O   UNL A   1      33.152  34.534  28.643  1.00  0.00    -0.246 OA
BRANCH   3   5
ATOM      5  C   UNL A   1      34.689  32.775  28.463  1.00  0.00     0.060 A 
ATOM      6  C   UNL A   1      34.737  31.426  28.824  1.00  0.00     0.016 A 
ATOM      7  C   UNL A   1      35.901  33.487  28.421  1.00  0.00     0.016 A 
ATOM      8  C   UNL A   1      35.917  30.798  29.160  1.00  0.00     0.010 A 
ATOM      9  C   UNL A   1      37.102  32.871  28.775  1.00  0.00     0.010 A 
ATOM     10  C   UNL A   1      37.093  31.530  29.169  1.00  0.00    -0.014 A 
BRANCH  10  11
ATOM     11  C   UNL A   1      38.222  30.894  29.847  1.00  0.00     0.031 A 
ATOM     12  C   UNL A   1      38.386  31.191  31.303  1.00  0.00     0.074 A 
ATOM     13  C   UNL A   1      38.917  29.936  29.215  1.00  0.00     0.049 A 
ATOM     14  N   UNL A   1      39.285  30.761  32.138  1.00  0.00    -0.248 NA
ATOM     15  C   UNL A   1      37.373  32.079  31.908  1.00  0.00     0.031 C 
ATOM     16  C   UNL A   1      38.668  29.478  27.845  1.00  0.00     0.029 A 
ATOM     17  N   UNL A   1      39.949  29.157  29.648  1.00  0.00    -0.354 N 
ATOM     18  C   UNL A   1      38.995  31.382  33.344  1.00  0.00     0.074 A 
ATOM     19  C   UNL A   1      37.816  32.190  33.148  1.00  0.00     0.031 C 
ATOM     20  C   UNL A   1      39.534  28.495  27.550  1.00  0.00     0.029 A 
ATOM     21  C   UNL A   1      40.433  28.310  28.682  1.00  0.00     0.049 A 
ATOM     22  H   UNL A   1      40.311  29.197  30.564  1.00  0.00     0.167 HD
ATOM     23  C   UNL A   1      39.681  31.296  34.504  1.00  0.00     0.034 A 
ATOM     24  C   UNL A   1      41.516  27.513  28.716  1.00  0.00     0.034 A 
ATOM     25  C   UNL A   1      40.850  30.477  34.642  1.00  0.00     0.049 A 
ATOM     26  C   UNL A   1      42.314  27.499  29.992  1.00  0.00     0.074 A 
ATOM     27  C   UNL A   1      41.684  30.332  35.731  1.00  0.00     0.029 A 
ATOM     28  N   UNL A   1      41.357  29.669  33.629  1.00  0.00    -0.354 N 
ATOM     29  N   UNL A   1      42.067  28.116  31.125  1.00  0.00    -0.248 NA
ATOM     30  C   UNL A   1      43.528  26.677  30.002  1.00  0.00     0.031 C 
ATOM     31  C   UNL A   1      42.722  29.468  35.360  1.00  0.00     0.029 A 
ATOM     32  C   UNL A   1      42.502  29.032  34.059  1.00  0.00     0.049 A 
ATOM     33  H   UNL A   1      40.957  29.567  32.736  1.00  0.00     0.167 HD
ATOM     34  C   UNL A   1      43.072  27.731  31.999  1.00  0.00     0.074 A 
ATOM     35  C   UNL A   1      43.925  26.814  31.261  1.00  0.00     0.031 C 
ATOM     36  C   UNL A   1      43.285  28.096  33.288  1.00  0.00     0.034 A 
BRANCH  23  37
ATOM     37  C   UNL A   1      39.228  32.183  35.631  1.00  0.00     0.023 A 
ATOM     38  C   UNL A   1      38.181  31.786  36.489  1.00  0.00     0.012 A 
ATOM     39  C   UNL A   1      39.801  33.460  35.787  1.00  0.00     0.148 A 
ATOM     40  C   UNL A   1      37.676  32.668  37.445  1.00  0.00     0.002 A 
ATOM     41  C   UNL A   1      39.327  34.313  36.776  1.00  0.00     0.091 A 
ATOM     42  F   UNL A   1      40.768  33.834  34.938  1.00  0.00    -0.205 F 
ATOM     43  C   UNL A   1      38.252  33.927  37.593  1.00  0.00     0.022 A 
BRANCH  41  44
ATOM     44  S   UNL A   1      40.048  35.929  37.081  1.00  0.00     0.127 S 
ATOM     45  O   UNL A   1      39.697  36.645  35.857  1.00  0.00    -0.237 OA
ATOM     46  O   UNL A   1      39.321  36.363  38.274  1.00  0.00    -0.237 OA
ATOM     47  O   UNL A   1      41.473  35.702  37.286  1.00  0.00    -0.744 OA
ENDBRANCH  41  44
ENDBRANCH  23  37
BRANCH  24  48
ATOM     48  C   UNL A   1      41.896  26.702  27.527  1.00  0.00     0.023 A 
ATOM     49  C   UNL A   1      42.532  27.319  26.433  1.00  0.00     0.012 A 
ATOM     50  C   UNL A   1      41.655  25.312  27.483  1.00  0.00     0.148 A 
ATOM     51  C   UNL A   1      42.898  26.573  25.310  1.00  0.00     0.002 A 
ATOM     52  C   UNL A   1      42.068  24.568  26.385  1.00  0.00     0.091 A 
ATOM     53  F   UNL A   1      41.038  24.743  28.529  1.00  0.00    -0.205 F 
ATOM     54  C   UNL A   1      42.675  25.198  25.290  1.00  0.00     0.022 A 
BRANCH  52  55
ATOM     55  S   UNL A   1      41.923  22.778  26.317  1.00  0.00     0.127 S 
ATOM     56  O   UNL A   1      40.474  22.596  26.316  1.00  0.00    -0.237 OA
ATOM     57  O   UNL A   1      42.585  22.470  25.050  1.00  0.00    -0.237 OA
ATOM     58  O   UNL A   1      42.618  22.279  27.498  1.00  0.00    -0.744 OA
ENDBRANCH  52  55
ENDBRANCH  24  48
BRANCH  36  59
ATOM     59  C   UNL A   1      44.444  27.454  33.995  1.00  0.00     0.023 A 
ATOM     60  C   UNL A   1      45.722  28.038  33.940  1.00  0.00     0.012 A 
ATOM     61  C   UNL A   1      44.229  26.313  34.793  1.00  0.00     0.148 A 
ATOM     62  C   UNL A   1      46.782  27.473  34.645  1.00  0.00     0.002 A 
ATOM     63  C   UNL A   1      45.274  25.795  35.541  1.00  0.00     0.091 A 
ATOM     64  F   UNL A   1      43.004  25.765  34.810  1.00  0.00    -0.205 F 
ATOM     65  C   UNL A   1      46.554  26.363  35.456  1.00  0.00     0.022 A 
BRANCH  63  66
ATOM     66  S   UNL A   1      45.037  24.446  36.702  1.00  0.00     0.127 S 
ATOM     67  O   UNL A   1      44.597  23.369  35.819  1.00  0.00    -0.237 OA
ATOM     68  O   UNL A   1      46.381  24.276  37.254  1.00  0.00    -0.237 OA
ATOM     69  O   UNL A   1      44.045  24.913  37.662  1.00  0.00    -0.744 OA
ENDBRANCH  63  66
ENDBRANCH  36  59
ENDBRANCH  10  11
ENDBRANCH   3   5
ENDBRANCH   2   3
ENDBRANCH   1   2
BRANCH   1  70
ATOM     70  C   UNL A   1      31.858  30.925  26.318  1.00  0.00     0.202 C 
BRANCH  70  71
ATOM     71  O   UNL A   1      31.951  29.774  27.154  1.00  0.00    -0.374 OA
BRANCH  71  72
ATOM     72  C   UNL A   1      33.099  28.928  27.022  1.00  0.00     0.202 C 
BRANCH  72  73
ATOM     73  C   UNL A   1      32.654  27.523  26.621  1.00  0.00     0.261 C 
BRANCH  73  74
ATOM     74  O   UNL A   1      31.466  27.683  25.838  1.00  0.00    -0.463 OA
BRANCH  74  75
ATOM     75  C   UNL A   1      31.571  27.070  24.631  1.00  0.00     0.309 C 
ATOM     76  O   UNL A   1      32.574  27.138  23.910  1.00  0.00    -0.252 OA
BRANCH  75  77
ATOM     77  C   UNL A   1      30.294  26.262  24.272  1.00  0.00     0.100 C 
ATOM     78  C   UNL A   1      30.397  24.872  23.543  1.00  0.00     0.022 C 
ATOM     79  C   UNL A   1      29.860  25.421  25.468  1.00  0.00     0.022 C 
ATOM     80  C   UNL A   1      30.920  24.332  24.939  1.00  0.00    -0.028 C 
ATOM     81  C   UNL A   1      32.456  24.283  24.734  1.00  0.00     0.007 C 
ATOM     82  C   UNL A   1      30.756  23.269  26.018  1.00  0.00     0.007 C 
ATOM     83  C   UNL A   1      33.062  24.031  26.101  1.00  0.00     0.001 C 
ATOM     84  C   UNL A   1      31.872  23.711  26.994  1.00  0.00     0.001 C 
ENDBRANCH  75  77
ENDBRANCH  74  75
ENDBRANCH  73  74
ENDBRANCH  72  73
ENDBRANCH  71  72
ENDBRANCH  70  71
ENDBRANCH   1  70
TORSDOF 17
ENDMDL
