MODEL 1
REMARK VINA RESULT:     -10.1      0.000      0.000
REMARK SMILES C[C@H]1CC=C(C2=NN=C(C(=O)OCCOCCOC(=O)c3ccc(-c4c5nc(c(-c6cccc(S(=O)(=O)[O-])c6F)c6ccc([nH]6)c(-c6cccc(S(=O)(=O)[O-])c6F)c6nc(c(-c7cccc(S(=O)(=O)[O-])c7F)c7ccc4[nH]7)C=C6)C=C5)cc3)C2)O1
REMARK SMILES IDX 16 1 15 2 14 3 13 4 12 5 10 6 11 7 9 8 6 9 7 10 84 11 8 12
REMARK SMILES IDX 5 13 1 14 2 15 3 16 85 17 4 18 17 19 18 20 19 21 20 22 21 23
REMARK SMILES IDX 22 24 83 25 23 26 82 27 24 28 25 29 26 30 76 31 27 32 81 33
REMARK SMILES IDX 75 34 77 35 28 36 80 37 74 38 73 39 29 41 61 42 41 43 60 44
REMARK SMILES IDX 42 45 45 46 59 47 78 48 43 49 44 50 58 52 79 53 46 54 30 55
REMARK SMILES IDX 31 56 39 57 32 58 34 59 40 60 33 61 35 62 36 63 37 64 38 65
REMARK SMILES IDX 62 66 63 67 71 68 64 69 66 70 72 71 65 72 67 73 68 74 69 75
REMARK SMILES IDX 70 76 47 77 48 78 56 79 49 80 51 81 57 82 50 83 52 84 53 85
REMARK SMILES IDX 54 86 55 87
REMARK H PARENT 77 40 45 51
REMARK Flexibility Score: inf
ROOT
ATOM      1  C   UNL A   1      35.690  35.030  32.919  1.00  0.00     0.202 C 
ENDROOT
BRANCH   1   2
ATOM      2  O   UNL A   1      34.286  35.007  32.675  1.00  0.00    -0.374 OA
BRANCH   2   3
ATOM      3  C   UNL A   1      33.572  36.241  32.599  1.00  0.00     0.202 C 
BRANCH   3   4
ATOM      4  C   UNL A   1      32.440  36.330  31.575  1.00  0.00     0.261 C 
BRANCH   4   5
ATOM      5  O   UNL A   1      32.536  35.305  30.575  1.00  0.00    -0.459 OA
BRANCH   5   6
ATOM      6  C   UNL A   1      32.926  35.736  29.366  1.00  0.00     0.355 C 
ATOM      7  O   UNL A   1      32.713  36.820  28.840  1.00  0.00    -0.245 OA
BRANCH   6   8
ATOM      8  C   UNL A   1      33.856  34.773  28.708  1.00  0.00     0.154 C 
ATOM      9  C   UNL A   1      34.653  32.850  27.940  1.00  0.00     0.111 C 
ATOM     10  N   UNL A   1      35.657  33.640  28.179  1.00  0.00    -0.151 NA
ATOM     11  C   UNL A   1      33.331  33.510  28.137  1.00  0.00     0.128 C 
ATOM     12  N   UNL A   1      35.147  34.887  28.669  1.00  0.00    -0.147 NA
BRANCH   9  13
ATOM     13  C   UNL A   1      34.721  31.414  27.638  1.00  0.00     0.139 C 
ATOM     14  C   UNL A   1      33.504  28.387  26.521  1.00  0.00     0.053 C 
ATOM     15  C   UNL A   1      34.105  29.272  27.603  1.00  0.00     0.174 C 
ATOM     16  C   UNL A   1      35.636  29.328  27.513  1.00  0.00     0.076 C 
ATOM     17  O   UNL A   1      33.587  30.622  27.508  1.00  0.00    -0.489 OA
ATOM     18  C   UNL A   1      35.884  30.771  27.679  1.00  0.00     0.025 C 
ENDBRANCH   9  13
ENDBRANCH   6   8
ENDBRANCH   5   6
ENDBRANCH   4   5
ENDBRANCH   3   4
ENDBRANCH   2   3
ENDBRANCH   1   2
BRANCH   1  19
ATOM     19  C   UNL A   1      36.603  34.274  31.967  1.00  0.00     0.261 C 
BRANCH  19  20
ATOM     20  O   UNL A   1      36.705  32.899  32.293  1.00  0.00    -0.460 OA
BRANCH  20  21
ATOM     21  C   UNL A   1      36.205  32.074  31.350  1.00  0.00     0.338 C 
ATOM     22  O   UNL A   1      35.018  31.874  31.101  1.00  0.00    -0.246 OA
BRANCH  21  23
ATOM     23  C   UNL A   1      37.301  31.316  30.756  1.00  0.00     0.060 A 
ATOM     24  C   UNL A   1      37.253  29.926  30.905  1.00  0.00     0.016 A 
ATOM     25  C   UNL A   1      38.456  31.980  30.317  1.00  0.00     0.016 A 
ATOM     26  C   UNL A   1      38.423  29.214  30.789  1.00  0.00     0.010 A 
ATOM     27  C   UNL A   1      39.627  31.272  30.223  1.00  0.00     0.010 A 
ATOM     28  C   UNL A   1      39.604  29.912  30.529  1.00  0.00    -0.014 A 
BRANCH  28  29
ATOM     29  C   UNL A   1      40.839  29.162  30.487  1.00  0.00     0.031 A 
ATOM     30  C   UNL A   1      41.389  28.906  31.833  1.00  0.00     0.074 A 
ATOM     31  C   UNL A   1      41.309  28.656  29.333  1.00  0.00     0.049 A 
ATOM     32  N   UNL A   1      42.475  29.376  32.350  1.00  0.00    -0.248 NA
ATOM     33  C   UNL A   1      40.520  28.203  32.792  1.00  0.00     0.031 C 
ATOM     34  C   UNL A   1      40.608  28.637  28.043  1.00  0.00     0.029 A 
ATOM     35  N   UNL A   1      42.422  27.906  29.099  1.00  0.00    -0.354 N 
ATOM     36  C   UNL A   1      42.547  28.779  33.606  1.00  0.00     0.074 A 
ATOM     37  C   UNL A   1      41.222  28.329  33.917  1.00  0.00     0.031 C 
ATOM     38  C   UNL A   1      41.175  27.702  27.251  1.00  0.00     0.029 A 
ATOM     39  C   UNL A   1      42.337  27.158  27.929  1.00  0.00     0.049 A 
ATOM     40  H   UNL A   1      43.205  27.895  29.696  1.00  0.00     0.167 HD
ATOM     41  C   UNL A   1      43.745  28.350  34.088  1.00  0.00     0.034 A 
ATOM     42  C   UNL A   1      43.111  26.101  27.590  1.00  0.00     0.034 A 
ATOM     43  C   UNL A   1      44.834  28.962  33.367  1.00  0.00     0.049 A 
ATOM     44  C   UNL A   1      44.341  26.157  28.411  1.00  0.00     0.074 A 
ATOM     45  C   UNL A   1      45.364  30.225  33.225  1.00  0.00     0.029 A 
ATOM     46  N   UNL A   1      45.318  28.195  32.337  1.00  0.00    -0.354 N 
ATOM     47  N   UNL A   1      45.252  27.082  28.286  1.00  0.00    -0.248 NA
ATOM     48  C   UNL A   1      44.431  25.352  29.624  1.00  0.00     0.031 C 
ATOM     49  C   UNL A   1      46.033  30.231  31.966  1.00  0.00     0.029 A 
ATOM     50  C   UNL A   1      45.905  28.970  31.381  1.00  0.00     0.049 A 
ATOM     51  H   UNL A   1      45.249  27.213  32.295  1.00  0.00     0.167 HD
ATOM     52  C   UNL A   1      45.725  27.266  29.574  1.00  0.00     0.074 A 
ATOM     53  C   UNL A   1      45.340  26.062  30.297  1.00  0.00     0.031 C 
ATOM     54  C   UNL A   1      46.075  28.508  30.018  1.00  0.00     0.034 A 
BRANCH  41  55
ATOM     55  C   UNL A   1      43.968  27.012  34.791  1.00  0.00     0.023 A 
ATOM     56  C   UNL A   1      44.625  27.074  36.043  1.00  0.00     0.012 A 
ATOM     57  C   UNL A   1      43.903  25.737  34.178  1.00  0.00     0.148 A 
ATOM     58  C   UNL A   1      45.277  25.965  36.592  1.00  0.00     0.002 A 
ATOM     59  C   UNL A   1      44.513  24.627  34.749  1.00  0.00     0.091 A 
ATOM     60  F   UNL A   1      43.343  25.584  32.980  1.00  0.00    -0.205 F 
ATOM     61  C   UNL A   1      45.233  24.742  35.938  1.00  0.00     0.022 A 
BRANCH  59  62
ATOM     62  S   UNL A   1      44.488  23.018  33.941  1.00  0.00     0.127 S 
ATOM     63  O   UNL A   1      43.053  22.794  33.794  1.00  0.00    -0.237 OA
ATOM     64  O   UNL A   1      45.207  23.300  32.699  1.00  0.00    -0.237 OA
ATOM     65  O   UNL A   1      45.184  22.108  34.844  1.00  0.00    -0.744 OA
ENDBRANCH  59  62
ENDBRANCH  41  55
BRANCH  42  66
ATOM     66  C   UNL A   1      42.790  24.935  26.737  1.00  0.00     0.023 A 
ATOM     67  C   UNL A   1      43.597  24.654  25.617  1.00  0.00     0.012 A 
ATOM     68  C   UNL A   1      41.853  23.959  27.147  1.00  0.00     0.148 A 
ATOM     69  C   UNL A   1      43.498  23.429  24.948  1.00  0.00     0.002 A 
ATOM     70  C   UNL A   1      41.747  22.750  26.468  1.00  0.00     0.091 A 
ATOM     71  F   UNL A   1      41.127  24.182  28.251  1.00  0.00    -0.205 F 
ATOM     72  C   UNL A   1      42.579  22.475  25.376  1.00  0.00     0.022 A 
BRANCH  70  73
ATOM     73  S   UNL A   1      40.584  21.468  26.959  1.00  0.00     0.127 S 
ATOM     74  O   UNL A   1      39.300  22.076  26.605  1.00  0.00    -0.237 OA
ATOM     75  O   UNL A   1      40.986  20.351  26.108  1.00  0.00    -0.237 OA
ATOM     76  O   UNL A   1      40.780  21.279  28.390  1.00  0.00    -0.744 OA
ENDBRANCH  70  73
ENDBRANCH  42  66
BRANCH  54  77
ATOM     77  C   UNL A   1      46.455  29.535  28.991  1.00  0.00     0.023 A 
ATOM     78  C   UNL A   1      47.764  29.664  28.491  1.00  0.00     0.012 A 
ATOM     79  C   UNL A   1      45.424  30.304  28.424  1.00  0.00     0.148 A 
ATOM     80  C   UNL A   1      48.043  30.564  27.459  1.00  0.00     0.002 A 
ATOM     81  C   UNL A   1      45.695  31.158  27.364  1.00  0.00     0.091 A 
ATOM     82  F   UNL A   1      44.184  30.171  28.920  1.00  0.00    -0.205 F 
ATOM     83  C   UNL A   1      47.007  31.299  26.885  1.00  0.00     0.022 A 
BRANCH  81  84
ATOM     84  S   UNL A   1      44.379  32.024  26.507  1.00  0.00     0.127 S 
ATOM     85  O   UNL A   1      43.936  32.985  27.515  1.00  0.00    -0.237 OA
ATOM     86  O   UNL A   1      45.082  32.615  25.366  1.00  0.00    -0.237 OA
ATOM     87  O   UNL A   1      43.407  31.003  26.137  1.00  0.00    -0.744 OA
ENDBRANCH  81  84
ENDBRANCH  54  77
ENDBRANCH  28  29
ENDBRANCH  21  23
ENDBRANCH  20  21
ENDBRANCH  19  20
ENDBRANCH   1  19
TORSDOF 18
ENDMDL
MODEL 2
REMARK VINA RESULT:     -10.1      3.440      5.113
REMARK SMILES C[C@H]1CC=C(C2=NN=C(C(=O)OCCOCCOC(=O)c3ccc(-c4c5nc(c(-c6cccc(S(=O)(=O)[O-])c6F)c6ccc([nH]6)c(-c6cccc(S(=O)(=O)[O-])c6F)c6nc(c(-c7cccc(S(=O)(=O)[O-])c7F)c7ccc4[nH]7)C=C6)C=C5)cc3)C2)O1
REMARK SMILES IDX 16 1 15 2 14 3 13 4 12 5 10 6 11 7 9 8 6 9 7 10 84 11 8 12
REMARK SMILES IDX 5 13 1 14 2 15 3 16 85 17 4 18 17 19 18 20 19 21 20 22 21 23
REMARK SMILES IDX 22 24 83 25 23 26 82 27 24 28 25 29 26 30 76 31 27 32 81 33
REMARK SMILES IDX 75 34 77 35 28 36 80 37 74 38 73 39 29 41 61 42 41 43 60 44
REMARK SMILES IDX 42 45 45 46 59 47 78 48 43 49 44 50 58 52 79 53 46 54 30 55
REMARK SMILES IDX 31 56 39 57 32 58 34 59 40 60 33 61 35 62 36 63 37 64 38 65
REMARK SMILES IDX 62 66 63 67 71 68 64 69 66 70 72 71 65 72 67 73 68 74 69 75
REMARK SMILES IDX 70 76 47 77 48 78 56 79 49 80 51 81 57 82 50 83 52 84 53 85
REMARK SMILES IDX 54 86 55 87
REMARK H PARENT 77 40 45 51
REMARK Flexibility Score: inf
ROOT
ATOM      1  C   UNL A   1      33.094  30.019  26.824  1.00  0.00     0.202 C 
ENDROOT
BRANCH   1   2
ATOM      2  O   UNL A   1      32.111  30.440  25.883  1.00  0.00    -0.374 OA
BRANCH   2   3
ATOM      3  C   UNL A   1      31.626  29.506  24.917  1.00  0.00     0.202 C 
BRANCH   3   4
ATOM      4  C   UNL A   1      32.648  28.558  24.289  1.00  0.00     0.261 C 
BRANCH   4   5
ATOM      5  O   UNL A   1      32.362  28.295  22.908  1.00  0.00    -0.459 OA
BRANCH   5   6
ATOM      6  C   UNL A   1      33.375  27.749  22.219  1.00  0.00     0.355 C 
ATOM      7  O   UNL A   1      34.458  28.246  21.937  1.00  0.00    -0.245 OA
BRANCH   6   8
ATOM      8  C   UNL A   1      33.134  26.306  21.926  1.00  0.00     0.154 C 
ATOM      9  C   UNL A   1      33.039  24.112  22.240  1.00  0.00     0.111 C 
ATOM     10  N   UNL A   1      33.172  24.335  20.967  1.00  0.00    -0.151 NA
ATOM     11  C   UNL A   1      32.876  25.360  23.038  1.00  0.00     0.128 C 
ATOM     12  N   UNL A   1      33.227  25.752  20.758  1.00  0.00    -0.147 NA
BRANCH   9  13
ATOM     13  C   UNL A   1      33.160  22.814  22.919  1.00  0.00     0.139 C 
ATOM     14  C   UNL A   1      32.411  19.497  23.490  1.00  0.00     0.053 C 
ATOM     15  C   UNL A   1      32.513  20.945  23.946  1.00  0.00     0.174 C 
ATOM     16  C   UNL A   1      33.924  21.294  24.438  1.00  0.00     0.076 C 
ATOM     17  O   UNL A   1      32.163  21.848  22.869  1.00  0.00    -0.489 OA
ATOM     18  C   UNL A   1      34.147  22.594  23.781  1.00  0.00     0.025 C 
ENDBRANCH   9  13
ENDBRANCH   6   8
ENDBRANCH   5   6
ENDBRANCH   4   5
ENDBRANCH   3   4
ENDBRANCH   2   3
ENDBRANCH   1   2
BRANCH   1  19
ATOM     19  C   UNL A   1      33.944  31.079  27.508  1.00  0.00     0.261 C 
BRANCH  19  20
ATOM     20  O   UNL A   1      35.227  30.595  27.865  1.00  0.00    -0.460 OA
BRANCH  20  21
ATOM     21  C   UNL A   1      36.041  31.536  28.386  1.00  0.00     0.338 C 
ATOM     22  O   UNL A   1      36.023  32.741  28.143  1.00  0.00    -0.246 OA
BRANCH  21  23
ATOM     23  C   UNL A   1      37.075  30.880  29.181  1.00  0.00     0.060 A 
ATOM     24  C   UNL A   1      38.196  31.650  29.505  1.00  0.00     0.016 A 
ATOM     25  C   UNL A   1      37.049  29.488  29.353  1.00  0.00     0.016 A 
ATOM     26  C   UNL A   1      39.363  31.002  29.833  1.00  0.00     0.010 A 
ATOM     27  C   UNL A   1      38.219  28.842  29.658  1.00  0.00     0.010 A 
ATOM     28  C   UNL A   1      39.373  29.606  29.824  1.00  0.00    -0.014 A 
BRANCH  28  29
ATOM     29  C   UNL A   1      40.626  28.936  30.094  1.00  0.00     0.031 A 
ATOM     30  C   UNL A   1      40.975  28.950  31.529  1.00  0.00     0.074 A 
ATOM     31  C   UNL A   1      41.283  28.268  29.129  1.00  0.00     0.049 A 
ATOM     32  N   UNL A   1      41.952  29.568  32.103  1.00  0.00    -0.248 NA
ATOM     33  C   UNL A   1      39.994  28.371  32.464  1.00  0.00     0.031 C 
ATOM     34  C   UNL A   1      40.786  27.985  27.777  1.00  0.00     0.029 A 
ATOM     35  N   UNL A   1      42.444  27.559  29.195  1.00  0.00    -0.354 N 
ATOM     36  C   UNL A   1      41.853  29.201  33.444  1.00  0.00     0.074 A 
ATOM     37  C   UNL A   1      40.513  28.732  33.636  1.00  0.00     0.031 C 
ATOM     38  C   UNL A   1      41.499  26.964  27.255  1.00  0.00     0.029 A 
ATOM     39  C   UNL A   1      42.564  26.616  28.179  1.00  0.00     0.049 A 
ATOM     40  H   UNL A   1      43.127  27.698  29.891  1.00  0.00     0.167 HD
ATOM     41  C   UNL A   1      42.979  28.936  34.161  1.00  0.00     0.034 A 
ATOM     42  C   UNL A   1      43.416  25.566  28.149  1.00  0.00     0.034 A 
ATOM     43  C   UNL A   1      44.142  29.480  33.505  1.00  0.00     0.049 A 
ATOM     44  C   UNL A   1      44.505  25.837  29.114  1.00  0.00     0.074 A 
ATOM     45  C   UNL A   1      44.643  30.729  33.216  1.00  0.00     0.029 A 
ATOM     46  N   UNL A   1      44.803  28.577  32.710  1.00  0.00    -0.354 N 
ATOM     47  N   UNL A   1      45.392  26.781  28.957  1.00  0.00    -0.248 NA
ATOM     48  C   UNL A   1      44.438  25.260  30.453  1.00  0.00     0.031 C 
ATOM     49  C   UNL A   1      45.495  30.559  32.086  1.00  0.00     0.029 A 
ATOM     50  C   UNL A   1      45.502  29.211  31.724  1.00  0.00     0.049 A 
ATOM     51  H   UNL A   1      44.775  27.601  32.835  1.00  0.00     0.167 HD
ATOM     52  C   UNL A   1      45.657  27.212  30.246  1.00  0.00     0.074 A 
ATOM     53  C   UNL A   1      45.209  26.131  31.110  1.00  0.00     0.031 C 
ATOM     54  C   UNL A   1      45.892  28.531  30.505  1.00  0.00     0.034 A 
BRANCH  41  55
ATOM     55  C   UNL A   1      43.138  27.755  35.117  1.00  0.00     0.023 A 
ATOM     56  C   UNL A   1      43.550  28.077  36.433  1.00  0.00     0.012 A 
ATOM     57  C   UNL A   1      43.254  26.396  34.738  1.00  0.00     0.148 A 
ATOM     58  C   UNL A   1      44.147  27.132  37.273  1.00  0.00     0.002 A 
ATOM     59  C   UNL A   1      43.808  25.450  35.592  1.00  0.00     0.091 A 
ATOM     60  F   UNL A   1      42.934  26.001  33.508  1.00  0.00    -0.205 F 
ATOM     61  C   UNL A   1      44.289  25.819  36.848  1.00  0.00     0.022 A 
BRANCH  59  62
ATOM     62  S   UNL A   1      44.016  23.733  35.090  1.00  0.00     0.127 S 
ATOM     63  O   UNL A   1      44.668  23.168  36.269  1.00  0.00    -0.237 OA
ATOM     64  O   UNL A   1      42.630  23.316  34.882  1.00  0.00    -0.237 OA
ATOM     65  O   UNL A   1      44.821  23.768  33.874  1.00  0.00    -0.744 OA
ENDBRANCH  59  62
ENDBRANCH  41  55
BRANCH  42  66
ATOM     66  C   UNL A   1      43.269  24.253  27.483  1.00  0.00     0.023 A 
ATOM     67  C   UNL A   1      42.038  23.571  27.561  1.00  0.00     0.012 A 
ATOM     68  C   UNL A   1      44.238  23.777  26.572  1.00  0.00     0.148 A 
ATOM     69  C   UNL A   1      41.769  22.474  26.736  1.00  0.00     0.002 A 
ATOM     70  C   UNL A   1      43.972  22.675  25.765  1.00  0.00     0.091 A 
ATOM     71  F   UNL A   1      45.386  24.455  26.436  1.00  0.00    -0.205 F 
ATOM     72  C   UNL A   1      42.732  22.030  25.834  1.00  0.00     0.022 A 
BRANCH  70  73
ATOM     73  S   UNL A   1      45.165  22.041  24.578  1.00  0.00     0.127 S 
ATOM     74  O   UNL A   1      46.320  21.758  25.433  1.00  0.00    -0.237 OA
ATOM     75  O   UNL A   1      44.482  20.857  24.063  1.00  0.00    -0.237 OA
ATOM     76  O   UNL A   1      45.383  23.116  23.618  1.00  0.00    -0.744 OA
ENDBRANCH  70  73
ENDBRANCH  42  66
BRANCH  54  77
ATOM     77  C   UNL A   1      46.387  29.387  29.375  1.00  0.00     0.023 A 
ATOM     78  C   UNL A   1      47.713  29.338  28.906  1.00  0.00     0.012 A 
ATOM     79  C   UNL A   1      45.444  30.170  28.687  1.00  0.00     0.148 A 
ATOM     80  C   UNL A   1      48.097  30.076  27.784  1.00  0.00     0.002 A 
ATOM     81  C   UNL A   1      45.816  30.861  27.541  1.00  0.00     0.091 A 
ATOM     82  F   UNL A   1      44.187  30.210  29.154  1.00  0.00    -0.205 F 
ATOM     83  C   UNL A   1      47.146  30.825  27.092  1.00  0.00     0.022 A 
BRANCH  81  84
ATOM     84  S   UNL A   1      44.605  31.729  26.544  1.00  0.00     0.127 S 
ATOM     85  O   UNL A   1      44.181  32.802  27.440  1.00  0.00    -0.237 OA
ATOM     86  O   UNL A   1      45.400  32.170  25.395  1.00  0.00    -0.237 OA
ATOM     87  O   UNL A   1      43.584  30.743  26.212  1.00  0.00    -0.744 OA
ENDBRANCH  81  84
ENDBRANCH  54  77
ENDBRANCH  28  29
ENDBRANCH  21  23
ENDBRANCH  20  21
ENDBRANCH  19  20
ENDBRANCH   1  19
TORSDOF 18
ENDMDL
MODEL 3
REMARK VINA RESULT:     -10.0      3.589      9.035
REMARK SMILES C[C@H]1CC=C(C2=NN=C(C(=O)OCCOCCOC(=O)c3ccc(-c4c5nc(c(-c6cccc(S(=O)(=O)[O-])c6F)c6ccc([nH]6)c(-c6cccc(S(=O)(=O)[O-])c6F)c6nc(c(-c7cccc(S(=O)(=O)[O-])c7F)c7ccc4[nH]7)C=C6)C=C5)cc3)C2)O1
REMARK SMILES IDX 16 1 15 2 14 3 13 4 12 5 10 6 11 7 9 8 6 9 7 10 84 11 8 12
REMARK SMILES IDX 5 13 1 14 2 15 3 16 85 17 4 18 17 19 18 20 19 21 20 22 21 23
REMARK SMILES IDX 22 24 83 25 23 26 82 27 24 28 25 29 26 30 76 31 27 32 81 33
REMARK SMILES IDX 75 34 77 35 28 36 80 37 74 38 73 39 29 41 61 42 41 43 60 44
REMARK SMILES IDX 42 45 45 46 59 47 78 48 43 49 44 50 58 52 79 53 46 54 30 55
REMARK SMILES IDX 31 56 39 57 32 58 34 59 40 60 33 61 35 62 36 63 37 64 38 65
REMARK SMILES IDX 62 66 63 67 71 68 64 69 66 70 72 71 65 72 67 73 68 74 69 75
REMARK SMILES IDX 70 76 47 77 48 78 56 79 49 80 51 81 57 82 50 83 52 84 53 85
REMARK SMILES IDX 54 86 55 87
REMARK H PARENT 77 40 45 51
REMARK Flexibility Score: inf
ROOT
ATOM      1  C   UNL A   1      37.842  21.331  25.343  1.00  0.00     0.202 C 
ENDROOT
BRANCH   1   2
ATOM      2  O   UNL A   1      37.084  20.147  25.118  1.00  0.00    -0.374 OA
BRANCH   2   3
ATOM      3  C   UNL A   1      35.668  20.245  24.959  1.00  0.00     0.202 C 
BRANCH   3   4
ATOM      4  C   UNL A   1      35.078  21.648  24.815  1.00  0.00     0.261 C 
BRANCH   4   5
ATOM      5  O   UNL A   1      33.881  21.812  25.589  1.00  0.00    -0.459 OA
BRANCH   5   6
ATOM      6  C   UNL A   1      33.985  22.679  26.608  1.00  0.00     0.355 C 
ATOM      7  O   UNL A   1      34.837  22.721  27.486  1.00  0.00    -0.245 OA
BRANCH   6   8
ATOM      8  C   UNL A   1      32.992  23.787  26.498  1.00  0.00     0.154 C 
ATOM      9  C   UNL A   1      32.192  25.851  26.359  1.00  0.00     0.111 C 
ATOM     10  N   UNL A   1      31.269  25.091  26.868  1.00  0.00    -0.151 NA
ATOM     11  C   UNL A   1      33.404  25.096  25.934  1.00  0.00     0.128 C 
ATOM     12  N   UNL A   1      31.779  23.754  26.953  1.00  0.00    -0.147 NA
BRANCH   9  13
ATOM     13  C   UNL A   1      32.181  27.320  26.296  1.00  0.00     0.139 C 
ATOM     14  C   UNL A   1      33.030  30.505  27.307  1.00  0.00     0.053 C 
ATOM     15  C   UNL A   1      32.002  29.423  27.011  1.00  0.00     0.174 C 
ATOM     16  C   UNL A   1      31.615  29.391  25.527  1.00  0.00     0.076 C 
ATOM     17  O   UNL A   1      32.509  28.118  27.384  1.00  0.00    -0.489 OA
ATOM     18  C   UNL A   1      31.655  27.945  25.247  1.00  0.00     0.025 C 
ENDBRANCH   9  13
ENDBRANCH   6   8
ENDBRANCH   5   6
ENDBRANCH   4   5
ENDBRANCH   3   4
ENDBRANCH   2   3
ENDBRANCH   1   2
BRANCH   1  19
ATOM     19  C   UNL A   1      39.313  21.192  25.707  1.00  0.00     0.261 C 
BRANCH  19  20
ATOM     20  O   UNL A   1      39.674  19.850  25.986  1.00  0.00    -0.460 OA
BRANCH  20  21
ATOM     21  C   UNL A   1      41.005  19.630  25.982  1.00  0.00     0.338 C 
ATOM     22  O   UNL A   1      41.583  18.622  25.580  1.00  0.00    -0.246 OA
BRANCH  21  23
ATOM     23  C   UNL A   1      41.668  20.724  26.684  1.00  0.00     0.060 A 
ATOM     24  C   UNL A   1      41.364  20.871  28.041  1.00  0.00     0.016 A 
ATOM     25  C   UNL A   1      42.341  21.718  25.957  1.00  0.00     0.016 A 
ATOM     26  C   UNL A   1      41.574  22.096  28.630  1.00  0.00     0.010 A 
ATOM     27  C   UNL A   1      42.528  22.946  26.539  1.00  0.00     0.010 A 
ATOM     28  C   UNL A   1      42.077  23.135  27.844  1.00  0.00    -0.014 A 
BRANCH  28  29
ATOM     29  C   UNL A   1      42.219  24.438  28.454  1.00  0.00     0.031 A 
ATOM     30  C   UNL A   1      41.092  25.336  28.133  1.00  0.00     0.074 A 
ATOM     31  C   UNL A   1      43.211  24.697  29.324  1.00  0.00     0.049 A 
ATOM     32  N   UNL A   1      41.111  26.410  27.417  1.00  0.00    -0.248 NA
ATOM     33  C   UNL A   1      39.739  24.869  28.482  1.00  0.00     0.031 C 
ATOM     34  C   UNL A   1      44.149  23.719  29.889  1.00  0.00     0.029 A 
ATOM     35  N   UNL A   1      43.488  25.837  30.016  1.00  0.00    -0.354 N 
ATOM     36  C   UNL A   1      39.806  26.894  27.482  1.00  0.00     0.074 A 
ATOM     37  C   UNL A   1      38.986  25.788  27.881  1.00  0.00     0.031 C 
ATOM     38  C   UNL A   1      44.699  24.237  31.007  1.00  0.00     0.029 A 
ATOM     39  C   UNL A   1      44.248  25.609  31.159  1.00  0.00     0.049 A 
ATOM     40  H   UNL A   1      43.181  26.731  29.737  1.00  0.00     0.167 HD
ATOM     41  C   UNL A   1      39.580  28.230  27.598  1.00  0.00     0.034 A 
ATOM     42  C   UNL A   1      44.413  26.456  32.201  1.00  0.00     0.034 A 
ATOM     43  C   UNL A   1      40.754  28.981  27.224  1.00  0.00     0.049 A 
ATOM     44  C   UNL A   1      44.062  27.818  31.739  1.00  0.00     0.074 A 
ATOM     45  C   UNL A   1      41.471  29.221  26.073  1.00  0.00     0.029 A 
ATOM     46  N   UNL A   1      41.550  29.331  28.286  1.00  0.00    -0.354 N 
ATOM     47  N   UNL A   1      44.760  28.486  30.863  1.00  0.00    -0.248 NA
ATOM     48  C   UNL A   1      42.729  28.345  32.010  1.00  0.00     0.031 C 
ATOM     49  C   UNL A   1      42.792  29.551  26.496  1.00  0.00     0.029 A 
ATOM     50  C   UNL A   1      42.842  29.517  27.891  1.00  0.00     0.049 A 
ATOM     51  H   UNL A   1      41.229  29.434  29.211  1.00  0.00     0.167 HD
ATOM     52  C   UNL A   1      43.813  29.217  30.165  1.00  0.00     0.074 A 
ATOM     53  C   UNL A   1      42.640  29.245  31.027  1.00  0.00     0.031 C 
ATOM     54  C   UNL A   1      43.948  29.432  28.824  1.00  0.00     0.034 A 
BRANCH  41  55
ATOM     55  C   UNL A   1      38.558  28.857  28.544  1.00  0.00     0.023 A 
ATOM     56  C   UNL A   1      37.729  29.857  27.982  1.00  0.00     0.012 A 
ATOM     57  C   UNL A   1      38.594  28.792  29.958  1.00  0.00     0.148 A 
ATOM     58  C   UNL A   1      37.073  30.805  28.775  1.00  0.00     0.002 A 
ATOM     59  C   UNL A   1      37.904  29.708  30.744  1.00  0.00     0.091 A 
ATOM     60  F   UNL A   1      39.376  27.913  30.581  1.00  0.00    -0.205 F 
ATOM     61  C   UNL A   1      37.171  30.739  30.157  1.00  0.00     0.022 A 
BRANCH  59  62
ATOM     62  S   UNL A   1      37.998  29.668  32.542  1.00  0.00     0.127 S 
ATOM     63  O   UNL A   1      37.427  28.356  32.829  1.00  0.00    -0.237 OA
ATOM     64  O   UNL A   1      39.439  29.784  32.764  1.00  0.00    -0.237 OA
ATOM     65  O   UNL A   1      37.225  30.814  33.007  1.00  0.00    -0.744 OA
ENDBRANCH  59  62
ENDBRANCH  41  55
BRANCH  42  66
ATOM     66  C   UNL A   1      44.678  26.155  33.625  1.00  0.00     0.023 A 
ATOM     67  C   UNL A   1      46.009  26.065  34.078  1.00  0.00     0.012 A 
ATOM     68  C   UNL A   1      43.646  26.198  34.590  1.00  0.00     0.148 A 
ATOM     69  C   UNL A   1      46.305  26.051  35.445  1.00  0.00     0.002 A 
ATOM     70  C   UNL A   1      43.945  26.166  35.948  1.00  0.00     0.091 A 
ATOM     71  F   UNL A   1      42.380  26.354  34.178  1.00  0.00    -0.205 F 
ATOM     72  C   UNL A   1      45.275  26.108  36.380  1.00  0.00     0.022 A 
BRANCH  70  73
ATOM     73  S   UNL A   1      42.670  26.235  37.216  1.00  0.00     0.127 S 
ATOM     74  O   UNL A   1      41.930  27.439  36.833  1.00  0.00    -0.237 OA
ATOM     75  O   UNL A   1      41.954  24.982  36.995  1.00  0.00    -0.237 OA
ATOM     76  O   UNL A   1      43.376  26.347  38.486  1.00  0.00    -0.744 OA
ENDBRANCH  70  73
ENDBRANCH  42  66
BRANCH  54  77
ATOM     77  C   UNL A   1      45.329  29.356  28.240  1.00  0.00     0.023 A 
ATOM     78  C   UNL A   1      46.249  30.418  28.321  1.00  0.00     0.012 A 
ATOM     79  C   UNL A   1      45.748  28.124  27.708  1.00  0.00     0.148 A 
ATOM     80  C   UNL A   1      47.557  30.260  27.856  1.00  0.00     0.002 A 
ATOM     81  C   UNL A   1      47.062  27.955  27.296  1.00  0.00     0.091 A 
ATOM     82  F   UNL A   1      44.853  27.127  27.633  1.00  0.00    -0.205 F 
ATOM     83  C   UNL A   1      47.968  29.025  27.358  1.00  0.00     0.022 A 
BRANCH  81  84
ATOM     84  S   UNL A   1      47.674  26.352  26.773  1.00  0.00     0.127 S 
ATOM     85  O   UNL A   1      49.078  26.637  26.487  1.00  0.00    -0.237 OA
ATOM     86  O   UNL A   1      47.446  25.525  27.959  1.00  0.00    -0.237 OA
ATOM     87  O   UNL A   1      46.861  25.973  25.623  1.00  0.00    -0.744 OA
ENDBRANCH  81  84
ENDBRANCH  54  77
ENDBRANCH  28  29
ENDBRANCH  21  23
ENDBRANCH  20  21
ENDBRANCH  19  20
ENDBRANCH   1  19
TORSDOF 18
ENDMDL
