MODEL 1
REMARK VINA RESULT:     -10.3      0.000      0.000
REMARK SMILES C[C@H]([NH2+]CC1(O)CCCC1)[C@H](C)C(=O)OCCOCCOC(=O)c1ccc(-c2c3nc(c(-c4cccc(S(=O)(=O)[O-])c4F)c4ccc([nH]4)c(-c4cccc(S(=O)(=O)[O-])c4F)c4nc(c(-c5cccc(S(=O)(=O)[O-])c5F)c5ccc2[nH]5)C=C4)C=C3)cc1
REMARK SMILES IDX 17 1 16 2 15 3 13 4 14 5 11 6 12 7 2 8 1 9 3 10 4 13 5 14
REMARK SMILES IDX 7 15 10 16 8 17 9 18 6 19 18 21 19 22 20 23 21 24 22 25
REMARK SMILES IDX 23 26 24 27 25 28 86 29 26 30 85 31 27 32 28 33 29 34 79 35
REMARK SMILES IDX 30 36 84 37 78 38 80 39 31 40 83 41 77 42 76 43 32 45 64 46
REMARK SMILES IDX 44 47 63 48 45 49 48 50 62 51 81 52 46 53 47 54 61 56 82 57
REMARK SMILES IDX 49 58 33 59 34 60 42 61 35 62 37 63 43 64 36 65 38 66 39 67
REMARK SMILES IDX 40 68 41 69 65 70 66 71 74 72 67 73 69 74 75 75 68 76 70 77
REMARK SMILES IDX 71 78 72 79 73 80 50 81 51 82 59 83 52 84 54 85 60 86 53 87
REMARK SMILES IDX 55 88 56 89 57 90 58 91
REMARK H PARENT 3 11 3 12 6 20 80 44 48 55
REMARK Flexibility Score: inf
ROOT
ATOM      1  C   UNL A   1      33.556  29.978  26.157  1.00  0.00     0.202 C 
ENDROOT
BRANCH   1   2
ATOM      2  C   UNL A   1      33.726  28.589  25.528  1.00  0.00     0.261 C 
BRANCH   2   3
ATOM      3  O   UNL A   1      32.481  28.030  25.066  1.00  0.00    -0.463 OA
BRANCH   3   4
ATOM      4  C   UNL A   1      32.573  27.196  23.993  1.00  0.00     0.314 C 
ATOM      5  O   UNL A   1      33.544  27.132  23.248  1.00  0.00    -0.252 OA
BRANCH   4   6
ATOM      6  C   UNL A   1      31.351  26.299  23.851  1.00  0.00     0.154 C 
ATOM      7  C   UNL A   1      31.570  24.978  24.599  1.00  0.00     0.026 C 
BRANCH   6   8
ATOM      8  C   UNL A   1      30.071  27.094  24.221  1.00  0.00     0.193 C 
ATOM      9  C   UNL A   1      28.770  26.352  23.876  1.00  0.00     0.076 C 
BRANCH   8  10
ATOM     10  N   UNL A   1      30.028  28.386  23.491  1.00  0.00    -0.341 N 
ATOM     11  H   UNL A   1      30.811  28.419  22.838  1.00  0.00     0.346 HD
ATOM     12  H   UNL A   1      30.084  29.135  24.182  1.00  0.00     0.346 HD
BRANCH  10  13
ATOM     13  C   UNL A   1      28.777  28.567  22.736  1.00  0.00     0.296 C 
BRANCH  13  14
ATOM     14  C   UNL A   1      28.236  30.011  22.683  1.00  0.00     0.113 C 
ATOM     15  C   UNL A   1      28.362  30.697  21.323  1.00  0.00     0.041 C 
ATOM     16  C   UNL A   1      28.971  30.977  23.618  1.00  0.00     0.041 C 
ATOM     17  C   UNL A   1      28.191  32.183  21.633  1.00  0.00     0.003 C 
ATOM     18  C   UNL A   1      28.612  32.369  23.093  1.00  0.00     0.003 C 
BRANCH  14  19
ATOM     19  O   UNL A   1      26.847  29.952  23.043  1.00  0.00    -0.384 OA
ATOM     20  H   UNL A   1      26.633  30.697  23.626  1.00  0.00     0.211 HD
ENDBRANCH  14  19
ENDBRANCH  13  14
ENDBRANCH  10  13
ENDBRANCH   8  10
ENDBRANCH   6   8
ENDBRANCH   4   6
ENDBRANCH   3   4
ENDBRANCH   2   3
ENDBRANCH   1   2
BRANCH   1  21
ATOM     21  O   UNL A   1      32.328  30.248  26.834  1.00  0.00    -0.374 OA
BRANCH  21  22
ATOM     22  C   UNL A   1      31.584  31.389  26.415  1.00  0.00     0.202 C 
BRANCH  22  23
ATOM     23  C   UNL A   1      31.590  32.609  27.341  1.00  0.00     0.261 C 
BRANCH  23  24
ATOM     24  O   UNL A   1      32.777  33.405  27.190  1.00  0.00    -0.460 OA
BRANCH  24  25
ATOM     25  C   UNL A   1      33.380  33.722  28.358  1.00  0.00     0.338 C 
ATOM     26  O   UNL A   1      32.916  34.412  29.261  1.00  0.00    -0.246 OA
BRANCH  25  27
ATOM     27  C   UNL A   1      34.645  32.983  28.518  1.00  0.00     0.060 A 
ATOM     28  C   UNL A   1      34.571  31.742  29.161  1.00  0.00     0.016 A 
ATOM     29  C   UNL A   1      35.880  33.519  28.146  1.00  0.00     0.016 A 
ATOM     30  C   UNL A   1      35.737  31.069  29.512  1.00  0.00     0.010 A 
ATOM     31  C   UNL A   1      37.053  32.839  28.501  1.00  0.00     0.010 A 
ATOM     32  C   UNL A   1      36.985  31.639  29.233  1.00  0.00    -0.014 A 
BRANCH  32  33
ATOM     33  C   UNL A   1      38.190  31.044  29.863  1.00  0.00     0.031 A 
ATOM     34  C   UNL A   1      38.551  31.434  31.271  1.00  0.00     0.074 A 
ATOM     35  C   UNL A   1      38.910  30.109  29.217  1.00  0.00     0.049 A 
ATOM     36  N   UNL A   1      39.488  30.957  32.047  1.00  0.00    -0.248 NA
ATOM     37  C   UNL A   1      37.745  32.501  31.890  1.00  0.00     0.031 C 
ATOM     38  C   UNL A   1      38.665  29.649  27.851  1.00  0.00     0.029 A 
ATOM     39  N   UNL A   1      39.997  29.381  29.630  1.00  0.00    -0.354 N 
ATOM     40  C   UNL A   1      39.397  31.671  33.236  1.00  0.00     0.074 A 
ATOM     41  C   UNL A   1      38.329  32.632  33.072  1.00  0.00     0.031 C 
ATOM     42  C   UNL A   1      39.584  28.721  27.533  1.00  0.00     0.029 A 
ATOM     43  C   UNL A   1      40.485  28.527  28.669  1.00  0.00     0.049 A 
ATOM     44  H   UNL A   1      40.391  29.462  30.528  1.00  0.00     0.167 HD
ATOM     45  C   UNL A   1      40.120  31.524  34.373  1.00  0.00     0.034 A 
ATOM     46  C   UNL A   1      41.535  27.684  28.703  1.00  0.00     0.034 A 
ATOM     47  C   UNL A   1      41.166  30.554  34.547  1.00  0.00     0.049 A 
ATOM     48  C   UNL A   1      42.324  27.540  29.980  1.00  0.00     0.074 A 
ATOM     49  C   UNL A   1      41.926  30.299  35.675  1.00  0.00     0.029 A 
ATOM     50  N   UNL A   1      41.608  29.683  33.563  1.00  0.00    -0.354 N 
ATOM     51  N   UNL A   1      42.137  28.127  31.137  1.00  0.00    -0.248 NA
ATOM     52  C   UNL A   1      43.442  26.585  29.966  1.00  0.00     0.031 C 
ATOM     53  C   UNL A   1      42.841  29.286  35.367  1.00  0.00     0.029 A 
ATOM     54  C   UNL A   1      42.636  28.895  34.054  1.00  0.00     0.049 A 
ATOM     55  H   UNL A   1      41.245  29.632  32.649  1.00  0.00     0.167 HD
ATOM     56  C   UNL A   1      43.089  27.589  31.997  1.00  0.00     0.074 A 
ATOM     57  C   UNL A   1      43.834  26.610  31.233  1.00  0.00     0.031 C 
ATOM     58  C   UNL A   1      43.336  27.888  33.297  1.00  0.00     0.034 A 
BRANCH  45  59
ATOM     59  C   UNL A   1      39.774  32.414  35.538  1.00  0.00     0.023 A 
ATOM     60  C   UNL A   1      40.315  33.715  35.602  1.00  0.00     0.012 A 
ATOM     61  C   UNL A   1      38.878  31.988  36.537  1.00  0.00     0.148 A 
ATOM     62  C   UNL A   1      39.991  34.568  36.657  1.00  0.00     0.002 A 
ATOM     63  C   UNL A   1      38.529  32.858  37.564  1.00  0.00     0.091 A 
ATOM     64  F   UNL A   1      38.396  30.739  36.473  1.00  0.00    -0.205 F 
ATOM     65  C   UNL A   1      39.091  34.143  37.631  1.00  0.00     0.022 A 
BRANCH  63  66
ATOM     66  S   UNL A   1      37.324  32.429  38.825  1.00  0.00     0.127 S 
ATOM     67  O   UNL A   1      37.750  33.273  39.940  1.00  0.00    -0.237 OA
ATOM     68  O   UNL A   1      36.065  32.833  38.200  1.00  0.00    -0.237 OA
ATOM     69  O   UNL A   1      37.460  30.995  39.038  1.00  0.00    -0.744 OA
ENDBRANCH  63  66
ENDBRANCH  45  59
BRANCH  46  70
ATOM     70  C   UNL A   1      41.868  26.864  27.505  1.00  0.00     0.023 A 
ATOM     71  C   UNL A   1      42.482  27.470  26.392  1.00  0.00     0.012 A 
ATOM     72  C   UNL A   1      41.599  25.482  27.472  1.00  0.00     0.148 A 
ATOM     73  C   UNL A   1      42.794  26.722  25.257  1.00  0.00     0.002 A 
ATOM     74  C   UNL A   1      41.963  24.731  26.361  1.00  0.00     0.091 A 
ATOM     75  F   UNL A   1      40.995  24.927  28.533  1.00  0.00    -0.205 F 
ATOM     76  C   UNL A   1      42.545  25.351  25.245  1.00  0.00     0.022 A 
BRANCH  74  77
ATOM     77  S   UNL A   1      41.800  22.943  26.318  1.00  0.00     0.127 S 
ATOM     78  O   UNL A   1      42.597  22.597  25.143  1.00  0.00    -0.237 OA
ATOM     79  O   UNL A   1      42.391  22.553  27.599  1.00  0.00    -0.237 OA
ATOM     80  O   UNL A   1      40.371  22.683  26.217  1.00  0.00    -0.744 OA
ENDBRANCH  74  77
ENDBRANCH  46  70
BRANCH  58  81
ATOM     81  C   UNL A   1      44.443  27.134  33.989  1.00  0.00     0.023 A 
ATOM     82  C   UNL A   1      45.772  27.584  33.874  1.00  0.00     0.012 A 
ATOM     83  C   UNL A   1      44.160  26.017  34.799  1.00  0.00     0.148 A 
ATOM     84  C   UNL A   1      46.808  26.912  34.522  1.00  0.00     0.002 A 
ATOM     85  C   UNL A   1      45.192  25.379  35.479  1.00  0.00     0.091 A 
ATOM     86  F   UNL A   1      42.892  25.587  34.882  1.00  0.00    -0.205 F 
ATOM     87  C   UNL A   1      46.517  25.818  35.332  1.00  0.00     0.022 A 
BRANCH  85  88
ATOM     88  S   UNL A   1      44.889  24.021  36.616  1.00  0.00     0.127 S 
ATOM     89  O   UNL A   1      46.232  23.752  37.126  1.00  0.00    -0.237 OA
ATOM     90  O   UNL A   1      43.977  24.623  37.590  1.00  0.00    -0.237 OA
ATOM     91  O   UNL A   1      44.293  22.960  35.814  1.00  0.00    -0.744 OA
ENDBRANCH  85  88
ENDBRANCH  58  81
ENDBRANCH  32  33
ENDBRANCH  25  27
ENDBRANCH  24  25
ENDBRANCH  23  24
ENDBRANCH  22  23
ENDBRANCH  21  22
ENDBRANCH   1  21
TORSDOF 22
ENDMDL
MODEL 2
REMARK VINA RESULT:     -10.0      5.212     10.178
REMARK SMILES C[C@H]([NH2+]CC1(O)CCCC1)[C@H](C)C(=O)OCCOCCOC(=O)c1ccc(-c2c3nc(c(-c4cccc(S(=O)(=O)[O-])c4F)c4ccc([nH]4)c(-c4cccc(S(=O)(=O)[O-])c4F)c4nc(c(-c5cccc(S(=O)(=O)[O-])c5F)c5ccc2[nH]5)C=C4)C=C3)cc1
REMARK SMILES IDX 17 1 16 2 15 3 13 4 14 5 11 6 12 7 2 8 1 9 3 10 4 13 5 14
REMARK SMILES IDX 7 15 10 16 8 17 9 18 6 19 18 21 19 22 20 23 21 24 22 25
REMARK SMILES IDX 23 26 24 27 25 28 86 29 26 30 85 31 27 32 28 33 29 34 79 35
REMARK SMILES IDX 30 36 84 37 78 38 80 39 31 40 83 41 77 42 76 43 32 45 64 46
REMARK SMILES IDX 44 47 63 48 45 49 48 50 62 51 81 52 46 53 47 54 61 56 82 57
REMARK SMILES IDX 49 58 33 59 34 60 42 61 35 62 37 63 43 64 36 65 38 66 39 67
REMARK SMILES IDX 40 68 41 69 65 70 66 71 74 72 67 73 69 74 75 75 68 76 70 77
REMARK SMILES IDX 71 78 72 79 73 80 50 81 51 82 59 83 52 84 54 85 60 86 53 87
REMARK SMILES IDX 55 88 56 89 57 90 58 91
REMARK H PARENT 3 11 3 12 6 20 80 44 48 55
REMARK Flexibility Score: inf
ROOT
ATOM      1  C   UNL A   1      34.157  23.070  24.408  1.00  0.00     0.202 C 
ENDROOT
BRANCH   1   2
ATOM      2  C   UNL A   1      34.045  23.950  23.156  1.00  0.00     0.261 C 
BRANCH   2   3
ATOM      3  O   UNL A   1      33.878  25.347  23.469  1.00  0.00    -0.463 OA
BRANCH   3   4
ATOM      4  C   UNL A   1      33.262  26.094  22.512  1.00  0.00     0.314 C 
ATOM      5  O   UNL A   1      33.601  26.126  21.334  1.00  0.00    -0.252 OA
BRANCH   4   6
ATOM      6  C   UNL A   1      32.056  26.849  23.055  1.00  0.00     0.154 C 
ATOM      7  C   UNL A   1      31.684  26.329  24.449  1.00  0.00     0.026 C 
BRANCH   6   8
ATOM      8  C   UNL A   1      32.296  28.377  22.934  1.00  0.00     0.193 C 
ATOM      9  C   UNL A   1      33.438  28.889  23.825  1.00  0.00     0.076 C 
BRANCH   8  10
ATOM     10  N   UNL A   1      31.080  29.130  23.330  1.00  0.00    -0.341 N 
ATOM     11  H   UNL A   1      31.294  30.127  23.322  1.00  0.00     0.346 HD
ATOM     12  H   UNL A   1      30.808  28.812  24.261  1.00  0.00     0.346 HD
BRANCH  10  13
ATOM     13  C   UNL A   1      29.944  28.884  22.425  1.00  0.00     0.296 C 
BRANCH  13  14
ATOM     14  C   UNL A   1      28.840  29.961  22.437  1.00  0.00     0.113 C 
ATOM     15  C   UNL A   1      28.816  30.874  21.212  1.00  0.00     0.041 C 
ATOM     16  C   UNL A   1      28.964  30.957  23.596  1.00  0.00     0.041 C 
ATOM     17  C   UNL A   1      27.980  32.075  21.652  1.00  0.00     0.003 C 
ATOM     18  C   UNL A   1      28.102  32.148  23.175  1.00  0.00     0.003 C 
BRANCH  14  19
ATOM     19  O   UNL A   1      27.583  29.273  22.524  1.00  0.00    -0.384 OA
ATOM     20  H   UNL A   1      27.484  28.682  21.761  1.00  0.00     0.211 HD
ENDBRANCH  14  19
ENDBRANCH  13  14
ENDBRANCH  10  13
ENDBRANCH   8  10
ENDBRANCH   6   8
ENDBRANCH   4   6
ENDBRANCH   3   4
ENDBRANCH   2   3
ENDBRANCH   1   2
BRANCH   1  21
ATOM     21  O   UNL A   1      34.807  21.806  24.268  1.00  0.00    -0.374 OA
BRANCH  21  22
ATOM     22  C   UNL A   1      35.599  21.350  25.361  1.00  0.00     0.202 C 
BRANCH  22  23
ATOM     23  C   UNL A   1      36.938  20.685  25.028  1.00  0.00     0.261 C 
BRANCH  23  24
ATOM     24  O   UNL A   1      38.027  21.623  25.022  1.00  0.00    -0.460 OA
BRANCH  24  25
ATOM     25  C   UNL A   1      39.038  21.296  25.859  1.00  0.00     0.338 C 
ATOM     26  O   UNL A   1      39.653  20.235  25.891  1.00  0.00    -0.246 OA
BRANCH  25  27
ATOM     27  C   UNL A   1      39.461  22.461  26.656  1.00  0.00     0.060 A 
ATOM     28  C   UNL A   1      38.844  23.682  26.363  1.00  0.00     0.016 A 
ATOM     29  C   UNL A   1      40.496  22.395  27.593  1.00  0.00     0.016 A 
ATOM     30  C   UNL A   1      39.313  24.857  26.941  1.00  0.00     0.010 A 
ATOM     31  C   UNL A   1      40.967  23.580  28.173  1.00  0.00     0.010 A 
ATOM     32  C   UNL A   1      40.413  24.820  27.808  1.00  0.00    -0.014 A 
BRANCH  32  33
ATOM     33  C   UNL A   1      41.060  26.102  28.180  1.00  0.00     0.031 A 
ATOM     34  C   UNL A   1      42.478  26.362  27.744  1.00  0.00     0.074 A 
ATOM     35  C   UNL A   1      40.371  27.055  28.834  1.00  0.00     0.049 A 
ATOM     36  N   UNL A   1      43.193  27.450  27.863  1.00  0.00    -0.248 NA
ATOM     37  C   UNL A   1      43.181  25.251  27.080  1.00  0.00     0.031 C 
ATOM     38  C   UNL A   1      38.996  26.922  29.313  1.00  0.00     0.029 A 
ATOM     39  N   UNL A   1      40.739  28.322  29.206  1.00  0.00    -0.354 N 
ATOM     40  C   UNL A   1      44.431  27.153  27.305  1.00  0.00     0.074 A 
ATOM     41  C   UNL A   1      44.380  25.776  26.869  1.00  0.00     0.031 C 
ATOM     42  C   UNL A   1      38.639  28.062  29.929  1.00  0.00     0.029 A 
ATOM     43  C   UNL A   1      39.759  29.001  29.891  1.00  0.00     0.049 A 
ATOM     44  H   UNL A   1      41.621  28.709  29.004  1.00  0.00     0.167 HD
ATOM     45  C   UNL A   1      45.507  27.961  27.146  1.00  0.00     0.034 A 
ATOM     46  C   UNL A   1      39.765  30.239  30.424  1.00  0.00     0.034 A 
ATOM     47  C   UNL A   1      45.553  29.338  27.558  1.00  0.00     0.049 A 
ATOM     48  C   UNL A   1      40.975  31.118  30.234  1.00  0.00     0.074 A 
ATOM     49  C   UNL A   1      46.582  30.250  27.400  1.00  0.00     0.029 A 
ATOM     50  N   UNL A   1      44.529  30.000  28.216  1.00  0.00    -0.354 N 
ATOM     51  N   UNL A   1      42.087  30.865  29.586  1.00  0.00    -0.248 NA
ATOM     52  C   UNL A   1      40.914  32.467  30.814  1.00  0.00     0.031 C 
ATOM     53  C   UNL A   1      46.186  31.460  27.981  1.00  0.00     0.029 A 
ATOM     54  C   UNL A   1      44.903  31.308  28.481  1.00  0.00     0.049 A 
ATOM     55  H   UNL A   1      43.662  29.601  28.460  1.00  0.00     0.167 HD
ATOM     56  C   UNL A   1      42.841  32.032  29.649  1.00  0.00     0.074 A 
ATOM     57  C   UNL A   1      42.048  33.000  30.378  1.00  0.00     0.031 C 
ATOM     58  C   UNL A   1      44.083  32.277  29.163  1.00  0.00     0.034 A 
BRANCH  45  59
ATOM     59  C   UNL A   1      46.717  27.383  26.460  1.00  0.00     0.023 A 
ATOM     60  C   UNL A   1      46.801  27.422  25.053  1.00  0.00     0.012 A 
ATOM     61  C   UNL A   1      47.788  26.851  27.202  1.00  0.00     0.148 A 
ATOM     62  C   UNL A   1      47.920  26.916  24.393  1.00  0.00     0.002 A 
ATOM     63  C   UNL A   1      48.918  26.384  26.539  1.00  0.00     0.091 A 
ATOM     64  F   UNL A   1      47.677  26.798  28.537  1.00  0.00    -0.205 F 
ATOM     65  C   UNL A   1      48.983  26.408  25.137  1.00  0.00     0.022 A 
BRANCH  63  66
ATOM     66  S   UNL A   1      50.367  25.778  27.412  1.00  0.00     0.127 S 
ATOM     67  O   UNL A   1      51.066  27.023  27.725  1.00  0.00    -0.237 OA
ATOM     68  O   UNL A   1      49.773  25.105  28.567  1.00  0.00    -0.237 OA
ATOM     69  O   UNL A   1      51.052  24.891  26.482  1.00  0.00    -0.744 OA
ENDBRANCH  63  66
ENDBRANCH  45  59
BRANCH  46  70
ATOM     70  C   UNL A   1      38.561  30.745  31.139  1.00  0.00     0.023 A 
ATOM     71  C   UNL A   1      38.468  30.602  32.538  1.00  0.00     0.012 A 
ATOM     72  C   UNL A   1      37.517  31.386  30.444  1.00  0.00     0.148 A 
ATOM     73  C   UNL A   1      37.345  31.061  33.226  1.00  0.00     0.002 A 
ATOM     74  C   UNL A   1      36.427  31.891  31.142  1.00  0.00     0.091 A 
ATOM     75  F   UNL A   1      37.615  31.493  29.111  1.00  0.00    -0.205 F 
ATOM     76  C   UNL A   1      36.330  31.715  32.530  1.00  0.00     0.022 A 
BRANCH  74  77
ATOM     77  S   UNL A   1      35.144  32.861  30.342  1.00  0.00     0.127 S 
ATOM     78  O   UNL A   1      34.238  33.134  31.455  1.00  0.00    -0.237 OA
ATOM     79  O   UNL A   1      35.895  34.021  29.861  1.00  0.00    -0.237 OA
ATOM     80  O   UNL A   1      34.615  32.012  29.284  1.00  0.00    -0.744 OA
ENDBRANCH  74  77
ENDBRANCH  46  70
BRANCH  58  81
ATOM     81  C   UNL A   1      44.659  33.653  29.380  1.00  0.00     0.023 A 
ATOM     82  C   UNL A   1      45.316  33.953  30.589  1.00  0.00     0.012 A 
ATOM     83  C   UNL A   1      44.601  34.629  28.365  1.00  0.00     0.148 A 
ATOM     84  C   UNL A   1      45.872  35.214  30.802  1.00  0.00     0.002 A 
ATOM     85  C   UNL A   1      45.198  35.870  28.567  1.00  0.00     0.091 A 
ATOM     86  F   UNL A   1      43.954  34.337  27.228  1.00  0.00    -0.205 F 
ATOM     87  C   UNL A   1      45.823  36.167  29.788  1.00  0.00     0.022 A 
BRANCH  85  88
ATOM     88  S   UNL A   1      45.260  37.119  27.277  1.00  0.00     0.127 S 
ATOM     89  O   UNL A   1      45.979  38.202  27.944  1.00  0.00    -0.237 OA
ATOM     90  O   UNL A   1      46.018  36.444  26.221  1.00  0.00    -0.237 OA
ATOM     91  O   UNL A   1      43.873  37.399  26.931  1.00  0.00    -0.744 OA
ENDBRANCH  85  88
ENDBRANCH  58  81
ENDBRANCH  32  33
ENDBRANCH  25  27
ENDBRANCH  24  25
ENDBRANCH  23  24
ENDBRANCH  22  23
ENDBRANCH  21  22
ENDBRANCH   1  21
TORSDOF 22
ENDMDL
MODEL 3
REMARK VINA RESULT:      -9.9      2.273      4.125
REMARK SMILES C[C@H]([NH2+]CC1(O)CCCC1)[C@H](C)C(=O)OCCOCCOC(=O)c1ccc(-c2c3nc(c(-c4cccc(S(=O)(=O)[O-])c4F)c4ccc([nH]4)c(-c4cccc(S(=O)(=O)[O-])c4F)c4nc(c(-c5cccc(S(=O)(=O)[O-])c5F)c5ccc2[nH]5)C=C4)C=C3)cc1
REMARK SMILES IDX 17 1 16 2 15 3 13 4 14 5 11 6 12 7 2 8 1 9 3 10 4 13 5 14
REMARK SMILES IDX 7 15 10 16 8 17 9 18 6 19 18 21 19 22 20 23 21 24 22 25
REMARK SMILES IDX 23 26 24 27 25 28 86 29 26 30 85 31 27 32 28 33 29 34 79 35
REMARK SMILES IDX 30 36 84 37 78 38 80 39 31 40 83 41 77 42 76 43 32 45 64 46
REMARK SMILES IDX 44 47 63 48 45 49 48 50 62 51 81 52 46 53 47 54 61 56 82 57
REMARK SMILES IDX 49 58 33 59 34 60 42 61 35 62 37 63 43 64 36 65 38 66 39 67
REMARK SMILES IDX 40 68 41 69 65 70 66 71 74 72 67 73 69 74 75 75 68 76 70 77
REMARK SMILES IDX 71 78 72 79 73 80 50 81 51 82 59 83 52 84 54 85 60 86 53 87
REMARK SMILES IDX 55 88 56 89 57 90 58 91
REMARK H PARENT 3 11 3 12 6 20 80 44 48 55
REMARK Flexibility Score: inf
ROOT
ATOM      1  C   UNL A   1      33.374  27.665  25.804  1.00  0.00     0.202 C 
ENDROOT
BRANCH   1   2
ATOM      2  C   UNL A   1      32.270  26.850  26.489  1.00  0.00     0.261 C 
BRANCH   2   3
ATOM      3  O   UNL A   1      31.459  26.112  25.555  1.00  0.00    -0.463 OA
BRANCH   3   4
ATOM      4  C   UNL A   1      31.385  24.770  25.773  1.00  0.00     0.314 C 
ATOM      5  O   UNL A   1      31.366  24.249  26.882  1.00  0.00    -0.252 OA
BRANCH   4   6
ATOM      6  C   UNL A   1      31.267  23.979  24.478  1.00  0.00     0.154 C 
ATOM      7  C   UNL A   1      30.284  24.665  23.520  1.00  0.00     0.026 C 
BRANCH   6   8
ATOM      8  C   UNL A   1      32.682  23.684  23.913  1.00  0.00     0.193 C 
ATOM      9  C   UNL A   1      32.675  22.716  22.720  1.00  0.00     0.076 C 
BRANCH   8  10
ATOM     10  N   UNL A   1      33.542  23.066  24.954  1.00  0.00    -0.341 N 
ATOM     11  H   UNL A   1      33.680  22.083  24.724  1.00  0.00     0.346 HD
ATOM     12  H   UNL A   1      33.071  23.179  25.852  1.00  0.00     0.346 HD
BRANCH  10  13
ATOM     13  C   UNL A   1      34.860  23.716  25.056  1.00  0.00     0.296 C 
BRANCH  13  14
ATOM     14  C   UNL A   1      36.070  22.817  24.730  1.00  0.00     0.113 C 
ATOM     15  C   UNL A   1      35.826  21.319  24.904  1.00  0.00     0.041 C 
ATOM     16  C   UNL A   1      37.284  23.068  25.633  1.00  0.00     0.041 C 
ATOM     17  C   UNL A   1      37.228  20.712  24.963  1.00  0.00     0.003 C 
ATOM     18  C   UNL A   1      38.156  21.823  25.461  1.00  0.00     0.003 C 
BRANCH  14  19
ATOM     19  O   UNL A   1      36.425  23.071  23.362  1.00  0.00    -0.384 OA
ATOM     20  H   UNL A   1      36.338  24.020  23.176  1.00  0.00     0.211 HD
ENDBRANCH  14  19
ENDBRANCH  13  14
ENDBRANCH  10  13
ENDBRANCH   8  10
ENDBRANCH   6   8
ENDBRANCH   4   6
ENDBRANCH   3   4
ENDBRANCH   2   3
ENDBRANCH   1   2
BRANCH   1  21
ATOM     21  O   UNL A   1      32.985  28.859  25.124  1.00  0.00    -0.374 OA
BRANCH  21  22
ATOM     22  C   UNL A   1      31.743  29.451  25.492  1.00  0.00     0.202 C 
BRANCH  22  23
ATOM     23  C   UNL A   1      31.791  30.838  26.139  1.00  0.00     0.261 C 
BRANCH  23  24
ATOM     24  O   UNL A   1      32.532  30.841  27.371  1.00  0.00    -0.460 OA
BRANCH  24  25
ATOM     25  C   UNL A   1      33.285  31.949  27.557  1.00  0.00     0.338 C 
ATOM     26  O   UNL A   1      32.883  33.105  27.650  1.00  0.00    -0.246 OA
BRANCH  25  27
ATOM     27  C   UNL A   1      34.692  31.595  27.817  1.00  0.00     0.060 A 
ATOM     28  C   UNL A   1      34.977  30.235  27.984  1.00  0.00     0.016 A 
ATOM     29  C   UNL A   1      35.689  32.557  27.993  1.00  0.00     0.016 A 
ATOM     30  C   UNL A   1      36.239  29.835  28.410  1.00  0.00     0.010 A 
ATOM     31  C   UNL A   1      36.960  32.152  28.423  1.00  0.00     0.010 A 
ATOM     32  C   UNL A   1      37.222  30.795  28.685  1.00  0.00    -0.014 A 
BRANCH  32  33
ATOM     33  C   UNL A   1      38.449  30.364  29.399  1.00  0.00     0.031 A 
ATOM     34  C   UNL A   1      38.657  30.796  30.826  1.00  0.00     0.074 A 
ATOM     35  C   UNL A   1      39.331  29.536  28.810  1.00  0.00     0.049 A 
ATOM     36  N   UNL A   1      39.595  30.446  31.668  1.00  0.00    -0.248 NA
ATOM     37  C   UNL A   1      37.676  31.743  31.382  1.00  0.00     0.031 C 
ATOM     38  C   UNL A   1      39.243  29.051  27.434  1.00  0.00     0.029 A 
ATOM     39  N   UNL A   1      40.474  28.959  29.301  1.00  0.00    -0.354 N 
ATOM     40  C   UNL A   1      39.328  31.138  32.843  1.00  0.00     0.074 A 
ATOM     41  C   UNL A   1      38.154  31.947  32.600  1.00  0.00     0.031 C 
ATOM     42  C   UNL A   1      40.298  28.256  27.185  1.00  0.00     0.029 A 
ATOM     43  C   UNL A   1      41.136  28.181  28.381  1.00  0.00     0.049 A 
ATOM     44  H   UNL A   1      40.792  29.090  30.223  1.00  0.00     0.167 HD
ATOM     45  C   UNL A   1      39.984  31.086  34.028  1.00  0.00     0.034 A 
ATOM     46  C   UNL A   1      42.286  27.486  28.492  1.00  0.00     0.034 A 
ATOM     47  C   UNL A   1      41.136  30.264  34.278  1.00  0.00     0.049 A 
ATOM     48  C   UNL A   1      42.997  27.445  29.821  1.00  0.00     0.074 A 
ATOM     49  C   UNL A   1      41.844  30.110  35.458  1.00  0.00     0.029 A 
ATOM     50  N   UNL A   1      41.757  29.463  33.333  1.00  0.00    -0.354 N 
ATOM     51  N   UNL A   1      42.654  27.999  30.959  1.00  0.00    -0.248 NA
ATOM     52  C   UNL A   1      44.231  26.649  29.889  1.00  0.00     0.031 C 
ATOM     53  C   UNL A   1      42.905  29.230  35.220  1.00  0.00     0.029 A 
ATOM     54  C   UNL A   1      42.845  28.819  33.898  1.00  0.00     0.049 A 
ATOM     55  H   UNL A   1      41.467  29.367  32.397  1.00  0.00     0.167 HD
ATOM     56  C   UNL A   1      43.608  27.591  31.886  1.00  0.00     0.074 A 
ATOM     57  C   UNL A   1      44.529  26.723  31.180  1.00  0.00     0.031 C 
ATOM     58  C   UNL A   1      43.723  27.916  33.198  1.00  0.00     0.034 A 
BRANCH  45  59
ATOM     59  C   UNL A   1      39.443  31.918  35.160  1.00  0.00     0.023 A 
ATOM     60  C   UNL A   1      38.498  31.357  36.044  1.00  0.00     0.012 A 
ATOM     61  C   UNL A   1      39.902  33.230  35.382  1.00  0.00     0.148 A 
ATOM     62  C   UNL A   1      37.999  32.097  37.115  1.00  0.00     0.002 A 
ATOM     63  C   UNL A   1      39.430  33.948  36.476  1.00  0.00     0.091 A 
ATOM     64  F   UNL A   1      40.780  33.755  34.516  1.00  0.00    -0.205 F 
ATOM     65  C   UNL A   1      38.473  33.387  37.337  1.00  0.00     0.022 A 
BRANCH  63  66
ATOM     66  S   UNL A   1      40.034  35.590  36.886  1.00  0.00     0.127 S 
ATOM     67  O   UNL A   1      41.469  35.349  37.029  1.00  0.00    -0.237 OA
ATOM     68  O   UNL A   1      39.660  36.362  35.700  1.00  0.00    -0.237 OA
ATOM     69  O   UNL A   1      39.339  35.978  38.105  1.00  0.00    -0.744 OA
ENDBRANCH  63  66
ENDBRANCH  45  59
BRANCH  46  70
ATOM     70  C   UNL A   1      42.806  26.721  27.325  1.00  0.00     0.023 A 
ATOM     71  C   UNL A   1      43.635  27.361  26.384  1.00  0.00     0.012 A 
ATOM     72  C   UNL A   1      42.502  25.356  27.156  1.00  0.00     0.148 A 
ATOM     73  C   UNL A   1      44.127  26.666  25.279  1.00  0.00     0.002 A 
ATOM     74  C   UNL A   1      43.040  24.654  26.084  1.00  0.00     0.091 A 
ATOM     75  F   UNL A   1      41.695  24.769  28.051  1.00  0.00    -0.205 F 
ATOM     76  C   UNL A   1      43.838  25.310  25.135  1.00  0.00     0.022 A 
BRANCH  74  77
ATOM     77  S   UNL A   1      42.829  22.880  25.898  1.00  0.00     0.127 S 
ATOM     78  O   UNL A   1      41.380  22.736  26.025  1.00  0.00    -0.237 OA
ATOM     79  O   UNL A   1      43.355  22.650  24.553  1.00  0.00    -0.237 OA
ATOM     80  O   UNL A   1      43.623  22.279  26.961  1.00  0.00    -0.744 OA
ENDBRANCH  74  77
ENDBRANCH  46  70
BRANCH  58  81
ATOM     81  C   UNL A   1      44.871  27.315  33.968  1.00  0.00     0.023 A 
ATOM     82  C   UNL A   1      46.020  28.088  34.226  1.00  0.00     0.012 A 
ATOM     83  C   UNL A   1      44.788  26.008  34.486  1.00  0.00     0.148 A 
ATOM     84  C   UNL A   1      47.084  27.557  34.954  1.00  0.00     0.002 A 
ATOM     85  C   UNL A   1      45.834  25.501  35.251  1.00  0.00     0.091 A 
ATOM     86  F   UNL A   1      43.697  25.277  34.216  1.00  0.00    -0.205 F 
ATOM     87  C   UNL A   1      46.987  26.270  35.474  1.00  0.00     0.022 A 
BRANCH  85  88
ATOM     88  S   UNL A   1      45.747  23.887  36.035  1.00  0.00     0.127 S 
ATOM     89  O   UNL A   1      45.850  22.990  34.886  1.00  0.00    -0.237 OA
ATOM     90  O   UNL A   1      46.922  23.897  36.908  1.00  0.00    -0.237 OA
ATOM     91  O   UNL A   1      44.475  23.861  36.745  1.00  0.00    -0.744 OA
ENDBRANCH  85  88
ENDBRANCH  58  81
ENDBRANCH  32  33
ENDBRANCH  25  27
ENDBRANCH  24  25
ENDBRANCH  23  24
ENDBRANCH  22  23
ENDBRANCH  21  22
ENDBRANCH   1  21
TORSDOF 22
ENDMDL
