MODEL 1
REMARK VINA RESULT:     -12.3      0.000      0.000
REMARK SMILES Cc1cccc2c1[C@H]1c3c(C)cccc3[C@H](CC(=O)OCCOCCOC(=O)c3ccc(-c4c5nc(c(-c6cccc(S(=O)(=O)[O-])c6F)c6ccc([nH]6)c(-c6cccc(S(=O)(=O)[O-])c6F)c6nc(c(-c7cccc(S(=O)(=O)[O-])c7F)c7ccc4[nH]7)C=C6)C=C5)cc3)C[C@H]1CC2
REMARK SMILES IDX 24 1 23 2 22 3 21 4 20 5 18 6 19 7 17 8 16 9 1 10 2 11 3 12
REMARK SMILES IDX 7 13 4 14 6 15 8 16 5 17 95 18 9 19 93 20 94 21 10 22 15 23
REMARK SMILES IDX 92 24 12 25 11 26 14 27 13 28 25 29 26 30 27 31 28 32 29 33
REMARK SMILES IDX 30 34 91 35 31 36 90 37 32 38 33 39 34 40 84 41 35 42 89 43
REMARK SMILES IDX 83 44 85 45 36 46 88 47 82 48 81 49 37 51 69 52 49 53 68 54
REMARK SMILES IDX 50 55 53 56 67 57 86 58 51 59 52 60 66 62 87 63 54 64 38 65
REMARK SMILES IDX 39 66 47 67 40 68 42 69 48 70 41 71 43 72 44 73 45 74 46 75
REMARK SMILES IDX 70 76 71 77 79 78 72 79 74 80 80 81 73 82 75 83 76 84 77 85
REMARK SMILES IDX 78 86 55 87 56 88 64 89 57 90 59 91 65 92 58 93 60 94 61 95
REMARK SMILES IDX 62 96 63 97
REMARK H PARENT 85 50 53 61
REMARK Flexibility Score: inf
ROOT
ATOM      1  C   UNL A   1      36.105  19.668  24.981  1.00  0.00     0.202 C 
ENDROOT
BRANCH   1   2
ATOM      2  O   UNL A   1      34.806  19.645  24.382  1.00  0.00    -0.374 OA
BRANCH   2   3
ATOM      3  C   UNL A   1      34.054  18.443  24.546  1.00  0.00     0.202 C 
BRANCH   3   4
ATOM      4  C   UNL A   1      32.756  18.539  25.358  1.00  0.00     0.261 C 
BRANCH   4   5
ATOM      5  O   UNL A   1      32.797  19.596  26.333  1.00  0.00    -0.463 OA
BRANCH   5   6
ATOM      6  C   UNL A   1      32.397  20.817  25.897  1.00  0.00     0.306 C 
ATOM      7  O   UNL A   1      31.404  21.017  25.203  1.00  0.00    -0.252 OA
BRANCH   6   8
ATOM      8  C   UNL A   1      33.132  21.961  26.564  1.00  0.00     0.131 C 
BRANCH   8   9
ATOM      9  C   UNL A   1      33.118  23.417  26.048  1.00  0.00     0.031 C 
ATOM     10  C   UNL A   1      28.567  26.237  23.801  1.00  0.00     0.044 C 
ATOM     11  C   UNL A   1      29.671  27.258  23.937  1.00  0.00    -0.047 A 
ATOM     12  C   UNL A   1      29.403  28.561  23.484  1.00  0.00     0.004 A 
ATOM     13  C   UNL A   1      30.925  26.972  24.533  1.00  0.00    -0.034 A 
ATOM     14  C   UNL A   1      30.342  29.579  23.626  1.00  0.00     0.001 A 
ATOM     15  C   UNL A   1      31.827  28.040  24.773  1.00  0.00    -0.044 A 
ATOM     16  C   UNL A   1      31.318  25.549  24.930  1.00  0.00     0.053 C 
ATOM     17  C   UNL A   1      31.537  29.325  24.288  1.00  0.00     0.004 A 
ATOM     18  C   UNL A   1      33.050  27.891  25.648  1.00  0.00     0.036 C 
ATOM     19  C   UNL A   1      32.237  24.740  23.974  1.00  0.00    -0.034 A 
ATOM     20  C   UNL A   1      31.997  25.678  26.316  1.00  0.00     0.002 C 
ATOM     21  C   UNL A   1      33.307  26.486  26.189  1.00  0.00     0.009 C 
ATOM     22  C   UNL A   1      32.349  24.982  22.573  1.00  0.00    -0.047 A 
ATOM     23  C   UNL A   1      33.076  23.727  24.554  1.00  0.00    -0.040 A 
ATOM     24  C   UNL A   1      32.179  24.279  26.896  1.00  0.00     0.013 C 
ATOM     25  C   UNL A   1      33.378  24.362  21.842  1.00  0.00     0.004 A 
ATOM     26  C   UNL A   1      31.484  25.909  21.761  1.00  0.00     0.044 C 
ATOM     27  C   UNL A   1      34.091  23.149  23.774  1.00  0.00     0.004 A 
ATOM     28  C   UNL A   1      34.257  23.480  22.440  1.00  0.00     0.001 A 
ENDBRANCH   8   9
ENDBRANCH   6   8
ENDBRANCH   5   6
ENDBRANCH   4   5
ENDBRANCH   3   4
ENDBRANCH   2   3
ENDBRANCH   1   2
BRANCH   1  29
ATOM     29  C   UNL A   1      36.574  21.013  25.558  1.00  0.00     0.261 C 
BRANCH  29  30
ATOM     30  O   UNL A   1      37.875  21.371  25.054  1.00  0.00    -0.460 OA
BRANCH  30  31
ATOM     31  C   UNL A   1      38.930  21.071  25.843  1.00  0.00     0.338 C 
ATOM     32  O   UNL A   1      39.489  19.986  25.944  1.00  0.00    -0.246 OA
BRANCH  31  33
ATOM     33  C   UNL A   1      39.462  22.310  26.438  1.00  0.00     0.060 A 
ATOM     34  C   UNL A   1      38.872  23.525  26.068  1.00  0.00     0.016 A 
ATOM     35  C   UNL A   1      40.569  22.293  27.288  1.00  0.00     0.016 A 
ATOM     36  C   UNL A   1      39.404  24.729  26.530  1.00  0.00     0.010 A 
ATOM     37  C   UNL A   1      41.101  23.501  27.753  1.00  0.00     0.010 A 
ATOM     38  C   UNL A   1      40.546  24.726  27.340  1.00  0.00    -0.014 A 
BRANCH  38  39
ATOM     39  C   UNL A   1      41.270  26.001  27.572  1.00  0.00     0.031 A 
ATOM     40  C   UNL A   1      40.571  27.094  28.335  1.00  0.00     0.074 A 
ATOM     41  C   UNL A   1      42.538  26.176  27.159  1.00  0.00     0.049 A 
ATOM     42  N   UNL A   1      41.024  28.266  28.697  1.00  0.00    -0.248 NA
ATOM     43  C   UNL A   1      39.180  26.833  28.746  1.00  0.00     0.031 C 
ATOM     44  C   UNL A   1      43.330  25.199  26.415  1.00  0.00     0.029 A 
ATOM     45  N   UNL A   1      43.380  27.251  27.308  1.00  0.00    -0.354 N 
ATOM     46  C   UNL A   1      39.972  28.886  29.361  1.00  0.00     0.074 A 
ATOM     47  C   UNL A   1      38.853  27.972  29.338  1.00  0.00     0.031 C 
ATOM     48  C   UNL A   1      44.543  25.724  26.164  1.00  0.00     0.029 A 
ATOM     49  C   UNL A   1      44.609  27.076  26.719  1.00  0.00     0.049 A 
ATOM     50  H   UNL A   1      43.126  28.070  27.791  1.00  0.00     0.167 HD
ATOM     51  C   UNL A   1      39.947  30.097  29.961  1.00  0.00     0.034 A 
ATOM     52  C   UNL A   1      45.665  27.911  26.634  1.00  0.00     0.034 A 
ATOM     53  C   UNL A   1      41.063  30.995  30.026  1.00  0.00     0.049 A 
ATOM     54  C   UNL A   1      45.605  29.266  27.288  1.00  0.00     0.074 A 
ATOM     55  C   UNL A   1      41.140  32.217  30.669  1.00  0.00     0.029 A 
ATOM     56  N   UNL A   1      42.289  30.777  29.423  1.00  0.00    -0.354 N 
ATOM     57  N   UNL A   1      44.644  29.789  28.010  1.00  0.00    -0.248 NA
ATOM     58  C   UNL A   1      46.781  30.139  27.137  1.00  0.00     0.031 C 
ATOM     59  C   UNL A   1      42.413  32.748  30.441  1.00  0.00     0.029 A 
ATOM     60  C   UNL A   1      43.127  31.849  29.664  1.00  0.00     0.049 A 
ATOM     61  H   UNL A   1      42.528  29.978  28.899  1.00  0.00     0.167 HD
ATOM     62  C   UNL A   1      45.103  31.039  28.413  1.00  0.00     0.074 A 
ATOM     63  C   UNL A   1      46.435  31.193  27.868  1.00  0.00     0.031 C 
ATOM     64  C   UNL A   1      44.468  31.977  29.156  1.00  0.00     0.034 A 
BRANCH  51  65
ATOM     65  C   UNL A   1      38.678  30.510  30.651  1.00  0.00     0.023 A 
ATOM     66  C   UNL A   1      38.539  30.268  32.031  1.00  0.00     0.012 A 
ATOM     67  C   UNL A   1      37.675  31.211  29.957  1.00  0.00     0.148 A 
ATOM     68  C   UNL A   1      37.410  30.716  32.714  1.00  0.00     0.002 A 
ATOM     69  C   UNL A   1      36.567  31.679  30.651  1.00  0.00     0.091 A 
ATOM     70  F   UNL A   1      37.828  31.409  28.641  1.00  0.00    -0.205 F 
ATOM     71  C   UNL A   1      36.431  31.430  32.027  1.00  0.00     0.022 A 
BRANCH  69  72
ATOM     72  S   UNL A   1      35.273  32.652  29.873  1.00  0.00     0.127 S 
ATOM     73  O   UNL A   1      34.780  31.726  28.855  1.00  0.00    -0.237 OA
ATOM     74  O   UNL A   1      34.353  32.882  30.986  1.00  0.00    -0.237 OA
ATOM     75  O   UNL A   1      35.922  33.849  29.356  1.00  0.00    -0.744 OA
ENDBRANCH  69  72
ENDBRANCH  51  65
BRANCH  52  76
ATOM     76  C   UNL A   1      46.896  27.459  25.931  1.00  0.00     0.023 A 
ATOM     77  C   UNL A   1      47.818  26.641  26.609  1.00  0.00     0.012 A 
ATOM     78  C   UNL A   1      47.125  27.788  24.581  1.00  0.00     0.148 A 
ATOM     79  C   UNL A   1      48.955  26.163  25.957  1.00  0.00     0.002 A 
ATOM     80  C   UNL A   1      48.239  27.276  23.924  1.00  0.00     0.091 A 
ATOM     81  F   UNL A   1      46.236  28.576  23.962  1.00  0.00    -0.205 F 
ATOM     82  C   UNL A   1      49.160  26.472  24.614  1.00  0.00     0.022 A 
BRANCH  80  83
ATOM     83  S   UNL A   1      48.536  27.533  22.172  1.00  0.00     0.127 S 
ATOM     84  O   UNL A   1      49.729  28.377  22.191  1.00  0.00    -0.237 OA
ATOM     85  O   UNL A   1      48.754  26.165  21.704  1.00  0.00    -0.237 OA
ATOM     86  O   UNL A   1      47.333  28.167  21.650  1.00  0.00    -0.744 OA
ENDBRANCH  80  83
ENDBRANCH  52  76
BRANCH  64  87
ATOM     87  C   UNL A   1      45.175  33.275  29.441  1.00  0.00     0.023 A 
ATOM     88  C   UNL A   1      46.056  33.347  30.536  1.00  0.00     0.012 A 
ATOM     89  C   UNL A   1      45.099  34.351  28.535  1.00  0.00     0.148 A 
ATOM     90  C   UNL A   1      46.855  34.474  30.728  1.00  0.00     0.002 A 
ATOM     91  C   UNL A   1      45.921  35.458  28.714  1.00  0.00     0.091 A 
ATOM     92  F   UNL A   1      44.252  34.254  27.500  1.00  0.00    -0.205 F 
ATOM     93  C   UNL A   1      46.797  35.522  29.810  1.00  0.00     0.022 A 
BRANCH  91  94
ATOM     94  S   UNL A   1      45.982  36.823  27.546  1.00  0.00     0.127 S 
ATOM     95  O   UNL A   1      46.876  37.758  28.229  1.00  0.00    -0.237 OA
ATOM     96  O   UNL A   1      46.552  36.189  26.359  1.00  0.00    -0.237 OA
ATOM     97  O   UNL A   1      44.609  37.286  27.392  1.00  0.00    -0.744 OA
ENDBRANCH  91  94
ENDBRANCH  64  87
ENDBRANCH  38  39
ENDBRANCH  31  33
ENDBRANCH  30  31
ENDBRANCH  29  30
ENDBRANCH   1  29
TORSDOF 18
ENDMDL
MODEL 2
REMARK VINA RESULT:     -11.9      2.106      2.947
REMARK SMILES Cc1cccc2c1[C@H]1c3c(C)cccc3[C@H](CC(=O)OCCOCCOC(=O)c3ccc(-c4c5nc(c(-c6cccc(S(=O)(=O)[O-])c6F)c6ccc([nH]6)c(-c6cccc(S(=O)(=O)[O-])c6F)c6nc(c(-c7cccc(S(=O)(=O)[O-])c7F)c7ccc4[nH]7)C=C6)C=C5)cc3)C[C@H]1CC2
REMARK SMILES IDX 24 1 23 2 22 3 21 4 20 5 18 6 19 7 17 8 16 9 1 10 2 11 3 12
REMARK SMILES IDX 7 13 4 14 6 15 8 16 5 17 95 18 9 19 93 20 94 21 10 22 15 23
REMARK SMILES IDX 92 24 12 25 11 26 14 27 13 28 25 29 26 30 27 31 28 32 29 33
REMARK SMILES IDX 30 34 91 35 31 36 90 37 32 38 33 39 34 40 84 41 35 42 89 43
REMARK SMILES IDX 83 44 85 45 36 46 88 47 82 48 81 49 37 51 69 52 49 53 68 54
REMARK SMILES IDX 50 55 53 56 67 57 86 58 51 59 52 60 66 62 87 63 54 64 38 65
REMARK SMILES IDX 39 66 47 67 40 68 42 69 48 70 41 71 43 72 44 73 45 74 46 75
REMARK SMILES IDX 70 76 71 77 79 78 72 79 74 80 80 81 73 82 75 83 76 84 77 85
REMARK SMILES IDX 78 86 55 87 56 88 64 89 57 90 59 91 65 92 58 93 60 94 61 95
REMARK SMILES IDX 62 96 63 97
REMARK H PARENT 85 50 53 61
REMARK Flexibility Score: inf
ROOT
ATOM      1  C   UNL A   1      38.527  21.617  25.550  1.00  0.00     0.202 C 
ENDROOT
BRANCH   1   2
ATOM      2  O   UNL A   1      37.179  21.827  25.981  1.00  0.00    -0.374 OA
BRANCH   2   3
ATOM      3  C   UNL A   1      36.154  21.422  25.074  1.00  0.00     0.202 C 
BRANCH   3   4
ATOM      4  C   UNL A   1      34.959  20.664  25.668  1.00  0.00     0.261 C 
BRANCH   4   5
ATOM      5  O   UNL A   1      34.033  20.225  24.659  1.00  0.00    -0.463 OA
BRANCH   5   6
ATOM      6  C   UNL A   1      32.797  19.884  25.101  1.00  0.00     0.306 C 
ATOM      7  O   UNL A   1      32.531  18.837  25.686  1.00  0.00    -0.252 OA
BRANCH   6   8
ATOM      8  C   UNL A   1      31.807  21.029  25.053  1.00  0.00     0.131 C 
BRANCH   8   9
ATOM      9  C   UNL A   1      32.210  22.519  24.998  1.00  0.00     0.031 C 
ATOM     10  C   UNL A   1      28.727  26.994  23.752  1.00  0.00     0.044 C 
ATOM     11  C   UNL A   1      30.047  27.592  24.176  1.00  0.00    -0.047 A 
ATOM     12  C   UNL A   1      30.161  28.992  24.138  1.00  0.00     0.004 A 
ATOM     13  C   UNL A   1      31.137  26.816  24.644  1.00  0.00    -0.034 A 
ATOM     14  C   UNL A   1      31.321  29.630  24.568  1.00  0.00     0.001 A 
ATOM     15  C   UNL A   1      32.267  27.481  25.184  1.00  0.00    -0.044 A 
ATOM     16  C   UNL A   1      31.114  25.288  24.592  1.00  0.00     0.053 C 
ATOM     17  C   UNL A   1      32.358  28.881  25.110  1.00  0.00     0.004 A 
ATOM     18  C   UNL A   1      33.343  26.759  25.960  1.00  0.00     0.036 C 
ATOM     19  C   UNL A   1      31.855  24.577  23.426  1.00  0.00    -0.034 A 
ATOM     20  C   UNL A   1      31.704  24.818  25.944  1.00  0.00     0.002 C 
ATOM     21  C   UNL A   1      33.185  25.242  26.051  1.00  0.00     0.009 C 
ATOM     22  C   UNL A   1      32.126  25.177  22.162  1.00  0.00    -0.047 A 
ATOM     23  C   UNL A   1      32.357  23.251  23.666  1.00  0.00    -0.040 A 
ATOM     24  C   UNL A   1      31.472  23.317  26.076  1.00  0.00     0.013 C 
ATOM     25  C   UNL A   1      33.007  24.544  21.267  1.00  0.00     0.004 A 
ATOM     26  C   UNL A   1      31.593  26.499  21.675  1.00  0.00     0.044 C 
ATOM     27  C   UNL A   1      33.239  22.674  22.738  1.00  0.00     0.004 A 
ATOM     28  C   UNL A   1      33.580  23.321  21.563  1.00  0.00     0.001 A 
ENDBRANCH   8   9
ENDBRANCH   6   8
ENDBRANCH   5   6
ENDBRANCH   4   5
ENDBRANCH   3   4
ENDBRANCH   2   3
ENDBRANCH   1   2
BRANCH   1  29
ATOM     29  C   UNL A   1      39.055  20.175  25.620  1.00  0.00     0.261 C 
BRANCH  29  30
ATOM     30  O   UNL A   1      39.999  20.018  26.698  1.00  0.00    -0.460 OA
BRANCH  30  31
ATOM     31  C   UNL A   1      41.264  19.695  26.348  1.00  0.00     0.338 C 
ATOM     32  O   UNL A   1      41.641  18.654  25.827  1.00  0.00    -0.246 OA
BRANCH  31  33
ATOM     33  C   UNL A   1      42.128  20.880  26.499  1.00  0.00     0.060 A 
ATOM     34  C   UNL A   1      42.355  21.370  27.791  1.00  0.00     0.016 A 
ATOM     35  C   UNL A   1      42.650  21.546  25.390  1.00  0.00     0.016 A 
ATOM     36  C   UNL A   1      43.085  22.544  27.974  1.00  0.00     0.010 A 
ATOM     37  C   UNL A   1      43.385  22.723  25.574  1.00  0.00     0.010 A 
ATOM     38  C   UNL A   1      43.569  23.249  26.865  1.00  0.00    -0.014 A 
BRANCH  38  39
ATOM     39  C   UNL A   1      44.074  24.632  27.054  1.00  0.00     0.031 A 
ATOM     40  C   UNL A   1      43.120  25.683  27.554  1.00  0.00     0.074 A 
ATOM     41  C   UNL A   1      45.364  24.947  26.834  1.00  0.00     0.049 A 
ATOM     42  N   UNL A   1      43.350  26.938  27.840  1.00  0.00    -0.248 NA
ATOM     43  C   UNL A   1      41.722  25.265  27.763  1.00  0.00     0.031 C 
ATOM     44  C   UNL A   1      46.391  24.026  26.352  1.00  0.00     0.029 A 
ATOM     45  N   UNL A   1      46.024  26.142  26.984  1.00  0.00    -0.354 N 
ATOM     46  C   UNL A   1      42.128  27.461  28.243  1.00  0.00     0.074 A 
ATOM     47  C   UNL A   1      41.155  26.398  28.151  1.00  0.00     0.031 C 
ATOM     48  C   UNL A   1      47.554  24.693  26.239  1.00  0.00     0.029 A 
ATOM     49  C   UNL A   1      47.350  26.089  26.628  1.00  0.00     0.049 A 
ATOM     50  H   UNL A   1      45.588  26.959  27.316  1.00  0.00     0.167 HD
ATOM     51  C   UNL A   1      41.846  28.710  28.679  1.00  0.00     0.034 A 
ATOM     52  C   UNL A   1      48.291  27.055  26.614  1.00  0.00     0.034 A 
ATOM     53  C   UNL A   1      42.811  29.762  28.813  1.00  0.00     0.049 A 
ATOM     54  C   UNL A   1      47.946  28.446  27.080  1.00  0.00     0.074 A 
ATOM     55  C   UNL A   1      42.619  31.040  29.306  1.00  0.00     0.029 A 
ATOM     56  N   UNL A   1      44.142  29.665  28.448  1.00  0.00    -0.354 N 
ATOM     57  N   UNL A   1      46.815  28.892  27.567  1.00  0.00    -0.248 NA
ATOM     58  C   UNL A   1      49.012  29.460  27.015  1.00  0.00     0.031 C 
ATOM     59  C   UNL A   1      43.835  31.723  29.225  1.00  0.00     0.029 A 
ATOM     60  C   UNL A   1      44.783  30.865  28.689  1.00  0.00     0.049 A 
ATOM     61  H   UNL A   1      44.569  28.860  28.071  1.00  0.00     0.167 HD
ATOM     62  C   UNL A   1      47.035  30.230  27.883  1.00  0.00     0.074 A 
ATOM     63  C   UNL A   1      48.412  30.520  27.546  1.00  0.00     0.031 C 
ATOM     64  C   UNL A   1      46.166  31.135  28.394  1.00  0.00     0.034 A 
BRANCH  51  65
ATOM     65  C   UNL A   1      40.433  29.001  29.099  1.00  0.00     0.023 A 
ATOM     66  C   UNL A   1      39.479  29.322  28.116  1.00  0.00     0.012 A 
ATOM     67  C   UNL A   1      40.038  28.867  30.443  1.00  0.00     0.148 A 
ATOM     68  C   UNL A   1      38.143  29.514  28.466  1.00  0.00     0.002 A 
ATOM     69  C   UNL A   1      38.702  29.032  30.780  1.00  0.00     0.091 A 
ATOM     70  F   UNL A   1      40.974  28.578  31.358  1.00  0.00    -0.205 F 
ATOM     71  C   UNL A   1      37.754  29.358  29.794  1.00  0.00     0.022 A 
BRANCH  69  72
ATOM     72  S   UNL A   1      38.085  28.803  32.451  1.00  0.00     0.127 S 
ATOM     73  O   UNL A   1      38.956  29.699  33.211  1.00  0.00    -0.237 OA
ATOM     74  O   UNL A   1      36.700  29.257  32.330  1.00  0.00    -0.237 OA
ATOM     75  O   UNL A   1      38.243  27.387  32.750  1.00  0.00    -0.744 OA
ENDBRANCH  69  72
ENDBRANCH  51  65
BRANCH  52  76
ATOM     76  C   UNL A   1      49.674  26.718  26.180  1.00  0.00     0.023 A 
ATOM     77  C   UNL A   1      50.502  25.965  27.033  1.00  0.00     0.012 A 
ATOM     78  C   UNL A   1      50.149  27.091  24.907  1.00  0.00     0.148 A 
ATOM     79  C   UNL A   1      51.785  25.594  26.630  1.00  0.00     0.002 A 
ATOM     80  C   UNL A   1      51.412  26.684  24.495  1.00  0.00     0.091 A 
ATOM     81  F   UNL A   1      49.343  27.816  24.119  1.00  0.00    -0.205 F 
ATOM     82  C   UNL A   1      52.235  25.945  25.359  1.00  0.00     0.022 A 
BRANCH  80  83
ATOM     83  S   UNL A   1      52.042  26.998  22.842  1.00  0.00     0.127 S 
ATOM     84  O   UNL A   1      50.832  26.869  22.032  1.00  0.00    -0.237 OA
ATOM     85  O   UNL A   1      52.555  28.361  22.974  1.00  0.00    -0.237 OA
ATOM     86  O   UNL A   1      53.062  25.987  22.603  1.00  0.00    -0.744 OA
ENDBRANCH  80  83
ENDBRANCH  52  76
BRANCH  64  87
ATOM     87  C   UNL A   1      46.643  32.543  28.629  1.00  0.00     0.023 A 
ATOM     88  C   UNL A   1      47.201  32.876  29.877  1.00  0.00     0.012 A 
ATOM     89  C   UNL A   1      46.695  33.472  27.571  1.00  0.00     0.148 A 
ATOM     90  C   UNL A   1      47.807  34.116  30.071  1.00  0.00     0.002 A 
ATOM     91  C   UNL A   1      47.329  34.694  27.763  1.00  0.00     0.091 A 
ATOM     92  F   UNL A   1      46.157  33.127  26.393  1.00  0.00    -0.205 F 
ATOM     93  C   UNL A   1      47.883  35.019  29.012  1.00  0.00     0.022 A 
BRANCH  91  94
ATOM     94  S   UNL A   1      47.551  35.893  26.441  1.00  0.00     0.127 S 
ATOM     95  O   UNL A   1      46.171  36.115  26.008  1.00  0.00    -0.237 OA
ATOM     96  O   UNL A   1      48.158  37.020  27.146  1.00  0.00    -0.237 OA
ATOM     97  O   UNL A   1      48.410  35.254  25.453  1.00  0.00    -0.744 OA
ENDBRANCH  91  94
ENDBRANCH  64  87
ENDBRANCH  38  39
ENDBRANCH  31  33
ENDBRANCH  30  31
ENDBRANCH  29  30
ENDBRANCH   1  29
TORSDOF 18
ENDMDL
MODEL 3
REMARK VINA RESULT:     -11.8      1.220      7.506
REMARK SMILES Cc1cccc2c1[C@H]1c3c(C)cccc3[C@H](CC(=O)OCCOCCOC(=O)c3ccc(-c4c5nc(c(-c6cccc(S(=O)(=O)[O-])c6F)c6ccc([nH]6)c(-c6cccc(S(=O)(=O)[O-])c6F)c6nc(c(-c7cccc(S(=O)(=O)[O-])c7F)c7ccc4[nH]7)C=C6)C=C5)cc3)C[C@H]1CC2
REMARK SMILES IDX 24 1 23 2 22 3 21 4 20 5 18 6 19 7 17 8 16 9 1 10 2 11 3 12
REMARK SMILES IDX 7 13 4 14 6 15 8 16 5 17 95 18 9 19 93 20 94 21 10 22 15 23
REMARK SMILES IDX 92 24 12 25 11 26 14 27 13 28 25 29 26 30 27 31 28 32 29 33
REMARK SMILES IDX 30 34 91 35 31 36 90 37 32 38 33 39 34 40 84 41 35 42 89 43
REMARK SMILES IDX 83 44 85 45 36 46 88 47 82 48 81 49 37 51 69 52 49 53 68 54
REMARK SMILES IDX 50 55 53 56 67 57 86 58 51 59 52 60 66 62 87 63 54 64 38 65
REMARK SMILES IDX 39 66 47 67 40 68 42 69 48 70 41 71 43 72 44 73 45 74 46 75
REMARK SMILES IDX 70 76 71 77 79 78 72 79 74 80 80 81 73 82 75 83 76 84 77 85
REMARK SMILES IDX 78 86 55 87 56 88 64 89 57 90 59 91 65 92 58 93 60 94 61 95
REMARK SMILES IDX 62 96 63 97
REMARK H PARENT 85 50 53 61
REMARK Flexibility Score: inf
ROOT
ATOM      1  C   UNL A   1      37.706  19.156  25.001  1.00  0.00     0.202 C 
ENDROOT
BRANCH   1   2
ATOM      2  O   UNL A   1      36.330  19.018  24.635  1.00  0.00    -0.374 OA
BRANCH   2   3
ATOM      3  C   UNL A   1      35.750  17.728  24.827  1.00  0.00     0.202 C 
BRANCH   3   4
ATOM      4  C   UNL A   1      34.355  17.496  24.231  1.00  0.00     0.261 C 
BRANCH   4   5
ATOM      5  O   UNL A   1      33.640  18.726  24.017  1.00  0.00    -0.463 OA
BRANCH   5   6
ATOM      6  C   UNL A   1      33.164  19.334  25.133  1.00  0.00     0.306 C 
ATOM      7  O   UNL A   1      32.519  18.769  26.012  1.00  0.00    -0.252 OA
BRANCH   6   8
ATOM      8  C   UNL A   1      33.727  20.724  25.343  1.00  0.00     0.131 C 
BRANCH   8   9
ATOM      9  C   UNL A   1      33.141  22.001  24.702  1.00  0.00     0.031 C 
ATOM     10  C   UNL A   1      34.451  27.482  26.101  1.00  0.00     0.044 C 
ATOM     11  C   UNL A   1      33.563  27.558  24.881  1.00  0.00    -0.047 A 
ATOM     12  C   UNL A   1      33.229  28.838  24.407  1.00  0.00     0.004 A 
ATOM     13  C   UNL A   1      33.101  26.414  24.184  1.00  0.00    -0.034 A 
ATOM     14  C   UNL A   1      32.466  29.000  23.254  1.00  0.00     0.001 A 
ATOM     15  C   UNL A   1      32.422  26.592  22.952  1.00  0.00    -0.044 A 
ATOM     16  C   UNL A   1      33.329  25.000  24.721  1.00  0.00     0.053 C 
ATOM     17  C   UNL A   1      32.085  27.885  22.518  1.00  0.00     0.004 A 
ATOM     18  C   UNL A   1      32.144  25.451  22.002  1.00  0.00     0.036 C 
ATOM     19  C   UNL A   1      32.166  24.299  25.476  1.00  0.00    -0.034 A 
ATOM     20  C   UNL A   1      33.737  24.151  23.493  1.00  0.00     0.002 C 
ATOM     21  C   UNL A   1      32.563  24.067  22.494  1.00  0.00     0.009 C 
ATOM     22  C   UNL A   1      31.109  24.987  26.140  1.00  0.00    -0.047 A 
ATOM     23  C   UNL A   1      32.121  22.862  25.442  1.00  0.00    -0.040 A 
ATOM     24  C   UNL A   1      34.236  22.797  23.988  1.00  0.00     0.013 C 
ATOM     25  C   UNL A   1      29.984  24.270  26.583  1.00  0.00     0.004 A 
ATOM     26  C   UNL A   1      31.034  26.472  26.385  1.00  0.00     0.044 C 
ATOM     27  C   UNL A   1      30.966  22.203  25.894  1.00  0.00     0.004 A 
ATOM     28  C   UNL A   1      29.899  22.899  26.436  1.00  0.00     0.001 A 
ENDBRANCH   8   9
ENDBRANCH   6   8
ENDBRANCH   5   6
ENDBRANCH   4   5
ENDBRANCH   3   4
ENDBRANCH   2   3
ENDBRANCH   1   2
BRANCH   1  29
ATOM     29  C   UNL A   1      38.322  20.556  24.846  1.00  0.00     0.261 C 
BRANCH  29  30
ATOM     30  O   UNL A   1      38.646  21.127  26.128  1.00  0.00    -0.460 OA
BRANCH  30  31
ATOM     31  C   UNL A   1      39.958  21.187  26.447  1.00  0.00     0.338 C 
ATOM     32  O   UNL A   1      40.831  20.391  26.125  1.00  0.00    -0.246 OA
BRANCH  31  33
ATOM     33  C   UNL A   1      40.246  22.483  27.087  1.00  0.00     0.060 A 
ATOM     34  C   UNL A   1      39.496  23.596  26.688  1.00  0.00     0.016 A 
ATOM     35  C   UNL A   1      41.282  22.625  28.010  1.00  0.00     0.016 A 
ATOM     36  C   UNL A   1      39.797  24.860  27.195  1.00  0.00     0.010 A 
ATOM     37  C   UNL A   1      41.584  23.893  28.520  1.00  0.00     0.010 A 
ATOM     38  C   UNL A   1      40.869  25.022  28.081  1.00  0.00    -0.014 A 
BRANCH  38  39
ATOM     39  C   UNL A   1      41.364  26.391  28.373  1.00  0.00     0.031 A 
ATOM     40  C   UNL A   1      42.763  26.753  27.952  1.00  0.00     0.074 A 
ATOM     41  C   UNL A   1      40.578  27.314  28.956  1.00  0.00     0.049 A 
ATOM     42  N   UNL A   1      43.385  27.898  28.057  1.00  0.00    -0.248 NA
ATOM     43  C   UNL A   1      43.566  25.687  27.328  1.00  0.00     0.031 C 
ATOM     44  C   UNL A   1      39.207  27.096  29.409  1.00  0.00     0.029 A 
ATOM     45  N   UNL A   1      40.834  28.626  29.271  1.00  0.00    -0.354 N 
ATOM     46  C   UNL A   1      44.653  27.686  27.530  1.00  0.00     0.074 A 
ATOM     47  C   UNL A   1      44.721  26.301  27.122  1.00  0.00     0.031 C 
ATOM     48  C   UNL A   1      38.742  28.236  29.953  1.00  0.00     0.029 A 
ATOM     49  C   UNL A   1      39.786  29.259  29.897  1.00  0.00     0.049 A 
ATOM     50  H   UNL A   1      41.688  29.072  29.068  1.00  0.00     0.167 HD
ATOM     51  C   UNL A   1      45.663  28.570  27.375  1.00  0.00     0.034 A 
ATOM     52  C   UNL A   1      39.683  30.517  30.372  1.00  0.00     0.034 A 
ATOM     53  C   UNL A   1      45.594  29.956  27.739  1.00  0.00     0.049 A 
ATOM     54  C   UNL A   1      40.831  31.478  30.210  1.00  0.00     0.074 A 
ATOM     55  C   UNL A   1      46.553  30.936  27.557  1.00  0.00     0.029 A 
ATOM     56  N   UNL A   1      44.514  30.556  28.363  1.00  0.00    -0.354 N 
ATOM     57  N   UNL A   1      41.979  31.292  29.607  1.00  0.00    -0.248 NA
ATOM     58  C   UNL A   1      40.663  32.827  30.775  1.00  0.00     0.031 C 
ATOM     59  C   UNL A   1      46.058  32.130  28.088  1.00  0.00     0.029 A 
ATOM     60  C   UNL A   1      44.788  31.892  28.589  1.00  0.00     0.049 A 
ATOM     61  H   UNL A   1      43.677  30.099  28.609  1.00  0.00     0.167 HD
ATOM     62  C   UNL A   1      42.663  32.501  29.701  1.00  0.00     0.074 A 
ATOM     63  C   UNL A   1      41.795  33.419  30.408  1.00  0.00     0.031 C 
ATOM     64  C   UNL A   1      43.902  32.812  29.253  1.00  0.00     0.034 A 
BRANCH  51  65
ATOM     65  C   UNL A   1      46.929  28.081  26.730  1.00  0.00     0.023 A 
ATOM     66  C   UNL A   1      47.945  27.539  27.540  1.00  0.00     0.012 A 
ATOM     67  C   UNL A   1      47.070  28.075  25.330  1.00  0.00     0.148 A 
ATOM     68  C   UNL A   1      49.094  27.000  26.963  1.00  0.00     0.002 A 
ATOM     69  C   UNL A   1      48.204  27.511  24.762  1.00  0.00     0.091 A 
ATOM     70  F   UNL A   1      46.093  28.615  24.588  1.00  0.00    -0.205 F 
ATOM     71  C   UNL A   1      49.217  26.976  25.576  1.00  0.00     0.022 A 
BRANCH  69  72
ATOM     72  S   UNL A   1      48.440  27.382  22.986  1.00  0.00     0.127 S 
ATOM     73  O   UNL A   1      48.279  25.945  22.771  1.00  0.00    -0.237 OA
ATOM     74  O   UNL A   1      47.344  28.203  22.472  1.00  0.00    -0.237 OA
ATOM     75  O   UNL A   1      49.774  27.901  22.717  1.00  0.00    -0.744 OA
ENDBRANCH  69  72
ENDBRANCH  51  65
BRANCH  52  76
ATOM     76  C   UNL A   1      38.411  30.950  31.012  1.00  0.00     0.023 A 
ATOM     77  C   UNL A   1      38.246  30.791  32.400  1.00  0.00     0.012 A 
ATOM     78  C   UNL A   1      37.392  31.568  30.260  1.00  0.00     0.148 A 
ATOM     79  C   UNL A   1      37.083  31.234  33.031  1.00  0.00     0.002 A 
ATOM     80  C   UNL A   1      36.253  32.044  30.900  1.00  0.00     0.091 A 
ATOM     81  F   UNL A   1      37.571  31.698  28.939  1.00  0.00    -0.205 F 
ATOM     82  C   UNL A   1      36.093  31.868  32.283  1.00  0.00     0.022 A 
BRANCH  80  83
ATOM     83  S   UNL A   1      34.970  32.963  30.043  1.00  0.00     0.127 S 
ATOM     84  O   UNL A   1      35.740  34.036  29.415  1.00  0.00    -0.237 OA
ATOM     85  O   UNL A   1      34.450  31.954  29.119  1.00  0.00    -0.237 OA
ATOM     86  O   UNL A   1      34.029  33.388  31.069  1.00  0.00    -0.744 OA
ENDBRANCH  80  83
ENDBRANCH  52  76
BRANCH  64  87
ATOM     87  C   UNL A   1      44.434  34.198  29.501  1.00  0.00     0.023 A 
ATOM     88  C   UNL A   1      45.152  34.454  30.683  1.00  0.00     0.012 A 
ATOM     89  C   UNL A   1      44.372  35.184  28.496  1.00  0.00     0.148 A 
ATOM     90  C   UNL A   1      45.804  35.673  30.866  1.00  0.00     0.002 A 
ATOM     91  C   UNL A   1      45.050  36.385  28.670  1.00  0.00     0.091 A 
ATOM     92  F   UNL A   1      43.683  34.913  27.379  1.00  0.00    -0.205 F 
ATOM     93  C   UNL A   1      45.764  36.632  29.854  1.00  0.00     0.022 A 
BRANCH  91  94
ATOM     94  S   UNL A   1      45.128  37.652  27.397  1.00  0.00     0.127 S 
ATOM     95  O   UNL A   1      46.031  37.038  26.423  1.00  0.00    -0.237 OA
ATOM     96  O   UNL A   1      43.735  37.741  26.966  1.00  0.00    -0.237 OA
ATOM     97  O   UNL A   1      45.646  38.849  28.046  1.00  0.00    -0.744 OA
ENDBRANCH  91  94
ENDBRANCH  64  87
ENDBRANCH  38  39
ENDBRANCH  31  33
ENDBRANCH  30  31
ENDBRANCH  29  30
ENDBRANCH   1  29
TORSDOF 18
ENDMDL
