MODEL 1
REMARK VINA RESULT:     -10.3      0.000      0.000
REMARK SMILES C[C@@H]1OCC[C@@H]1C#CC(=O)OCCOCCOC(=O)c1ccc(-c2c3nc(c(-c4cccc(S(=O)(=O)[O-])c4F)c4ccc([nH]4)c(-c4cccc(S(=O)(=O)[O-])c4F)c4nc(c(-c5cccc(S(=O)(=O)[O-])c5F)c5ccc2[nH]5)C=C4)C=C3)cc1
REMARK SMILES IDX 15 1 14 2 13 3 12 4 11 5 9 6 10 7 8 8 7 9 6 10 1 11 2 12
REMARK SMILES IDX 3 13 4 14 5 15 16 16 17 17 18 18 19 19 20 20 21 21 82 22
REMARK SMILES IDX 22 23 81 24 23 25 24 26 25 27 75 28 26 29 80 30 74 31 76 32
REMARK SMILES IDX 27 33 79 34 73 35 72 36 28 38 60 39 40 40 59 41 41 42 44 43
REMARK SMILES IDX 58 44 77 45 42 46 43 47 57 49 78 50 45 51 29 52 30 53 38 54
REMARK SMILES IDX 31 55 33 56 39 57 32 58 34 59 35 60 36 61 37 62 61 63 62 64
REMARK SMILES IDX 70 65 63 66 65 67 71 68 64 69 66 70 67 71 68 72 69 73 46 74
REMARK SMILES IDX 47 75 55 76 48 77 50 78 56 79 49 80 51 81 52 82 53 83 54 84
REMARK H PARENT 76 37 44 48
REMARK Flexibility Score: inf
ROOT
ATOM      1  C   UNL A   1      32.256  29.221  24.963  1.00  0.00     0.202 C 
ENDROOT
BRANCH   1   2
ATOM      2  O   UNL A   1      31.435  28.054  24.939  1.00  0.00    -0.374 OA
BRANCH   2   3
ATOM      3  C   UNL A   1      30.575  27.860  23.819  1.00  0.00     0.202 C 
BRANCH   3   4
ATOM      4  C   UNL A   1      31.191  27.298  22.535  1.00  0.00     0.262 C 
BRANCH   4   5
ATOM      5  O   UNL A   1      31.734  25.986  22.734  1.00  0.00    -0.454 OA
BRANCH   5   6
ATOM      6  C   UNL A   1      33.055  25.858  22.453  1.00  0.00     0.384 C 
ATOM      7  O   UNL A   1      33.653  26.320  21.492  1.00  0.00    -0.236 OA
BRANCH   6   8
ATOM      8  C   UNL A   1      33.777  25.186  23.505  1.00  0.00     0.017 C 
ATOM      9  C   UNL A   1      34.447  24.673  24.370  1.00  0.00    -0.085 C 
BRANCH   9  10
ATOM     10  C   UNL A   1      35.339  24.019  25.339  1.00  0.00     0.096 C 
ATOM     11  C   UNL A   1      36.650  22.953  23.364  1.00  0.00     0.040 C 
ATOM     12  C   UNL A   1      36.165  22.852  24.799  1.00  0.00     0.130 C 
ATOM     13  O   UNL A   1      35.376  21.660  24.961  1.00  0.00    -0.377 OA
ATOM     14  C   UNL A   1      34.353  21.921  25.927  1.00  0.00     0.162 C 
ATOM     15  C   UNL A   1      34.544  23.338  26.437  1.00  0.00     0.048 C 
ENDBRANCH   9  10
ENDBRANCH   6   8
ENDBRANCH   5   6
ENDBRANCH   4   5
ENDBRANCH   3   4
ENDBRANCH   2   3
ENDBRANCH   1   2
BRANCH   1  16
ATOM     16  C   UNL A   1      31.768  30.454  25.741  1.00  0.00     0.261 C 
BRANCH  16  17
ATOM     17  O   UNL A   1      32.331  30.570  27.057  1.00  0.00    -0.460 OA
BRANCH  17  18
ATOM     18  C   UNL A   1      33.047  31.704  27.264  1.00  0.00     0.338 C 
ATOM     19  O   UNL A   1      32.636  32.852  27.222  1.00  0.00    -0.246 OA
BRANCH  18  20
ATOM     20  C   UNL A   1      34.397  31.363  27.748  1.00  0.00     0.060 A 
ATOM     21  C   UNL A   1      34.668  30.017  28.026  1.00  0.00     0.016 A 
ATOM     22  C   UNL A   1      35.352  32.348  27.997  1.00  0.00     0.016 A 
ATOM     23  C   UNL A   1      35.888  29.655  28.596  1.00  0.00     0.010 A 
ATOM     24  C   UNL A   1      36.574  31.981  28.573  1.00  0.00     0.010 A 
ATOM     25  C   UNL A   1      36.834  30.640  28.905  1.00  0.00    -0.014 A 
BRANCH  25  26
ATOM     26  C   UNL A   1      38.052  30.279  29.674  1.00  0.00     0.031 A 
ATOM     27  C   UNL A   1      39.033  29.300  29.088  1.00  0.00     0.074 A 
ATOM     28  C   UNL A   1      38.276  30.814  30.888  1.00  0.00     0.049 A 
ATOM     29  N   UNL A   1      40.126  28.812  29.611  1.00  0.00    -0.248 NA
ATOM     30  C   UNL A   1      38.739  28.799  27.734  1.00  0.00     0.031 C 
ATOM     31  C   UNL A   1      37.403  31.774  31.561  1.00  0.00     0.029 A 
ATOM     32  N   UNL A   1      39.294  30.596  31.784  1.00  0.00    -0.354 N 
ATOM     33  C   UNL A   1      40.628  27.914  28.676  1.00  0.00     0.074 A 
ATOM     34  C   UNL A   1      39.719  27.926  27.550  1.00  0.00     0.031 C 
ATOM     35  C   UNL A   1      37.905  32.039  32.779  1.00  0.00     0.029 A 
ATOM     36  C   UNL A   1      39.111  31.242  32.986  1.00  0.00     0.049 A 
ATOM     37  H   UNL A   1      40.078  30.035  31.587  1.00  0.00     0.167 HD
ATOM     38  C   UNL A   1      41.746  27.154  28.747  1.00  0.00     0.034 A 
ATOM     39  C   UNL A   1      39.814  31.166  34.133  1.00  0.00     0.034 A 
ATOM     40  C   UNL A   1      42.657  27.159  29.860  1.00  0.00     0.049 A 
ATOM     41  C   UNL A   1      41.042  30.295  34.191  1.00  0.00     0.074 A 
ATOM     42  C   UNL A   1      43.854  26.476  29.992  1.00  0.00     0.029 A 
ATOM     43  N   UNL A   1      42.462  27.856  31.042  1.00  0.00    -0.354 N 
ATOM     44  N   UNL A   1      41.572  29.550  33.251  1.00  0.00    -0.248 NA
ATOM     45  C   UNL A   1      41.786  30.275  35.460  1.00  0.00     0.031 C 
ATOM     46  C   UNL A   1      44.354  26.716  31.276  1.00  0.00     0.029 A 
ATOM     47  C   UNL A   1      43.501  27.597  31.920  1.00  0.00     0.049 A 
ATOM     48  H   UNL A   1      41.698  28.448  31.230  1.00  0.00     0.167 HD
ATOM     49  C   UNL A   1      42.730  29.008  33.801  1.00  0.00     0.074 A 
ATOM     50  C   UNL A   1      42.834  29.527  35.148  1.00  0.00     0.031 C 
ATOM     51  C   UNL A   1      43.621  28.152  33.243  1.00  0.00     0.034 A 
BRANCH  38  52
ATOM     52  C   UNL A   1      42.054  26.238  27.591  1.00  0.00     0.023 A 
ATOM     53  C   UNL A   1      42.815  26.703  26.501  1.00  0.00     0.012 A 
ATOM     54  C   UNL A   1      41.650  24.888  27.627  1.00  0.00     0.148 A 
ATOM     55  C   UNL A   1      43.145  25.847  25.450  1.00  0.00     0.002 A 
ATOM     56  C   UNL A   1      42.024  24.030  26.602  1.00  0.00     0.091 A 
ATOM     57  F   UNL A   1      40.909  24.472  28.663  1.00  0.00    -0.205 F 
ATOM     58  C   UNL A   1      42.761  24.509  25.506  1.00  0.00     0.022 A 
BRANCH  56  59
ATOM     59  S   UNL A   1      41.652  22.272  26.625  1.00  0.00     0.127 S 
ATOM     60  O   UNL A   1      42.269  21.824  25.377  1.00  0.00    -0.237 OA
ATOM     61  O   UNL A   1      42.339  21.832  27.839  1.00  0.00    -0.237 OA
ATOM     62  O   UNL A   1      40.200  22.167  26.672  1.00  0.00    -0.744 OA
ENDBRANCH  56  59
ENDBRANCH  38  52
BRANCH  39  63
ATOM     63  C   UNL A   1      39.376  31.938  35.332  1.00  0.00     0.023 A 
ATOM     64  C   UNL A   1      38.524  31.339  36.280  1.00  0.00     0.012 A 
ATOM     65  C   UNL A   1      39.795  33.268  35.528  1.00  0.00     0.148 A 
ATOM     66  C   UNL A   1      38.063  32.065  37.379  1.00  0.00     0.002 A 
ATOM     67  C   UNL A   1      39.383  33.965  36.656  1.00  0.00     0.091 A 
ATOM     68  F   UNL A   1      40.595  33.824  34.608  1.00  0.00    -0.205 F 
ATOM     69  C   UNL A   1      38.499  33.374  37.572  1.00  0.00     0.022 A 
BRANCH  67  70
ATOM     70  S   UNL A   1      39.996  35.605  37.052  1.00  0.00     0.127 S 
ATOM     71  O   UNL A   1      39.282  35.901  38.292  1.00  0.00    -0.237 OA
ATOM     72  O   UNL A   1      41.430  35.359  37.209  1.00  0.00    -0.237 OA
ATOM     73  O   UNL A   1      39.653  36.442  35.911  1.00  0.00    -0.744 OA
ENDBRANCH  67  70
ENDBRANCH  39  63
BRANCH  51  74
ATOM     74  C   UNL A   1      44.825  27.757  34.061  1.00  0.00     0.023 A 
ATOM     75  C   UNL A   1      45.984  28.559  34.055  1.00  0.00     0.012 A 
ATOM     76  C   UNL A   1      44.779  26.619  34.891  1.00  0.00     0.148 A 
ATOM     77  C   UNL A   1      47.091  28.212  34.830  1.00  0.00     0.002 A 
ATOM     78  C   UNL A   1      45.863  26.311  35.704  1.00  0.00     0.091 A 
ATOM     79  F   UNL A   1      43.673  25.860  34.873  1.00  0.00    -0.205 F 
ATOM     80  C   UNL A   1      47.026  27.096  35.663  1.00  0.00     0.022 A 
BRANCH  78  81
ATOM     81  S   UNL A   1      45.833  24.954  36.880  1.00  0.00     0.127 S 
ATOM     82  O   UNL A   1      47.026  25.228  37.680  1.00  0.00    -0.237 OA
ATOM     83  O   UNL A   1      44.567  25.178  37.577  1.00  0.00    -0.237 OA
ATOM     84  O   UNL A   1      45.884  23.732  36.089  1.00  0.00    -0.744 OA
ENDBRANCH  78  81
ENDBRANCH  51  74
ENDBRANCH  25  26
ENDBRANCH  18  20
ENDBRANCH  17  18
ENDBRANCH  16  17
ENDBRANCH   1  16
TORSDOF 18
ENDMDL
MODEL 2
REMARK VINA RESULT:     -10.2      5.179      8.098
REMARK SMILES C[C@@H]1OCC[C@@H]1C#CC(=O)OCCOCCOC(=O)c1ccc(-c2c3nc(c(-c4cccc(S(=O)(=O)[O-])c4F)c4ccc([nH]4)c(-c4cccc(S(=O)(=O)[O-])c4F)c4nc(c(-c5cccc(S(=O)(=O)[O-])c5F)c5ccc2[nH]5)C=C4)C=C3)cc1
REMARK SMILES IDX 15 1 14 2 13 3 12 4 11 5 9 6 10 7 8 8 7 9 6 10 1 11 2 12
REMARK SMILES IDX 3 13 4 14 5 15 16 16 17 17 18 18 19 19 20 20 21 21 82 22
REMARK SMILES IDX 22 23 81 24 23 25 24 26 25 27 75 28 26 29 80 30 74 31 76 32
REMARK SMILES IDX 27 33 79 34 73 35 72 36 28 38 60 39 40 40 59 41 41 42 44 43
REMARK SMILES IDX 58 44 77 45 42 46 43 47 57 49 78 50 45 51 29 52 30 53 38 54
REMARK SMILES IDX 31 55 33 56 39 57 32 58 34 59 35 60 36 61 37 62 61 63 62 64
REMARK SMILES IDX 70 65 63 66 65 67 71 68 64 69 66 70 67 71 68 72 69 73 46 74
REMARK SMILES IDX 47 75 55 76 48 77 50 78 56 79 49 80 51 81 52 82 53 83 54 84
REMARK H PARENT 76 37 44 48
REMARK Flexibility Score: inf
ROOT
ATOM      1  C   UNL A   1      36.131  20.005  24.968  1.00  0.00     0.202 C 
ENDROOT
BRANCH   1   2
ATOM      2  O   UNL A   1      35.586  21.281  25.304  1.00  0.00    -0.374 OA
BRANCH   2   3
ATOM      3  C   UNL A   1      35.159  22.130  24.242  1.00  0.00     0.202 C 
BRANCH   3   4
ATOM      4  C   UNL A   1      33.698  22.590  24.239  1.00  0.00     0.262 C 
BRANCH   4   5
ATOM      5  O   UNL A   1      32.833  21.615  23.642  1.00  0.00    -0.454 OA
BRANCH   5   6
ATOM      6  C   UNL A   1      32.268  20.736  24.508  1.00  0.00     0.384 C 
ATOM      7  O   UNL A   1      31.539  20.997  25.454  1.00  0.00    -0.236 OA
BRANCH   6   8
ATOM      8  C   UNL A   1      32.515  19.364  24.136  1.00  0.00     0.017 C 
ATOM      9  C   UNL A   1      32.730  18.198  23.907  1.00  0.00    -0.085 C 
BRANCH   9  10
ATOM     10  C   UNL A   1      33.098  16.792  23.679  1.00  0.00     0.096 C 
ATOM     11  C   UNL A   1      31.858  16.146  25.871  1.00  0.00     0.040 C 
ATOM     12  C   UNL A   1      32.988  15.871  24.894  1.00  0.00     0.130 C 
ATOM     13  O   UNL A   1      34.248  15.924  25.584  1.00  0.00    -0.377 OA
ATOM     14  C   UNL A   1      35.238  16.433  24.685  1.00  0.00     0.162 C 
ATOM     15  C   UNL A   1      34.572  16.663  23.341  1.00  0.00     0.048 C 
ENDBRANCH   9  10
ENDBRANCH   6   8
ENDBRANCH   5   6
ENDBRANCH   4   5
ENDBRANCH   3   4
ENDBRANCH   2   3
ENDBRANCH   1   2
BRANCH   1  16
ATOM     16  C   UNL A   1      37.657  19.827  24.974  1.00  0.00     0.261 C 
BRANCH  16  17
ATOM     17  O   UNL A   1      38.381  21.031  25.270  1.00  0.00    -0.460 OA
BRANCH  17  18
ATOM     18  C   UNL A   1      39.413  20.868  26.136  1.00  0.00     0.338 C 
ATOM     19  O   UNL A   1      40.037  19.843  26.355  1.00  0.00    -0.246 OA
BRANCH  18  20
ATOM     20  C   UNL A   1      39.829  22.178  26.671  1.00  0.00     0.060 A 
ATOM     21  C   UNL A   1      39.196  23.320  26.165  1.00  0.00     0.016 A 
ATOM     22  C   UNL A   1      40.870  22.291  27.593  1.00  0.00     0.016 A 
ATOM     23  C   UNL A   1      39.631  24.587  26.550  1.00  0.00     0.010 A 
ATOM     24  C   UNL A   1      41.307  23.564  27.973  1.00  0.00     0.010 A 
ATOM     25  C   UNL A   1      40.713  24.717  27.428  1.00  0.00    -0.014 A 
BRANCH  25  26
ATOM     26  C   UNL A   1      41.291  26.058  27.696  1.00  0.00     0.031 A 
ATOM     27  C   UNL A   1      42.700  26.356  27.261  1.00  0.00     0.074 A 
ATOM     28  C   UNL A   1      40.567  26.999  28.331  1.00  0.00     0.049 A 
ATOM     29  N   UNL A   1      43.410  27.437  27.442  1.00  0.00    -0.248 NA
ATOM     30  C   UNL A   1      43.406  25.289  26.530  1.00  0.00     0.031 C 
ATOM     31  C   UNL A   1      39.193  26.833  28.799  1.00  0.00     0.029 A 
ATOM     32  N   UNL A   1      40.906  28.272  28.719  1.00  0.00    -0.354 N 
ATOM     33  C   UNL A   1      44.658  27.170  26.891  1.00  0.00     0.074 A 
ATOM     34  C   UNL A   1      44.608  25.822  26.367  1.00  0.00     0.031 C 
ATOM     35  C   UNL A   1      38.814  27.951  29.441  1.00  0.00     0.029 A 
ATOM     36  C   UNL A   1      39.929  28.894  29.462  1.00  0.00     0.049 A 
ATOM     37  H   UNL A   1      41.762  28.699  28.488  1.00  0.00     0.167 HD
ATOM     38  C   UNL A   1      45.744  27.976  26.824  1.00  0.00     0.034 A 
ATOM     39  C   UNL A   1      39.947  30.072  30.117  1.00  0.00     0.034 A 
ATOM     40  C   UNL A   1      45.784  29.322  27.330  1.00  0.00     0.049 A 
ATOM     41  C   UNL A   1      41.177  30.939  30.044  1.00  0.00     0.074 A 
ATOM     42  C   UNL A   1      46.816  30.240  27.244  1.00  0.00     0.029 A 
ATOM     43  N   UNL A   1      44.763  29.934  28.039  1.00  0.00    -0.354 N 
ATOM     44  N   UNL A   1      42.304  30.723  29.409  1.00  0.00    -0.248 NA
ATOM     45  C   UNL A   1      41.128  32.226  30.752  1.00  0.00     0.031 C 
ATOM     46  C   UNL A   1      46.440  31.387  27.951  1.00  0.00     0.029 A 
ATOM     47  C   UNL A   1      45.150  31.206  28.423  1.00  0.00     0.049 A 
ATOM     48  H   UNL A   1      43.890  29.524  28.241  1.00  0.00     0.167 HD
ATOM     49  C   UNL A   1      43.079  31.861  29.608  1.00  0.00     0.074 A 
ATOM     50  C   UNL A   1      42.285  32.772  30.405  1.00  0.00     0.031 C 
ATOM     51  C   UNL A   1      44.337  32.125  29.178  1.00  0.00     0.034 A 
BRANCH  38  52
ATOM     52  C   UNL A   1      46.994  27.428  26.186  1.00  0.00     0.023 A 
ATOM     53  C   UNL A   1      47.297  27.731  24.844  1.00  0.00     0.012 A 
ATOM     54  C   UNL A   1      47.908  26.673  26.948  1.00  0.00     0.148 A 
ATOM     55  C   UNL A   1      48.476  27.266  24.261  1.00  0.00     0.002 A 
ATOM     56  C   UNL A   1      49.103  26.257  26.376  1.00  0.00     0.091 A 
ATOM     57  F   UNL A   1      47.592  26.379  28.216  1.00  0.00    -0.205 F 
ATOM     58  C   UNL A   1      49.384  26.541  25.029  1.00  0.00     0.022 A 
BRANCH  56  59
ATOM     59  S   UNL A   1      50.374  25.392  27.306  1.00  0.00     0.127 S 
ATOM     60  O   UNL A   1      50.722  26.385  28.322  1.00  0.00    -0.237 OA
ATOM     61  O   UNL A   1      49.642  24.231  27.813  1.00  0.00    -0.237 OA
ATOM     62  O   UNL A   1      51.430  25.081  26.354  1.00  0.00    -0.744 OA
ENDBRANCH  56  59
ENDBRANCH  38  52
BRANCH  39  63
ATOM     63  C   UNL A   1      38.760  30.508  30.906  1.00  0.00     0.023 A 
ATOM     64  C   UNL A   1      38.688  30.221  32.284  1.00  0.00     0.012 A 
ATOM     65  C   UNL A   1      37.697  31.199  30.293  1.00  0.00     0.148 A 
ATOM     66  C   UNL A   1      37.560  30.575  33.025  1.00  0.00     0.002 A 
ATOM     67  C   UNL A   1      36.605  31.603  31.050  1.00  0.00     0.091 A 
ATOM     68  F   UNL A   1      37.778  31.451  28.979  1.00  0.00    -0.205 F 
ATOM     69  C   UNL A   1      36.524  31.274  32.411  1.00  0.00     0.022 A 
BRANCH  67  70
ATOM     70  S   UNL A   1      35.287  32.618  30.373  1.00  0.00     0.127 S 
ATOM     71  O   UNL A   1      34.824  31.800  29.254  1.00  0.00    -0.237 OA
ATOM     72  O   UNL A   1      34.361  32.699  31.503  1.00  0.00    -0.237 OA
ATOM     73  O   UNL A   1      35.909  33.886  30.014  1.00  0.00    -0.744 OA
ENDBRANCH  67  70
ENDBRANCH  39  63
BRANCH  51  74
ATOM     74  C   UNL A   1      44.926  33.474  29.506  1.00  0.00     0.023 A 
ATOM     75  C   UNL A   1      45.670  33.657  30.689  1.00  0.00     0.012 A 
ATOM     76  C   UNL A   1      44.795  34.546  28.600  1.00  0.00     0.148 A 
ATOM     77  C   UNL A   1      46.239  34.896  30.984  1.00  0.00     0.002 A 
ATOM     78  C   UNL A   1      45.413  35.760  28.873  1.00  0.00     0.091 A 
ATOM     79  F   UNL A   1      44.071  34.358  27.487  1.00  0.00    -0.205 F 
ATOM     80  C   UNL A   1      46.121  35.943  30.072  1.00  0.00     0.022 A 
BRANCH  78  81
ATOM     81  S   UNL A   1      45.399  37.132  27.714  1.00  0.00     0.127 S 
ATOM     82  O   UNL A   1      46.050  36.541  26.545  1.00  0.00    -0.237 OA
ATOM     83  O   UNL A   1      43.968  37.385  27.552  1.00  0.00    -0.237 OA
ATOM     84  O   UNL A   1      46.138  38.211  28.355  1.00  0.00    -0.744 OA
ENDBRANCH  78  81
ENDBRANCH  51  74
ENDBRANCH  25  26
ENDBRANCH  18  20
ENDBRANCH  17  18
ENDBRANCH  16  17
ENDBRANCH   1  16
TORSDOF 18
ENDMDL
MODEL 3
REMARK VINA RESULT:     -10.0      4.907     10.079
REMARK SMILES C[C@@H]1OCC[C@@H]1C#CC(=O)OCCOCCOC(=O)c1ccc(-c2c3nc(c(-c4cccc(S(=O)(=O)[O-])c4F)c4ccc([nH]4)c(-c4cccc(S(=O)(=O)[O-])c4F)c4nc(c(-c5cccc(S(=O)(=O)[O-])c5F)c5ccc2[nH]5)C=C4)C=C3)cc1
REMARK SMILES IDX 15 1 14 2 13 3 12 4 11 5 9 6 10 7 8 8 7 9 6 10 1 11 2 12
REMARK SMILES IDX 3 13 4 14 5 15 16 16 17 17 18 18 19 19 20 20 21 21 82 22
REMARK SMILES IDX 22 23 81 24 23 25 24 26 25 27 75 28 26 29 80 30 74 31 76 32
REMARK SMILES IDX 27 33 79 34 73 35 72 36 28 38 60 39 40 40 59 41 41 42 44 43
REMARK SMILES IDX 58 44 77 45 42 46 43 47 57 49 78 50 45 51 29 52 30 53 38 54
REMARK SMILES IDX 31 55 33 56 39 57 32 58 34 59 35 60 36 61 37 62 61 63 62 64
REMARK SMILES IDX 70 65 63 66 65 67 71 68 64 69 66 70 67 71 68 72 69 73 46 74
REMARK SMILES IDX 47 75 55 76 48 77 50 78 56 79 49 80 51 81 52 82 53 83 54 84
REMARK H PARENT 76 37 44 48
REMARK Flexibility Score: inf
ROOT
ATOM      1  C   UNL A   1      35.326  22.060  26.287  1.00  0.00     0.202 C 
ENDROOT
BRANCH   1   2
ATOM      2  O   UNL A   1      34.547  23.019  25.573  1.00  0.00    -0.374 OA
BRANCH   2   3
ATOM      3  C   UNL A   1      33.295  22.600  25.035  1.00  0.00     0.202 C 
BRANCH   3   4
ATOM      4  C   UNL A   1      32.361  23.678  24.477  1.00  0.00     0.262 C 
BRANCH   4   5
ATOM      5  O   UNL A   1      31.032  23.554  24.998  1.00  0.00    -0.454 OA
BRANCH   5   6
ATOM      6  C   UNL A   1      30.799  24.225  26.155  1.00  0.00     0.384 C 
ATOM      7  O   UNL A   1      30.537  23.743  27.247  1.00  0.00    -0.236 OA
BRANCH   6   8
ATOM      8  C   UNL A   1      31.009  25.645  26.017  1.00  0.00     0.017 C 
ATOM      9  C   UNL A   1      31.227  26.832  25.974  1.00  0.00    -0.085 C 
BRANCH   9  10
ATOM     10  C   UNL A   1      31.435  28.288  26.024  1.00  0.00     0.096 C 
ATOM     11  C   UNL A   1      32.436  28.195  23.627  1.00  0.00     0.040 C 
ATOM     12  C   UNL A   1      32.411  28.855  24.994  1.00  0.00     0.130 C 
ATOM     13  O   UNL A   1      33.724  28.807  25.579  1.00  0.00    -0.377 OA
ATOM     14  C   UNL A   1      33.585  28.677  26.997  1.00  0.00     0.162 C 
ATOM     15  C   UNL A   1      32.103  28.698  27.324  1.00  0.00     0.048 C 
ENDBRANCH   9  10
ENDBRANCH   6   8
ENDBRANCH   5   6
ENDBRANCH   4   5
ENDBRANCH   3   4
ENDBRANCH   2   3
ENDBRANCH   1   2
BRANCH   1  16
ATOM     16  C   UNL A   1      36.189  21.068  25.492  1.00  0.00     0.261 C 
BRANCH  16  17
ATOM     17  O   UNL A   1      37.425  21.624  25.017  1.00  0.00    -0.460 OA
BRANCH  17  18
ATOM     18  C   UNL A   1      38.517  21.265  25.739  1.00  0.00     0.338 C 
ATOM     19  O   UNL A   1      39.058  20.172  25.760  1.00  0.00    -0.246 OA
BRANCH  18  20
ATOM     20  C   UNL A   1      39.106  22.454  26.381  1.00  0.00     0.060 A 
ATOM     21  C   UNL A   1      38.570  23.705  26.052  1.00  0.00     0.016 A 
ATOM     22  C   UNL A   1      40.209  22.353  27.229  1.00  0.00     0.016 A 
ATOM     23  C   UNL A   1      39.164  24.868  26.539  1.00  0.00     0.010 A 
ATOM     24  C   UNL A   1      40.806  23.522  27.712  1.00  0.00     0.010 A 
ATOM     25  C   UNL A   1      40.307  24.785  27.343  1.00  0.00    -0.014 A 
BRANCH  25  26
ATOM     26  C   UNL A   1      41.044  26.020  27.712  1.00  0.00     0.031 A 
ATOM     27  C   UNL A   1      40.332  27.107  28.470  1.00  0.00     0.074 A 
ATOM     28  C   UNL A   1      42.335  26.174  27.364  1.00  0.00     0.049 A 
ATOM     29  N   UNL A   1      40.772  28.280  28.842  1.00  0.00    -0.248 NA
ATOM     30  C   UNL A   1      38.935  26.839  28.855  1.00  0.00     0.031 C 
ATOM     31  C   UNL A   1      43.135  25.194  26.632  1.00  0.00     0.029 A 
ATOM     32  N   UNL A   1      43.189  27.232  27.555  1.00  0.00    -0.354 N 
ATOM     33  C   UNL A   1      39.699  28.909  29.462  1.00  0.00     0.074 A 
ATOM     34  C   UNL A   1      38.585  27.987  29.418  1.00  0.00     0.031 C 
ATOM     35  C   UNL A   1      44.355  25.709  26.405  1.00  0.00     0.029 A 
ATOM     36  C   UNL A   1      44.410  27.066  26.942  1.00  0.00     0.049 A 
ATOM     37  H   UNL A   1      42.953  28.032  28.078  1.00  0.00     0.167 HD
ATOM     38  C   UNL A   1      39.648  30.141  30.022  1.00  0.00     0.034 A 
ATOM     39  C   UNL A   1      45.439  27.924  26.798  1.00  0.00     0.034 A 
ATOM     40  C   UNL A   1      40.763  31.048  30.080  1.00  0.00     0.049 A 
ATOM     41  C   UNL A   1      45.347  29.297  27.412  1.00  0.00     0.074 A 
ATOM     42  C   UNL A   1      40.828  32.289  30.690  1.00  0.00     0.029 A 
ATOM     43  N   UNL A   1      41.996  30.830  29.487  1.00  0.00    -0.354 N 
ATOM     44  N   UNL A   1      44.370  29.829  28.106  1.00  0.00    -0.248 NA
ATOM     45  C   UNL A   1      46.512  30.180  27.248  1.00  0.00     0.031 C 
ATOM     46  C   UNL A   1      42.082  32.845  30.417  1.00  0.00     0.029 A 
ATOM     47  C   UNL A   1      42.819  31.924  29.691  1.00  0.00     0.049 A 
ATOM     48  H   UNL A   1      42.250  30.016  28.994  1.00  0.00     0.167 HD
ATOM     49  C   UNL A   1      44.818  31.087  28.495  1.00  0.00     0.074 A 
ATOM     50  C   UNL A   1      46.161  31.230  27.976  1.00  0.00     0.031 C 
ATOM     51  C   UNL A   1      44.172  32.041  29.209  1.00  0.00     0.034 A 
BRANCH  38  52
ATOM     52  C   UNL A   1      38.340  30.596  30.616  1.00  0.00     0.023 A 
ATOM     53  C   UNL A   1      38.080  30.408  31.987  1.00  0.00     0.012 A 
ATOM     54  C   UNL A   1      37.400  31.282  29.821  1.00  0.00     0.148 A 
ATOM     55  C   UNL A   1      36.892  30.869  32.553  1.00  0.00     0.002 A 
ATOM     56  C   UNL A   1      36.242  31.782  30.402  1.00  0.00     0.091 A 
ATOM     57  F   UNL A   1      37.658  31.433  28.515  1.00  0.00    -0.205 F 
ATOM     58  C   UNL A   1      35.980  31.567  31.765  1.00  0.00     0.022 A 
BRANCH  56  59
ATOM     59  S   UNL A   1      35.048  32.767  29.489  1.00  0.00     0.127 S 
ATOM     60  O   UNL A   1      34.569  31.805  28.498  1.00  0.00    -0.237 OA
ATOM     61  O   UNL A   1      34.076  33.106  30.529  1.00  0.00    -0.237 OA
ATOM     62  O   UNL A   1      35.786  33.900  28.950  1.00  0.00    -0.744 OA
ENDBRANCH  56  59
ENDBRANCH  38  52
BRANCH  39  63
ATOM     63  C   UNL A   1      46.654  27.516  26.035  1.00  0.00     0.023 A 
ATOM     64  C   UNL A   1      46.757  27.821  24.664  1.00  0.00     0.012 A 
ATOM     65  C   UNL A   1      47.702  26.818  26.665  1.00  0.00     0.148 A 
ATOM     66  C   UNL A   1      47.863  27.399  23.924  1.00  0.00     0.002 A 
ATOM     67  C   UNL A   1      48.828  26.456  25.937  1.00  0.00     0.091 A 
ATOM     68  F   UNL A   1      47.579  26.526  27.967  1.00  0.00    -0.205 F 
ATOM     69  C   UNL A   1      48.902  26.726  24.563  1.00  0.00     0.022 A 
BRANCH  67  70
ATOM     70  S   UNL A   1      50.267  25.702  26.702  1.00  0.00     0.127 S 
ATOM     71  O   UNL A   1      51.183  25.588  25.570  1.00  0.00    -0.237 OA
ATOM     72  O   UNL A   1      50.639  26.709  27.698  1.00  0.00    -0.237 OA
ATOM     73  O   UNL A   1      49.801  24.443  27.267  1.00  0.00    -0.744 OA
ENDBRANCH  67  70
ENDBRANCH  39  63
BRANCH  51  74
ATOM     74  C   UNL A   1      44.921  33.311  29.528  1.00  0.00     0.023 A 
ATOM     75  C   UNL A   1      45.718  33.396  30.687  1.00  0.00     0.012 A 
ATOM     76  C   UNL A   1      44.883  34.402  28.635  1.00  0.00     0.148 A 
ATOM     77  C   UNL A   1      46.433  34.559  30.972  1.00  0.00     0.002 A 
ATOM     78  C   UNL A   1      45.643  35.535  28.897  1.00  0.00     0.091 A 
ATOM     79  F   UNL A   1      44.108  34.309  27.545  1.00  0.00    -0.205 F 
ATOM     80  C   UNL A   1      46.405  35.622  30.072  1.00  0.00     0.022 A 
BRANCH  78  81
ATOM     81  S   UNL A   1      45.749  36.912  27.749  1.00  0.00     0.127 S 
ATOM     82  O   UNL A   1      46.021  36.227  26.486  1.00  0.00    -0.237 OA
ATOM     83  O   UNL A   1      44.413  37.499  27.847  1.00  0.00    -0.237 OA
ATOM     84  O   UNL A   1      46.824  37.764  28.237  1.00  0.00    -0.744 OA
ENDBRANCH  78  81
ENDBRANCH  51  74
ENDBRANCH  25  26
ENDBRANCH  18  20
ENDBRANCH  17  18
ENDBRANCH  16  17
ENDBRANCH   1  16
TORSDOF 18
ENDMDL
