MODEL 1
REMARK VINA RESULT:     -11.2      0.000      0.000
REMARK SMILES O=C(OCCOCCOC(=O)[C@@H]1[C@H](C(=O)NCc2ccncc2)[C@H]2C=C[C@@H]1O2)c1ccc(-c2c3nc(c(-c4cccc(S(=O)(=O)[O-])c4F)c4ccc([nH]4)c(-c4cccc(S(=O)(=O)[O-])c4F)c4nc(c(-c5cccc(S(=O)(=O)[O-])c5F)c5ccc2[nH]5)C=C4)C=C3)cc1
REMARK SMILES IDX 6 1 5 2 4 3 3 4 2 5 1 6 29 7 30 8 91 9 31 10 90 11 32 12
REMARK SMILES IDX 33 13 34 14 84 15 35 16 89 17 83 18 85 19 36 20 88 21 82 22
REMARK SMILES IDX 81 23 37 25 69 26 49 27 68 28 50 29 53 30 67 31 86 32 51 33
REMARK SMILES IDX 52 34 66 36 87 37 54 38 38 39 39 40 47 41 40 42 42 43 48 44
REMARK SMILES IDX 41 45 43 46 44 47 45 48 46 49 70 50 71 51 79 52 72 53 74 54
REMARK SMILES IDX 80 55 73 56 75 57 76 58 77 59 78 60 55 61 56 62 64 63 57 64
REMARK SMILES IDX 59 65 65 66 58 67 60 68 61 69 62 70 63 71 7 72 8 73 9 74
REMARK SMILES IDX 10 75 11 76 12 77 13 78 27 79 24 80 26 81 28 82 25 83 14 84
REMARK SMILES IDX 15 85 16 86 17 88 18 89 19 90 23 91 20 92 22 93 21 94
REMARK H PARENT 85 24 53 35 16 87
REMARK Flexibility Score: inf
ROOT
ATOM      1  O   UNL A   1      35.493  21.019  24.898  1.00  0.00    -0.374 OA
ENDROOT
BRANCH   1   2
ATOM      2  C   UNL A   1      36.188  19.771  24.844  1.00  0.00     0.202 C 
BRANCH   2   3
ATOM      3  C   UNL A   1      37.718  19.861  24.839  1.00  0.00     0.261 C 
BRANCH   3   4
ATOM      4  O   UNL A   1      38.188  20.871  25.744  1.00  0.00    -0.460 OA
BRANCH   4   5
ATOM      5  C   UNL A   1      39.440  21.021  26.244  1.00  0.00     0.338 C 
ATOM      6  O   UNL A   1      40.178  20.038  26.272  1.00  0.00    -0.246 OA
BRANCH   5   7
ATOM      7  C   UNL A   1      39.982  22.326  26.735  1.00  0.00     0.060 A 
ATOM      8  C   UNL A   1      39.488  23.580  26.378  1.00  0.00     0.016 A 
ATOM      9  C   UNL A   1      41.027  22.279  27.674  1.00  0.00     0.016 A 
ATOM     10  C   UNL A   1      40.043  24.747  26.861  1.00  0.00     0.010 A 
ATOM     11  C   UNL A   1      41.571  23.455  28.205  1.00  0.00     0.010 A 
ATOM     12  C   UNL A   1      41.086  24.693  27.778  1.00  0.00    -0.014 A 
BRANCH  12  13
ATOM     13  C   UNL A   1      41.677  25.986  28.154  1.00  0.00     0.031 A 
ATOM     14  C   UNL A   1      43.014  26.343  27.597  1.00  0.00     0.074 A 
ATOM     15  C   UNL A   1      40.901  26.886  28.786  1.00  0.00     0.049 A 
ATOM     16  N   UNL A   1      43.678  27.457  27.718  1.00  0.00    -0.248 NA
ATOM     17  C   UNL A   1      43.693  25.316  26.787  1.00  0.00     0.031 C 
ATOM     18  C   UNL A   1      39.552  26.614  29.282  1.00  0.00     0.029 A 
ATOM     19  N   UNL A   1      41.096  28.209  29.067  1.00  0.00    -0.354 N 
ATOM     20  C   UNL A   1      44.877  27.247  27.055  1.00  0.00     0.074 A 
ATOM     21  C   UNL A   1      44.840  25.912  26.503  1.00  0.00     0.031 C 
ATOM     22  C   UNL A   1      39.010  27.752  29.741  1.00  0.00     0.029 A 
ATOM     23  C   UNL A   1      40.013  28.808  29.668  1.00  0.00     0.049 A 
ATOM     24  H   UNL A   1      41.931  28.688  28.857  1.00  0.00     0.167 HD
ATOM     25  C   UNL A   1      45.920  28.099  26.939  1.00  0.00     0.034 A 
ATOM     26  C   UNL A   1      39.876  30.059  30.146  1.00  0.00     0.034 A 
ATOM     27  C   UNL A   1      45.917  29.419  27.503  1.00  0.00     0.049 A 
ATOM     28  C   UNL A   1      41.063  30.975  30.020  1.00  0.00     0.074 A 
ATOM     29  C   UNL A   1      46.938  30.347  27.541  1.00  0.00     0.029 A 
ATOM     30  N   UNL A   1      44.822  29.995  28.138  1.00  0.00    -0.354 N 
ATOM     31  N   UNL A   1      42.211  30.758  29.419  1.00  0.00    -0.248 NA
ATOM     32  C   UNL A   1      40.948  32.299  30.640  1.00  0.00     0.031 C 
ATOM     33  C   UNL A   1      46.466  31.480  28.214  1.00  0.00     0.029 A 
ATOM     34  C   UNL A   1      45.139  31.271  28.565  1.00  0.00     0.049 A 
ATOM     35  H   UNL A   1      43.949  29.559  28.263  1.00  0.00     0.167 HD
ATOM     36  C   UNL A   1      42.958  31.914  29.594  1.00  0.00     0.074 A 
ATOM     37  C   UNL A   1      42.108  32.850  30.306  1.00  0.00     0.031 C 
ATOM     38  C   UNL A   1      44.241  32.175  29.237  1.00  0.00     0.034 A 
BRANCH  25  39
ATOM     39  C   UNL A   1      47.142  27.591  26.229  1.00  0.00     0.023 A 
ATOM     40  C   UNL A   1      47.306  27.817  24.847  1.00  0.00     0.012 A 
ATOM     41  C   UNL A   1      48.120  26.859  26.932  1.00  0.00     0.148 A 
ATOM     42  C   UNL A   1      48.407  27.292  24.170  1.00  0.00     0.002 A 
ATOM     43  C   UNL A   1      49.234  26.376  26.259  1.00  0.00     0.091 A 
ATOM     44  F   UNL A   1      47.927  26.630  28.239  1.00  0.00    -0.205 F 
ATOM     45  C   UNL A   1      49.373  26.580  24.876  1.00  0.00     0.022 A 
BRANCH  43  46
ATOM     46  S   UNL A   1      50.559  25.490  27.085  1.00  0.00     0.127 S 
ATOM     47  O   UNL A   1      51.471  25.220  25.974  1.00  0.00    -0.237 OA
ATOM     48  O   UNL A   1      51.040  26.488  28.040  1.00  0.00    -0.237 OA
ATOM     49  O   UNL A   1      49.947  24.312  27.684  1.00  0.00    -0.744 OA
ENDBRANCH  43  46
ENDBRANCH  25  39
BRANCH  26  50
ATOM     50  C   UNL A   1      38.619  30.491  30.827  1.00  0.00     0.023 A 
ATOM     51  C   UNL A   1      38.436  30.247  32.203  1.00  0.00     0.012 A 
ATOM     52  C   UNL A   1      37.592  31.140  30.111  1.00  0.00     0.148 A 
ATOM     53  C   UNL A   1      37.245  30.608  32.838  1.00  0.00     0.002 A 
ATOM     54  C   UNL A   1      36.439  31.558  30.764  1.00  0.00     0.091 A 
ATOM     55  F   UNL A   1      37.756  31.332  28.794  1.00  0.00    -0.205 F 
ATOM     56  C   UNL A   1      36.253  31.275  32.124  1.00  0.00     0.022 A 
BRANCH  54  57
ATOM     57  S   UNL A   1      35.182  32.538  29.936  1.00  0.00     0.127 S 
ATOM     58  O   UNL A   1      34.230  32.778  31.018  1.00  0.00    -0.237 OA
ATOM     59  O   UNL A   1      35.938  33.716  29.510  1.00  0.00    -0.237 OA
ATOM     60  O   UNL A   1      34.703  31.706  28.840  1.00  0.00    -0.744 OA
ENDBRANCH  54  57
ENDBRANCH  26  50
BRANCH  38  61
ATOM     61  C   UNL A   1      44.779  33.532  29.600  1.00  0.00     0.023 A 
ATOM     62  C   UNL A   1      45.442  33.716  30.829  1.00  0.00     0.012 A 
ATOM     63  C   UNL A   1      44.678  34.602  28.692  1.00  0.00     0.148 A 
ATOM     64  C   UNL A   1      45.964  34.963  31.166  1.00  0.00     0.002 A 
ATOM     65  C   UNL A   1      45.249  35.825  29.012  1.00  0.00     0.091 A 
ATOM     66  F   UNL A   1      44.023  34.404  27.539  1.00  0.00    -0.205 F 
ATOM     67  C   UNL A   1      45.879  36.013  30.254  1.00  0.00     0.022 A 
BRANCH  65  68
ATOM     68  S   UNL A   1      45.276  37.195  27.853  1.00  0.00     0.127 S 
ATOM     69  O   UNL A   1      45.988  38.217  28.616  1.00  0.00    -0.237 OA
ATOM     70  O   UNL A   1      46.029  36.635  26.729  1.00  0.00    -0.237 OA
ATOM     71  O   UNL A   1      43.881  37.493  27.554  1.00  0.00    -0.744 OA
ENDBRANCH  65  68
ENDBRANCH  38  61
ENDBRANCH  12  13
ENDBRANCH   5   7
ENDBRANCH   4   5
ENDBRANCH   3   4
ENDBRANCH   2   3
ENDBRANCH   1   2
BRANCH   1  72
ATOM     72  C   UNL A   1      35.147  21.470  26.215  1.00  0.00     0.202 C 
BRANCH  72  73
ATOM     73  C   UNL A   1      35.052  22.988  26.232  1.00  0.00     0.261 C 
BRANCH  73  74
ATOM     74  O   UNL A   1      33.649  23.297  26.274  1.00  0.00    -0.463 OA
BRANCH  74  75
ATOM     75  C   UNL A   1      33.313  24.539  25.836  1.00  0.00     0.312 C 
ATOM     76  O   UNL A   1      33.982  25.541  26.006  1.00  0.00    -0.252 OA
BRANCH  75  77
ATOM     77  C   UNL A   1      31.921  24.517  25.289  1.00  0.00     0.147 C 
ATOM     78  C   UNL A   1      31.535  23.718  24.021  1.00  0.00     0.128 C 
ATOM     79  C   UNL A   1      31.592  25.953  24.866  1.00  0.00     0.157 C 
ATOM     80  C   UNL A   1      31.067  24.833  23.077  1.00  0.00     0.155 C 
ATOM     81  C   UNL A   1      30.104  26.092  24.720  1.00  0.00     0.004 C 
ATOM     82  O   UNL A   1      31.954  25.912  23.460  1.00  0.00    -0.365 OA
ATOM     83  C   UNL A   1      29.778  25.410  23.611  1.00  0.00     0.004 C 
BRANCH  78  84
ATOM     84  C   UNL A   1      32.329  22.642  23.298  1.00  0.00     0.227 C 
ATOM     85  O   UNL A   1      32.928  22.986  22.264  1.00  0.00    -0.275 OA
ATOM     86  N   UNL A   1      32.553  21.372  23.664  1.00  0.00    -0.352 N 
ATOM     87  H   UNL A   1      33.132  20.893  23.028  1.00  0.00     0.163 HD
BRANCH  86  88
ATOM     88  C   UNL A   1      32.143  20.542  24.777  1.00  0.00     0.151 C 
BRANCH  88  89
ATOM     89  C   UNL A   1      32.504  19.088  24.588  1.00  0.00    -0.026 A 
ATOM     90  C   UNL A   1      32.715  18.607  23.291  1.00  0.00     0.025 A 
ATOM     91  C   UNL A   1      32.657  18.189  25.647  1.00  0.00     0.025 A 
ATOM     92  C   UNL A   1      33.180  17.313  23.117  1.00  0.00     0.111 A 
ATOM     93  C   UNL A   1      33.115  16.910  25.370  1.00  0.00     0.111 A 
ATOM     94  N   UNL A   1      33.405  16.461  24.133  1.00  0.00    -0.265 NA
ENDBRANCH  88  89
ENDBRANCH  86  88
ENDBRANCH  78  84
ENDBRANCH  75  77
ENDBRANCH  74  75
ENDBRANCH  73  74
ENDBRANCH  72  73
ENDBRANCH   1  72
TORSDOF 20
ENDMDL
MODEL 2
REMARK VINA RESULT:     -11.1      1.333      3.315
REMARK SMILES O=C(OCCOCCOC(=O)[C@@H]1[C@H](C(=O)NCc2ccncc2)[C@H]2C=C[C@@H]1O2)c1ccc(-c2c3nc(c(-c4cccc(S(=O)(=O)[O-])c4F)c4ccc([nH]4)c(-c4cccc(S(=O)(=O)[O-])c4F)c4nc(c(-c5cccc(S(=O)(=O)[O-])c5F)c5ccc2[nH]5)C=C4)C=C3)cc1
REMARK SMILES IDX 6 1 5 2 4 3 3 4 2 5 1 6 29 7 30 8 91 9 31 10 90 11 32 12
REMARK SMILES IDX 33 13 34 14 84 15 35 16 89 17 83 18 85 19 36 20 88 21 82 22
REMARK SMILES IDX 81 23 37 25 69 26 49 27 68 28 50 29 53 30 67 31 86 32 51 33
REMARK SMILES IDX 52 34 66 36 87 37 54 38 38 39 39 40 47 41 40 42 42 43 48 44
REMARK SMILES IDX 41 45 43 46 44 47 45 48 46 49 70 50 71 51 79 52 72 53 74 54
REMARK SMILES IDX 80 55 73 56 75 57 76 58 77 59 78 60 55 61 56 62 64 63 57 64
REMARK SMILES IDX 59 65 65 66 58 67 60 68 61 69 62 70 63 71 7 72 8 73 9 74
REMARK SMILES IDX 10 75 11 76 12 77 13 78 27 79 24 80 26 81 28 82 25 83 14 84
REMARK SMILES IDX 15 85 16 86 17 88 18 89 19 90 23 91 20 92 22 93 21 94
REMARK H PARENT 85 24 53 35 16 87
REMARK Flexibility Score: inf
ROOT
ATOM      1  O   UNL A   1      35.210  18.571  24.703  1.00  0.00    -0.374 OA
ENDROOT
BRANCH   1   2
ATOM      2  C   UNL A   1      35.868  19.812  24.973  1.00  0.00     0.202 C 
BRANCH   2   3
ATOM      3  C   UNL A   1      37.392  19.806  24.801  1.00  0.00     0.261 C 
BRANCH   3   4
ATOM      4  O   UNL A   1      37.992  20.967  25.393  1.00  0.00    -0.460 OA
BRANCH   4   5
ATOM      5  C   UNL A   1      39.193  21.056  26.017  1.00  0.00     0.338 C 
ATOM      6  O   UNL A   1      39.868  20.034  26.130  1.00  0.00    -0.246 OA
BRANCH   5   7
ATOM      7  C   UNL A   1      39.756  22.337  26.548  1.00  0.00     0.060 A 
ATOM      8  C   UNL A   1      39.331  23.611  26.173  1.00  0.00     0.016 A 
ATOM      9  C   UNL A   1      40.744  22.245  27.544  1.00  0.00     0.016 A 
ATOM     10  C   UNL A   1      39.902  24.753  26.696  1.00  0.00     0.010 A 
ATOM     11  C   UNL A   1      41.302  23.395  28.114  1.00  0.00     0.010 A 
ATOM     12  C   UNL A   1      40.889  24.653  27.670  1.00  0.00    -0.014 A 
BRANCH  12  13
ATOM     13  C   UNL A   1      41.506  25.920  28.089  1.00  0.00     0.031 A 
ATOM     14  C   UNL A   1      42.867  26.251  27.574  1.00  0.00     0.074 A 
ATOM     15  C   UNL A   1      40.739  26.829  28.720  1.00  0.00     0.049 A 
ATOM     16  N   UNL A   1      43.559  27.342  27.735  1.00  0.00    -0.248 NA
ATOM     17  C   UNL A   1      43.537  25.221  26.759  1.00  0.00     0.031 C 
ATOM     18  C   UNL A   1      39.370  26.587  29.175  1.00  0.00     0.029 A 
ATOM     19  N   UNL A   1      40.965  28.140  29.034  1.00  0.00    -0.354 N 
ATOM     20  C   UNL A   1      44.768  27.111  27.099  1.00  0.00     0.074 A 
ATOM     21  C   UNL A   1      44.708  25.789  26.518  1.00  0.00     0.031 C 
ATOM     22  C   UNL A   1      38.850  27.730  29.645  1.00  0.00     0.029 A 
ATOM     23  C   UNL A   1      39.884  28.757  29.621  1.00  0.00     0.049 A 
ATOM     24  H   UNL A   1      41.818  28.599  28.856  1.00  0.00     0.167 HD
ATOM     25  C   UNL A   1      45.837  27.935  27.027  1.00  0.00     0.034 A 
ATOM     26  C   UNL A   1      39.770  30.002  30.122  1.00  0.00     0.034 A 
ATOM     27  C   UNL A   1      45.857  29.243  27.620  1.00  0.00     0.049 A 
ATOM     28  C   UNL A   1      40.985  30.885  30.045  1.00  0.00     0.074 A 
ATOM     29  C   UNL A   1      46.903  30.140  27.704  1.00  0.00     0.029 A 
ATOM     30  N   UNL A   1      44.763  29.837  28.239  1.00  0.00    -0.354 N 
ATOM     31  N   UNL A   1      42.143  30.648  29.469  1.00  0.00    -0.248 NA
ATOM     32  C   UNL A   1      40.892  32.199  30.691  1.00  0.00     0.031 C 
ATOM     33  C   UNL A   1      46.446  31.271  28.389  1.00  0.00     0.029 A 
ATOM     34  C   UNL A   1      45.105  31.094  28.701  1.00  0.00     0.049 A 
ATOM     35  H   UNL A   1      43.875  29.424  28.333  1.00  0.00     0.167 HD
ATOM     36  C   UNL A   1      42.917  31.778  29.688  1.00  0.00     0.074 A 
ATOM     37  C   UNL A   1      42.076  32.723  30.399  1.00  0.00     0.031 C 
ATOM     38  C   UNL A   1      44.215  32.009  29.370  1.00  0.00     0.034 A 
BRANCH  25  39
ATOM     39  C   UNL A   1      47.063  27.406  26.339  1.00  0.00     0.023 A 
ATOM     40  C   UNL A   1      47.236  27.599  24.953  1.00  0.00     0.012 A 
ATOM     41  C   UNL A   1      48.033  26.688  27.065  1.00  0.00     0.148 A 
ATOM     42  C   UNL A   1      48.341  27.056  24.295  1.00  0.00     0.002 A 
ATOM     43  C   UNL A   1      49.151  26.186  26.411  1.00  0.00     0.091 A 
ATOM     44  F   UNL A   1      47.831  26.491  28.375  1.00  0.00    -0.205 F 
ATOM     45  C   UNL A   1      49.299  26.357  25.025  1.00  0.00     0.022 A 
BRANCH  43  46
ATOM     46  S   UNL A   1      50.467  25.316  27.267  1.00  0.00     0.127 S 
ATOM     47  O   UNL A   1      50.893  26.315  28.247  1.00  0.00    -0.237 OA
ATOM     48  O   UNL A   1      49.754  24.171  27.833  1.00  0.00    -0.237 OA
ATOM     49  O   UNL A   1      51.458  24.983  26.254  1.00  0.00    -0.744 OA
ENDBRANCH  43  46
ENDBRANCH  25  39
BRANCH  26  50
ATOM     50  C   UNL A   1      38.509  30.456  30.779  1.00  0.00     0.023 A 
ATOM     51  C   UNL A   1      38.287  30.198  32.147  1.00  0.00     0.012 A 
ATOM     52  C   UNL A   1      37.514  31.139  30.049  1.00  0.00     0.148 A 
ATOM     53  C   UNL A   1      37.091  30.580  32.760  1.00  0.00     0.002 A 
ATOM     54  C   UNL A   1      36.357  31.577  30.682  1.00  0.00     0.091 A 
ATOM     55  F   UNL A   1      37.714  31.345  28.739  1.00  0.00    -0.205 F 
ATOM     56  C   UNL A   1      36.133  31.281  32.032  1.00  0.00     0.022 A 
BRANCH  54  57
ATOM     57  S   UNL A   1      35.144  32.598  29.838  1.00  0.00     0.127 S 
ATOM     58  O   UNL A   1      34.637  31.681  28.820  1.00  0.00    -0.237 OA
ATOM     59  O   UNL A   1      34.199  32.907  30.912  1.00  0.00    -0.237 OA
ATOM     60  O   UNL A   1      35.885  33.751  29.345  1.00  0.00    -0.744 OA
ENDBRANCH  54  57
ENDBRANCH  26  50
BRANCH  38  61
ATOM     61  C   UNL A   1      44.782  33.342  29.775  1.00  0.00     0.023 A 
ATOM     62  C   UNL A   1      45.429  33.478  31.019  1.00  0.00     0.012 A 
ATOM     63  C   UNL A   1      44.725  34.436  28.893  1.00  0.00     0.148 A 
ATOM     64  C   UNL A   1      45.976  34.703  31.396  1.00  0.00     0.002 A 
ATOM     65  C   UNL A   1      45.322  35.635  29.253  1.00  0.00     0.091 A 
ATOM     66  F   UNL A   1      44.085  34.284  27.725  1.00  0.00    -0.205 F 
ATOM     67  C   UNL A   1      45.935  35.776  30.510  1.00  0.00     0.022 A 
BRANCH  65  68
ATOM     68  S   UNL A   1      45.405  37.032  28.129  1.00  0.00     0.127 S 
ATOM     69  O   UNL A   1      44.027  37.110  27.649  1.00  0.00    -0.237 OA
ATOM     70  O   UNL A   1      45.805  38.123  29.019  1.00  0.00    -0.237 OA
ATOM     71  O   UNL A   1      46.401  36.679  27.126  1.00  0.00    -0.744 OA
ENDBRANCH  65  68
ENDBRANCH  38  61
ENDBRANCH  12  13
ENDBRANCH   5   7
ENDBRANCH   4   5
ENDBRANCH   3   4
ENDBRANCH   2   3
ENDBRANCH   1   2
BRANCH   1  72
ATOM     72  C   UNL A   1      33.815  18.676  24.384  1.00  0.00     0.202 C 
BRANCH  72  73
ATOM     73  C   UNL A   1      33.228  19.914  25.046  1.00  0.00     0.261 C 
BRANCH  73  74
ATOM     74  O   UNL A   1      32.224  20.406  24.144  1.00  0.00    -0.463 OA
BRANCH  74  75
ATOM     75  C   UNL A   1      32.416  21.675  23.694  1.00  0.00     0.312 C 
ATOM     76  O   UNL A   1      32.061  22.089  22.606  1.00  0.00    -0.252 OA
BRANCH  75  77
ATOM     77  C   UNL A   1      33.288  22.419  24.655  1.00  0.00     0.147 C 
ATOM     78  C   UNL A   1      32.764  23.583  25.530  1.00  0.00     0.128 C 
ATOM     79  C   UNL A   1      34.366  23.119  23.819  1.00  0.00     0.157 C 
ATOM     80  C   UNL A   1      33.616  24.758  25.035  1.00  0.00     0.155 C 
ATOM     81  C   UNL A   1      35.504  23.514  24.716  1.00  0.00     0.004 C 
ATOM     82  O   UNL A   1      33.760  24.426  23.633  1.00  0.00    -0.365 OA
ATOM     83  C   UNL A   1      35.047  24.531  25.462  1.00  0.00     0.004 C 
BRANCH  78  84
ATOM     84  C   UNL A   1      31.325  23.987  25.810  1.00  0.00     0.227 C 
ATOM     85  O   UNL A   1      30.950  23.943  26.995  1.00  0.00    -0.275 OA
ATOM     86  N   UNL A   1      30.408  24.475  24.963  1.00  0.00    -0.352 N 
ATOM     87  H   UNL A   1      29.558  24.688  25.410  1.00  0.00     0.163 HD
BRANCH  86  88
ATOM     88  C   UNL A   1      30.378  24.764  23.545  1.00  0.00     0.151 C 
BRANCH  88  89
ATOM     89  C   UNL A   1      30.500  26.238  23.244  1.00  0.00    -0.026 A 
ATOM     90  C   UNL A   1      29.479  27.100  23.660  1.00  0.00     0.025 A 
ATOM     91  C   UNL A   1      31.594  26.802  22.582  1.00  0.00     0.025 A 
ATOM     92  C   UNL A   1      29.646  28.468  23.512  1.00  0.00     0.111 A 
ATOM     93  C   UNL A   1      31.665  28.182  22.472  1.00  0.00     0.111 A 
ATOM     94  N   UNL A   1      30.729  29.028  22.946  1.00  0.00    -0.265 NA
ENDBRANCH  88  89
ENDBRANCH  86  88
ENDBRANCH  78  84
ENDBRANCH  75  77
ENDBRANCH  74  75
ENDBRANCH  73  74
ENDBRANCH  72  73
ENDBRANCH   1  72
TORSDOF 20
ENDMDL
MODEL 3
REMARK VINA RESULT:     -11.1      4.526      9.605
REMARK SMILES O=C(OCCOCCOC(=O)[C@@H]1[C@H](C(=O)NCc2ccncc2)[C@H]2C=C[C@@H]1O2)c1ccc(-c2c3nc(c(-c4cccc(S(=O)(=O)[O-])c4F)c4ccc([nH]4)c(-c4cccc(S(=O)(=O)[O-])c4F)c4nc(c(-c5cccc(S(=O)(=O)[O-])c5F)c5ccc2[nH]5)C=C4)C=C3)cc1
REMARK SMILES IDX 6 1 5 2 4 3 3 4 2 5 1 6 29 7 30 8 91 9 31 10 90 11 32 12
REMARK SMILES IDX 33 13 34 14 84 15 35 16 89 17 83 18 85 19 36 20 88 21 82 22
REMARK SMILES IDX 81 23 37 25 69 26 49 27 68 28 50 29 53 30 67 31 86 32 51 33
REMARK SMILES IDX 52 34 66 36 87 37 54 38 38 39 39 40 47 41 40 42 42 43 48 44
REMARK SMILES IDX 41 45 43 46 44 47 45 48 46 49 70 50 71 51 79 52 72 53 74 54
REMARK SMILES IDX 80 55 73 56 75 57 76 58 77 59 78 60 55 61 56 62 64 63 57 64
REMARK SMILES IDX 59 65 65 66 58 67 60 68 61 69 62 70 63 71 7 72 8 73 9 74
REMARK SMILES IDX 10 75 11 76 12 77 13 78 27 79 24 80 26 81 28 82 25 83 14 84
REMARK SMILES IDX 15 85 16 86 17 88 18 89 19 90 23 91 20 92 22 93 21 94
REMARK H PARENT 85 24 53 35 16 87
REMARK Flexibility Score: inf
ROOT
ATOM      1  O   UNL A   1      30.990  27.467  24.960  1.00  0.00    -0.374 OA
ENDROOT
BRANCH   1   2
ATOM      2  C   UNL A   1      31.783  28.047  25.999  1.00  0.00     0.202 C 
BRANCH   2   3
ATOM      3  C   UNL A   1      32.329  29.451  25.713  1.00  0.00     0.261 C 
BRANCH   3   4
ATOM      4  O   UNL A   1      32.330  30.265  26.894  1.00  0.00    -0.460 OA
BRANCH   4   5
ATOM      5  C   UNL A   1      33.236  31.208  27.254  1.00  0.00     0.338 C 
ATOM      6  O   UNL A   1      32.933  32.391  27.113  1.00  0.00    -0.246 OA
BRANCH   5   7
ATOM      7  C   UNL A   1      34.574  30.887  27.841  1.00  0.00     0.060 A 
ATOM      8  C   UNL A   1      35.020  29.603  28.154  1.00  0.00     0.016 A 
ATOM      9  C   UNL A   1      35.468  31.954  28.033  1.00  0.00     0.016 A 
ATOM     10  C   UNL A   1      36.265  29.378  28.705  1.00  0.00     0.010 A 
ATOM     11  C   UNL A   1      36.751  31.734  28.552  1.00  0.00     0.010 A 
ATOM     12  C   UNL A   1      37.138  30.441  28.906  1.00  0.00    -0.014 A 
BRANCH  12  13
ATOM     13  C   UNL A   1      38.397  30.114  29.591  1.00  0.00     0.031 A 
ATOM     14  C   UNL A   1      38.568  30.550  31.008  1.00  0.00     0.074 A 
ATOM     15  C   UNL A   1      39.240  29.244  29.004  1.00  0.00     0.049 A 
ATOM     16  N   UNL A   1      39.545  30.296  31.830  1.00  0.00    -0.248 NA
ATOM     17  C   UNL A   1      37.489  31.374  31.583  1.00  0.00     0.031 C 
ATOM     18  C   UNL A   1      39.079  28.721  27.648  1.00  0.00     0.029 A 
ATOM     19  N   UNL A   1      40.351  28.604  29.476  1.00  0.00    -0.354 N 
ATOM     20  C   UNL A   1      39.236  30.976  32.997  1.00  0.00     0.074 A 
ATOM     21  C   UNL A   1      37.962  31.629  32.793  1.00  0.00     0.031 C 
ATOM     22  C   UNL A   1      40.012  27.785  27.420  1.00  0.00     0.029 A 
ATOM     23  C   UNL A   1      40.899  27.720  28.574  1.00  0.00     0.049 A 
ATOM     24  H   UNL A   1      40.723  28.758  30.375  1.00  0.00     0.167 HD
ATOM     25  C   UNL A   1      39.969  31.056  34.129  1.00  0.00     0.034 A 
ATOM     26  C   UNL A   1      42.021  26.981  28.666  1.00  0.00     0.034 A 
ATOM     27  C   UNL A   1      41.232  30.392  34.290  1.00  0.00     0.049 A 
ATOM     28  C   UNL A   1      42.825  27.109  29.931  1.00  0.00     0.074 A 
ATOM     29  C   UNL A   1      42.119  30.463  35.345  1.00  0.00     0.029 A 
ATOM     30  N   UNL A   1      41.785  29.528  33.353  1.00  0.00    -0.354 N 
ATOM     31  N   UNL A   1      42.543  27.784  31.023  1.00  0.00    -0.248 NA
ATOM     32  C   UNL A   1      44.102  26.389  29.982  1.00  0.00     0.031 C 
ATOM     33  C   UNL A   1      43.220  29.655  35.038  1.00  0.00     0.029 A 
ATOM     34  C   UNL A   1      43.001  29.052  33.806  1.00  0.00     0.049 A 
ATOM     35  H   UNL A   1      41.372  29.289  32.492  1.00  0.00     0.167 HD
ATOM     36  C   UNL A   1      43.608  27.576  31.887  1.00  0.00     0.074 A 
ATOM     37  C   UNL A   1      44.513  26.664  31.213  1.00  0.00     0.031 C 
ATOM     38  C   UNL A   1      43.845  28.114  33.110  1.00  0.00     0.034 A 
BRANCH  25  39
ATOM     39  C   UNL A   1      39.438  31.932  35.227  1.00  0.00     0.023 A 
ATOM     40  C   UNL A   1      38.420  31.459  36.081  1.00  0.00     0.012 A 
ATOM     41  C   UNL A   1      39.930  33.241  35.395  1.00  0.00     0.148 A 
ATOM     42  C   UNL A   1      37.877  32.290  37.063  1.00  0.00     0.002 A 
ATOM     43  C   UNL A   1      39.414  34.047  36.401  1.00  0.00     0.091 A 
ATOM     44  F   UNL A   1      40.876  33.678  34.551  1.00  0.00    -0.205 F 
ATOM     45  C   UNL A   1      38.379  33.579  37.226  1.00  0.00     0.022 A 
BRANCH  43  46
ATOM     46  S   UNL A   1      40.026  35.703  36.727  1.00  0.00     0.127 S 
ATOM     47  O   UNL A   1      41.461  35.463  36.880  1.00  0.00    -0.237 OA
ATOM     48  O   UNL A   1      39.652  36.410  35.502  1.00  0.00    -0.237 OA
ATOM     49  O   UNL A   1      39.343  36.157  37.930  1.00  0.00    -0.744 OA
ENDBRANCH  43  46
ENDBRANCH  25  39
BRANCH  26  50
ATOM     50  C   UNL A   1      42.474  26.123  27.531  1.00  0.00     0.023 A 
ATOM     51  C   UNL A   1      43.307  26.654  26.526  1.00  0.00     0.012 A 
ATOM     52  C   UNL A   1      42.073  24.774  27.436  1.00  0.00     0.148 A 
ATOM     53  C   UNL A   1      43.699  25.871  25.438  1.00  0.00     0.002 A 
ATOM     54  C   UNL A   1      42.523  23.982  26.387  1.00  0.00     0.091 A 
ATOM     55  F   UNL A   1      41.247  24.287  28.374  1.00  0.00    -0.205 F 
ATOM     56  C   UNL A   1      43.319  24.532  25.375  1.00  0.00     0.022 A 
BRANCH  54  57
ATOM     57  S   UNL A   1      42.181  22.219  26.315  1.00  0.00     0.127 S 
ATOM     58  O   UNL A   1      42.649  21.771  27.625  1.00  0.00    -0.237 OA
ATOM     59  O   UNL A   1      40.729  22.192  26.140  1.00  0.00    -0.237 OA
ATOM     60  O   UNL A   1      42.931  21.727  25.168  1.00  0.00    -0.744 OA
ENDBRANCH  54  57
ENDBRANCH  26  50
BRANCH  38  61
ATOM     61  C   UNL A   1      45.123  27.706  33.789  1.00  0.00     0.023 A 
ATOM     62  C   UNL A   1      46.283  28.488  33.627  1.00  0.00     0.012 A 
ATOM     63  C   UNL A   1      45.149  26.583  34.637  1.00  0.00     0.148 A 
ATOM     64  C   UNL A   1      47.467  28.132  34.269  1.00  0.00     0.002 A 
ATOM     65  C   UNL A   1      46.317  26.268  35.317  1.00  0.00     0.091 A 
ATOM     66  F   UNL A   1      44.037  25.845  34.757  1.00  0.00    -0.205 F 
ATOM     67  C   UNL A   1      47.481  27.032  35.123  1.00  0.00     0.022 A 
BRANCH  65  68
ATOM     68  S   UNL A   1      46.391  24.933  36.513  1.00  0.00     0.127 S 
ATOM     69  O   UNL A   1      45.568  23.911  35.870  1.00  0.00    -0.237 OA
ATOM     70  O   UNL A   1      47.822  24.631  36.552  1.00  0.00    -0.237 OA
ATOM     71  O   UNL A   1      45.858  25.479  37.755  1.00  0.00    -0.744 OA
ENDBRANCH  65  68
ENDBRANCH  38  61
ENDBRANCH  12  13
ENDBRANCH   5   7
ENDBRANCH   4   5
ENDBRANCH   3   4
ENDBRANCH   2   3
ENDBRANCH   1   2
BRANCH   1  72
ATOM     72  C   UNL A   1      31.581  26.341  24.295  1.00  0.00     0.202 C 
BRANCH  72  73
ATOM     73  C   UNL A   1      32.267  25.444  25.315  1.00  0.00     0.261 C 
BRANCH  73  74
ATOM     74  O   UNL A   1      33.282  24.728  24.592  1.00  0.00    -0.463 OA
BRANCH  74  75
ATOM     75  C   UNL A   1      32.954  23.460  24.230  1.00  0.00     0.312 C 
ATOM     76  O   UNL A   1      31.826  23.002  24.245  1.00  0.00    -0.252 OA
BRANCH  75  77
ATOM     77  C   UNL A   1      34.200  22.668  23.995  1.00  0.00     0.147 C 
ATOM     78  C   UNL A   1      34.686  21.567  24.968  1.00  0.00     0.128 C 
ATOM     79  C   UNL A   1      35.368  23.661  24.040  1.00  0.00     0.157 C 
ATOM     80  C   UNL A   1      36.041  22.123  25.422  1.00  0.00     0.155 C 
ATOM     81  C   UNL A   1      36.570  23.034  23.397  1.00  0.00     0.004 C 
ATOM     82  O   UNL A   1      35.769  23.546  25.431  1.00  0.00    -0.365 OA
ATOM     83  C   UNL A   1      36.994  22.091  24.252  1.00  0.00     0.004 C 
BRANCH  78  84
ATOM     84  C   UNL A   1      33.925  20.898  26.102  1.00  0.00     0.227 C 
ATOM     85  O   UNL A   1      34.056  21.395  27.235  1.00  0.00    -0.275 OA
ATOM     86  N   UNL A   1      33.050  19.885  26.046  1.00  0.00    -0.352 N 
ATOM     87  H   UNL A   1      32.672  19.664  26.928  1.00  0.00     0.163 HD
BRANCH  86  88
ATOM     88  C   UNL A   1      32.529  19.042  24.990  1.00  0.00     0.151 C 
BRANCH  88  89
ATOM     89  C   UNL A   1      33.044  17.625  25.065  1.00  0.00    -0.026 A 
ATOM     90  C   UNL A   1      34.352  17.357  24.645  1.00  0.00     0.025 A 
ATOM     91  C   UNL A   1      32.287  16.555  25.550  1.00  0.00     0.025 A 
ATOM     92  C   UNL A   1      34.879  16.090  24.838  1.00  0.00     0.111 A 
ATOM     93  C   UNL A   1      32.900  15.320  25.694  1.00  0.00     0.111 A 
ATOM     94  N   UNL A   1      34.185  15.070  25.375  1.00  0.00    -0.265 NA
ENDBRANCH  88  89
ENDBRANCH  86  88
ENDBRANCH  78  84
ENDBRANCH  75  77
ENDBRANCH  74  75
ENDBRANCH  73  74
ENDBRANCH  72  73
ENDBRANCH   1  72
TORSDOF 20
ENDMDL
