MODEL 1
REMARK VINA RESULT:     -10.6      0.000      0.000
REMARK SMILES O=C(CCC(=O)N1CCC(c2nnc3ccccn23)CC1)OCCOCCOC(=O)c1ccc(-c2c3nc(c(-c4cccc(S(=O)(=O)[O-])c4F)c4ccc([nH]4)c(-c4cccc(S(=O)(=O)[O-])c4F)c4nc(c(-c5cccc(S(=O)(=O)[O-])c5F)c5ccc2[nH]5)C=C4)C=C3)cc1
REMARK SMILES IDX 25 1 24 2 23 3 22 4 2 5 1 6 3 7 4 8 5 9 6 10 7 11 8 12 21 13
REMARK SMILES IDX 9 14 20 15 10 16 11 17 12 18 19 19 13 20 14 21 18 22 15 23
REMARK SMILES IDX 17 24 16 25 26 26 27 27 28 28 29 29 30 30 31 31 32 32 93 33
REMARK SMILES IDX 33 34 92 35 34 36 35 37 36 38 86 39 37 40 91 41 85 42 87 43
REMARK SMILES IDX 38 44 90 45 84 46 83 47 39 49 71 50 51 51 70 52 52 53 55 54
REMARK SMILES IDX 69 55 88 56 53 57 54 58 68 60 89 61 56 62 40 63 41 64 49 65
REMARK SMILES IDX 42 66 44 67 50 68 43 69 45 70 46 71 47 72 48 73 72 74 73 75
REMARK SMILES IDX 81 76 74 77 76 78 82 79 75 80 77 81 78 82 79 83 80 84 57 85
REMARK SMILES IDX 58 86 66 87 59 88 61 89 67 90 60 91 62 92 63 93 64 94 65 95
REMARK H PARENT 87 48 55 59
REMARK Flexibility Score: inf
ROOT
ATOM      1  O   UNL A   1      31.535  29.581  26.348  1.00  0.00    -0.374 OA
ENDROOT
BRANCH   1   2
ATOM      2  C   UNL A   1      31.562  30.022  24.994  1.00  0.00     0.202 C 
BRANCH   2   3
ATOM      3  C   UNL A   1      30.267  29.882  24.188  1.00  0.00     0.261 C 
BRANCH   3   4
ATOM      4  O   UNL A   1      29.953  28.516  23.868  1.00  0.00    -0.463 OA
BRANCH   4   5
ATOM      5  C   UNL A   1      30.585  27.759  22.949  1.00  0.00     0.306 C 
ATOM      6  O   UNL A   1      30.381  27.942  21.748  1.00  0.00    -0.252 OA
BRANCH   5   7
ATOM      7  C   UNL A   1      31.578  26.725  23.387  1.00  0.00     0.132 C 
BRANCH   7   8
ATOM      8  C   UNL A   1      30.981  25.340  23.220  1.00  0.00     0.112 C 
BRANCH   8   9
ATOM      9  C   UNL A   1      31.177  24.480  24.448  1.00  0.00     0.223 C 
ATOM     10  O   UNL A   1      31.096  25.012  25.559  1.00  0.00    -0.275 OA
ATOM     11  N   UNL A   1      31.393  23.122  24.292  1.00  0.00    -0.343 N 
ATOM     12  C   UNL A   1      31.275  22.262  25.458  1.00  0.00     0.120 C 
ATOM     13  C   UNL A   1      31.911  22.438  23.105  1.00  0.00     0.120 C 
ATOM     14  C   UNL A   1      32.634  21.737  25.851  1.00  0.00     0.033 C 
ATOM     15  C   UNL A   1      33.290  21.830  23.387  1.00  0.00     0.033 C 
ATOM     16  C   UNL A   1      33.340  21.003  24.691  1.00  0.00     0.062 C 
BRANCH  16  17
ATOM     17  C   UNL A   1      34.751  20.792  25.150  1.00  0.00     0.140 A 
ATOM     18  N   UNL A   1      35.454  19.700  24.919  1.00  0.00    -0.134 NA
ATOM     19  N   UNL A   1      35.608  21.818  25.505  1.00  0.00    -0.286 N 
ATOM     20  N   UNL A   1      36.778  20.036  24.951  1.00  0.00    -0.130 NA
ATOM     21  C   UNL A   1      36.876  21.298  25.292  1.00  0.00     0.160 A 
ATOM     22  C   UNL A   1      35.382  23.141  25.877  1.00  0.00     0.095 A 
ATOM     23  C   UNL A   1      37.989  22.161  25.466  1.00  0.00     0.050 A 
ATOM     24  C   UNL A   1      36.433  23.967  26.013  1.00  0.00     0.019 A 
ATOM     25  C   UNL A   1      37.777  23.450  25.799  1.00  0.00     0.005 A 
ENDBRANCH  16  17
ENDBRANCH   8   9
ENDBRANCH   7   8
ENDBRANCH   5   7
ENDBRANCH   4   5
ENDBRANCH   3   4
ENDBRANCH   2   3
ENDBRANCH   1   2
BRANCH   1  26
ATOM     26  C   UNL A   1      32.126  28.319  26.661  1.00  0.00     0.202 C 
BRANCH  26  27
ATOM     27  C   UNL A   1      33.573  28.254  27.173  1.00  0.00     0.261 C 
BRANCH  27  28
ATOM     28  O   UNL A   1      34.453  29.277  26.671  1.00  0.00    -0.460 OA
BRANCH  28  29
ATOM     29  C   UNL A   1      34.740  30.260  27.559  1.00  0.00     0.338 C 
ATOM     30  O   UNL A   1      33.997  31.194  27.862  1.00  0.00    -0.246 OA
BRANCH  29  31
ATOM     31  C   UNL A   1      36.040  30.067  28.231  1.00  0.00     0.060 A 
ATOM     32  C   UNL A   1      37.187  30.382  27.500  1.00  0.00     0.016 A 
ATOM     33  C   UNL A   1      36.159  29.454  29.485  1.00  0.00     0.016 A 
ATOM     34  C   UNL A   1      38.446  30.062  28.006  1.00  0.00     0.010 A 
ATOM     35  C   UNL A   1      37.431  29.123  29.990  1.00  0.00     0.010 A 
ATOM     36  C   UNL A   1      38.585  29.414  29.248  1.00  0.00    -0.014 A 
BRANCH  36  37
ATOM     37  C   UNL A   1      39.950  28.933  29.616  1.00  0.00     0.031 A 
ATOM     38  C   UNL A   1      40.577  29.533  30.841  1.00  0.00     0.074 A 
ATOM     39  C   UNL A   1      40.589  27.938  28.970  1.00  0.00     0.049 A 
ATOM     40  N   UNL A   1      41.549  29.083  31.589  1.00  0.00    -0.248 NA
ATOM     41  C   UNL A   1      40.018  30.824  31.275  1.00  0.00     0.031 C 
ATOM     42  C   UNL A   1      40.144  27.310  27.733  1.00  0.00     0.029 A 
ATOM     43  N   UNL A   1      41.714  27.218  29.322  1.00  0.00    -0.354 N 
ATOM     44  C   UNL A   1      41.757  30.065  32.549  1.00  0.00     0.074 A 
ATOM     45  C   UNL A   1      40.761  31.094  32.336  1.00  0.00     0.031 C 
ATOM     46  C   UNL A   1      40.884  26.209  27.509  1.00  0.00     0.029 A 
ATOM     47  C   UNL A   1      41.869  26.062  28.578  1.00  0.00     0.049 A 
ATOM     48  H   UNL A   1      42.341  27.498  30.027  1.00  0.00     0.167 HD
ATOM     49  C   UNL A   1      42.727  30.143  33.488  1.00  0.00     0.034 A 
ATOM     50  C   UNL A   1      42.655  24.984  28.797  1.00  0.00     0.034 A 
ATOM     51  C   UNL A   1      43.765  29.169  33.663  1.00  0.00     0.049 A 
ATOM     52  C   UNL A   1      43.644  25.020  29.941  1.00  0.00     0.074 A 
ATOM     53  C   UNL A   1      44.850  29.207  34.518  1.00  0.00     0.029 A 
ATOM     54  N   UNL A   1      43.861  27.991  32.940  1.00  0.00    -0.354 N 
ATOM     55  N   UNL A   1      43.740  25.870  30.934  1.00  0.00    -0.248 NA
ATOM     56  C   UNL A   1      44.638  23.933  29.985  1.00  0.00     0.031 C 
ATOM     57  C   UNL A   1      45.620  28.059  34.294  1.00  0.00     0.029 A 
ATOM     58  C   UNL A   1      44.996  27.296  33.319  1.00  0.00     0.049 A 
ATOM     59  H   UNL A   1      43.218  27.693  32.257  1.00  0.00     0.167 HD
ATOM     60  C   UNL A   1      44.812  25.430  31.707  1.00  0.00     0.074 A 
ATOM     61  C   UNL A   1      45.273  24.190  31.120  1.00  0.00     0.031 C 
ATOM     62  C   UNL A   1      45.404  26.031  32.770  1.00  0.00     0.034 A 
BRANCH  49  63
ATOM     63  C   UNL A   1      42.751  31.396  34.312  1.00  0.00     0.023 A 
ATOM     64  C   UNL A   1      43.466  32.525  33.866  1.00  0.00     0.012 A 
ATOM     65  C   UNL A   1      42.124  31.419  35.572  1.00  0.00     0.148 A 
ATOM     66  C   UNL A   1      43.589  33.646  34.685  1.00  0.00     0.002 A 
ATOM     67  C   UNL A   1      42.225  32.550  36.368  1.00  0.00     0.091 A 
ATOM     68  F   UNL A   1      41.482  30.316  35.985  1.00  0.00    -0.205 F 
ATOM     69  C   UNL A   1      42.966  33.660  35.933  1.00  0.00     0.022 A 
BRANCH  67  70
ATOM     70  S   UNL A   1      41.432  32.665  37.974  1.00  0.00     0.127 S 
ATOM     71  O   UNL A   1      42.169  31.662  38.740  1.00  0.00    -0.237 OA
ATOM     72  O   UNL A   1      41.709  34.049  38.355  1.00  0.00    -0.237 OA
ATOM     73  O   UNL A   1      40.024  32.371  37.747  1.00  0.00    -0.744 OA
ENDBRANCH  67  70
ENDBRANCH  49  63
BRANCH  50  74
ATOM     74  C   UNL A   1      42.470  23.699  28.044  1.00  0.00     0.023 A 
ATOM     75  C   UNL A   1      41.341  22.906  28.358  1.00  0.00     0.012 A 
ATOM     76  C   UNL A   1      43.361  23.228  27.065  1.00  0.00     0.148 A 
ATOM     77  C   UNL A   1      41.121  21.672  27.746  1.00  0.00     0.002 A 
ATOM     78  C   UNL A   1      43.099  22.027  26.406  1.00  0.00     0.091 A 
ATOM     79  F   UNL A   1      44.465  23.940  26.801  1.00  0.00    -0.205 F 
ATOM     80  C   UNL A   1      41.994  21.238  26.758  1.00  0.00     0.022 A 
BRANCH  78  81
ATOM     81  S   UNL A   1      44.091  21.494  25.005  1.00  0.00     0.127 S 
ATOM     82  O   UNL A   1      45.438  21.503  25.566  1.00  0.00    -0.237 OA
ATOM     83  O   UNL A   1      43.546  20.165  24.724  1.00  0.00    -0.237 OA
ATOM     84  O   UNL A   1      43.810  22.475  23.965  1.00  0.00    -0.744 OA
ENDBRANCH  78  81
ENDBRANCH  50  74
BRANCH  62  85
ATOM     85  C   UNL A   1      46.636  25.386  33.352  1.00  0.00     0.023 A 
ATOM     86  C   UNL A   1      46.502  24.521  34.458  1.00  0.00     0.012 A 
ATOM     87  C   UNL A   1      47.898  25.542  32.746  1.00  0.00     0.148 A 
ATOM     88  C   UNL A   1      47.607  23.842  34.969  1.00  0.00     0.002 A 
ATOM     89  C   UNL A   1      48.987  24.824  33.232  1.00  0.00     0.091 A 
ATOM     90  F   UNL A   1      48.014  26.384  31.710  1.00  0.00    -0.205 F 
ATOM     91  C   UNL A   1      48.845  23.982  34.348  1.00  0.00     0.022 A 
BRANCH  89  92
ATOM     92  S   UNL A   1      50.593  24.866  32.428  1.00  0.00     0.127 S 
ATOM     93  O   UNL A   1      50.992  26.257  32.629  1.00  0.00    -0.237 OA
ATOM     94  O   UNL A   1      51.360  23.892  33.207  1.00  0.00    -0.237 OA
ATOM     95  O   UNL A   1      50.353  24.471  31.046  1.00  0.00    -0.744 OA
ENDBRANCH  89  92
ENDBRANCH  62  85
ENDBRANCH  36  37
ENDBRANCH  29  31
ENDBRANCH  28  29
ENDBRANCH  27  28
ENDBRANCH  26  27
ENDBRANCH   1  26
TORSDOF 20
ENDMDL
MODEL 2
REMARK VINA RESULT:     -10.5      3.273      9.461
REMARK SMILES O=C(CCC(=O)N1CCC(c2nnc3ccccn23)CC1)OCCOCCOC(=O)c1ccc(-c2c3nc(c(-c4cccc(S(=O)(=O)[O-])c4F)c4ccc([nH]4)c(-c4cccc(S(=O)(=O)[O-])c4F)c4nc(c(-c5cccc(S(=O)(=O)[O-])c5F)c5ccc2[nH]5)C=C4)C=C3)cc1
REMARK SMILES IDX 25 1 24 2 23 3 22 4 2 5 1 6 3 7 4 8 5 9 6 10 7 11 8 12 21 13
REMARK SMILES IDX 9 14 20 15 10 16 11 17 12 18 19 19 13 20 14 21 18 22 15 23
REMARK SMILES IDX 17 24 16 25 26 26 27 27 28 28 29 29 30 30 31 31 32 32 93 33
REMARK SMILES IDX 33 34 92 35 34 36 35 37 36 38 86 39 37 40 91 41 85 42 87 43
REMARK SMILES IDX 38 44 90 45 84 46 83 47 39 49 71 50 51 51 70 52 52 53 55 54
REMARK SMILES IDX 69 55 88 56 53 57 54 58 68 60 89 61 56 62 40 63 41 64 49 65
REMARK SMILES IDX 42 66 44 67 50 68 43 69 45 70 46 71 47 72 48 73 72 74 73 75
REMARK SMILES IDX 81 76 74 77 76 78 82 79 75 80 77 81 78 82 79 83 80 84 57 85
REMARK SMILES IDX 58 86 66 87 59 88 61 89 67 90 60 91 62 92 63 93 64 94 65 95
REMARK H PARENT 87 48 55 59
REMARK Flexibility Score: inf
ROOT
ATOM      1  O   UNL A   1      43.040  19.968  25.372  1.00  0.00    -0.374 OA
ENDROOT
BRANCH   1   2
ATOM      2  C   UNL A   1      42.344  19.406  26.480  1.00  0.00     0.202 C 
BRANCH   2   3
ATOM      3  C   UNL A   1      41.139  20.186  27.016  1.00  0.00     0.261 C 
BRANCH   3   4
ATOM      4  O   UNL A   1      40.400  20.855  25.979  1.00  0.00    -0.463 OA
BRANCH   4   5
ATOM      5  C   UNL A   1      39.426  21.767  26.172  1.00  0.00     0.306 C 
ATOM      6  O   UNL A   1      39.623  22.739  26.902  1.00  0.00    -0.252 OA
BRANCH   5   7
ATOM      7  C   UNL A   1      38.117  21.625  25.455  1.00  0.00     0.132 C 
BRANCH   7   8
ATOM      8  C   UNL A   1      37.304  22.896  25.622  1.00  0.00     0.112 C 
BRANCH   8   9
ATOM      9  C   UNL A   1      36.338  23.111  24.478  1.00  0.00     0.223 C 
ATOM     10  O   UNL A   1      36.791  23.207  23.334  1.00  0.00    -0.275 OA
ATOM     11  N   UNL A   1      34.980  23.147  24.741  1.00  0.00    -0.343 N 
ATOM     12  C   UNL A   1      34.054  23.045  23.625  1.00  0.00     0.120 C 
ATOM     13  C   UNL A   1      34.332  23.457  26.018  1.00  0.00     0.120 C 
ATOM     14  C   UNL A   1      33.352  24.364  23.416  1.00  0.00     0.033 C 
ATOM     15  C   UNL A   1      33.555  24.775  25.926  1.00  0.00     0.033 C 
ATOM     16  C   UNL A   1      32.633  24.857  24.690  1.00  0.00     0.062 C 
BRANCH  16  17
ATOM     17  C   UNL A   1      32.231  26.272  24.401  1.00  0.00     0.140 A 
ATOM     18  N   UNL A   1      33.052  27.204  23.957  1.00  0.00    -0.134 NA
ATOM     19  N   UNL A   1      30.926  26.673  24.180  1.00  0.00    -0.286 N 
ATOM     20  N   UNL A   1      32.309  28.138  23.291  1.00  0.00    -0.130 NA
ATOM     21  C   UNL A   1      31.042  27.823  23.414  1.00  0.00     0.160 A 
ATOM     22  C   UNL A   1      29.701  26.084  24.485  1.00  0.00     0.095 A 
ATOM     23  C   UNL A   1      29.853  28.423  22.926  1.00  0.00     0.050 A 
ATOM     24  C   UNL A   1      28.576  26.634  23.998  1.00  0.00     0.019 A 
ATOM     25  C   UNL A   1      28.666  27.844  23.192  1.00  0.00     0.005 A 
ENDBRANCH  16  17
ENDBRANCH   8   9
ENDBRANCH   7   8
ENDBRANCH   5   7
ENDBRANCH   4   5
ENDBRANCH   3   4
ENDBRANCH   2   3
ENDBRANCH   1   2
BRANCH   1  26
ATOM     26  C   UNL A   1      43.750  21.192  25.567  1.00  0.00     0.202 C 
BRANCH  26  27
ATOM     27  C   UNL A   1      43.770  22.254  24.457  1.00  0.00     0.261 C 
BRANCH  27  28
ATOM     28  O   UNL A   1      43.216  23.534  24.816  1.00  0.00    -0.460 OA
BRANCH  28  29
ATOM     29  C   UNL A   1      44.136  24.477  25.135  1.00  0.00     0.338 C 
ATOM     30  O   UNL A   1      45.118  24.781  24.458  1.00  0.00    -0.246 OA
BRANCH  29  31
ATOM     31  C   UNL A   1      43.805  25.207  26.375  1.00  0.00     0.060 A 
ATOM     32  C   UNL A   1      43.166  24.486  27.385  1.00  0.00     0.016 A 
ATOM     33  C   UNL A   1      43.973  26.592  26.504  1.00  0.00     0.016 A 
ATOM     34  C   UNL A   1      42.671  25.149  28.508  1.00  0.00     0.010 A 
ATOM     35  C   UNL A   1      43.463  27.261  27.634  1.00  0.00     0.010 A 
ATOM     36  C   UNL A   1      42.797  26.546  28.640  1.00  0.00    -0.014 A 
BRANCH  36  37
ATOM     37  C   UNL A   1      42.066  27.191  29.770  1.00  0.00     0.031 A 
ATOM     38  C   UNL A   1      42.823  27.382  31.052  1.00  0.00     0.074 A 
ATOM     39  C   UNL A   1      40.817  27.688  29.664  1.00  0.00     0.049 A 
ATOM     40  N   UNL A   1      42.594  28.198  32.047  1.00  0.00    -0.248 NA
ATOM     41  C   UNL A   1      44.007  26.523  31.225  1.00  0.00     0.031 C 
ATOM     42  C   UNL A   1      39.936  27.521  28.516  1.00  0.00     0.029 A 
ATOM     43  N   UNL A   1      40.107  28.517  30.510  1.00  0.00    -0.354 N 
ATOM     44  C   UNL A   1      43.572  27.910  32.989  1.00  0.00     0.074 A 
ATOM     45  C   UNL A   1      44.440  26.903  32.416  1.00  0.00     0.031 C 
ATOM     46  C   UNL A   1      38.878  28.341  28.652  1.00  0.00     0.029 A 
ATOM     47  C   UNL A   1      38.997  29.081  29.906  1.00  0.00     0.049 A 
ATOM     48  H   UNL A   1      40.363  28.689  31.444  1.00  0.00     0.167 HD
ATOM     49  C   UNL A   1      43.707  28.390  34.247  1.00  0.00     0.034 A 
ATOM     50  C   UNL A   1      38.231  30.125  30.293  1.00  0.00     0.034 A 
ATOM     51  C   UNL A   1      42.813  29.332  34.854  1.00  0.00     0.049 A 
ATOM     52  C   UNL A   1      38.480  30.753  31.646  1.00  0.00     0.074 A 
ATOM     53  C   UNL A   1      42.807  29.803  36.154  1.00  0.00     0.029 A 
ATOM     54  N   UNL A   1      41.741  29.922  34.205  1.00  0.00    -0.354 N 
ATOM     55  N   UNL A   1      39.487  30.591  32.469  1.00  0.00    -0.248 NA
ATOM     56  C   UNL A   1      37.471  31.716  32.120  1.00  0.00     0.031 C 
ATOM     57  C   UNL A   1      41.711  30.663  36.299  1.00  0.00     0.029 A 
ATOM     58  C   UNL A   1      41.055  30.746  35.081  1.00  0.00     0.049 A 
ATOM     59  H   UNL A   1      41.501  29.777  33.261  1.00  0.00     0.167 HD
ATOM     60  C   UNL A   1      39.224  31.416  33.560  1.00  0.00     0.074 A 
ATOM     61  C   UNL A   1      38.011  32.144  33.252  1.00  0.00     0.031 C 
ATOM     62  C   UNL A   1      39.888  31.515  34.739  1.00  0.00     0.034 A 
BRANCH  49  63
ATOM     63  C   UNL A   1      44.814  27.795  35.066  1.00  0.00     0.023 A 
ATOM     64  C   UNL A   1      46.086  28.398  35.084  1.00  0.00     0.012 A 
ATOM     65  C   UNL A   1      44.603  26.586  35.756  1.00  0.00     0.148 A 
ATOM     66  C   UNL A   1      47.146  27.781  35.747  1.00  0.00     0.002 A 
ATOM     67  C   UNL A   1      45.655  25.994  36.439  1.00  0.00     0.091 A 
ATOM     68  F   UNL A   1      43.391  26.016  35.690  1.00  0.00    -0.205 F 
ATOM     69  C   UNL A   1      46.930  26.583  36.427  1.00  0.00     0.022 A 
BRANCH  67  70
ATOM     70  S   UNL A   1      45.460  24.468  37.363  1.00  0.00     0.127 S 
ATOM     71  O   UNL A   1      44.361  24.807  38.265  1.00  0.00    -0.237 OA
ATOM     72  O   UNL A   1      45.114  23.514  36.311  1.00  0.00    -0.237 OA
ATOM     73  O   UNL A   1      46.744  24.222  38.004  1.00  0.00    -0.744 OA
ENDBRANCH  67  70
ENDBRANCH  49  63
BRANCH  50  74
ATOM     74  C   UNL A   1      37.252  30.781  29.364  1.00  0.00     0.023 A 
ATOM     75  C   UNL A   1      37.512  32.112  28.962  1.00  0.00     0.012 A 
ATOM     76  C   UNL A   1      36.085  30.160  28.889  1.00  0.00     0.148 A 
ATOM     77  C   UNL A   1      36.628  32.816  28.144  1.00  0.00     0.002 A 
ATOM     78  C   UNL A   1      35.239  30.843  28.014  1.00  0.00     0.091 A 
ATOM     79  F   UNL A   1      35.797  28.920  29.308  1.00  0.00    -0.205 F 
ATOM     80  C   UNL A   1      35.496  32.175  27.657  1.00  0.00     0.022 A 
BRANCH  78  81
ATOM     81  S   UNL A   1      33.856  30.019  27.217  1.00  0.00     0.127 S 
ATOM     82  O   UNL A   1      34.387  29.751  25.885  1.00  0.00    -0.237 OA
ATOM     83  O   UNL A   1      33.668  28.837  28.060  1.00  0.00    -0.237 OA
ATOM     84  O   UNL A   1      32.761  30.978  27.303  1.00  0.00    -0.744 OA
ENDBRANCH  78  81
ENDBRANCH  50  74
BRANCH  62  85
ATOM     85  C   UNL A   1      39.311  32.411  35.804  1.00  0.00     0.023 A 
ATOM     86  C   UNL A   1      38.308  31.906  36.658  1.00  0.00     0.012 A 
ATOM     87  C   UNL A   1      39.831  33.699  36.035  1.00  0.00     0.148 A 
ATOM     88  C   UNL A   1      37.812  32.678  37.708  1.00  0.00     0.002 A 
ATOM     89  C   UNL A   1      39.364  34.445  37.114  1.00  0.00     0.091 A 
ATOM     90  F   UNL A   1      40.767  34.173  35.202  1.00  0.00    -0.205 F 
ATOM     91  C   UNL A   1      38.350  33.940  37.944  1.00  0.00     0.022 A 
BRANCH  89  92
ATOM     92  S   UNL A   1      40.075  36.037  37.552  1.00  0.00     0.127 S 
ATOM     93  O   UNL A   1      39.785  36.831  36.360  1.00  0.00    -0.237 OA
ATOM     94  O   UNL A   1      39.301  36.411  38.737  1.00  0.00    -0.237 OA
ATOM     95  O   UNL A   1      41.485  35.780  37.814  1.00  0.00    -0.744 OA
ENDBRANCH  89  92
ENDBRANCH  62  85
ENDBRANCH  36  37
ENDBRANCH  29  31
ENDBRANCH  28  29
ENDBRANCH  27  28
ENDBRANCH  26  27
ENDBRANCH   1  26
TORSDOF 20
ENDMDL
MODEL 3
REMARK VINA RESULT:     -10.5      4.780     10.252
REMARK SMILES O=C(CCC(=O)N1CCC(c2nnc3ccccn23)CC1)OCCOCCOC(=O)c1ccc(-c2c3nc(c(-c4cccc(S(=O)(=O)[O-])c4F)c4ccc([nH]4)c(-c4cccc(S(=O)(=O)[O-])c4F)c4nc(c(-c5cccc(S(=O)(=O)[O-])c5F)c5ccc2[nH]5)C=C4)C=C3)cc1
REMARK SMILES IDX 25 1 24 2 23 3 22 4 2 5 1 6 3 7 4 8 5 9 6 10 7 11 8 12 21 13
REMARK SMILES IDX 9 14 20 15 10 16 11 17 12 18 19 19 13 20 14 21 18 22 15 23
REMARK SMILES IDX 17 24 16 25 26 26 27 27 28 28 29 29 30 30 31 31 32 32 93 33
REMARK SMILES IDX 33 34 92 35 34 36 35 37 36 38 86 39 37 40 91 41 85 42 87 43
REMARK SMILES IDX 38 44 90 45 84 46 83 47 39 49 71 50 51 51 70 52 52 53 55 54
REMARK SMILES IDX 69 55 88 56 53 57 54 58 68 60 89 61 56 62 40 63 41 64 49 65
REMARK SMILES IDX 42 66 44 67 50 68 43 69 45 70 46 71 47 72 48 73 72 74 73 75
REMARK SMILES IDX 81 76 74 77 76 78 82 79 75 80 77 81 78 82 79 83 80 84 57 85
REMARK SMILES IDX 58 86 66 87 59 88 61 89 67 90 60 91 62 92 63 93 64 94 65 95
REMARK H PARENT 87 48 55 59
REMARK Flexibility Score: inf
ROOT
ATOM      1  O   UNL A   1      42.229  19.297  25.366  1.00  0.00    -0.374 OA
ENDROOT
BRANCH   1   2
ATOM      2  C   UNL A   1      43.499  18.655  25.424  1.00  0.00     0.202 C 
BRANCH   2   3
ATOM      3  C   UNL A   1      44.656  19.330  24.680  1.00  0.00     0.261 C 
BRANCH   3   4
ATOM      4  O   UNL A   1      44.854  20.699  25.076  1.00  0.00    -0.463 OA
BRANCH   4   5
ATOM      5  C   UNL A   1      45.728  21.559  24.517  1.00  0.00     0.306 C 
ATOM      6  O   UNL A   1      46.923  21.270  24.448  1.00  0.00    -0.252 OA
BRANCH   5   7
ATOM      7  C   UNL A   1      45.238  22.849  23.933  1.00  0.00     0.132 C 
BRANCH   7   8
ATOM      8  C   UNL A   1      45.378  23.960  24.959  1.00  0.00     0.112 C 
BRANCH   8   9
ATOM      9  C   UNL A   1      44.204  24.010  25.911  1.00  0.00     0.223 C 
ATOM     10  O   UNL A   1      43.095  24.316  25.465  1.00  0.00    -0.275 OA
ATOM     11  N   UNL A   1      44.399  23.669  27.238  1.00  0.00    -0.343 N 
ATOM     12  C   UNL A   1      43.233  23.423  28.069  1.00  0.00     0.120 C 
ATOM     13  C   UNL A   1      45.660  23.692  27.983  1.00  0.00     0.120 C 
ATOM     14  C   UNL A   1      43.084  24.526  29.089  1.00  0.00     0.033 C 
ATOM     15  C   UNL A   1      45.624  24.764  29.078  1.00  0.00     0.033 C 
ATOM     16  C   UNL A   1      44.351  24.706  29.951  1.00  0.00     0.062 C 
BRANCH  16  17
ATOM     17  C   UNL A   1      44.146  25.986  30.703  1.00  0.00     0.140 A 
ATOM     18  N   UNL A   1      43.709  27.106  30.162  1.00  0.00    -0.134 NA
ATOM     19  N   UNL A   1      44.001  26.058  32.077  1.00  0.00    -0.286 N 
ATOM     20  N   UNL A   1      43.120  27.849  31.146  1.00  0.00    -0.130 NA
ATOM     21  C   UNL A   1      43.284  27.226  32.288  1.00  0.00     0.160 A 
ATOM     22  C   UNL A   1      44.332  25.174  33.101  1.00  0.00     0.095 A 
ATOM     23  C   UNL A   1      42.876  27.528  33.613  1.00  0.00     0.050 A 
ATOM     24  C   UNL A   1      43.921  25.445  34.352  1.00  0.00     0.019 A 
ATOM     25  C   UNL A   1      43.169  26.665  34.605  1.00  0.00     0.005 A 
ENDBRANCH  16  17
ENDBRANCH   8   9
ENDBRANCH   7   8
ENDBRANCH   5   7
ENDBRANCH   4   5
ENDBRANCH   3   4
ENDBRANCH   2   3
ENDBRANCH   1   2
BRANCH   1  26
ATOM     26  C   UNL A   1      41.786  20.029  26.510  1.00  0.00     0.202 C 
BRANCH  26  27
ATOM     27  C   UNL A   1      40.333  20.521  26.592  1.00  0.00     0.261 C 
BRANCH  27  28
ATOM     28  O   UNL A   1      40.147  21.795  27.239  1.00  0.00    -0.460 OA
BRANCH  28  29
ATOM     29  C   UNL A   1      39.286  22.628  26.606  1.00  0.00     0.338 C 
ATOM     30  O   UNL A   1      38.377  22.283  25.851  1.00  0.00    -0.246 OA
BRANCH  29  31
ATOM     31  C   UNL A   1      39.477  24.044  26.978  1.00  0.00     0.060 A 
ATOM     32  C   UNL A   1      39.941  24.906  25.982  1.00  0.00     0.016 A 
ATOM     33  C   UNL A   1      39.354  24.502  28.297  1.00  0.00     0.016 A 
ATOM     34  C   UNL A   1      40.307  26.212  26.307  1.00  0.00     0.010 A 
ATOM     35  C   UNL A   1      39.735  25.818  28.623  1.00  0.00     0.010 A 
ATOM     36  C   UNL A   1      40.226  26.680  27.632  1.00  0.00    -0.014 A 
BRANCH  36  37
ATOM     37  C   UNL A   1      40.824  28.017  27.919  1.00  0.00     0.031 A 
ATOM     38  C   UNL A   1      39.976  28.996  28.678  1.00  0.00     0.074 A 
ATOM     39  C   UNL A   1      42.097  28.344  27.620  1.00  0.00     0.049 A 
ATOM     40  N   UNL A   1      40.325  30.051  29.364  1.00  0.00    -0.248 NA
ATOM     41  C   UNL A   1      38.527  28.733  28.654  1.00  0.00     0.031 C 
ATOM     42  C   UNL A   1      43.015  27.534  26.831  1.00  0.00     0.029 A 
ATOM     43  N   UNL A   1      42.867  29.416  28.029  1.00  0.00    -0.354 N 
ATOM     44  C   UNL A   1      39.134  30.613  29.804  1.00  0.00     0.074 A 
ATOM     45  C   UNL A   1      38.061  29.740  29.376  1.00  0.00     0.031 C 
ATOM     46  C   UNL A   1      44.255  28.046  26.938  1.00  0.00     0.029 A 
ATOM     47  C   UNL A   1      44.217  29.232  27.790  1.00  0.00     0.049 A 
ATOM     48  H   UNL A   1      42.495  30.225  28.446  1.00  0.00     0.167 HD
ATOM     49  C   UNL A   1      38.936  31.783  30.453  1.00  0.00     0.034 A 
ATOM     50  C   UNL A   1      45.287  29.898  28.279  1.00  0.00     0.034 A 
ATOM     51  C   UNL A   1      39.981  32.694  30.819  1.00  0.00     0.049 A 
ATOM     52  C   UNL A   1      45.057  31.129  29.126  1.00  0.00     0.074 A 
ATOM     53  C   UNL A   1      39.874  33.949  31.388  1.00  0.00     0.029 A 
ATOM     54  N   UNL A   1      41.330  32.456  30.616  1.00  0.00    -0.354 N 
ATOM     55  N   UNL A   1      43.951  31.575  29.668  1.00  0.00    -0.248 NA
ATOM     56  C   UNL A   1      46.243  31.953  29.425  1.00  0.00     0.031 C 
ATOM     57  C   UNL A   1      41.162  34.483  31.508  1.00  0.00     0.029 A 
ATOM     58  C   UNL A   1      42.070  33.547  31.038  1.00  0.00     0.049 A 
ATOM     59  H   UNL A   1      41.708  31.633  30.229  1.00  0.00     0.167 HD
ATOM     60  C   UNL A   1      44.304  32.734  30.356  1.00  0.00     0.074 A 
ATOM     61  C   UNL A   1      45.740  32.871  30.238  1.00  0.00     0.031 C 
ATOM     62  C   UNL A   1      43.505  33.639  30.974  1.00  0.00     0.034 A 
BRANCH  49  63
ATOM     63  C   UNL A   1      37.507  32.171  30.696  1.00  0.00     0.023 A 
ATOM     64  C   UNL A   1      36.875  31.830  31.906  1.00  0.00     0.012 A 
ATOM     65  C   UNL A   1      36.771  32.808  29.678  1.00  0.00     0.148 A 
ATOM     66  C   UNL A   1      35.516  32.082  32.085  1.00  0.00     0.002 A 
ATOM     67  C   UNL A   1      35.426  33.083  29.874  1.00  0.00     0.091 A 
ATOM     68  F   UNL A   1      37.390  33.086  28.521  1.00  0.00    -0.205 F 
ATOM     69  C   UNL A   1      34.793  32.711  31.071  1.00  0.00     0.022 A 
BRANCH  67  70
ATOM     70  S   UNL A   1      34.428  33.915  28.637  1.00  0.00     0.127 S 
ATOM     71  O   UNL A   1      34.375  32.910  27.576  1.00  0.00    -0.237 OA
ATOM     72  O   UNL A   1      33.166  34.121  29.347  1.00  0.00    -0.237 OA
ATOM     73  O   UNL A   1      35.140  35.140  28.305  1.00  0.00    -0.744 OA
ENDBRANCH  67  70
ENDBRANCH  49  63
BRANCH  50  74
ATOM     74  C   UNL A   1      46.685  29.368  28.141  1.00  0.00     0.023 A 
ATOM     75  C   UNL A   1      47.404  29.701  26.968  1.00  0.00     0.012 A 
ATOM     76  C   UNL A   1      47.310  28.548  29.093  1.00  0.00     0.148 A 
ATOM     77  C   UNL A   1      48.688  29.207  26.733  1.00  0.00     0.002 A 
ATOM     78  C   UNL A   1      48.620  28.115  28.887  1.00  0.00     0.091 A 
ATOM     79  F   UNL A   1      46.619  28.178  30.180  1.00  0.00    -0.205 F 
ATOM     80  C   UNL A   1      49.303  28.424  27.701  1.00  0.00     0.022 A 
BRANCH  78  81
ATOM     81  S   UNL A   1      49.530  27.244  30.169  1.00  0.00     0.127 S 
ATOM     82  O   UNL A   1      50.816  27.008  29.522  1.00  0.00    -0.237 OA
ATOM     83  O   UNL A   1      49.553  28.224  31.256  1.00  0.00    -0.237 OA
ATOM     84  O   UNL A   1      48.719  26.068  30.458  1.00  0.00    -0.744 OA
ENDBRANCH  78  81
ENDBRANCH  50  74
BRANCH  62  85
ATOM     85  C   UNL A   1      44.146  34.878  31.542  1.00  0.00     0.023 A 
ATOM     86  C   UNL A   1      44.296  36.014  30.720  1.00  0.00     0.012 A 
ATOM     87  C   UNL A   1      44.495  34.962  32.905  1.00  0.00     0.148 A 
ATOM     88  C   UNL A   1      44.807  37.204  31.236  1.00  0.00     0.002 A 
ATOM     89  C   UNL A   1      44.959  36.167  33.423  1.00  0.00     0.091 A 
ATOM     90  F   UNL A   1      44.367  33.867  33.668  1.00  0.00    -0.205 F 
ATOM     91  C   UNL A   1      45.125  37.285  32.589  1.00  0.00     0.022 A 
BRANCH  89  92
ATOM     92  S   UNL A   1      45.293  36.387  35.175  1.00  0.00     0.127 S 
ATOM     93  O   UNL A   1      46.503  35.586  35.351  1.00  0.00    -0.237 OA
ATOM     94  O   UNL A   1      45.497  37.832  35.277  1.00  0.00    -0.237 OA
ATOM     95  O   UNL A   1      44.107  35.899  35.866  1.00  0.00    -0.744 OA
ENDBRANCH  89  92
ENDBRANCH  62  85
ENDBRANCH  36  37
ENDBRANCH  29  31
ENDBRANCH  28  29
ENDBRANCH  27  28
ENDBRANCH  26  27
ENDBRANCH   1  26
TORSDOF 20
ENDMDL
