MODEL 1
REMARK VINA RESULT:     -10.6      0.000      0.000
REMARK SMILES CC[NH2+][C@H](C)c1cccn1Cc1ccc(C(=O)OCCOCCOC(=O)c2ccc(-c3c4nc(c(-c5cccc(S(=O)(=O)[O-])c5F)c5ccc([nH]5)c(-c5cccc(S(=O)(=O)[O-])c5F)c5nc(c(-c6cccc(S(=O)(=O)[O-])c6F)c6ccc3[nH]6)C=C5)C=C4)cc2)cc1
REMARK SMILES IDX 20 1 19 2 18 3 16 4 17 5 15 6 12 7 13 8 91 9 14 10 90 11
REMARK SMILES IDX 11 12 10 13 6 14 7 15 8 16 9 17 4 18 5 19 3 20 2 23 1 24
REMARK SMILES IDX 21 25 22 26 23 27 24 28 25 29 26 30 27 31 28 32 89 33 29 34
REMARK SMILES IDX 88 35 30 36 31 37 32 38 82 39 33 40 87 41 81 42 83 43 34 44
REMARK SMILES IDX 86 45 80 46 79 47 35 49 67 50 47 51 66 52 48 53 51 54 65 55
REMARK SMILES IDX 84 56 49 57 50 58 64 60 85 61 52 62 36 63 37 64 45 65 38 66
REMARK SMILES IDX 40 67 46 68 39 69 41 70 42 71 43 72 44 73 68 74 69 75 77 76
REMARK SMILES IDX 70 77 72 78 78 79 71 80 73 81 74 82 75 83 76 84 53 85 54 86
REMARK SMILES IDX 62 87 55 88 57 89 63 90 56 91 58 92 59 93 60 94 61 95
REMARK H PARENT 3 21 3 22 83 48 51 59
REMARK Flexibility Score: inf
ROOT
ATOM      1  C   UNL A   1      41.503  19.733  26.095  1.00  0.00     0.202 C 
ENDROOT
BRANCH   1   2
ATOM      2  C   UNL A   1      40.543  20.696  26.792  1.00  0.00     0.261 C 
BRANCH   2   3
ATOM      3  O   UNL A   1      39.476  21.092  25.920  1.00  0.00    -0.460 OA
BRANCH   3   4
ATOM      4  C   UNL A   1      38.956  22.319  26.170  1.00  0.00     0.338 C 
ATOM      5  O   UNL A   1      39.537  23.275  26.649  1.00  0.00    -0.246 OA
BRANCH   4   6
ATOM      6  C   UNL A   1      37.574  22.407  25.632  1.00  0.00     0.060 A 
ATOM      7  C   UNL A   1      35.057  22.441  24.397  1.00  0.00    -0.028 A 
ATOM      8  C   UNL A   1      35.675  21.221  24.699  1.00  0.00     0.006 A 
ATOM      9  C   UNL A   1      35.664  23.635  24.828  1.00  0.00     0.006 A 
ATOM     10  C   UNL A   1      36.925  21.206  25.317  1.00  0.00     0.016 A 
ATOM     11  C   UNL A   1      36.921  23.623  25.434  1.00  0.00     0.016 A 
BRANCH   7  12
ATOM     12  C   UNL A   1      33.809  22.484  23.542  1.00  0.00     0.157 C 
BRANCH  12  13
ATOM     13  N   UNL A   1      32.643  22.895  24.330  1.00  0.00    -0.342 N 
ATOM     14  C   UNL A   1      32.042  24.140  24.517  1.00  0.00     0.076 A 
ATOM     15  C   UNL A   1      31.080  23.939  25.513  1.00  0.00     0.029 A 
ATOM     16  C   UNL A   1      31.013  22.576  25.842  1.00  0.00     0.020 A 
ATOM     17  C   UNL A   1      31.942  21.949  25.061  1.00  0.00     0.086 A 
BRANCH  14  18
ATOM     18  C   UNL A   1      32.340  25.483  23.846  1.00  0.00     0.227 C 
ATOM     19  C   UNL A   1      31.256  26.017  22.912  1.00  0.00     0.082 C 
BRANCH  18  20
ATOM     20  N   UNL A   1      32.725  26.421  24.921  1.00  0.00    -0.339 N 
ATOM     21  H   UNL A   1      32.869  25.863  25.763  1.00  0.00     0.346 HD
ATOM     22  H   UNL A   1      33.540  26.901  24.538  1.00  0.00     0.346 HD
BRANCH  20  23
ATOM     23  C   UNL A   1      31.831  27.503  25.281  1.00  0.00     0.257 C 
ATOM     24  C   UNL A   1      31.472  27.414  26.759  1.00  0.00     0.071 C 
ENDBRANCH  20  23
ENDBRANCH  18  20
ENDBRANCH  14  18
ENDBRANCH  12  13
ENDBRANCH   7  12
ENDBRANCH   4   6
ENDBRANCH   3   4
ENDBRANCH   2   3
ENDBRANCH   1   2
BRANCH   1  25
ATOM     25  O   UNL A   1      42.732  20.280  25.615  1.00  0.00    -0.374 OA
BRANCH  25  26
ATOM     26  C   UNL A   1      43.057  21.629  25.935  1.00  0.00     0.202 C 
BRANCH  26  27
ATOM     27  C   UNL A   1      44.114  22.374  25.125  1.00  0.00     0.261 C 
BRANCH  27  28
ATOM     28  O   UNL A   1      43.663  23.559  24.485  1.00  0.00    -0.460 OA
BRANCH  28  29
ATOM     29  C   UNL A   1      44.375  24.632  24.901  1.00  0.00     0.338 C 
ATOM     30  O   UNL A   1      45.582  24.789  24.822  1.00  0.00    -0.246 OA
BRANCH  29  31
ATOM     31  C   UNL A   1      43.538  25.546  25.667  1.00  0.00     0.060 A 
ATOM     32  C   UNL A   1      44.079  26.808  25.923  1.00  0.00     0.016 A 
ATOM     33  C   UNL A   1      42.443  25.040  26.371  1.00  0.00     0.016 A 
ATOM     34  C   UNL A   1      43.588  27.531  26.987  1.00  0.00     0.010 A 
ATOM     35  C   UNL A   1      41.985  25.745  27.464  1.00  0.00     0.010 A 
ATOM     36  C   UNL A   1      42.568  26.979  27.774  1.00  0.00    -0.014 A 
BRANCH  36  37
ATOM     37  C   UNL A   1      41.922  27.872  28.742  1.00  0.00     0.031 A 
ATOM     38  C   UNL A   1      42.675  27.716  30.099  1.00  0.00     0.074 A 
ATOM     39  C   UNL A   1      40.799  28.539  28.301  1.00  0.00     0.049 A 
ATOM     40  N   UNL A   1      42.215  27.757  31.310  1.00  0.00    -0.248 NA
ATOM     41  C   UNL A   1      44.118  27.300  30.132  1.00  0.00     0.031 C 
ATOM     42  C   UNL A   1      40.314  28.580  26.894  1.00  0.00     0.029 A 
ATOM     43  N   UNL A   1      39.833  29.323  28.909  1.00  0.00    -0.354 N 
ATOM     44  C   UNL A   1      43.329  27.720  32.189  1.00  0.00     0.074 A 
ATOM     45  C   UNL A   1      44.428  27.235  31.430  1.00  0.00     0.031 C 
ATOM     46  C   UNL A   1      39.129  29.236  26.790  1.00  0.00     0.029 A 
ATOM     47  C   UNL A   1      38.726  29.728  28.096  1.00  0.00     0.049 A 
ATOM     48  H   UNL A   1      39.904  29.589  29.855  1.00  0.00     0.167 HD
ATOM     49  C   UNL A   1      43.300  28.315  33.419  1.00  0.00     0.034 A 
ATOM     50  C   UNL A   1      37.572  30.387  28.476  1.00  0.00     0.034 A 
ATOM     51  C   UNL A   1      42.007  28.890  33.592  1.00  0.00     0.049 A 
ATOM     52  C   UNL A   1      37.874  30.856  29.829  1.00  0.00     0.074 A 
ATOM     53  C   UNL A   1      40.774  28.314  33.745  1.00  0.00     0.029 A 
ATOM     54  N   UNL A   1      41.884  30.178  33.117  1.00  0.00    -0.354 N 
ATOM     55  N   UNL A   1      38.682  31.839  30.096  1.00  0.00    -0.248 NA
ATOM     56  C   UNL A   1      37.335  30.108  30.969  1.00  0.00     0.031 C 
ATOM     57  C   UNL A   1      39.992  29.079  32.866  1.00  0.00     0.029 A 
ATOM     58  C   UNL A   1      40.652  30.272  32.540  1.00  0.00     0.049 A 
ATOM     59  H   UNL A   1      42.558  30.893  33.181  1.00  0.00     0.167 HD
ATOM     60  C   UNL A   1      39.044  31.537  31.381  1.00  0.00     0.074 A 
ATOM     61  C   UNL A   1      37.954  30.764  31.946  1.00  0.00     0.031 C 
ATOM     62  C   UNL A   1      40.367  31.379  31.667  1.00  0.00     0.034 A 
BRANCH  49  63
ATOM     63  C   UNL A   1      44.340  28.758  34.421  1.00  0.00     0.023 A 
ATOM     64  C   UNL A   1      45.432  29.482  33.855  1.00  0.00     0.012 A 
ATOM     65  C   UNL A   1      44.503  28.264  35.722  1.00  0.00     0.148 A 
ATOM     66  C   UNL A   1      46.680  29.556  34.465  1.00  0.00     0.002 A 
ATOM     67  C   UNL A   1      45.741  28.398  36.361  1.00  0.00     0.091 A 
ATOM     68  F   UNL A   1      43.498  27.606  36.310  1.00  0.00    -0.205 F 
ATOM     69  C   UNL A   1      46.838  28.993  35.716  1.00  0.00     0.022 A 
BRANCH  67  70
ATOM     70  S   UNL A   1      46.054  27.819  38.032  1.00  0.00     0.127 S 
ATOM     71  O   UNL A   1      45.026  28.521  38.795  1.00  0.00    -0.237 OA
ATOM     72  O   UNL A   1      45.828  26.379  37.892  1.00  0.00    -0.237 OA
ATOM     73  O   UNL A   1      47.433  28.181  38.327  1.00  0.00    -0.744 OA
ENDBRANCH  67  70
ENDBRANCH  49  63
BRANCH  50  74
ATOM     74  C   UNL A   1      36.160  30.734  27.995  1.00  0.00     0.023 A 
ATOM     75  C   UNL A   1      35.201  29.817  27.551  1.00  0.00     0.012 A 
ATOM     76  C   UNL A   1      35.698  32.098  28.076  1.00  0.00     0.148 A 
ATOM     77  C   UNL A   1      33.861  30.220  27.305  1.00  0.00     0.002 A 
ATOM     78  C   UNL A   1      34.359  32.463  27.981  1.00  0.00     0.091 A 
ATOM     79  F   UNL A   1      36.578  33.097  28.191  1.00  0.00    -0.205 F 
ATOM     80  C   UNL A   1      33.427  31.522  27.572  1.00  0.00     0.022 A 
BRANCH  78  81
ATOM     81  S   UNL A   1      33.772  34.090  28.519  1.00  0.00     0.127 S 
ATOM     82  O   UNL A   1      32.403  34.119  28.007  1.00  0.00    -0.237 OA
ATOM     83  O   UNL A   1      33.882  33.972  29.973  1.00  0.00    -0.237 OA
ATOM     84  O   UNL A   1      34.671  35.072  27.924  1.00  0.00    -0.744 OA
ENDBRANCH  78  81
ENDBRANCH  50  74
BRANCH  62  85
ATOM     85  C   UNL A   1      41.340  32.202  30.820  1.00  0.00     0.023 A 
ATOM     86  C   UNL A   1      41.055  33.581  30.722  1.00  0.00     0.012 A 
ATOM     87  C   UNL A   1      42.433  31.719  30.056  1.00  0.00     0.148 A 
ATOM     88  C   UNL A   1      41.793  34.442  29.905  1.00  0.00     0.002 A 
ATOM     89  C   UNL A   1      43.162  32.582  29.217  1.00  0.00     0.091 A 
ATOM     90  F   UNL A   1      42.768  30.432  30.150  1.00  0.00    -0.205 F 
ATOM     91  C   UNL A   1      42.843  33.944  29.150  1.00  0.00     0.022 A 
BRANCH  89  92
ATOM     92  S   UNL A   1      44.497  32.055  28.116  1.00  0.00     0.127 S 
ATOM     93  O   UNL A   1      45.493  31.527  29.051  1.00  0.00    -0.237 OA
ATOM     94  O   UNL A   1      43.845  31.033  27.301  1.00  0.00    -0.237 OA
ATOM     95  O   UNL A   1      44.929  33.246  27.398  1.00  0.00    -0.744 OA
ENDBRANCH  89  92
ENDBRANCH  62  85
ENDBRANCH  36  37
ENDBRANCH  29  31
ENDBRANCH  28  29
ENDBRANCH  27  28
ENDBRANCH  26  27
ENDBRANCH  25  26
ENDBRANCH   1  25
TORSDOF 22
ENDMDL
MODEL 2
REMARK VINA RESULT:     -10.4      4.073      8.836
REMARK SMILES CC[NH2+][C@H](C)c1cccn1Cc1ccc(C(=O)OCCOCCOC(=O)c2ccc(-c3c4nc(c(-c5cccc(S(=O)(=O)[O-])c5F)c5ccc([nH]5)c(-c5cccc(S(=O)(=O)[O-])c5F)c5nc(c(-c6cccc(S(=O)(=O)[O-])c6F)c6ccc3[nH]6)C=C5)C=C4)cc2)cc1
REMARK SMILES IDX 20 1 19 2 18 3 16 4 17 5 15 6 12 7 13 8 91 9 14 10 90 11
REMARK SMILES IDX 11 12 10 13 6 14 7 15 8 16 9 17 4 18 5 19 3 20 2 23 1 24
REMARK SMILES IDX 21 25 22 26 23 27 24 28 25 29 26 30 27 31 28 32 89 33 29 34
REMARK SMILES IDX 88 35 30 36 31 37 32 38 82 39 33 40 87 41 81 42 83 43 34 44
REMARK SMILES IDX 86 45 80 46 79 47 35 49 67 50 47 51 66 52 48 53 51 54 65 55
REMARK SMILES IDX 84 56 49 57 50 58 64 60 85 61 52 62 36 63 37 64 45 65 38 66
REMARK SMILES IDX 40 67 46 68 39 69 41 70 42 71 43 72 44 73 68 74 69 75 77 76
REMARK SMILES IDX 70 77 72 78 78 79 71 80 73 81 74 82 75 83 76 84 53 85 54 86
REMARK SMILES IDX 62 87 55 88 57 89 63 90 56 91 58 92 59 93 60 94 61 95
REMARK H PARENT 3 21 3 22 83 48 51 59
REMARK Flexibility Score: inf
ROOT
ATOM      1  C   UNL A   1      41.320  21.011  26.550  1.00  0.00     0.202 C 
ENDROOT
BRANCH   1   2
ATOM      2  C   UNL A   1      39.967  21.642  26.877  1.00  0.00     0.261 C 
BRANCH   2   3
ATOM      3  O   UNL A   1      39.295  22.082  25.689  1.00  0.00    -0.460 OA
BRANCH   3   4
ATOM      4  C   UNL A   1      38.215  21.344  25.334  1.00  0.00     0.338 C 
ATOM      5  O   UNL A   1      38.196  20.155  25.080  1.00  0.00    -0.246 OA
BRANCH   4   6
ATOM      6  C   UNL A   1      36.981  22.164  25.441  1.00  0.00     0.060 A 
ATOM      7  C   UNL A   1      34.565  23.586  25.419  1.00  0.00    -0.028 A 
ATOM      8  C   UNL A   1      34.557  22.191  25.527  1.00  0.00     0.006 A 
ATOM      9  C   UNL A   1      35.799  24.263  25.441  1.00  0.00     0.006 A 
ATOM     10  C   UNL A   1      35.760  21.484  25.542  1.00  0.00     0.016 A 
ATOM     11  C   UNL A   1      37.003  23.558  25.442  1.00  0.00     0.016 A 
BRANCH   7  12
ATOM     12  C   UNL A   1      33.279  24.351  25.187  1.00  0.00     0.157 C 
BRANCH  12  13
ATOM     13  N   UNL A   1      33.212  24.867  23.816  1.00  0.00    -0.342 N 
ATOM     14  C   UNL A   1      33.272  26.165  23.309  1.00  0.00     0.076 A 
ATOM     15  C   UNL A   1      32.974  26.043  21.947  1.00  0.00     0.029 A 
ATOM     16  C   UNL A   1      32.852  24.687  21.606  1.00  0.00     0.020 A 
ATOM     17  C   UNL A   1      33.060  23.983  22.758  1.00  0.00     0.086 A 
BRANCH  14  18
ATOM     18  C   UNL A   1      33.557  27.486  24.028  1.00  0.00     0.227 C 
ATOM     19  C   UNL A   1      34.113  28.612  23.158  1.00  0.00     0.082 C 
BRANCH  18  20
ATOM     20  N   UNL A   1      32.329  27.844  24.766  1.00  0.00    -0.339 N 
ATOM     21  H   UNL A   1      31.819  26.976  24.933  1.00  0.00     0.346 HD
ATOM     22  H   UNL A   1      32.679  28.341  25.585  1.00  0.00     0.346 HD
BRANCH  20  23
ATOM     23  C   UNL A   1      31.388  28.777  24.179  1.00  0.00     0.257 C 
ATOM     24  C   UNL A   1      30.178  28.028  23.636  1.00  0.00     0.071 C 
ENDBRANCH  20  23
ENDBRANCH  18  20
ENDBRANCH  14  18
ENDBRANCH  12  13
ENDBRANCH   7  12
ENDBRANCH   4   6
ENDBRANCH   3   4
ENDBRANCH   2   3
ENDBRANCH   1   2
BRANCH   1  25
ATOM     25  O   UNL A   1      41.318  19.632  26.179  1.00  0.00    -0.374 OA
BRANCH  25  26
ATOM     26  C   UNL A   1      42.465  18.839  26.467  1.00  0.00     0.202 C 
BRANCH  26  27
ATOM     27  C   UNL A   1      43.519  18.600  25.390  1.00  0.00     0.261 C 
BRANCH  27  28
ATOM     28  O   UNL A   1      43.618  19.617  24.403  1.00  0.00    -0.460 OA
BRANCH  28  29
ATOM     29  C   UNL A   1      44.912  19.941  24.173  1.00  0.00     0.338 C 
ATOM     30  O   UNL A   1      45.801  19.195  23.798  1.00  0.00    -0.246 OA
BRANCH  29  31
ATOM     31  C   UNL A   1      45.195  21.296  24.626  1.00  0.00     0.060 A 
ATOM     32  C   UNL A   1      45.512  21.439  25.980  1.00  0.00     0.016 A 
ATOM     33  C   UNL A   1      44.822  22.377  23.824  1.00  0.00     0.016 A 
ATOM     34  C   UNL A   1      45.337  22.670  26.570  1.00  0.00     0.010 A 
ATOM     35  C   UNL A   1      44.601  23.596  24.429  1.00  0.00     0.010 A 
ATOM     36  C   UNL A   1      44.847  23.733  25.799  1.00  0.00    -0.014 A 
BRANCH  36  37
ATOM     37  C   UNL A   1      44.898  25.069  26.405  1.00  0.00     0.031 A 
ATOM     38  C   UNL A   1      43.427  25.550  26.601  1.00  0.00     0.074 A 
ATOM     39  C   UNL A   1      46.152  25.617  26.568  1.00  0.00     0.049 A 
ATOM     40  N   UNL A   1      42.927  26.742  26.503  1.00  0.00    -0.248 NA
ATOM     41  C   UNL A   1      42.312  24.559  26.780  1.00  0.00     0.031 C 
ATOM     42  C   UNL A   1      47.442  24.901  26.368  1.00  0.00     0.029 A 
ATOM     43  N   UNL A   1      46.627  26.865  26.936  1.00  0.00    -0.354 N 
ATOM     44  C   UNL A   1      41.576  26.672  26.932  1.00  0.00     0.074 A 
ATOM     45  C   UNL A   1      41.206  25.300  26.885  1.00  0.00     0.031 C 
ATOM     46  C   UNL A   1      48.506  25.733  26.508  1.00  0.00     0.029 A 
ATOM     47  C   UNL A   1      48.042  27.067  26.851  1.00  0.00     0.049 A 
ATOM     48  H   UNL A   1      46.020  27.578  27.242  1.00  0.00     0.167 HD
ATOM     49  C   UNL A   1      40.945  27.737  27.511  1.00  0.00     0.034 A 
ATOM     50  C   UNL A   1      48.758  28.236  27.022  1.00  0.00     0.034 A 
ATOM     51  C   UNL A   1      41.869  28.822  27.545  1.00  0.00     0.049 A 
ATOM     52  C   UNL A   1      47.784  29.151  27.619  1.00  0.00     0.074 A 
ATOM     53  C   UNL A   1      42.412  29.579  26.541  1.00  0.00     0.029 A 
ATOM     54  N   UNL A   1      42.669  28.859  28.667  1.00  0.00    -0.354 N 
ATOM     55  N   UNL A   1      47.365  29.069  28.847  1.00  0.00    -0.248 NA
ATOM     56  C   UNL A   1      47.141  30.152  26.760  1.00  0.00     0.031 C 
ATOM     57  C   UNL A   1      43.765  29.613  26.912  1.00  0.00     0.029 A 
ATOM     58  C   UNL A   1      43.912  29.240  28.255  1.00  0.00     0.049 A 
ATOM     59  H   UNL A   1      42.395  28.650  29.589  1.00  0.00     0.167 HD
ATOM     60  C   UNL A   1      46.160  29.712  28.755  1.00  0.00     0.074 A 
ATOM     61  C   UNL A   1      46.268  30.634  27.640  1.00  0.00     0.031 C 
ATOM     62  C   UNL A   1      45.033  29.045  29.133  1.00  0.00     0.034 A 
BRANCH  49  63
ATOM     63  C   UNL A   1      39.707  27.918  28.359  1.00  0.00     0.023 A 
ATOM     64  C   UNL A   1      38.611  28.527  27.678  1.00  0.00     0.012 A 
ATOM     65  C   UNL A   1      39.645  27.865  29.758  1.00  0.00     0.148 A 
ATOM     66  C   UNL A   1      37.598  29.208  28.346  1.00  0.00     0.002 A 
ATOM     67  C   UNL A   1      38.588  28.495  30.426  1.00  0.00     0.091 A 
ATOM     68  F   UNL A   1      40.632  27.277  30.442  1.00  0.00    -0.205 F 
ATOM     69  C   UNL A   1      37.601  29.207  29.726  1.00  0.00     0.022 A 
BRANCH  67  70
ATOM     70  S   UNL A   1      38.400  28.473  32.212  1.00  0.00     0.127 S 
ATOM     71  O   UNL A   1      39.510  29.317  32.645  1.00  0.00    -0.237 OA
ATOM     72  O   UNL A   1      37.077  29.082  32.375  1.00  0.00    -0.237 OA
ATOM     73  O   UNL A   1      38.465  27.073  32.603  1.00  0.00    -0.744 OA
ENDBRANCH  67  70
ENDBRANCH  49  63
BRANCH  50  74
ATOM     74  C   UNL A   1      50.134  28.862  26.777  1.00  0.00     0.023 A 
ATOM     75  C   UNL A   1      50.839  29.661  27.684  1.00  0.00     0.012 A 
ATOM     76  C   UNL A   1      50.847  28.556  25.562  1.00  0.00     0.148 A 
ATOM     77  C   UNL A   1      52.186  30.037  27.435  1.00  0.00     0.002 A 
ATOM     78  C   UNL A   1      52.207  28.796  25.387  1.00  0.00     0.091 A 
ATOM     79  F   UNL A   1      50.190  28.068  24.506  1.00  0.00    -0.205 F 
ATOM     80  C   UNL A   1      52.886  29.561  26.321  1.00  0.00     0.022 A 
BRANCH  78  81
ATOM     81  S   UNL A   1      53.150  28.013  24.053  1.00  0.00     0.127 S 
ATOM     82  O   UNL A   1      52.686  28.736  22.870  1.00  0.00    -0.237 OA
ATOM     83  O   UNL A   1      54.524  28.314  24.455  1.00  0.00    -0.237 OA
ATOM     84  O   UNL A   1      52.810  26.597  24.081  1.00  0.00    -0.744 OA
ENDBRANCH  78  81
ENDBRANCH  50  74
BRANCH  62  85
ATOM     85  C   UNL A   1      45.211  28.002  30.239  1.00  0.00     0.023 A 
ATOM     86  C   UNL A   1      45.003  26.658  29.857  1.00  0.00     0.012 A 
ATOM     87  C   UNL A   1      45.469  28.243  31.612  1.00  0.00     0.148 A 
ATOM     88  C   UNL A   1      45.032  25.606  30.775  1.00  0.00     0.002 A 
ATOM     89  C   UNL A   1      45.475  27.186  32.540  1.00  0.00     0.091 A 
ATOM     90  F   UNL A   1      45.715  29.491  32.014  1.00  0.00    -0.205 F 
ATOM     91  C   UNL A   1      45.264  25.868  32.116  1.00  0.00     0.022 A 
BRANCH  89  92
ATOM     92  S   UNL A   1      45.680  27.390  34.326  1.00  0.00     0.127 S 
ATOM     93  O   UNL A   1      44.421  28.023  34.723  1.00  0.00    -0.237 OA
ATOM     94  O   UNL A   1      45.823  26.011  34.784  1.00  0.00    -0.237 OA
ATOM     95  O   UNL A   1      46.853  28.234  34.509  1.00  0.00    -0.744 OA
ENDBRANCH  89  92
ENDBRANCH  62  85
ENDBRANCH  36  37
ENDBRANCH  29  31
ENDBRANCH  28  29
ENDBRANCH  27  28
ENDBRANCH  26  27
ENDBRANCH  25  26
ENDBRANCH   1  25
TORSDOF 22
ENDMDL
MODEL 3
REMARK VINA RESULT:     -10.3      3.666      8.688
REMARK SMILES CC[NH2+][C@H](C)c1cccn1Cc1ccc(C(=O)OCCOCCOC(=O)c2ccc(-c3c4nc(c(-c5cccc(S(=O)(=O)[O-])c5F)c5ccc([nH]5)c(-c5cccc(S(=O)(=O)[O-])c5F)c5nc(c(-c6cccc(S(=O)(=O)[O-])c6F)c6ccc3[nH]6)C=C5)C=C4)cc2)cc1
REMARK SMILES IDX 20 1 19 2 18 3 16 4 17 5 15 6 12 7 13 8 91 9 14 10 90 11
REMARK SMILES IDX 11 12 10 13 6 14 7 15 8 16 9 17 4 18 5 19 3 20 2 23 1 24
REMARK SMILES IDX 21 25 22 26 23 27 24 28 25 29 26 30 27 31 28 32 89 33 29 34
REMARK SMILES IDX 88 35 30 36 31 37 32 38 82 39 33 40 87 41 81 42 83 43 34 44
REMARK SMILES IDX 86 45 80 46 79 47 35 49 67 50 47 51 66 52 48 53 51 54 65 55
REMARK SMILES IDX 84 56 49 57 50 58 64 60 85 61 52 62 36 63 37 64 45 65 38 66
REMARK SMILES IDX 40 67 46 68 39 69 41 70 42 71 43 72 44 73 68 74 69 75 77 76
REMARK SMILES IDX 70 77 72 78 78 79 71 80 73 81 74 82 75 83 76 84 53 85 54 86
REMARK SMILES IDX 62 87 55 88 57 89 63 90 56 91 58 92 59 93 60 94 61 95
REMARK H PARENT 3 21 3 22 83 48 51 59
REMARK Flexibility Score: inf
ROOT
ATOM      1  C   UNL A   1      37.393  20.963  24.795  1.00  0.00     0.202 C 
ENDROOT
BRANCH   1   2
ATOM      2  C   UNL A   1      36.016  21.565  24.521  1.00  0.00     0.261 C 
BRANCH   2   3
ATOM      3  O   UNL A   1      35.024  21.024  25.404  1.00  0.00    -0.460 OA
BRANCH   3   4
ATOM      4  C   UNL A   1      33.960  20.452  24.789  1.00  0.00     0.338 C 
ATOM      5  O   UNL A   1      33.794  19.267  24.569  1.00  0.00    -0.246 OA
BRANCH   4   6
ATOM      6  C   UNL A   1      32.909  21.472  24.535  1.00  0.00     0.060 A 
ATOM      7  C   UNL A   1      31.127  23.571  24.008  1.00  0.00    -0.028 A 
ATOM      8  C   UNL A   1      32.010  23.133  23.014  1.00  0.00     0.006 A 
ATOM      9  C   UNL A   1      31.070  22.867  25.225  1.00  0.00     0.006 A 
ATOM     10  C   UNL A   1      32.893  22.085  23.276  1.00  0.00     0.016 A 
ATOM     11  C   UNL A   1      31.962  21.829  25.495  1.00  0.00     0.016 A 
BRANCH   7  12
ATOM     12  C   UNL A   1      30.315  24.835  23.819  1.00  0.00     0.157 C 
BRANCH  12  13
ATOM     13  N   UNL A   1      30.888  25.949  24.580  1.00  0.00    -0.342 N 
ATOM     14  C   UNL A   1      31.709  27.009  24.196  1.00  0.00     0.076 A 
ATOM     15  C   UNL A   1      32.072  27.645  25.389  1.00  0.00     0.029 A 
ATOM     16  C   UNL A   1      31.391  27.058  26.468  1.00  0.00     0.020 A 
ATOM     17  C   UNL A   1      30.627  26.058  25.937  1.00  0.00     0.086 A 
BRANCH  14  18
ATOM     18  C   UNL A   1      32.185  27.427  22.803  1.00  0.00     0.227 C 
ATOM     19  C   UNL A   1      32.969  26.374  22.022  1.00  0.00     0.082 C 
BRANCH  18  20
ATOM     20  N   UNL A   1      31.003  27.951  22.087  1.00  0.00    -0.339 N 
ATOM     21  H   UNL A   1      31.241  27.969  21.095  1.00  0.00     0.346 HD
ATOM     22  H   UNL A   1      30.253  27.323  22.373  1.00  0.00     0.346 HD
BRANCH  20  23
ATOM     23  C   UNL A   1      30.491  29.266  22.419  1.00  0.00     0.257 C 
ATOM     24  C   UNL A   1      28.969  29.263  22.362  1.00  0.00     0.071 C 
ENDBRANCH  20  23
ENDBRANCH  18  20
ENDBRANCH  14  18
ENDBRANCH  12  13
ENDBRANCH   7  12
ENDBRANCH   4   6
ENDBRANCH   3   4
ENDBRANCH   2   3
ENDBRANCH   1   2
BRANCH   1  25
ATOM     25  O   UNL A   1      38.304  21.755  25.559  1.00  0.00    -0.374 OA
BRANCH  25  26
ATOM     26  C   UNL A   1      39.396  21.114  26.210  1.00  0.00     0.202 C 
BRANCH  26  27
ATOM     27  C   UNL A   1      39.850  19.730  25.758  1.00  0.00     0.261 C 
BRANCH  27  28
ATOM     28  O   UNL A   1      40.734  19.062  26.647  1.00  0.00    -0.460 OA
BRANCH  28  29
ATOM     29  C   UNL A   1      42.002  19.081  26.172  1.00  0.00     0.338 C 
ATOM     30  O   UNL A   1      42.642  18.134  25.746  1.00  0.00    -0.246 OA
BRANCH  29  31
ATOM     31  C   UNL A   1      42.625  20.376  26.411  1.00  0.00     0.060 A 
ATOM     32  C   UNL A   1      42.525  20.876  27.712  1.00  0.00     0.016 A 
ATOM     33  C   UNL A   1      42.971  21.178  25.321  1.00  0.00     0.016 A 
ATOM     34  C   UNL A   1      42.659  22.232  27.907  1.00  0.00     0.010 A 
ATOM     35  C   UNL A   1      43.057  22.541  25.513  1.00  0.00     0.010 A 
ATOM     36  C   UNL A   1      42.889  23.061  26.801  1.00  0.00    -0.014 A 
BRANCH  36  37
ATOM     37  C   UNL A   1      43.255  24.455  27.082  1.00  0.00     0.031 A 
ATOM     38  C   UNL A   1      41.931  25.252  27.301  1.00  0.00     0.074 A 
ATOM     39  C   UNL A   1      44.596  24.761  26.999  1.00  0.00     0.049 A 
ATOM     40  N   UNL A   1      41.640  26.473  26.983  1.00  0.00    -0.248 NA
ATOM     41  C   UNL A   1      40.694  24.562  27.801  1.00  0.00     0.031 C 
ATOM     42  C   UNL A   1      45.701  23.776  26.847  1.00  0.00     0.029 A 
ATOM     43  N   UNL A   1      45.327  25.937  27.031  1.00  0.00    -0.354 N 
ATOM     44  C   UNL A   1      40.367  26.765  27.541  1.00  0.00     0.074 A 
ATOM     45  C   UNL A   1      39.760  25.516  27.840  1.00  0.00     0.031 C 
ATOM     46  C   UNL A   1      46.904  24.388  26.696  1.00  0.00     0.029 A 
ATOM     47  C   UNL A   1      46.732  25.829  26.771  1.00  0.00     0.049 A 
ATOM     48  H   UNL A   1      44.902  26.804  27.223  1.00  0.00     0.167 HD
ATOM     49  C   UNL A   1      40.017  28.030  27.922  1.00  0.00     0.034 A 
ATOM     50  C   UNL A   1      47.659  26.841  26.607  1.00  0.00     0.034 A 
ATOM     51  C   UNL A   1      41.113  28.892  27.624  1.00  0.00     0.049 A 
ATOM     52  C   UNL A   1      46.949  28.034  27.070  1.00  0.00     0.074 A 
ATOM     53  C   UNL A   1      41.641  29.303  26.429  1.00  0.00     0.029 A 
ATOM     54  N   UNL A   1      42.051  28.995  28.628  1.00  0.00    -0.354 N 
ATOM     55  N   UNL A   1      46.692  28.290  28.318  1.00  0.00    -0.248 NA
ATOM     56  C   UNL A   1      46.383  28.947  26.071  1.00  0.00     0.031 C 
ATOM     57  C   UNL A   1      43.016  29.139  26.654  1.00  0.00     0.029 A 
ATOM     58  C   UNL A   1      43.275  29.027  28.027  1.00  0.00     0.049 A 
ATOM     59  H   UNL A   1      41.871  29.038  29.596  1.00  0.00     0.167 HD
ATOM     60  C   UNL A   1      45.618  29.129  28.196  1.00  0.00     0.074 A 
ATOM     61  C   UNL A   1      45.734  29.764  26.897  1.00  0.00     0.031 C 
ATOM     62  C   UNL A   1      44.452  28.793  28.818  1.00  0.00     0.034 A 
BRANCH  49  63
ATOM     63  C   UNL A   1      38.956  28.625  28.817  1.00  0.00     0.023 A 
ATOM     64  C   UNL A   1      38.140  29.614  28.190  1.00  0.00     0.012 A 
ATOM     65  C   UNL A   1      38.917  28.555  30.217  1.00  0.00     0.148 A 
ATOM     66  C   UNL A   1      37.467  30.597  28.907  1.00  0.00     0.002 A 
ATOM     67  C   UNL A   1      38.184  29.506  30.936  1.00  0.00     0.091 A 
ATOM     68  F   UNL A   1      39.638  27.625  30.852  1.00  0.00    -0.205 F 
ATOM     69  C   UNL A   1      37.507  30.552  30.286  1.00  0.00     0.022 A 
BRANCH  67  70
ATOM     70  S   UNL A   1      38.050  29.499  32.726  1.00  0.00     0.127 S 
ATOM     71  O   UNL A   1      37.145  30.620  32.968  1.00  0.00    -0.237 OA
ATOM     72  O   UNL A   1      37.460  28.181  32.972  1.00  0.00    -0.237 OA
ATOM     73  O   UNL A   1      39.407  29.649  33.229  1.00  0.00    -0.744 OA
ENDBRANCH  67  70
ENDBRANCH  49  63
BRANCH  50  74
ATOM     74  C   UNL A   1      49.077  27.114  26.100  1.00  0.00     0.023 A 
ATOM     75  C   UNL A   1      49.488  27.070  24.763  1.00  0.00     0.012 A 
ATOM     76  C   UNL A   1      50.091  27.551  27.028  1.00  0.00     0.148 A 
ATOM     77  C   UNL A   1      50.779  27.522  24.379  1.00  0.00     0.002 A 
ATOM     78  C   UNL A   1      51.293  28.132  26.636  1.00  0.00     0.091 A 
ATOM     79  F   UNL A   1      49.928  27.352  28.339  1.00  0.00    -0.205 F 
ATOM     80  C   UNL A   1      51.657  28.103  25.300  1.00  0.00     0.022 A 
BRANCH  78  81
ATOM     81  S   UNL A   1      52.330  29.056  27.799  1.00  0.00     0.127 S 
ATOM     82  O   UNL A   1      52.765  28.018  28.732  1.00  0.00    -0.237 OA
ATOM     83  O   UNL A   1      53.378  29.563  26.913  1.00  0.00    -0.237 OA
ATOM     84  O   UNL A   1      51.481  30.088  28.381  1.00  0.00    -0.744 OA
ENDBRANCH  78  81
ENDBRANCH  50  74
BRANCH  62  85
ATOM     85  C   UNL A   1      44.591  27.984  30.109  1.00  0.00     0.023 A 
ATOM     86  C   UNL A   1      44.202  26.628  30.031  1.00  0.00     0.012 A 
ATOM     87  C   UNL A   1      44.978  28.464  31.386  1.00  0.00     0.148 A 
ATOM     88  C   UNL A   1      44.178  25.790  31.148  1.00  0.00     0.002 A 
ATOM     89  C   UNL A   1      44.932  27.626  32.515  1.00  0.00     0.091 A 
ATOM     90  F   UNL A   1      45.395  29.726  31.502  1.00  0.00    -0.205 F 
ATOM     91  C   UNL A   1      44.539  26.288  32.390  1.00  0.00     0.022 A 
BRANCH  89  92
ATOM     92  S   UNL A   1      45.292  28.162  34.205  1.00  0.00     0.127 S 
ATOM     93  O   UNL A   1      44.989  26.965  34.992  1.00  0.00    -0.237 OA
ATOM     94  O   UNL A   1      46.716  28.483  34.134  1.00  0.00    -0.237 OA
ATOM     95  O   UNL A   1      44.411  29.289  34.474  1.00  0.00    -0.744 OA
ENDBRANCH  89  92
ENDBRANCH  62  85
ENDBRANCH  36  37
ENDBRANCH  29  31
ENDBRANCH  28  29
ENDBRANCH  27  28
ENDBRANCH  26  27
ENDBRANCH  25  26
ENDBRANCH   1  25
TORSDOF 22
ENDMDL
