MODEL 1
REMARK VINA RESULT:     -10.9      0.000      0.000
REMARK SMILES Cc1cc(C(=O)OCCOCCOC(=O)c2ccc(-c3c4nc(c(-c5cccc(S(=O)(=O)[O-])c5F)c5ccc([nH]5)c(-c5cccc(S(=O)(=O)[O-])c5F)c5nc(c(-c6cccc(S(=O)(=O)[O-])c6F)c6ccc3[nH]6)C=C5)C=C4)cc2)cc(S(=O)(=O)NNC(=O)c2c[nH]c3ccccc23)c1C
REMARK SMILES IDX 9 1 8 2 7 3 5 4 6 5 4 6 1 7 2 8 3 9 97 10 80 11 98 12 79 13
REMARK SMILES IDX 81 14 82 15 83 16 84 17 85 19 86 20 87 22 88 23 89 24 96 25
REMARK SMILES IDX 90 26 91 27 95 28 92 30 94 31 93 32 10 33 11 34 12 35 13 36
REMARK SMILES IDX 14 37 15 38 16 39 17 40 78 41 18 42 77 43 19 44 20 45 21 46
REMARK SMILES IDX 71 47 22 48 76 49 70 50 72 51 23 52 75 53 69 54 68 55 24 57
REMARK SMILES IDX 56 58 36 59 55 60 37 61 40 62 54 63 73 64 38 65 39 66 53 68
REMARK SMILES IDX 74 69 41 70 25 71 26 72 34 73 27 74 29 75 35 76 28 77 30 78
REMARK SMILES IDX 31 79 32 80 33 81 57 82 58 83 66 84 59 85 61 86 67 87 60 88
REMARK SMILES IDX 62 89 63 90 64 91 65 92 42 93 43 94 51 95 44 96 46 97 52 98
REMARK SMILES IDX 45 99 47 100 48 101 49 102 50 103
REMARK H PARENT 84 18 85 21 90 29 72 56 40 67
REMARK Flexibility Score: inf
ROOT
ATOM      1  C   UNL A   1      34.743  32.374  27.790  1.00  0.00     0.202 C 
ENDROOT
BRANCH   1   2
ATOM      2  C   UNL A   1      33.628  31.319  27.806  1.00  0.00     0.261 C 
BRANCH   2   3
ATOM      3  O   UNL A   1      33.545  30.559  26.594  1.00  0.00    -0.460 OA
BRANCH   3   4
ATOM      4  C   UNL A   1      33.982  29.276  26.691  1.00  0.00     0.338 C 
ATOM      5  O   UNL A   1      34.947  28.868  27.307  1.00  0.00    -0.246 OA
BRANCH   4   6
ATOM      6  C   UNL A   1      32.993  28.365  26.065  1.00  0.00     0.061 A 
ATOM      7  C   UNL A   1      31.457  24.957  26.706  1.00  0.00     0.044 C 
ATOM      8  C   UNL A   1      31.733  26.286  26.046  1.00  0.00    -0.046 A 
ATOM      9  C   UNL A   1      32.713  27.112  26.617  1.00  0.00     0.019 A 
ATOM     10  C   UNL A   1      31.019  26.740  24.908  1.00  0.00    -0.028 A 
ATOM     11  C   UNL A   1      31.403  27.964  24.288  1.00  0.00     0.088 A 
ATOM     12  C   UNL A   1      29.819  25.971  24.404  1.00  0.00     0.046 C 
ATOM     13  C   UNL A   1      32.364  28.784  24.883  1.00  0.00     0.037 A 
BRANCH  11  14
ATOM     14  S   UNL A   1      30.698  28.404  22.702  1.00  0.00     0.257 S 
ATOM     15  O   UNL A   1      29.259  28.488  22.882  1.00  0.00    -0.205 OA
ATOM     16  O   UNL A   1      31.463  29.517  22.191  1.00  0.00    -0.205 OA
BRANCH  14  17
ATOM     17  N   UNL A   1      30.980  27.132  21.600  1.00  0.00    -0.123 NA
ATOM     18  H   UNL A   1      30.524  27.393  20.726  1.00  0.00     0.167 HD
BRANCH  17  19
ATOM     19  N   UNL A   1      32.353  26.743  21.261  1.00  0.00    -0.273 N 
ATOM     20  C   UNL A   1      32.806  25.435  21.392  1.00  0.00     0.268 C 
ATOM     21  H   UNL A   1      32.975  27.431  20.929  1.00  0.00     0.186 HD
ATOM     22  O   UNL A   1      33.228  24.818  20.416  1.00  0.00    -0.268 OA
BRANCH  20  23
ATOM     23  C   UNL A   1      33.090  25.002  22.770  1.00  0.00     0.066 A 
ATOM     24  C   UNL A   1      34.114  25.457  23.583  1.00  0.00     0.097 A 
ATOM     25  C   UNL A   1      32.843  23.702  23.326  1.00  0.00     0.012 A 
ATOM     26  N   UNL A   1      34.929  24.365  23.719  1.00  0.00    -0.360 N 
ATOM     27  C   UNL A   1      34.101  23.266  23.765  1.00  0.00     0.046 A 
ATOM     28  C   UNL A   1      31.767  22.795  23.394  1.00  0.00     0.011 A 
ATOM     29  H   UNL A   1      35.912  24.365  23.772  1.00  0.00     0.166 HD
ATOM     30  C   UNL A   1      34.367  21.957  24.161  1.00  0.00     0.027 A 
ATOM     31  C   UNL A   1      31.992  21.511  23.918  1.00  0.00     0.001 A 
ATOM     32  C   UNL A   1      33.279  21.089  24.255  1.00  0.00     0.002 A 
ENDBRANCH  20  23
ENDBRANCH  17  19
ENDBRANCH  14  17
ENDBRANCH  11  14
ENDBRANCH   4   6
ENDBRANCH   3   4
ENDBRANCH   2   3
ENDBRANCH   1   2
BRANCH   1  33
ATOM     33  O   UNL A   1      34.384  33.750  27.877  1.00  0.00    -0.374 OA
BRANCH  33  34
ATOM     34  C   UNL A   1      33.011  34.083  28.060  1.00  0.00     0.202 C 
BRANCH  34  35
ATOM     35  C   UNL A   1      32.641  35.354  28.834  1.00  0.00     0.261 C 
BRANCH  35  36
ATOM     36  O   UNL A   1      33.645  35.784  29.764  1.00  0.00    -0.460 OA
BRANCH  36  37
ATOM     37  C   UNL A   1      33.597  35.150  30.963  1.00  0.00     0.338 C 
ATOM     38  O   UNL A   1      32.702  35.198  31.787  1.00  0.00    -0.246 OA
BRANCH  37  39
ATOM     39  C   UNL A   1      34.741  34.234  31.099  1.00  0.00     0.060 A 
ATOM     40  C   UNL A   1      34.555  33.063  31.845  1.00  0.00     0.016 A 
ATOM     41  C   UNL A   1      36.002  34.575  30.609  1.00  0.00     0.016 A 
ATOM     42  C   UNL A   1      35.643  32.246  32.139  1.00  0.00     0.010 A 
ATOM     43  C   UNL A   1      37.093  33.756  30.911  1.00  0.00     0.010 A 
ATOM     44  C   UNL A   1      36.926  32.607  31.707  1.00  0.00    -0.014 A 
BRANCH  44  45
ATOM     45  C   UNL A   1      38.104  31.843  32.180  1.00  0.00     0.031 A 
ATOM     46  C   UNL A   1      38.742  32.208  33.492  1.00  0.00     0.074 A 
ATOM     47  C   UNL A   1      38.601  30.833  31.443  1.00  0.00     0.049 A 
ATOM     48  N   UNL A   1      39.797  31.695  34.069  1.00  0.00    -0.248 NA
ATOM     49  C   UNL A   1      38.112  33.300  34.253  1.00  0.00     0.031 C 
ATOM     50  C   UNL A   1      38.066  30.386  30.158  1.00  0.00     0.029 A 
ATOM     51  N   UNL A   1      39.684  30.019  31.660  1.00  0.00    -0.354 N 
ATOM     52  C   UNL A   1      39.976  32.416  35.244  1.00  0.00     0.074 A 
ATOM     53  C   UNL A   1      38.927  33.412  35.293  1.00  0.00     0.031 C 
ATOM     54  C   UNL A   1      38.841  29.395  29.685  1.00  0.00     0.029 A 
ATOM     55  C   UNL A   1      39.939  29.158  30.619  1.00  0.00     0.049 A 
ATOM     56  H   UNL A   1      40.225  30.048  32.481  1.00  0.00     0.167 HD
ATOM     57  C   UNL A   1      40.919  32.254  36.203  1.00  0.00     0.034 A 
ATOM     58  C   UNL A   1      40.958  28.296  30.430  1.00  0.00     0.034 A 
ATOM     59  C   UNL A   1      41.947  31.250  36.161  1.00  0.00     0.049 A 
ATOM     60  C   UNL A   1      42.009  28.154  31.501  1.00  0.00     0.074 A 
ATOM     61  C   UNL A   1      42.916  30.971  37.110  1.00  0.00     0.029 A 
ATOM     62  N   UNL A   1      42.150  30.367  35.112  1.00  0.00    -0.354 N 
ATOM     63  N   UNL A   1      42.093  28.759  32.661  1.00  0.00    -0.248 NA
ATOM     64  C   UNL A   1      43.087  27.187  31.250  1.00  0.00     0.031 C 
ATOM     65  C   UNL A   1      43.725  29.941  36.619  1.00  0.00     0.029 A 
ATOM     66  C   UNL A   1      43.239  29.555  35.381  1.00  0.00     0.049 A 
ATOM     67  H   UNL A   1      41.601  30.324  34.296  1.00  0.00     0.167 HD
ATOM     68  C   UNL A   1      43.210  28.221  33.292  1.00  0.00     0.074 A 
ATOM     69  C   UNL A   1      43.758  27.226  32.394  1.00  0.00     0.031 C 
ATOM     70  C   UNL A   1      43.742  28.531  34.501  1.00  0.00     0.034 A 
BRANCH  57  71
ATOM     71  C   UNL A   1      40.872  33.171  37.396  1.00  0.00     0.023 A 
ATOM     72  C   UNL A   1      39.977  32.901  38.451  1.00  0.00     0.012 A 
ATOM     73  C   UNL A   1      41.758  34.261  37.504  1.00  0.00     0.148 A 
ATOM     74  C   UNL A   1      39.944  33.717  39.582  1.00  0.00     0.002 A 
ATOM     75  C   UNL A   1      41.750  35.044  38.653  1.00  0.00     0.091 A 
ATOM     76  F   UNL A   1      42.588  34.514  36.482  1.00  0.00    -0.205 F 
ATOM     77  C   UNL A   1      40.836  34.780  39.687  1.00  0.00     0.022 A 
BRANCH  75  78
ATOM     78  S   UNL A   1      42.912  36.388  38.920  1.00  0.00     0.127 S 
ATOM     79  O   UNL A   1      44.190  35.677  38.915  1.00  0.00    -0.237 OA
ATOM     80  O   UNL A   1      42.679  37.232  37.748  1.00  0.00    -0.237 OA
ATOM     81  O   UNL A   1      42.540  36.995  40.191  1.00  0.00    -0.744 OA
ENDBRANCH  75  78
ENDBRANCH  57  71
BRANCH  58  82
ATOM     82  C   UNL A   1      41.024  27.480  29.185  1.00  0.00     0.023 A 
ATOM     83  C   UNL A   1      40.221  26.332  29.061  1.00  0.00     0.012 A 
ATOM     84  C   UNL A   1      41.871  27.845  28.119  1.00  0.00     0.148 A 
ATOM     85  C   UNL A   1      40.284  25.541  27.913  1.00  0.00     0.002 A 
ATOM     86  C   UNL A   1      41.887  27.085  26.956  1.00  0.00     0.091 A 
ATOM     87  F   UNL A   1      42.641  28.932  28.263  1.00  0.00    -0.205 F 
ATOM     88  C   UNL A   1      41.109  25.922  26.858  1.00  0.00     0.022 A 
BRANCH  86  89
ATOM     89  S   UNL A   1      42.818  27.576  25.501  1.00  0.00     0.127 S 
ATOM     90  O   UNL A   1      42.059  28.732  25.035  1.00  0.00    -0.237 OA
ATOM     91  O   UNL A   1      44.129  27.887  26.072  1.00  0.00    -0.237 OA
ATOM     92  O   UNL A   1      42.810  26.416  24.620  1.00  0.00    -0.744 OA
ENDBRANCH  86  89
ENDBRANCH  58  82
BRANCH  70  93
ATOM     93  C   UNL A   1      44.961  27.765  34.948  1.00  0.00     0.023 A 
ATOM     94  C   UNL A   1      46.247  28.231  34.610  1.00  0.00     0.012 A 
ATOM     95  C   UNL A   1      44.832  26.627  35.769  1.00  0.00     0.148 A 
ATOM     96  C   UNL A   1      47.385  27.558  35.054  1.00  0.00     0.002 A 
ATOM     97  C   UNL A   1      45.970  25.990  36.250  1.00  0.00     0.091 A 
ATOM     98  F   UNL A   1      43.600  26.189  36.066  1.00  0.00    -0.205 F 
ATOM     99  C   UNL A   1      47.246  26.446  35.883  1.00  0.00     0.022 A 
BRANCH  97 100
ATOM    100  S   UNL A   1      45.892  24.612  37.399  1.00  0.00     0.127 S 
ATOM    101  O   UNL A   1      46.119  23.472  36.514  1.00  0.00    -0.237 OA
ATOM    102  O   UNL A   1      46.997  24.907  38.312  1.00  0.00    -0.237 OA
ATOM    103  O   UNL A   1      44.571  24.673  38.011  1.00  0.00    -0.744 OA
ENDBRANCH  97 100
ENDBRANCH  70  93
ENDBRANCH  44  45
ENDBRANCH  37  39
ENDBRANCH  36  37
ENDBRANCH  35  36
ENDBRANCH  34  35
ENDBRANCH  33  34
ENDBRANCH   1  33
TORSDOF 21
ENDMDL
MODEL 2
REMARK VINA RESULT:     -10.8      2.924      8.362
REMARK SMILES Cc1cc(C(=O)OCCOCCOC(=O)c2ccc(-c3c4nc(c(-c5cccc(S(=O)(=O)[O-])c5F)c5ccc([nH]5)c(-c5cccc(S(=O)(=O)[O-])c5F)c5nc(c(-c6cccc(S(=O)(=O)[O-])c6F)c6ccc3[nH]6)C=C5)C=C4)cc2)cc(S(=O)(=O)NNC(=O)c2c[nH]c3ccccc23)c1C
REMARK SMILES IDX 9 1 8 2 7 3 5 4 6 5 4 6 1 7 2 8 3 9 97 10 80 11 98 12 79 13
REMARK SMILES IDX 81 14 82 15 83 16 84 17 85 19 86 20 87 22 88 23 89 24 96 25
REMARK SMILES IDX 90 26 91 27 95 28 92 30 94 31 93 32 10 33 11 34 12 35 13 36
REMARK SMILES IDX 14 37 15 38 16 39 17 40 78 41 18 42 77 43 19 44 20 45 21 46
REMARK SMILES IDX 71 47 22 48 76 49 70 50 72 51 23 52 75 53 69 54 68 55 24 57
REMARK SMILES IDX 56 58 36 59 55 60 37 61 40 62 54 63 73 64 38 65 39 66 53 68
REMARK SMILES IDX 74 69 41 70 25 71 26 72 34 73 27 74 29 75 35 76 28 77 30 78
REMARK SMILES IDX 31 79 32 80 33 81 57 82 58 83 66 84 59 85 61 86 67 87 60 88
REMARK SMILES IDX 62 89 63 90 64 91 65 92 42 93 43 94 51 95 44 96 46 97 52 98
REMARK SMILES IDX 45 99 47 100 48 101 49 102 50 103
REMARK H PARENT 84 18 85 21 90 29 72 56 40 67
REMARK Flexibility Score: inf
ROOT
ATOM      1  C   UNL A   1      32.130  28.899  26.346  1.00  0.00     0.202 C 
ENDROOT
BRANCH   1   2
ATOM      2  C   UNL A   1      31.724  27.508  26.854  1.00  0.00     0.261 C 
BRANCH   2   3
ATOM      3  O   UNL A   1      30.881  26.793  25.943  1.00  0.00    -0.460 OA
BRANCH   3   4
ATOM      4  C   UNL A   1      30.801  25.455  26.166  1.00  0.00     0.338 C 
ATOM      5  O   UNL A   1      29.955  24.861  26.806  1.00  0.00    -0.246 OA
BRANCH   4   6
ATOM      6  C   UNL A   1      31.822  24.752  25.351  1.00  0.00     0.061 A 
ATOM      7  C   UNL A   1      32.967  24.596  21.739  1.00  0.00     0.044 C 
ATOM      8  C   UNL A   1      32.913  24.322  23.222  1.00  0.00    -0.046 A 
ATOM      9  C   UNL A   1      31.905  24.948  23.970  1.00  0.00     0.019 A 
ATOM     10  C   UNL A   1      33.856  23.494  23.883  1.00  0.00    -0.028 A 
ATOM     11  C   UNL A   1      33.681  23.209  25.268  1.00  0.00     0.088 A 
ATOM     12  C   UNL A   1      35.070  22.982  23.144  1.00  0.00     0.046 C 
ATOM     13  C   UNL A   1      32.687  23.860  26.001  1.00  0.00     0.037 A 
BRANCH  11  14
ATOM     14  S   UNL A   1      34.697  21.954  26.042  1.00  0.00     0.257 S 
ATOM     15  O   UNL A   1      34.234  21.813  27.411  1.00  0.00    -0.205 OA
ATOM     16  O   UNL A   1      34.744  20.829  25.138  1.00  0.00    -0.205 OA
BRANCH  14  17
ATOM     17  N   UNL A   1      36.306  22.519  26.125  1.00  0.00    -0.123 NA
ATOM     18  H   UNL A   1      36.671  22.234  27.033  1.00  0.00     0.167 HD
BRANCH  17  19
ATOM     19  N   UNL A   1      37.287  22.095  25.121  1.00  0.00    -0.273 N 
ATOM     20  C   UNL A   1      38.182  21.056  25.354  1.00  0.00     0.268 C 
ATOM     21  H   UNL A   1      37.314  22.561  24.254  1.00  0.00     0.186 HD
ATOM     22  O   UNL A   1      38.186  20.061  24.633  1.00  0.00    -0.268 OA
BRANCH  20  23
ATOM     23  C   UNL A   1      39.315  21.387  26.233  1.00  0.00     0.066 A 
ATOM     24  C   UNL A   1      39.622  22.634  26.750  1.00  0.00     0.097 A 
ATOM     25  C   UNL A   1      40.603  20.751  26.244  1.00  0.00     0.012 A 
ATOM     26  N   UNL A   1      40.795  22.963  26.126  1.00  0.00    -0.360 N 
ATOM     27  C   UNL A   1      41.508  21.792  25.994  1.00  0.00     0.046 A 
ATOM     28  C   UNL A   1      41.105  19.435  26.296  1.00  0.00     0.011 A 
ATOM     29  H   UNL A   1      41.076  23.860  25.829  1.00  0.00     0.166 HD
ATOM     30  C   UNL A   1      42.852  21.587  25.689  1.00  0.00     0.027 A 
ATOM     31  C   UNL A   1      42.483  19.226  26.123  1.00  0.00     0.001 A 
ATOM     32  C   UNL A   1      43.331  20.281  25.784  1.00  0.00     0.002 A 
ENDBRANCH  20  23
ENDBRANCH  17  19
ENDBRANCH  14  17
ENDBRANCH  11  14
ENDBRANCH   4   6
ENDBRANCH   3   4
ENDBRANCH   2   3
ENDBRANCH   1   2
BRANCH   1  33
ATOM     33  O   UNL A   1      32.351  29.937  27.298  1.00  0.00    -0.374 OA
BRANCH  33  34
ATOM     34  C   UNL A   1      32.857  31.185  26.835  1.00  0.00     0.202 C 
BRANCH  34  35
ATOM     35  C   UNL A   1      33.393  32.203  27.849  1.00  0.00     0.261 C 
BRANCH  35  36
ATOM     36  O   UNL A   1      33.221  33.570  27.449  1.00  0.00    -0.460 OA
BRANCH  36  37
ATOM     37  C   UNL A   1      33.250  34.456  28.477  1.00  0.00     0.338 C 
ATOM     38  O   UNL A   1      32.427  35.315  28.734  1.00  0.00    -0.246 OA
BRANCH  37  39
ATOM     39  C   UNL A   1      34.374  34.150  29.378  1.00  0.00     0.060 A 
ATOM     40  C   UNL A   1      35.672  34.364  28.898  1.00  0.00     0.016 A 
ATOM     41  C   UNL A   1      34.161  33.552  30.621  1.00  0.00     0.016 A 
ATOM     42  C   UNL A   1      36.767  33.940  29.646  1.00  0.00     0.010 A 
ATOM     43  C   UNL A   1      35.263  33.123  31.366  1.00  0.00     0.010 A 
ATOM     44  C   UNL A   1      36.569  33.283  30.866  1.00  0.00    -0.014 A 
BRANCH  44  45
ATOM     45  C   UNL A   1      37.721  32.666  31.565  1.00  0.00     0.031 A 
ATOM     46  C   UNL A   1      38.445  31.515  30.922  1.00  0.00     0.074 A 
ATOM     47  C   UNL A   1      38.116  33.129  32.765  1.00  0.00     0.049 A 
ATOM     48  N   UNL A   1      39.449  30.811  31.377  1.00  0.00    -0.248 NA
ATOM     49  C   UNL A   1      37.972  31.097  29.592  1.00  0.00     0.031 C 
ATOM     50  C   UNL A   1      37.496  34.239  33.485  1.00  0.00     0.029 A 
ATOM     51  N   UNL A   1      39.119  32.703  33.600  1.00  0.00    -0.354 N 
ATOM     52  C   UNL A   1      39.711  29.851  30.407  1.00  0.00     0.074 A 
ATOM     53  C   UNL A   1      38.752  30.054  29.342  1.00  0.00     0.031 C 
ATOM     54  C   UNL A   1      38.113  34.389  34.670  1.00  0.00     0.029 A 
ATOM     55  C   UNL A   1      39.152  33.370  34.801  1.00  0.00     0.049 A 
ATOM     56  H   UNL A   1      39.752  31.989  33.361  1.00  0.00     0.167 HD
ATOM     57  C   UNL A   1      40.671  28.897  30.396  1.00  0.00     0.034 A 
ATOM     58  C   UNL A   1      39.915  33.164  35.892  1.00  0.00     0.034 A 
ATOM     59  C   UNL A   1      41.635  28.711  31.448  1.00  0.00     0.049 A 
ATOM     60  C   UNL A   1      40.960  32.078  35.865  1.00  0.00     0.074 A 
ATOM     61  C   UNL A   1      42.682  27.807  31.505  1.00  0.00     0.029 A 
ATOM     62  N   UNL A   1      41.666  29.433  32.630  1.00  0.00    -0.354 N 
ATOM     63  N   UNL A   1      41.274  31.259  34.890  1.00  0.00    -0.248 NA
ATOM     64  C   UNL A   1      41.776  31.909  37.075  1.00  0.00     0.031 C 
ATOM     65  C   UNL A   1      43.325  27.960  32.737  1.00  0.00     0.029 A 
ATOM     66  C   UNL A   1      42.701  28.983  33.432  1.00  0.00     0.049 A 
ATOM     67  H   UNL A   1      41.043  30.159  32.866  1.00  0.00     0.167 HD
ATOM     68  C   UNL A   1      42.346  30.504  35.356  1.00  0.00     0.074 A 
ATOM     69  C   UNL A   1      42.640  30.978  36.693  1.00  0.00     0.031 C 
ATOM     70  C   UNL A   1      43.017  29.500  34.739  1.00  0.00     0.034 A 
BRANCH  57  71
ATOM     71  C   UNL A   1      40.745  27.987  29.198  1.00  0.00     0.023 A 
ATOM     72  C   UNL A   1      39.889  26.870  29.115  1.00  0.00     0.012 A 
ATOM     73  C   UNL A   1      41.614  28.274  28.127  1.00  0.00     0.148 A 
ATOM     74  C   UNL A   1      39.917  26.037  27.997  1.00  0.00     0.002 A 
ATOM     75  C   UNL A   1      41.604  27.464  26.997  1.00  0.00     0.091 A 
ATOM     76  F   UNL A   1      42.434  29.328  28.234  1.00  0.00    -0.205 F 
ATOM     77  C   UNL A   1      40.764  26.339  26.936  1.00  0.00     0.022 A 
BRANCH  75  78
ATOM     78  S   UNL A   1      42.602  27.812  25.545  1.00  0.00     0.127 S 
ATOM     79  O   UNL A   1      42.360  26.623  24.729  1.00  0.00    -0.237 OA
ATOM     80  O   UNL A   1      41.985  29.037  25.035  1.00  0.00    -0.237 OA
ATOM     81  O   UNL A   1      43.968  27.973  26.024  1.00  0.00    -0.744 OA
ENDBRANCH  75  78
ENDBRANCH  57  71
BRANCH  58  82
ATOM     82  C   UNL A   1      39.739  34.020  37.099  1.00  0.00     0.023 A 
ATOM     83  C   UNL A   1      40.159  35.363  37.068  1.00  0.00     0.012 A 
ATOM     84  C   UNL A   1      39.146  33.513  38.272  1.00  0.00     0.148 A 
ATOM     85  C   UNL A   1      40.025  36.176  38.195  1.00  0.00     0.002 A 
ATOM     86  C   UNL A   1      38.962  34.343  39.371  1.00  0.00     0.091 A 
ATOM     87  F   UNL A   1      38.767  32.227  38.287  1.00  0.00    -0.205 F 
ATOM     88  C   UNL A   1      39.418  35.670  39.341  1.00  0.00     0.022 A 
BRANCH  86  89
ATOM     89  S   UNL A   1      38.073  33.813  40.838  1.00  0.00     0.127 S 
ATOM     90  O   UNL A   1      38.101  35.021  41.658  1.00  0.00    -0.237 OA
ATOM     91  O   UNL A   1      36.761  33.470  40.288  1.00  0.00    -0.237 OA
ATOM     92  O   UNL A   1      38.819  32.676  41.359  1.00  0.00    -0.744 OA
ENDBRANCH  86  89
ENDBRANCH  58  82
BRANCH  70  93
ATOM     93  C   UNL A   1      44.164  28.863  35.482  1.00  0.00     0.023 A 
ATOM     94  C   UNL A   1      45.457  29.414  35.383  1.00  0.00     0.012 A 
ATOM     95  C   UNL A   1      43.944  27.765  36.338  1.00  0.00     0.148 A 
ATOM     96  C   UNL A   1      46.520  28.863  36.099  1.00  0.00     0.002 A 
ATOM     97  C   UNL A   1      44.997  27.253  37.087  1.00  0.00     0.091 A 
ATOM     98  F   UNL A   1      42.711  27.245  36.406  1.00  0.00    -0.205 F 
ATOM     99  C   UNL A   1      46.287  27.792  36.959  1.00  0.00     0.022 A 
BRANCH  97 100
ATOM    100  S   UNL A   1      44.774  25.939  38.292  1.00  0.00     0.127 S 
ATOM    101  O   UNL A   1      43.866  26.564  39.250  1.00  0.00    -0.237 OA
ATOM    102  O   UNL A   1      44.173  24.877  37.483  1.00  0.00    -0.237 OA
ATOM    103  O   UNL A   1      46.103  25.631  38.801  1.00  0.00    -0.744 OA
ENDBRANCH  97 100
ENDBRANCH  70  93
ENDBRANCH  44  45
ENDBRANCH  37  39
ENDBRANCH  36  37
ENDBRANCH  35  36
ENDBRANCH  34  35
ENDBRANCH  33  34
ENDBRANCH   1  33
TORSDOF 21
ENDMDL
MODEL 3
REMARK VINA RESULT:     -10.6      6.320     12.038
REMARK SMILES Cc1cc(C(=O)OCCOCCOC(=O)c2ccc(-c3c4nc(c(-c5cccc(S(=O)(=O)[O-])c5F)c5ccc([nH]5)c(-c5cccc(S(=O)(=O)[O-])c5F)c5nc(c(-c6cccc(S(=O)(=O)[O-])c6F)c6ccc3[nH]6)C=C5)C=C4)cc2)cc(S(=O)(=O)NNC(=O)c2c[nH]c3ccccc23)c1C
REMARK SMILES IDX 9 1 8 2 7 3 5 4 6 5 4 6 1 7 2 8 3 9 97 10 80 11 98 12 79 13
REMARK SMILES IDX 81 14 82 15 83 16 84 17 85 19 86 20 87 22 88 23 89 24 96 25
REMARK SMILES IDX 90 26 91 27 95 28 92 30 94 31 93 32 10 33 11 34 12 35 13 36
REMARK SMILES IDX 14 37 15 38 16 39 17 40 78 41 18 42 77 43 19 44 20 45 21 46
REMARK SMILES IDX 71 47 22 48 76 49 70 50 72 51 23 52 75 53 69 54 68 55 24 57
REMARK SMILES IDX 56 58 36 59 55 60 37 61 40 62 54 63 73 64 38 65 39 66 53 68
REMARK SMILES IDX 74 69 41 70 25 71 26 72 34 73 27 74 29 75 35 76 28 77 30 78
REMARK SMILES IDX 31 79 32 80 33 81 57 82 58 83 66 84 59 85 61 86 67 87 60 88
REMARK SMILES IDX 62 89 63 90 64 91 65 92 42 93 43 94 51 95 44 96 46 97 52 98
REMARK SMILES IDX 45 99 47 100 48 101 49 102 50 103
REMARK H PARENT 84 18 85 21 90 29 72 56 40 67
REMARK Flexibility Score: inf
ROOT
ATOM      1  C   UNL A   1      40.477  20.677  27.069  1.00  0.00     0.202 C 
ENDROOT
BRANCH   1   2
ATOM      2  C   UNL A   1      39.982  21.722  26.059  1.00  0.00     0.261 C 
BRANCH   2   3
ATOM      3  O   UNL A   1      38.681  21.433  25.533  1.00  0.00    -0.460 OA
BRANCH   3   4
ATOM      4  C   UNL A   1      37.792  22.458  25.606  1.00  0.00     0.338 C 
ATOM      5  O   UNL A   1      38.037  23.642  25.734  1.00  0.00    -0.246 OA
BRANCH   4   6
ATOM      6  C   UNL A   1      36.426  21.954  25.324  1.00  0.00     0.061 A 
ATOM      7  C   UNL A   1      34.697  18.650  24.635  1.00  0.00     0.044 C 
ATOM      8  C   UNL A   1      34.886  20.128  24.869  1.00  0.00    -0.046 A 
ATOM      9  C   UNL A   1      36.192  20.599  25.077  1.00  0.00     0.019 A 
ATOM     10  C   UNL A   1      33.802  21.041  24.923  1.00  0.00    -0.028 A 
ATOM     11  C   UNL A   1      34.072  22.434  25.054  1.00  0.00     0.088 A 
ATOM     12  C   UNL A   1      32.379  20.535  24.916  1.00  0.00     0.046 C 
ATOM     13  C   UNL A   1      35.374  22.882  25.283  1.00  0.00     0.037 A 
BRANCH  11  14
ATOM     14  S   UNL A   1      32.737  23.610  24.846  1.00  0.00     0.257 S 
ATOM     15  O   UNL A   1      32.108  23.321  23.569  1.00  0.00    -0.205 OA
ATOM     16  O   UNL A   1      31.983  23.619  26.077  1.00  0.00    -0.205 OA
BRANCH  14  17
ATOM     17  N   UNL A   1      33.397  25.179  24.722  1.00  0.00    -0.123 NA
ATOM     18  H   UNL A   1      32.921  25.638  23.945  1.00  0.00     0.167 HD
BRANCH  17  19
ATOM     19  N   UNL A   1      33.329  26.098  25.862  1.00  0.00    -0.273 N 
ATOM     20  C   UNL A   1      32.282  26.999  26.025  1.00  0.00     0.268 C 
ATOM     21  H   UNL A   1      34.048  26.076  26.535  1.00  0.00     0.186 HD
ATOM     22  O   UNL A   1      31.569  26.955  27.026  1.00  0.00    -0.268 OA
BRANCH  20  23
ATOM     23  C   UNL A   1      32.330  28.184  25.153  1.00  0.00     0.066 A 
ATOM     24  C   UNL A   1      32.889  29.413  25.460  1.00  0.00     0.097 A 
ATOM     25  C   UNL A   1      31.362  28.553  24.158  1.00  0.00     0.012 A 
ATOM     26  N   UNL A   1      31.810  30.253  25.521  1.00  0.00    -0.360 N 
ATOM     27  C   UNL A   1      30.932  29.829  24.549  1.00  0.00     0.046 A 
ATOM     28  C   UNL A   1      30.705  27.935  23.076  1.00  0.00     0.011 A 
ATOM     29  H   UNL A   1      31.685  31.010  26.138  1.00  0.00     0.166 HD
ATOM     30  C   UNL A   1      29.824  30.469  23.997  1.00  0.00     0.027 A 
ATOM     31  C   UNL A   1      29.673  28.627  22.423  1.00  0.00     0.001 A 
ATOM     32  C   UNL A   1      29.215  29.854  22.904  1.00  0.00     0.002 A 
ENDBRANCH  20  23
ENDBRANCH  17  19
ENDBRANCH  14  17
ENDBRANCH  11  14
ENDBRANCH   4   6
ENDBRANCH   3   4
ENDBRANCH   2   3
ENDBRANCH   1   2
BRANCH   1  33
ATOM     33  O   UNL A   1      41.880  20.533  27.271  1.00  0.00    -0.374 OA
BRANCH  33  34
ATOM     34  C   UNL A   1      42.450  19.231  27.172  1.00  0.00     0.202 C 
BRANCH  34  35
ATOM     35  C   UNL A   1      42.735  18.637  25.788  1.00  0.00     0.261 C 
BRANCH  35  36
ATOM     36  O   UNL A   1      43.070  19.614  24.792  1.00  0.00    -0.460 OA
BRANCH  36  37
ATOM     37  C   UNL A   1      44.395  19.678  24.502  1.00  0.00     0.338 C 
ATOM     38  O   UNL A   1      45.078  18.814  23.985  1.00  0.00    -0.246 OA
BRANCH  37  39
ATOM     39  C   UNL A   1      44.906  21.033  24.765  1.00  0.00     0.060 A 
ATOM     40  C   UNL A   1      45.345  21.324  26.063  1.00  0.00     0.016 A 
ATOM     41  C   UNL A   1      44.844  22.030  23.792  1.00  0.00     0.016 A 
ATOM     42  C   UNL A   1      45.684  22.631  26.404  1.00  0.00     0.010 A 
ATOM     43  C   UNL A   1      45.180  23.342  24.140  1.00  0.00     0.010 A 
ATOM     44  C   UNL A   1      45.568  23.655  25.456  1.00  0.00    -0.014 A 
BRANCH  44  45
ATOM     45  C   UNL A   1      45.746  25.066  25.871  1.00  0.00     0.031 A 
ATOM     46  C   UNL A   1      47.126  25.663  25.884  1.00  0.00     0.074 A 
ATOM     47  C   UNL A   1      44.684  25.806  26.237  1.00  0.00     0.049 A 
ATOM     48  N   UNL A   1      47.505  26.861  26.247  1.00  0.00    -0.248 NA
ATOM     49  C   UNL A   1      48.227  24.795  25.432  1.00  0.00     0.031 C 
ATOM     50  C   UNL A   1      43.299  25.338  26.262  1.00  0.00     0.029 A 
ATOM     51  N   UNL A   1      44.611  27.103  26.681  1.00  0.00    -0.354 N 
ATOM     52  C   UNL A   1      48.887  26.884  26.096  1.00  0.00     0.074 A 
ATOM     53  C   UNL A   1      49.282  25.576  25.620  1.00  0.00     0.031 C 
ATOM     54  C   UNL A   1      42.514  26.325  26.729  1.00  0.00     0.029 A 
ATOM     55  C   UNL A   1      43.344  27.481  27.058  1.00  0.00     0.049 A 
ATOM     56  H   UNL A   1      45.389  27.703  26.726  1.00  0.00     0.167 HD
ATOM     57  C   UNL A   1      49.747  27.906  26.320  1.00  0.00     0.034 A 
ATOM     58  C   UNL A   1      42.908  28.622  27.630  1.00  0.00     0.034 A 
ATOM     59  C   UNL A   1      49.348  29.211  26.774  1.00  0.00     0.049 A 
ATOM     60  C   UNL A   1      43.891  29.734  27.892  1.00  0.00     0.074 A 
ATOM     61  C   UNL A   1      50.138  30.329  26.979  1.00  0.00     0.029 A 
ATOM     62  N   UNL A   1      48.051  29.573  27.105  1.00  0.00    -0.354 N 
ATOM     63  N   UNL A   1      45.175  29.782  27.630  1.00  0.00    -0.248 NA
ATOM     64  C   UNL A   1      43.358  30.962  28.500  1.00  0.00     0.031 C 
ATOM     65  C   UNL A   1      49.324  31.357  27.465  1.00  0.00     0.029 A 
ATOM     66  C   UNL A   1      48.021  30.890  27.530  1.00  0.00     0.049 A 
ATOM     67  H   UNL A   1      47.267  28.980  27.046  1.00  0.00     0.167 HD
ATOM     68  C   UNL A   1      45.595  31.053  28.007  1.00  0.00     0.074 A 
ATOM     69  C   UNL A   1      44.424  31.752  28.495  1.00  0.00     0.031 C 
ATOM     70  C   UNL A   1      46.840  31.590  27.964  1.00  0.00     0.034 A 
BRANCH  57  71
ATOM     71  C   UNL A   1      51.210  27.664  26.056  1.00  0.00     0.023 A 
ATOM     72  C   UNL A   1      52.073  27.366  27.130  1.00  0.00     0.012 A 
ATOM     73  C   UNL A   1      51.717  27.667  24.742  1.00  0.00     0.148 A 
ATOM     74  C   UNL A   1      53.424  27.102  26.902  1.00  0.00     0.002 A 
ATOM     75  C   UNL A   1      53.054  27.360  24.519  1.00  0.00     0.091 A 
ATOM     76  F   UNL A   1      50.884  27.972  23.736  1.00  0.00    -0.205 F 
ATOM     77  C   UNL A   1      53.911  27.089  25.599  1.00  0.00     0.022 A 
BRANCH  75  78
ATOM     78  S   UNL A   1      53.761  27.240  22.872  1.00  0.00     0.127 S 
ATOM     79  O   UNL A   1      53.597  28.608  22.381  1.00  0.00    -0.237 OA
ATOM     80  O   UNL A   1      55.143  26.856  23.158  1.00  0.00    -0.237 OA
ATOM     81  O   UNL A   1      52.981  26.228  22.172  1.00  0.00    -0.744 OA
ENDBRANCH  75  78
ENDBRANCH  57  71
BRANCH  58  82
ATOM     82  C   UNL A   1      41.467  28.782  27.972  1.00  0.00     0.023 A 
ATOM     83  C   UNL A   1      40.545  29.119  26.964  1.00  0.00     0.012 A 
ATOM     84  C   UNL A   1      41.006  28.590  29.290  1.00  0.00     0.148 A 
ATOM     85  C   UNL A   1      39.194  29.297  27.267  1.00  0.00     0.002 A 
ATOM     86  C   UNL A   1      39.651  28.712  29.573  1.00  0.00     0.091 A 
ATOM     87  F   UNL A   1      41.902  28.287  30.238  1.00  0.00    -0.205 F 
ATOM     88  C   UNL A   1      38.746  29.084  28.568  1.00  0.00     0.022 A 
BRANCH  86  89
ATOM     89  S   UNL A   1      38.970  28.328  31.190  1.00  0.00     0.127 S 
ATOM     90  O   UNL A   1      38.558  26.938  31.019  1.00  0.00    -0.237 OA
ATOM     91  O   UNL A   1      40.130  28.525  32.061  1.00  0.00    -0.237 OA
ATOM     92  O   UNL A   1      37.895  29.287  31.401  1.00  0.00    -0.744 OA
ENDBRANCH  86  89
ENDBRANCH  58  82
BRANCH  70  93
ATOM     93  C   UNL A   1      47.004  33.016  28.423  1.00  0.00     0.023 A 
ATOM     94  C   UNL A   1      47.297  33.291  29.774  1.00  0.00     0.012 A 
ATOM     95  C   UNL A   1      46.945  34.079  27.499  1.00  0.00     0.148 A 
ATOM     96  C   UNL A   1      47.496  34.602  30.205  1.00  0.00     0.002 A 
ATOM     97  C   UNL A   1      47.194  35.379  27.926  1.00  0.00     0.091 A 
ATOM     98  F   UNL A   1      46.649  33.801  26.222  1.00  0.00    -0.205 F 
ATOM     99  C   UNL A   1      47.456  35.643  29.280  1.00  0.00     0.022 A 
BRANCH  97 100
ATOM    100  S   UNL A   1      47.261  36.770  26.792  1.00  0.00     0.127 S 
ATOM    101  O   UNL A   1      48.309  36.349  25.865  1.00  0.00    -0.237 OA
ATOM    102  O   UNL A   1      45.911  36.774  26.227  1.00  0.00    -0.237 OA
ATOM    103  O   UNL A   1      47.579  37.936  27.604  1.00  0.00    -0.744 OA
ENDBRANCH  97 100
ENDBRANCH  70  93
ENDBRANCH  44  45
ENDBRANCH  37  39
ENDBRANCH  36  37
ENDBRANCH  35  36
ENDBRANCH  34  35
ENDBRANCH  33  34
ENDBRANCH   1  33
TORSDOF 21
ENDMDL
