MODEL 1
REMARK VINA RESULT:     -10.1      0.000      0.000
REMARK SMILES CCCOc1ccc(N[C@H](C)[C@H](C)C(=O)OCCOCCOC(=O)c2ccc(-c3c4nc(c(-c5cccc(S(=O)(=O)[O-])c5F)c5ccc([nH]5)c(-c5cccc(S(=O)(=O)[O-])c5F)c5nc(c(-c6cccc(S(=O)(=O)[O-])c6F)c6ccc3[nH]6)C=C5)C=C4)cc2)cc1
REMARK SMILES IDX 17 1 16 2 14 3 15 4 12 5 13 6 10 7 11 8 9 9 8 11 5 12 6 13
REMARK SMILES IDX 89 14 7 15 88 16 4 17 3 18 2 19 1 20 18 21 19 22 20 23 21 24
REMARK SMILES IDX 22 25 23 26 24 27 25 28 26 29 87 30 27 31 86 32 28 33 29 34
REMARK SMILES IDX 30 35 80 36 31 37 85 38 79 39 81 40 32 41 84 42 78 43 77 44
REMARK SMILES IDX 33 46 65 47 45 48 64 49 46 50 49 51 63 52 82 53 47 54 48 55
REMARK SMILES IDX 62 57 83 58 50 59 34 60 35 61 43 62 36 63 38 64 44 65 37 66
REMARK SMILES IDX 39 67 40 68 41 69 42 70 66 71 67 72 75 73 68 74 70 75 76 76
REMARK SMILES IDX 69 77 71 78 72 79 73 80 74 81 51 82 52 83 60 84 53 85 55 86
REMARK SMILES IDX 61 87 54 88 56 89 57 90 58 91 59 92
REMARK H PARENT 9 10 81 45 49 56
REMARK Flexibility Score: inf
ROOT
ATOM      1  C   UNL A   1      42.552  18.970  26.062  1.00  0.00     0.261 C 
ENDROOT
BRANCH   1   2
ATOM      2  O   UNL A   1      41.660  20.017  25.650  1.00  0.00    -0.463 OA
BRANCH   2   3
ATOM      3  C   UNL A   1      40.341  19.799  25.895  1.00  0.00     0.310 C 
ATOM      4  O   UNL A   1      39.756  18.737  25.715  1.00  0.00    -0.252 OA
BRANCH   3   5
ATOM      5  C   UNL A   1      39.637  21.035  26.409  1.00  0.00     0.118 C 
ATOM      6  C   UNL A   1      40.610  22.168  26.763  1.00  0.00     0.022 C 
BRANCH   5   7
ATOM      7  C   UNL A   1      38.565  21.464  25.391  1.00  0.00     0.090 C 
ATOM      8  C   UNL A   1      37.633  20.309  25.004  1.00  0.00     0.031 C 
BRANCH   7   9
ATOM      9  N   UNL A   1      37.731  22.492  26.005  1.00  0.00    -0.382 N 
ATOM     10  H   UNL A   1      37.959  22.776  26.918  1.00  0.00     0.160 HD
BRANCH   9  11
ATOM     11  C   UNL A   1      36.649  23.097  25.401  1.00  0.00     0.034 A 
ATOM     12  C   UNL A   1      34.542  24.374  24.011  1.00  0.00     0.119 A 
ATOM     13  C   UNL A   1      34.546  24.313  25.404  1.00  0.00     0.048 A 
ATOM     14  C   UNL A   1      35.537  23.703  23.315  1.00  0.00     0.048 A 
ATOM     15  C   UNL A   1      35.578  23.662  26.092  1.00  0.00     0.029 A 
ATOM     16  C   UNL A   1      36.592  23.101  24.003  1.00  0.00     0.029 A 
BRANCH  12  17
ATOM     17  O   UNL A   1      33.549  25.131  23.469  1.00  0.00    -0.494 OA
BRANCH  17  18
ATOM     18  C   UNL A   1      32.836  24.659  22.326  1.00  0.00     0.229 C 
BRANCH  18  19
ATOM     19  C   UNL A   1      31.919  25.720  21.704  1.00  0.00     0.038 C 
ATOM     20  C   UNL A   1      31.683  26.942  22.583  1.00  0.00     0.007 C 
ENDBRANCH  18  19
ENDBRANCH  17  18
ENDBRANCH  12  17
ENDBRANCH   9  11
ENDBRANCH   7   9
ENDBRANCH   5   7
ENDBRANCH   3   5
ENDBRANCH   2   3
ENDBRANCH   1   2
BRANCH   1  21
ATOM     21  C   UNL A   1      43.936  19.088  25.416  1.00  0.00     0.202 C 
BRANCH  21  22
ATOM     22  O   UNL A   1      44.035  19.847  24.212  1.00  0.00    -0.374 OA
BRANCH  22  23
ATOM     23  C   UNL A   1      44.796  21.052  24.254  1.00  0.00     0.202 C 
BRANCH  23  24
ATOM     24  C   UNL A   1      44.375  22.120  25.271  1.00  0.00     0.261 C 
BRANCH  24  25
ATOM     25  O   UNL A   1      43.842  23.302  24.649  1.00  0.00    -0.460 OA
BRANCH  25  26
ATOM     26  C   UNL A   1      44.480  24.450  24.989  1.00  0.00     0.338 C 
ATOM     27  O   UNL A   1      45.539  24.860  24.546  1.00  0.00    -0.246 OA
BRANCH  26  28
ATOM     28  C   UNL A   1      43.625  25.274  25.865  1.00  0.00     0.060 A 
ATOM     29  C   UNL A   1      43.907  26.645  25.930  1.00  0.00     0.016 A 
ATOM     30  C   UNL A   1      42.642  24.710  26.681  1.00  0.00     0.016 A 
ATOM     31  C   UNL A   1      43.250  27.449  26.857  1.00  0.00     0.010 A 
ATOM     32  C   UNL A   1      41.990  25.520  27.618  1.00  0.00     0.010 A 
ATOM     33  C   UNL A   1      42.321  26.882  27.738  1.00  0.00    -0.014 A 
BRANCH  33  34
ATOM     34  C   UNL A   1      41.819  27.683  28.880  1.00  0.00     0.031 A 
ATOM     35  C   UNL A   1      42.536  27.603  30.200  1.00  0.00     0.074 A 
ATOM     36  C   UNL A   1      40.749  28.486  28.738  1.00  0.00     0.049 A 
ATOM     37  N   UNL A   1      42.264  28.206  31.328  1.00  0.00    -0.248 NA
ATOM     38  C   UNL A   1      43.717  26.725  30.258  1.00  0.00     0.031 C 
ATOM     39  C   UNL A   1      39.979  28.655  27.508  1.00  0.00     0.029 A 
ATOM     40  N   UNL A   1      40.115  29.293  29.648  1.00  0.00    -0.354 N 
ATOM     41  C   UNL A   1      43.219  27.761  32.236  1.00  0.00     0.074 A 
ATOM     42  C   UNL A   1      44.072  26.829  31.530  1.00  0.00     0.031 C 
ATOM     43  C   UNL A   1      38.954  29.491  27.748  1.00  0.00     0.029 A 
ATOM     44  C   UNL A   1      38.985  29.898  29.151  1.00  0.00     0.049 A 
ATOM     45  H   UNL A   1      40.438  29.427  30.569  1.00  0.00     0.167 HD
ATOM     46  C   UNL A   1      43.382  28.110  33.533  1.00  0.00     0.034 A 
ATOM     47  C   UNL A   1      38.071  30.675  29.766  1.00  0.00     0.034 A 
ATOM     48  C   UNL A   1      42.548  29.055  34.226  1.00  0.00     0.049 A 
ATOM     49  C   UNL A   1      38.261  31.029  31.218  1.00  0.00     0.074 A 
ATOM     50  C   UNL A   1      42.663  29.512  35.527  1.00  0.00     0.029 A 
ATOM     51  N   UNL A   1      41.437  29.677  33.680  1.00  0.00    -0.354 N 
ATOM     52  N   UNL A   1      39.238  30.698  32.027  1.00  0.00    -0.248 NA
ATOM     53  C   UNL A   1      37.239  31.889  31.833  1.00  0.00     0.031 C 
ATOM     54  C   UNL A   1      41.605  30.394  35.774  1.00  0.00     0.029 A 
ATOM     55  C   UNL A   1      40.848  30.505  34.619  1.00  0.00     0.049 A 
ATOM     56  H   UNL A   1      41.114  29.550  32.758  1.00  0.00     0.167 HD
ATOM     57  C   UNL A   1      38.969  31.336  33.234  1.00  0.00     0.074 A 
ATOM     58  C   UNL A   1      37.746  32.089  33.042  1.00  0.00     0.031 C 
ATOM     59  C   UNL A   1      39.662  31.292  34.399  1.00  0.00     0.034 A 
BRANCH  46  60
ATOM     60  C   UNL A   1      44.527  27.485  34.287  1.00  0.00     0.023 A 
ATOM     61  C   UNL A   1      45.747  28.181  34.402  1.00  0.00     0.012 A 
ATOM     62  C   UNL A   1      44.378  26.239  34.927  1.00  0.00     0.148 A 
ATOM     63  C   UNL A   1      46.810  27.635  35.120  1.00  0.00     0.002 A 
ATOM     64  C   UNL A   1      45.429  25.720  35.673  1.00  0.00     0.091 A 
ATOM     65  F   UNL A   1      43.218  25.582  34.784  1.00  0.00    -0.205 F 
ATOM     66  C   UNL A   1      46.648  26.411  35.762  1.00  0.00     0.022 A 
BRANCH  64  67
ATOM     67  S   UNL A   1      45.292  24.186  36.598  1.00  0.00     0.127 S 
ATOM     68  O   UNL A   1      44.552  23.341  35.661  1.00  0.00    -0.237 OA
ATOM     69  O   UNL A   1      46.694  23.809  36.780  1.00  0.00    -0.237 OA
ATOM     70  O   UNL A   1      44.590  24.520  37.828  1.00  0.00    -0.744 OA
ENDBRANCH  64  67
ENDBRANCH  46  60
BRANCH  47  71
ATOM     71  C   UNL A   1      36.906  31.199  28.998  1.00  0.00     0.023 A 
ATOM     72  C   UNL A   1      36.801  32.581  28.749  1.00  0.00     0.012 A 
ATOM     73  C   UNL A   1      35.913  30.333  28.498  1.00  0.00     0.148 A 
ATOM     74  C   UNL A   1      35.715  33.095  28.038  1.00  0.00     0.002 A 
ATOM     75  C   UNL A   1      34.865  30.845  27.742  1.00  0.00     0.091 A 
ATOM     76  F   UNL A   1      36.020  29.023  28.763  1.00  0.00    -0.205 F 
ATOM     77  C   UNL A   1      34.755  32.227  27.525  1.00  0.00     0.022 A 
BRANCH  75  78
ATOM     78  S   UNL A   1      33.658  29.788  26.934  1.00  0.00     0.127 S 
ATOM     79  O   UNL A   1      32.943  30.741  26.089  1.00  0.00    -0.237 OA
ATOM     80  O   UNL A   1      34.517  28.847  26.213  1.00  0.00    -0.237 OA
ATOM     81  O   UNL A   1      32.883  29.186  28.010  1.00  0.00    -0.744 OA
ENDBRANCH  75  78
ENDBRANCH  47  71
BRANCH  59  82
ATOM     82  C   UNL A   1      39.141  32.104  35.556  1.00  0.00     0.023 A 
ATOM     83  C   UNL A   1      38.232  31.526  36.464  1.00  0.00     0.012 A 
ATOM     84  C   UNL A   1      39.619  33.410  35.792  1.00  0.00     0.148 A 
ATOM     85  C   UNL A   1      37.782  32.246  37.570  1.00  0.00     0.002 A 
ATOM     86  C   UNL A   1      39.201  34.103  36.923  1.00  0.00     0.091 A 
ATOM     87  F   UNL A   1      40.470  33.949  34.908  1.00  0.00    -0.205 F 
ATOM     88  C   UNL A   1      38.274  33.526  37.806  1.00  0.00     0.022 A 
BRANCH  86  89
ATOM     89  S   UNL A   1      39.856  35.718  37.357  1.00  0.00     0.127 S 
ATOM     90  O   UNL A   1      39.541  36.499  36.162  1.00  0.00    -0.237 OA
ATOM     91  O   UNL A   1      39.067  36.066  38.539  1.00  0.00    -0.237 OA
ATOM     92  O   UNL A   1      41.275  35.518  37.618  1.00  0.00    -0.744 OA
ENDBRANCH  86  89
ENDBRANCH  59  82
ENDBRANCH  33  34
ENDBRANCH  26  28
ENDBRANCH  25  26
ENDBRANCH  24  25
ENDBRANCH  23  24
ENDBRANCH  22  23
ENDBRANCH  21  22
ENDBRANCH   1  21
TORSDOF 23
ENDMDL
MODEL 2
REMARK VINA RESULT:     -10.1      3.524      9.846
REMARK SMILES CCCOc1ccc(N[C@H](C)[C@H](C)C(=O)OCCOCCOC(=O)c2ccc(-c3c4nc(c(-c5cccc(S(=O)(=O)[O-])c5F)c5ccc([nH]5)c(-c5cccc(S(=O)(=O)[O-])c5F)c5nc(c(-c6cccc(S(=O)(=O)[O-])c6F)c6ccc3[nH]6)C=C5)C=C4)cc2)cc1
REMARK SMILES IDX 17 1 16 2 14 3 15 4 12 5 13 6 10 7 11 8 9 9 8 11 5 12 6 13
REMARK SMILES IDX 89 14 7 15 88 16 4 17 3 18 2 19 1 20 18 21 19 22 20 23 21 24
REMARK SMILES IDX 22 25 23 26 24 27 25 28 26 29 87 30 27 31 86 32 28 33 29 34
REMARK SMILES IDX 30 35 80 36 31 37 85 38 79 39 81 40 32 41 84 42 78 43 77 44
REMARK SMILES IDX 33 46 65 47 45 48 64 49 46 50 49 51 63 52 82 53 47 54 48 55
REMARK SMILES IDX 62 57 83 58 50 59 34 60 35 61 43 62 36 63 38 64 44 65 37 66
REMARK SMILES IDX 39 67 40 68 41 69 42 70 66 71 67 72 75 73 68 74 70 75 76 76
REMARK SMILES IDX 69 77 71 78 72 79 73 80 74 81 51 82 52 83 60 84 53 85 55 86
REMARK SMILES IDX 61 87 54 88 56 89 57 90 58 91 59 92
REMARK H PARENT 9 10 81 45 49 56
REMARK Flexibility Score: inf
ROOT
ATOM      1  C   UNL A   1      33.126  27.571  25.595  1.00  0.00     0.261 C 
ENDROOT
BRANCH   1   2
ATOM      2  O   UNL A   1      31.695  27.683  25.619  1.00  0.00    -0.463 OA
BRANCH   2   3
ATOM      3  C   UNL A   1      31.146  28.443  24.635  1.00  0.00     0.310 C 
ATOM      4  O   UNL A   1      31.189  29.666  24.582  1.00  0.00    -0.252 OA
BRANCH   3   5
ATOM      5  C   UNL A   1      30.437  27.610  23.589  1.00  0.00     0.118 C 
ATOM      6  C   UNL A   1      31.332  27.287  22.385  1.00  0.00     0.022 C 
BRANCH   5   7
ATOM      7  C   UNL A   1      29.854  26.353  24.257  1.00  0.00     0.090 C 
ATOM      8  C   UNL A   1      28.320  26.367  24.289  1.00  0.00     0.031 C 
BRANCH   7   9
ATOM      9  N   UNL A   1      30.249  25.189  23.471  1.00  0.00    -0.382 N 
ATOM     10  H   UNL A   1      30.072  25.212  22.504  1.00  0.00     0.160 HD
BRANCH   9  11
ATOM     11  C   UNL A   1      30.853  24.059  23.982  1.00  0.00     0.034 A 
ATOM     12  C   UNL A   1      32.084  21.665  24.852  1.00  0.00     0.119 A 
ATOM     13  C   UNL A   1      31.373  22.468  25.743  1.00  0.00     0.048 A 
ATOM     14  C   UNL A   1      32.267  22.117  23.553  1.00  0.00     0.048 A 
ATOM     15  C   UNL A   1      30.781  23.664  25.317  1.00  0.00     0.029 A 
ATOM     16  C   UNL A   1      31.633  23.282  23.118  1.00  0.00     0.029 A 
BRANCH  12  17
ATOM     17  O   UNL A   1      32.511  20.477  25.360  1.00  0.00    -0.494 OA
BRANCH  17  18
ATOM     18  C   UNL A   1      33.578  19.773  24.727  1.00  0.00     0.229 C 
BRANCH  18  19
ATOM     19  C   UNL A   1      33.214  18.332  24.348  1.00  0.00     0.038 C 
ATOM     20  C   UNL A   1      32.537  17.540  25.461  1.00  0.00     0.007 C 
ENDBRANCH  18  19
ENDBRANCH  17  18
ENDBRANCH  12  17
ENDBRANCH   9  11
ENDBRANCH   7   9
ENDBRANCH   5   7
ENDBRANCH   3   5
ENDBRANCH   2   3
ENDBRANCH   1   2
BRANCH   1  21
ATOM     21  C   UNL A   1      33.795  28.324  26.750  1.00  0.00     0.202 C 
BRANCH  21  22
ATOM     22  O   UNL A   1      34.049  29.716  26.565  1.00  0.00    -0.374 OA
BRANCH  22  23
ATOM     23  C   UNL A   1      33.200  30.636  27.247  1.00  0.00     0.202 C 
BRANCH  23  24
ATOM     24  C   UNL A   1      33.787  32.005  27.611  1.00  0.00     0.261 C 
BRANCH  24  25
ATOM     25  O   UNL A   1      32.777  33.006  27.825  1.00  0.00    -0.460 OA
BRANCH  25  26
ATOM     26  C   UNL A   1      33.232  34.146  28.403  1.00  0.00     0.338 C 
ATOM     27  O   UNL A   1      32.770  35.267  28.279  1.00  0.00    -0.246 OA
BRANCH  26  28
ATOM     28  C   UNL A   1      34.289  33.837  29.386  1.00  0.00     0.060 A 
ATOM     29  C   UNL A   1      35.595  34.234  29.068  1.00  0.00     0.016 A 
ATOM     30  C   UNL A   1      34.032  33.090  30.537  1.00  0.00     0.016 A 
ATOM     31  C   UNL A   1      36.661  33.831  29.867  1.00  0.00     0.010 A 
ATOM     32  C   UNL A   1      35.107  32.679  31.334  1.00  0.00     0.010 A 
ATOM     33  C   UNL A   1      36.427  33.012  30.979  1.00  0.00    -0.014 A 
BRANCH  33  34
ATOM     34  C   UNL A   1      37.577  32.382  31.672  1.00  0.00     0.031 A 
ATOM     35  C   UNL A   1      38.309  31.255  30.995  1.00  0.00     0.074 A 
ATOM     36  C   UNL A   1      37.976  32.820  32.878  1.00  0.00     0.049 A 
ATOM     37  N   UNL A   1      39.329  30.556  31.421  1.00  0.00    -0.248 NA
ATOM     38  C   UNL A   1      37.825  30.860  29.661  1.00  0.00     0.031 C 
ATOM     39  C   UNL A   1      37.355  33.910  33.628  1.00  0.00     0.029 A 
ATOM     40  N   UNL A   1      38.990  32.384  33.694  1.00  0.00    -0.354 N 
ATOM     41  C   UNL A   1      39.592  29.623  30.424  1.00  0.00     0.074 A 
ATOM     42  C   UNL A   1      38.618  29.837  29.376  1.00  0.00     0.031 C 
ATOM     43  C   UNL A   1      37.982  34.038  34.810  1.00  0.00     0.029 A 
ATOM     44  C   UNL A   1      39.033  33.027  34.908  1.00  0.00     0.049 A 
ATOM     45  H   UNL A   1      39.626  31.678  33.434  1.00  0.00     0.167 HD
ATOM     46  C   UNL A   1      40.566  28.685  30.378  1.00  0.00     0.034 A 
ATOM     47  C   UNL A   1      39.819  32.810  35.981  1.00  0.00     0.034 A 
ATOM     48  C   UNL A   1      41.549  28.490  31.410  1.00  0.00     0.049 A 
ATOM     49  C   UNL A   1      40.881  31.743  35.915  1.00  0.00     0.074 A 
ATOM     50  C   UNL A   1      42.607  27.599  31.432  1.00  0.00     0.029 A 
ATOM     51  N   UNL A   1      41.586  29.186  32.607  1.00  0.00    -0.354 N 
ATOM     52  N   UNL A   1      41.195  30.953  34.916  1.00  0.00    -0.248 NA
ATOM     53  C   UNL A   1      41.716  31.558  37.110  1.00  0.00     0.031 C 
ATOM     54  C   UNL A   1      43.270  27.741  32.656  1.00  0.00     0.029 A 
ATOM     55  C   UNL A   1      42.640  28.737  33.384  1.00  0.00     0.049 A 
ATOM     56  H   UNL A   1      40.955  29.896  32.868  1.00  0.00     0.167 HD
ATOM     57  C   UNL A   1      42.285  30.205  35.348  1.00  0.00     0.074 A 
ATOM     58  C   UNL A   1      42.587  30.650  36.693  1.00  0.00     0.031 C 
ATOM     59  C   UNL A   1      42.964  29.227  34.699  1.00  0.00     0.034 A 
BRANCH  46  60
ATOM     60  C   UNL A   1      40.638  27.811  29.153  1.00  0.00     0.023 A 
ATOM     61  C   UNL A   1      39.782  26.697  29.040  1.00  0.00     0.012 A 
ATOM     62  C   UNL A   1      41.511  28.123  28.092  1.00  0.00     0.148 A 
ATOM     63  C   UNL A   1      39.812  25.891  27.903  1.00  0.00     0.002 A 
ATOM     64  C   UNL A   1      41.506  27.338  26.945  1.00  0.00     0.091 A 
ATOM     65  F   UNL A   1      42.335  29.172  28.229  1.00  0.00    -0.205 F 
ATOM     66  C   UNL A   1      40.666  26.217  26.853  1.00  0.00     0.022 A 
BRANCH  64  67
ATOM     67  S   UNL A   1      42.517  27.720  25.509  1.00  0.00     0.127 S 
ATOM     68  O   UNL A   1      43.857  27.757  26.093  1.00  0.00    -0.237 OA
ATOM     69  O   UNL A   1      42.262  26.571  24.639  1.00  0.00    -0.237 OA
ATOM     70  O   UNL A   1      42.022  28.989  24.996  1.00  0.00    -0.744 OA
ENDBRANCH  64  67
ENDBRANCH  46  60
BRANCH  47  71
ATOM     71  C   UNL A   1      39.652  33.646  37.205  1.00  0.00     0.023 A 
ATOM     72  C   UNL A   1      40.245  34.921  37.263  1.00  0.00     0.012 A 
ATOM     73  C   UNL A   1      38.892  33.190  38.300  1.00  0.00     0.148 A 
ATOM     74  C   UNL A   1      40.107  35.717  38.401  1.00  0.00     0.002 A 
ATOM     75  C   UNL A   1      38.711  34.011  39.407  1.00  0.00     0.091 A 
ATOM     76  F   UNL A   1      38.352  31.964  38.234  1.00  0.00    -0.205 F 
ATOM     77  C   UNL A   1      39.332  35.268  39.467  1.00  0.00     0.022 A 
BRANCH  75  78
ATOM     78  S   UNL A   1      37.623  33.567  40.765  1.00  0.00     0.127 S 
ATOM     79  O   UNL A   1      36.453  33.056  40.056  1.00  0.00    -0.237 OA
ATOM     80  O   UNL A   1      38.413  32.551  41.463  1.00  0.00    -0.237 OA
ATOM     81  O   UNL A   1      37.422  34.793  41.523  1.00  0.00    -0.744 OA
ENDBRANCH  75  78
ENDBRANCH  47  71
BRANCH  59  82
ATOM     82  C   UNL A   1      44.127  28.588  35.411  1.00  0.00     0.023 A 
ATOM     83  C   UNL A   1      45.434  29.064  35.187  1.00  0.00     0.012 A 
ATOM     84  C   UNL A   1      43.916  27.571  36.365  1.00  0.00     0.148 A 
ATOM     85  C   UNL A   1      46.515  28.519  35.879  1.00  0.00     0.002 A 
ATOM     86  C   UNL A   1      44.993  27.066  37.085  1.00  0.00     0.091 A 
ATOM     87  F   UNL A   1      42.668  27.119  36.552  1.00  0.00    -0.205 F 
ATOM     88  C   UNL A   1      46.294  27.530  36.834  1.00  0.00     0.022 A 
BRANCH  86  89
ATOM     89  S   UNL A   1      44.790  25.860  38.401  1.00  0.00     0.127 S 
ATOM     90  O   UNL A   1      44.235  26.682  39.476  1.00  0.00    -0.237 OA
ATOM     91  O   UNL A   1      43.846  24.910  37.811  1.00  0.00    -0.237 OA
ATOM     92  O   UNL A   1      46.117  25.314  38.652  1.00  0.00    -0.744 OA
ENDBRANCH  86  89
ENDBRANCH  59  82
ENDBRANCH  33  34
ENDBRANCH  26  28
ENDBRANCH  25  26
ENDBRANCH  24  25
ENDBRANCH  23  24
ENDBRANCH  22  23
ENDBRANCH  21  22
ENDBRANCH   1  21
TORSDOF 23
ENDMDL
MODEL 3
REMARK VINA RESULT:      -9.9      3.532      9.433
REMARK SMILES CCCOc1ccc(N[C@H](C)[C@H](C)C(=O)OCCOCCOC(=O)c2ccc(-c3c4nc(c(-c5cccc(S(=O)(=O)[O-])c5F)c5ccc([nH]5)c(-c5cccc(S(=O)(=O)[O-])c5F)c5nc(c(-c6cccc(S(=O)(=O)[O-])c6F)c6ccc3[nH]6)C=C5)C=C4)cc2)cc1
REMARK SMILES IDX 17 1 16 2 14 3 15 4 12 5 13 6 10 7 11 8 9 9 8 11 5 12 6 13
REMARK SMILES IDX 89 14 7 15 88 16 4 17 3 18 2 19 1 20 18 21 19 22 20 23 21 24
REMARK SMILES IDX 22 25 23 26 24 27 25 28 26 29 87 30 27 31 86 32 28 33 29 34
REMARK SMILES IDX 30 35 80 36 31 37 85 38 79 39 81 40 32 41 84 42 78 43 77 44
REMARK SMILES IDX 33 46 65 47 45 48 64 49 46 50 49 51 63 52 82 53 47 54 48 55
REMARK SMILES IDX 62 57 83 58 50 59 34 60 35 61 43 62 36 63 38 64 44 65 37 66
REMARK SMILES IDX 39 67 40 68 41 69 42 70 66 71 67 72 75 73 68 74 70 75 76 76
REMARK SMILES IDX 69 77 71 78 72 79 73 80 74 81 51 82 52 83 60 84 53 85 55 86
REMARK SMILES IDX 61 87 54 88 56 89 57 90 58 91 59 92
REMARK H PARENT 9 10 81 45 49 56
REMARK Flexibility Score: inf
ROOT
ATOM      1  C   UNL A   1      33.653  27.811  26.388  1.00  0.00     0.261 C 
ENDROOT
BRANCH   1   2
ATOM      2  O   UNL A   1      32.261  27.964  26.070  1.00  0.00    -0.463 OA
BRANCH   2   3
ATOM      3  C   UNL A   1      31.988  28.420  24.819  1.00  0.00     0.310 C 
ATOM      4  O   UNL A   1      32.789  28.987  24.085  1.00  0.00    -0.252 OA
BRANCH   3   5
ATOM      5  C   UNL A   1      30.553  28.170  24.412  1.00  0.00     0.118 C 
ATOM      6  C   UNL A   1      30.238  28.689  23.003  1.00  0.00     0.022 C 
BRANCH   5   7
ATOM      7  C   UNL A   1      30.234  26.674  24.585  1.00  0.00     0.090 C 
ATOM      8  C   UNL A   1      28.987  26.249  23.800  1.00  0.00     0.031 C 
BRANCH   7   9
ATOM      9  N   UNL A   1      31.352  25.901  24.053  1.00  0.00    -0.382 N 
ATOM     10  H   UNL A   1      31.979  26.363  23.452  1.00  0.00     0.160 HD
BRANCH   9  11
ATOM     11  C   UNL A   1      31.596  24.572  24.330  1.00  0.00     0.034 A 
ATOM     12  C   UNL A   1      32.090  21.812  24.709  1.00  0.00     0.119 A 
ATOM     13  C   UNL A   1      31.508  22.580  25.717  1.00  0.00     0.048 A 
ATOM     14  C   UNL A   1      32.521  22.451  23.555  1.00  0.00     0.048 A 
ATOM     15  C   UNL A   1      31.283  23.950  25.538  1.00  0.00     0.029 A 
ATOM     16  C   UNL A   1      32.248  23.806  23.357  1.00  0.00     0.029 A 
BRANCH  12  17
ATOM     17  O   UNL A   1      32.150  20.476  24.961  1.00  0.00    -0.494 OA
BRANCH  17  18
ATOM     18  C   UNL A   1      32.481  19.567  23.913  1.00  0.00     0.229 C 
BRANCH  18  19
ATOM     19  C   UNL A   1      32.285  18.096  24.302  1.00  0.00     0.038 C 
ATOM     20  C   UNL A   1      32.651  17.773  25.746  1.00  0.00     0.007 C 
ENDBRANCH  18  19
ENDBRANCH  17  18
ENDBRANCH  12  17
ENDBRANCH   9  11
ENDBRANCH   7   9
ENDBRANCH   5   7
ENDBRANCH   3   5
ENDBRANCH   2   3
ENDBRANCH   1   2
BRANCH   1  21
ATOM     21  C   UNL A   1      34.177  28.933  27.290  1.00  0.00     0.202 C 
BRANCH  21  22
ATOM     22  O   UNL A   1      34.049  30.271  26.813  1.00  0.00    -0.374 OA
BRANCH  22  23
ATOM     23  C   UNL A   1      33.309  31.189  27.615  1.00  0.00     0.202 C 
BRANCH  23  24
ATOM     24  C   UNL A   1      33.803  32.640  27.669  1.00  0.00     0.261 C 
BRANCH  24  25
ATOM     25  O   UNL A   1      32.764  33.569  28.025  1.00  0.00    -0.460 OA
BRANCH  25  26
ATOM     26  C   UNL A   1      33.194  34.646  28.729  1.00  0.00     0.338 C 
ATOM     27  O   UNL A   1      32.685  35.753  28.761  1.00  0.00    -0.246 OA
BRANCH  26  28
ATOM     28  C   UNL A   1      34.295  34.262  29.634  1.00  0.00     0.060 A 
ATOM     29  C   UNL A   1      35.602  34.508  29.192  1.00  0.00     0.016 A 
ATOM     30  C   UNL A   1      34.064  33.586  30.833  1.00  0.00     0.016 A 
ATOM     31  C   UNL A   1      36.686  34.023  29.919  1.00  0.00     0.010 A 
ATOM     32  C   UNL A   1      35.156  33.093  31.557  1.00  0.00     0.010 A 
ATOM     33  C   UNL A   1      36.468  33.273  31.080  1.00  0.00    -0.014 A 
BRANCH  33  34
ATOM     34  C   UNL A   1      37.603  32.550  31.703  1.00  0.00     0.031 A 
ATOM     35  C   UNL A   1      38.083  32.979  33.063  1.00  0.00     0.074 A 
ATOM     36  C   UNL A   1      38.186  31.515  31.074  1.00  0.00     0.049 A 
ATOM     37  N   UNL A   1      39.062  32.498  33.785  1.00  0.00    -0.248 NA
ATOM     38  C   UNL A   1      37.367  34.100  33.693  1.00  0.00     0.031 C 
ATOM     39  C   UNL A   1      37.804  31.001  29.761  1.00  0.00     0.029 A 
ATOM     40  N   UNL A   1      39.242  30.723  31.452  1.00  0.00    -0.354 N 
ATOM     41  C   UNL A   1      39.098  33.273  34.939  1.00  0.00     0.074 A 
ATOM     42  C   UNL A   1      38.050  34.262  34.817  1.00  0.00     0.031 C 
ATOM     43  C   UNL A   1      38.633  29.998  29.427  1.00  0.00     0.029 A 
ATOM     44  C   UNL A   1      39.617  29.814  30.492  1.00  0.00     0.049 A 
ATOM     45  H   UNL A   1      39.688  30.800  32.327  1.00  0.00     0.167 HD
ATOM     46  C   UNL A   1      39.918  33.159  36.010  1.00  0.00     0.034 A 
ATOM     47  C   UNL A   1      40.648  28.946  30.470  1.00  0.00     0.034 A 
ATOM     48  C   UNL A   1      40.943  32.159  36.140  1.00  0.00     0.049 A 
ATOM     49  C   UNL A   1      41.562  28.856  31.664  1.00  0.00     0.074 A 
ATOM     50  C   UNL A   1      41.791  31.930  37.208  1.00  0.00     0.029 A 
ATOM     51  N   UNL A   1      41.268  31.229  35.165  1.00  0.00    -0.354 N 
ATOM     52  N   UNL A   1      41.505  29.512  32.798  1.00  0.00    -0.248 NA
ATOM     53  C   UNL A   1      42.663  27.884  31.589  1.00  0.00     0.031 C 
ATOM     54  C   UNL A   1      42.646  30.877  36.868  1.00  0.00     0.029 A 
ATOM     55  C   UNL A   1      42.313  30.433  35.599  1.00  0.00     0.049 A 
ATOM     56  H   UNL A   1      40.821  31.147  34.291  1.00  0.00     0.167 HD
ATOM     57  C   UNL A   1      42.537  29.009  33.584  1.00  0.00     0.074 A 
ATOM     58  C   UNL A   1      43.191  27.979  32.802  1.00  0.00     0.031 C 
ATOM     59  C   UNL A   1      42.919  29.375  34.833  1.00  0.00     0.034 A 
BRANCH  46  60
ATOM     60  C   UNL A   1      39.721  34.128  37.147  1.00  0.00     0.023 A 
ATOM     61  C   UNL A   1      40.088  35.478  36.983  1.00  0.00     0.012 A 
ATOM     62  C   UNL A   1      39.123  33.714  38.353  1.00  0.00     0.148 A 
ATOM     63  C   UNL A   1      39.889  36.398  38.012  1.00  0.00     0.002 A 
ATOM     64  C   UNL A   1      38.891  34.645  39.359  1.00  0.00     0.091 A 
ATOM     65  F   UNL A   1      38.804  32.420  38.499  1.00  0.00    -0.205 F 
ATOM     66  C   UNL A   1      39.282  35.984  39.195  1.00  0.00     0.022 A 
BRANCH  64  67
ATOM     67  S   UNL A   1      38.049  34.224  40.889  1.00  0.00     0.127 S 
ATOM     68  O   UNL A   1      39.057  33.411  41.568  1.00  0.00    -0.237 OA
ATOM     69  O   UNL A   1      37.823  35.540  41.489  1.00  0.00    -0.237 OA
ATOM     70  O   UNL A   1      36.835  33.521  40.499  1.00  0.00    -0.744 OA
ENDBRANCH  64  67
ENDBRANCH  46  60
BRANCH  47  71
ATOM     71  C   UNL A   1      40.853  28.067  29.283  1.00  0.00     0.023 A 
ATOM     72  C   UNL A   1      40.077  26.902  29.138  1.00  0.00     0.012 A 
ATOM     73  C   UNL A   1      41.799  28.393  28.290  1.00  0.00     0.148 A 
ATOM     74  C   UNL A   1      40.257  26.061  28.038  1.00  0.00     0.002 A 
ATOM     75  C   UNL A   1      41.932  27.581  27.170  1.00  0.00     0.091 A 
ATOM     76  F   UNL A   1      42.542  29.496  28.456  1.00  0.00    -0.205 F 
ATOM     77  C   UNL A   1      41.175  26.406  27.049  1.00  0.00     0.022 A 
BRANCH  75  78
ATOM     78  S   UNL A   1      42.994  28.018  25.788  1.00  0.00     0.127 S 
ATOM     79  O   UNL A   1      43.636  26.741  25.488  1.00  0.00    -0.237 OA
ATOM     80  O   UNL A   1      42.021  28.468  24.791  1.00  0.00    -0.237 OA
ATOM     81  O   UNL A   1      43.871  29.069  26.286  1.00  0.00    -0.744 OA
ENDBRANCH  75  78
ENDBRANCH  47  71
BRANCH  59  82
ATOM     82  C   UNL A   1      44.077  28.640  35.456  1.00  0.00     0.023 A 
ATOM     83  C   UNL A   1      45.397  29.012  35.133  1.00  0.00     0.012 A 
ATOM     84  C   UNL A   1      43.857  27.640  36.425  1.00  0.00     0.148 A 
ATOM     85  C   UNL A   1      46.480  28.379  35.741  1.00  0.00     0.002 A 
ATOM     86  C   UNL A   1      44.942  27.047  37.062  1.00  0.00     0.091 A 
ATOM     87  F   UNL A   1      42.595  27.289  36.707  1.00  0.00    -0.205 F 
ATOM     88  C   UNL A   1      46.253  27.407  36.712  1.00  0.00     0.022 A 
BRANCH  86  89
ATOM     89  S   UNL A   1      44.743  25.856  38.391  1.00  0.00     0.127 S 
ATOM     90  O   UNL A   1      44.083  24.747  37.704  1.00  0.00    -0.237 OA
ATOM     91  O   UNL A   1      46.129  25.592  38.783  1.00  0.00    -0.237 OA
ATOM     92  O   UNL A   1      43.946  26.523  39.412  1.00  0.00    -0.744 OA
ENDBRANCH  86  89
ENDBRANCH  59  82
ENDBRANCH  33  34
ENDBRANCH  26  28
ENDBRANCH  25  26
ENDBRANCH  24  25
ENDBRANCH  23  24
ENDBRANCH  22  23
ENDBRANCH  21  22
ENDBRANCH   1  21
TORSDOF 23
ENDMDL
