MODEL 1
REMARK VINA RESULT:     -11.6      0.000      0.000
REMARK SMILES CC1=C[C@H](C)[C@H](CN2C[C@@]34C=C[C@@H](O3)[C@H](C(=O)OCCOCCOC(=O)c3ccc(-c5c6nc(c(-c7cccc(S(=O)(=O)[O-])c7F)c7ccc([nH]7)c(-c7cccc(S(=O)(=O)[O-])c7F)c7nc(c(-c8cccc(S(=O)(=O)[O-])c8F)c8ccc5[nH]8)C=C7)C=C6)cc3)[C@@H]4C2=O)[C@H](C)C1
REMARK SMILES IDX 22 1 21 2 20 3 19 4 18 5 16 6 17 7 15 8 8 9 9 10 91 11 10 12
REMARK SMILES IDX 90 13 92 14 11 15 14 16 12 17 13 18 7 19 6 20 1 21 2 22 3 23
REMARK SMILES IDX 95 24 4 25 93 26 5 27 94 28 23 29 24 30 25 31 26 32 27 33
REMARK SMILES IDX 28 34 89 35 29 36 88 37 30 38 31 39 32 40 82 41 33 42 87 43
REMARK SMILES IDX 81 44 83 45 34 46 86 47 80 48 79 49 35 51 67 52 47 53 66 54
REMARK SMILES IDX 48 55 51 56 65 57 84 58 49 59 50 60 64 62 85 63 52 64 36 65
REMARK SMILES IDX 37 66 45 67 38 68 40 69 46 70 39 71 41 72 42 73 43 74 44 75
REMARK SMILES IDX 68 76 69 77 77 78 70 79 72 80 78 81 71 82 73 83 74 84 75 85
REMARK SMILES IDX 76 86 53 87 54 88 62 89 55 90 57 91 63 92 56 93 58 94 59 95
REMARK SMILES IDX 60 96 61 97
REMARK H PARENT 83 50 51 61
REMARK Flexibility Score: inf
ROOT
ATOM      1  C   UNL A   1      31.704  32.153  27.016  1.00  0.00     0.202 C 
ENDROOT
BRANCH   1   2
ATOM      2  O   UNL A   1      32.285  30.856  27.143  1.00  0.00    -0.374 OA
BRANCH   2   3
ATOM      3  C   UNL A   1      33.695  30.724  26.994  1.00  0.00     0.202 C 
BRANCH   3   4
ATOM      4  C   UNL A   1      34.335  29.353  27.275  1.00  0.00     0.261 C 
BRANCH   4   5
ATOM      5  O   UNL A   1      34.154  28.410  26.207  1.00  0.00    -0.463 OA
BRANCH   5   6
ATOM      6  C   UNL A   1      32.949  27.806  26.222  1.00  0.00     0.312 C 
ATOM      7  O   UNL A   1      32.355  27.432  27.233  1.00  0.00    -0.252 OA
BRANCH   6   8
ATOM      8  C   UNL A   1      32.277  27.682  24.893  1.00  0.00     0.148 C 
ATOM      9  N   UNL A   1      33.663  24.617  23.237  1.00  0.00    -0.339 N 
ATOM     10  C   UNL A   1      33.050  25.409  22.127  1.00  0.00     0.160 C 
ATOM     11  C   UNL A   1      33.875  25.538  24.332  1.00  0.00     0.230 C 
ATOM     12  C   UNL A   1      32.891  26.814  22.733  1.00  0.00     0.117 C 
ATOM     13  C   UNL A   1      32.696  26.430  24.192  1.00  0.00     0.133 C 
ATOM     14  O   UNL A   1      34.617  25.416  25.296  1.00  0.00    -0.274 OA
ATOM     15  C   UNL A   1      33.980  27.838  22.532  1.00  0.00     0.009 C 
ATOM     16  O   UNL A   1      31.745  27.677  22.641  1.00  0.00    -0.360 OA
ATOM     17  C   UNL A   1      33.560  28.958  23.134  1.00  0.00     0.004 C 
ATOM     18  C   UNL A   1      32.220  28.643  23.706  1.00  0.00     0.157 C 
BRANCH   9  19
ATOM     19  C   UNL A   1      32.966  23.470  23.788  1.00  0.00     0.124 C 
BRANCH  19  20
ATOM     20  C   UNL A   1      33.640  22.180  24.248  1.00  0.00     0.018 C 
ATOM     21  C   UNL A   1      32.561  18.080  25.700  1.00  0.00     0.039 C 
ATOM     22  C   UNL A   1      32.981  19.451  25.257  1.00  0.00    -0.077 C 
ATOM     23  C   UNL A   1      33.091  20.469  26.120  1.00  0.00    -0.025 C 
ATOM     24  C   UNL A   1      33.297  19.604  23.806  1.00  0.00     0.034 C 
ATOM     25  C   UNL A   1      33.481  21.884  25.774  1.00  0.00     0.014 C 
ATOM     26  C   UNL A   1      33.170  21.029  23.261  1.00  0.00    -0.005 C 
ATOM     27  C   UNL A   1      32.549  22.826  26.551  1.00  0.00     0.012 C 
ATOM     28  C   UNL A   1      31.760  21.205  22.635  1.00  0.00     0.008 C 
ENDBRANCH  19  20
ENDBRANCH   9  19
ENDBRANCH   6   8
ENDBRANCH   5   6
ENDBRANCH   4   5
ENDBRANCH   3   4
ENDBRANCH   2   3
ENDBRANCH   1   2
BRANCH   1  29
ATOM     29  C   UNL A   1      32.589  33.392  27.220  1.00  0.00     0.261 C 
BRANCH  29  30
ATOM     30  O   UNL A   1      32.418  34.013  28.508  1.00  0.00    -0.460 OA
BRANCH  30  31
ATOM     31  C   UNL A   1      33.536  34.618  28.982  1.00  0.00     0.338 C 
ATOM     32  O   UNL A   1      33.633  35.769  29.375  1.00  0.00    -0.246 OA
BRANCH  31  33
ATOM     33  C   UNL A   1      34.640  33.652  29.137  1.00  0.00     0.060 A 
ATOM     34  C   UNL A   1      34.442  32.577  30.013  1.00  0.00     0.016 A 
ATOM     35  C   UNL A   1      35.898  33.898  28.587  1.00  0.00     0.016 A 
ATOM     36  C   UNL A   1      35.519  31.774  30.386  1.00  0.00     0.010 A 
ATOM     37  C   UNL A   1      36.981  33.095  28.972  1.00  0.00     0.010 A 
ATOM     38  C   UNL A   1      36.805  32.059  29.908  1.00  0.00    -0.014 A 
BRANCH  38  39
ATOM     39  C   UNL A   1      37.972  31.368  30.510  1.00  0.00     0.031 A 
ATOM     40  C   UNL A   1      38.361  31.678  31.932  1.00  0.00     0.074 A 
ATOM     41  C   UNL A   1      38.667  30.456  29.808  1.00  0.00     0.049 A 
ATOM     42  N   UNL A   1      39.315  31.161  32.660  1.00  0.00    -0.248 NA
ATOM     43  C   UNL A   1      37.568  32.709  32.626  1.00  0.00     0.031 C 
ATOM     44  C   UNL A   1      38.402  30.077  28.422  1.00  0.00     0.029 A 
ATOM     45  N   UNL A   1      39.755  29.699  30.164  1.00  0.00    -0.354 N 
ATOM     46  C   UNL A   1      39.258  31.815  33.885  1.00  0.00     0.074 A 
ATOM     47  C   UNL A   1      38.177  32.774  33.802  1.00  0.00     0.031 C 
ATOM     48  C   UNL A   1      39.323  29.180  28.033  1.00  0.00     0.029 A 
ATOM     49  C   UNL A   1      40.246  28.926  29.138  1.00  0.00     0.049 A 
ATOM     50  H   UNL A   1      40.147  29.707  31.067  1.00  0.00     0.167 HD
ATOM     51  C   UNL A   1      40.019  31.621  34.988  1.00  0.00     0.034 A 
ATOM     52  C   UNL A   1      41.324  28.117  29.093  1.00  0.00     0.034 A 
ATOM     53  C   UNL A   1      41.071  30.646  35.086  1.00  0.00     0.049 A 
ATOM     54  C   UNL A   1      42.152  27.915  30.335  1.00  0.00     0.074 A 
ATOM     55  C   UNL A   1      41.847  30.326  36.186  1.00  0.00     0.029 A 
ATOM     56  N   UNL A   1      41.504  29.841  34.044  1.00  0.00    -0.354 N 
ATOM     57  N   UNL A   1      41.981  28.423  31.532  1.00  0.00    -0.248 NA
ATOM     58  C   UNL A   1      43.299  27.001  30.231  1.00  0.00     0.031 C 
ATOM     59  C   UNL A   1      42.763  29.339  35.804  1.00  0.00     0.029 A 
ATOM     60  C   UNL A   1      42.547  29.037  34.469  1.00  0.00     0.049 A 
ATOM     61  H   UNL A   1      41.125  29.842  33.135  1.00  0.00     0.167 HD
ATOM     62  C   UNL A   1      42.979  27.870  32.328  1.00  0.00     0.074 A 
ATOM     63  C   UNL A   1      43.736  26.969  31.483  1.00  0.00     0.031 C 
ATOM     64  C   UNL A   1      43.258  28.103  33.634  1.00  0.00     0.034 A 
BRANCH  51  65
ATOM     65  C   UNL A   1      39.717  32.456  36.203  1.00  0.00     0.023 A 
ATOM     66  C   UNL A   1      40.371  33.693  36.372  1.00  0.00     0.012 A 
ATOM     67  C   UNL A   1      38.740  32.055  37.134  1.00  0.00     0.148 A 
ATOM     68  C   UNL A   1      40.072  34.509  37.462  1.00  0.00     0.002 A 
ATOM     69  C   UNL A   1      38.423  32.890  38.200  1.00  0.00     0.091 A 
ATOM     70  F   UNL A   1      38.148  30.864  36.968  1.00  0.00    -0.205 F 
ATOM     71  C   UNL A   1      39.092  34.114  38.369  1.00  0.00     0.022 A 
BRANCH  69  72
ATOM     72  S   UNL A   1      37.129  32.496  39.383  1.00  0.00     0.127 S 
ATOM     73  O   UNL A   1      37.301  33.557  40.372  1.00  0.00    -0.237 OA
ATOM     74  O   UNL A   1      35.918  32.612  38.569  1.00  0.00    -0.237 OA
ATOM     75  O   UNL A   1      37.415  31.147  39.851  1.00  0.00    -0.744 OA
ENDBRANCH  69  72
ENDBRANCH  51  65
BRANCH  52  76
ATOM     76  C   UNL A   1      41.658  27.401  27.830  1.00  0.00     0.023 A 
ATOM     77  C   UNL A   1      42.133  28.127  26.722  1.00  0.00     0.012 A 
ATOM     78  C   UNL A   1      41.527  26.002  27.731  1.00  0.00     0.148 A 
ATOM     79  C   UNL A   1      42.451  27.476  25.530  1.00  0.00     0.002 A 
ATOM     80  C   UNL A   1      41.894  25.354  26.557  1.00  0.00     0.091 A 
ATOM     81  F   UNL A   1      41.047  25.331  28.787  1.00  0.00    -0.205 F 
ATOM     82  C   UNL A   1      42.343  26.090  25.451  1.00  0.00     0.022 A 
BRANCH  80  83
ATOM     83  S   UNL A   1      41.896  23.563  26.422  1.00  0.00     0.127 S 
ATOM     84  O   UNL A   1      42.640  23.172  27.617  1.00  0.00    -0.237 OA
ATOM     85  O   UNL A   1      40.466  23.250  26.457  1.00  0.00    -0.237 OA
ATOM     86  O   UNL A   1      42.537  23.274  25.146  1.00  0.00    -0.744 OA
ENDBRANCH  80  83
ENDBRANCH  52  76
BRANCH  64  87
ATOM     87  C   UNL A   1      44.421  27.367  34.246  1.00  0.00     0.023 A 
ATOM     88  C   UNL A   1      45.712  27.924  34.166  1.00  0.00     0.012 A 
ATOM     89  C   UNL A   1      44.227  26.171  34.964  1.00  0.00     0.148 A 
ATOM     90  C   UNL A   1      46.797  27.290  34.770  1.00  0.00     0.002 A 
ATOM     91  C   UNL A   1      45.307  25.566  35.599  1.00  0.00     0.091 A 
ATOM     92  F   UNL A   1      42.996  25.642  35.012  1.00  0.00    -0.205 F 
ATOM     93  C   UNL A   1      46.593  26.119  35.496  1.00  0.00     0.022 A 
BRANCH  91  94
ATOM     94  S   UNL A   1      45.112  24.105  36.628  1.00  0.00     0.127 S 
ATOM     95  O   UNL A   1      44.397  23.200  35.731  1.00  0.00    -0.237 OA
ATOM     96  O   UNL A   1      46.498  23.723  36.901  1.00  0.00    -0.237 OA
ATOM     97  O   UNL A   1      44.372  24.547  37.803  1.00  0.00    -0.744 OA
ENDBRANCH  91  94
ENDBRANCH  64  87
ENDBRANCH  38  39
ENDBRANCH  31  33
ENDBRANCH  30  31
ENDBRANCH  29  30
ENDBRANCH   1  29
TORSDOF 19
ENDMDL
MODEL 2
REMARK VINA RESULT:     -11.5      9.382     14.169
REMARK SMILES CC1=C[C@H](C)[C@H](CN2C[C@@]34C=C[C@@H](O3)[C@H](C(=O)OCCOCCOC(=O)c3ccc(-c5c6nc(c(-c7cccc(S(=O)(=O)[O-])c7F)c7ccc([nH]7)c(-c7cccc(S(=O)(=O)[O-])c7F)c7nc(c(-c8cccc(S(=O)(=O)[O-])c8F)c8ccc5[nH]8)C=C7)C=C6)cc3)[C@@H]4C2=O)[C@H](C)C1
REMARK SMILES IDX 22 1 21 2 20 3 19 4 18 5 16 6 17 7 15 8 8 9 9 10 91 11 10 12
REMARK SMILES IDX 90 13 92 14 11 15 14 16 12 17 13 18 7 19 6 20 1 21 2 22 3 23
REMARK SMILES IDX 95 24 4 25 93 26 5 27 94 28 23 29 24 30 25 31 26 32 27 33
REMARK SMILES IDX 28 34 89 35 29 36 88 37 30 38 31 39 32 40 82 41 33 42 87 43
REMARK SMILES IDX 81 44 83 45 34 46 86 47 80 48 79 49 35 51 67 52 47 53 66 54
REMARK SMILES IDX 48 55 51 56 65 57 84 58 49 59 50 60 64 62 85 63 52 64 36 65
REMARK SMILES IDX 37 66 45 67 38 68 40 69 46 70 39 71 41 72 42 73 43 74 44 75
REMARK SMILES IDX 68 76 69 77 77 78 70 79 72 80 78 81 71 82 73 83 74 84 75 85
REMARK SMILES IDX 76 86 53 87 54 88 62 89 55 90 57 91 63 92 56 93 58 94 59 95
REMARK SMILES IDX 60 96 61 97
REMARK H PARENT 83 50 51 61
REMARK Flexibility Score: inf
ROOT
ATOM      1  C   UNL A   1      42.785  39.501  28.258  1.00  0.00     0.202 C 
ENDROOT
BRANCH   1   2
ATOM      2  O   UNL A   1      42.614  39.654  26.850  1.00  0.00    -0.374 OA
BRANCH   2   3
ATOM      3  C   UNL A   1      42.658  40.965  26.296  1.00  0.00     0.202 C 
BRANCH   3   4
ATOM      4  C   UNL A   1      41.768  41.277  25.081  1.00  0.00     0.261 C 
BRANCH   4   5
ATOM      5  O   UNL A   1      42.515  41.604  23.897  1.00  0.00    -0.463 OA
BRANCH   5   6
ATOM      6  C   UNL A   1      42.058  42.699  23.258  1.00  0.00     0.312 C 
ATOM      7  O   UNL A   1      40.932  42.820  22.776  1.00  0.00    -0.252 OA
BRANCH   6   8
ATOM      8  C   UNL A   1      42.991  43.866  23.237  1.00  0.00     0.148 C 
ATOM      9  N   UNL A   1      45.135  43.506  20.182  1.00  0.00    -0.339 N 
ATOM     10  C   UNL A   1      45.875  44.464  21.060  1.00  0.00     0.160 C 
ATOM     11  C   UNL A   1      44.207  42.797  21.036  1.00  0.00     0.230 C 
ATOM     12  C   UNL A   1      45.229  44.259  22.440  1.00  0.00     0.117 C 
ATOM     13  C   UNL A   1      43.828  43.863  21.998  1.00  0.00     0.133 C 
ATOM     14  O   UNL A   1      43.640  41.735  20.825  1.00  0.00    -0.274 OA
ATOM     15  C   UNL A   1      45.842  43.279  23.410  1.00  0.00     0.009 C 
ATOM     16  O   UNL A   1      44.821  45.277  23.370  1.00  0.00    -0.360 OA
ATOM     17  C   UNL A   1      45.097  43.333  24.521  1.00  0.00     0.004 C 
ATOM     18  C   UNL A   1      44.028  44.337  24.255  1.00  0.00     0.157 C 
BRANCH   9  19
ATOM     19  C   UNL A   1      44.368  43.995  19.051  1.00  0.00     0.124 C 
BRANCH  19  20
ATOM     20  C   UNL A   1      43.742  45.384  18.960  1.00  0.00     0.018 C 
ATOM     21  C   UNL A   1      41.712  48.037  15.972  1.00  0.00     0.039 C 
ATOM     22  C   UNL A   1      42.421  47.209  17.003  1.00  0.00    -0.077 C 
ATOM     23  C   UNL A   1      43.756  47.210  17.116  1.00  0.00    -0.025 C 
ATOM     24  C   UNL A   1      41.550  46.408  17.913  1.00  0.00     0.034 C 
ATOM     25  C   UNL A   1      44.561  46.399  18.098  1.00  0.00     0.014 C 
ATOM     26  C   UNL A   1      42.222  45.187  18.547  1.00  0.00    -0.005 C 
ATOM     27  C   UNL A   1      45.771  45.824  17.344  1.00  0.00     0.012 C 
ATOM     28  C   UNL A   1      41.910  43.935  17.684  1.00  0.00     0.008 C 
ENDBRANCH  19  20
ENDBRANCH   9  19
ENDBRANCH   6   8
ENDBRANCH   5   6
ENDBRANCH   4   5
ENDBRANCH   3   4
ENDBRANCH   2   3
ENDBRANCH   1   2
BRANCH   1  29
ATOM     29  C   UNL A   1      44.159  39.087  28.803  1.00  0.00     0.261 C 
BRANCH  29  30
ATOM     30  O   UNL A   1      44.105  37.955  29.693  1.00  0.00    -0.460 OA
BRANCH  30  31
ATOM     31  C   UNL A   1      45.311  37.373  29.920  1.00  0.00     0.338 C 
ATOM     32  O   UNL A   1      46.270  37.876  30.483  1.00  0.00    -0.246 OA
BRANCH  31  33
ATOM     33  C   UNL A   1      45.292  35.947  29.547  1.00  0.00     0.060 A 
ATOM     34  C   UNL A   1      44.728  35.607  28.310  1.00  0.00     0.016 A 
ATOM     35  C   UNL A   1      45.643  34.956  30.463  1.00  0.00     0.016 A 
ATOM     36  C   UNL A   1      44.461  34.273  28.008  1.00  0.00     0.010 A 
ATOM     37  C   UNL A   1      45.364  33.615  30.160  1.00  0.00     0.010 A 
ATOM     38  C   UNL A   1      44.730  33.273  28.952  1.00  0.00    -0.014 A 
BRANCH  38  39
ATOM     39  C   UNL A   1      44.207  31.903  28.725  1.00  0.00     0.031 A 
ATOM     40  C   UNL A   1      42.868  31.520  29.300  1.00  0.00     0.074 A 
ATOM     41  C   UNL A   1      44.904  31.013  27.997  1.00  0.00     0.049 A 
ATOM     42  N   UNL A   1      42.210  30.396  29.187  1.00  0.00    -0.248 NA
ATOM     43  C   UNL A   1      42.178  32.540  30.109  1.00  0.00     0.031 C 
ATOM     44  C   UNL A   1      46.215  31.254  27.400  1.00  0.00     0.029 A 
ATOM     45  N   UNL A   1      44.610  29.716  27.656  1.00  0.00    -0.354 N 
ATOM     46  C   UNL A   1      41.045  30.559  29.927  1.00  0.00     0.074 A 
ATOM     47  C   UNL A   1      41.087  31.891  30.492  1.00  0.00     0.031 C 
ATOM     48  C   UNL A   1      46.629  30.130  26.790  1.00  0.00     0.029 A 
ATOM     49  C   UNL A   1      45.617  29.090  26.960  1.00  0.00     0.049 A 
ATOM     50  H   UNL A   1      43.760  29.277  27.887  1.00  0.00     0.167 HD
ATOM     51  C   UNL A   1      40.022  29.690  30.104  1.00  0.00     0.034 A 
ATOM     52  C   UNL A   1      45.714  27.818  26.521  1.00  0.00     0.034 A 
ATOM     53  C   UNL A   1      39.962  28.379  29.516  1.00  0.00     0.049 A 
ATOM     54  C   UNL A   1      44.560  26.873  26.726  1.00  0.00     0.074 A 
ATOM     55  C   UNL A   1      38.932  27.456  29.577  1.00  0.00     0.029 A 
ATOM     56  N   UNL A   1      40.975  27.799  28.770  1.00  0.00    -0.354 N 
ATOM     57  N   UNL A   1      43.397  27.099  27.290  1.00  0.00    -0.248 NA
ATOM     58  C   UNL A   1      44.715  25.507  26.203  1.00  0.00     0.031 C 
ATOM     59  C   UNL A   1      39.331  26.309  28.882  1.00  0.00     0.029 A 
ATOM     60  C   UNL A   1      40.604  26.524  28.379  1.00  0.00     0.049 A 
ATOM     61  H   UNL A   1      41.832  28.229  28.551  1.00  0.00     0.167 HD
ATOM     62  C   UNL A   1      42.675  25.917  27.165  1.00  0.00     0.074 A 
ATOM     63  C   UNL A   1      43.521  24.984  26.449  1.00  0.00     0.031 C 
ATOM     64  C   UNL A   1      41.432  25.623  27.619  1.00  0.00     0.034 A 
BRANCH  51  65
ATOM     65  C   UNL A   1      38.854  30.142  30.938  1.00  0.00     0.023 A 
ATOM     66  C   UNL A   1      38.850  29.878  32.322  1.00  0.00     0.012 A 
ATOM     67  C   UNL A   1      37.804  30.889  30.371  1.00  0.00     0.148 A 
ATOM     68  C   UNL A   1      37.806  30.331  33.127  1.00  0.00     0.002 A 
ATOM     69  C   UNL A   1      36.783  31.366  31.185  1.00  0.00     0.091 A 
ATOM     70  F   UNL A   1      37.815  31.108  29.048  1.00  0.00    -0.205 F 
ATOM     71  C   UNL A   1      36.779  31.083  32.562  1.00  0.00     0.022 A 
BRANCH  69  72
ATOM     72  S   UNL A   1      35.452  32.398  30.560  1.00  0.00     0.127 S 
ATOM     73  O   UNL A   1      34.527  32.404  31.691  1.00  0.00    -0.237 OA
ATOM     74  O   UNL A   1      36.131  33.672  30.321  1.00  0.00    -0.237 OA
ATOM     75  O   UNL A   1      34.968  31.737  29.355  1.00  0.00    -0.744 OA
ENDBRANCH  69  72
ENDBRANCH  51  65
BRANCH  52  76
ATOM     76  C   UNL A   1      46.943  27.377  25.803  1.00  0.00     0.023 A 
ATOM     77  C   UNL A   1      47.902  26.598  26.478  1.00  0.00     0.012 A 
ATOM     78  C   UNL A   1      47.152  27.707  24.450  1.00  0.00     0.148 A 
ATOM     79  C   UNL A   1      49.060  26.175  25.824  1.00  0.00     0.002 A 
ATOM     80  C   UNL A   1      48.283  27.239  23.790  1.00  0.00     0.091 A 
ATOM     81  F   UNL A   1      46.241  28.472  23.833  1.00  0.00    -0.205 F 
ATOM     82  C   UNL A   1      49.244  26.485  24.479  1.00  0.00     0.022 A 
BRANCH  80  83
ATOM     83  S   UNL A   1      48.530  27.496  22.031  1.00  0.00     0.127 S 
ATOM     84  O   UNL A   1      49.672  28.406  22.017  1.00  0.00    -0.237 OA
ATOM     85  O   UNL A   1      48.818  26.141  21.558  1.00  0.00    -0.237 OA
ATOM     86  O   UNL A   1      47.271  28.042  21.541  1.00  0.00    -0.744 OA
ENDBRANCH  80  83
ENDBRANCH  52  76
BRANCH  64  87
ATOM     87  C   UNL A   1      40.894  24.242  27.350  1.00  0.00     0.023 A 
ATOM     88  C   UNL A   1      41.525  23.128  27.936  1.00  0.00     0.012 A 
ATOM     89  C   UNL A   1      39.726  24.052  26.587  1.00  0.00     0.148 A 
ATOM     90  C   UNL A   1      41.017  21.843  27.747  1.00  0.00     0.002 A 
ATOM     91  C   UNL A   1      39.201  22.773  26.437  1.00  0.00     0.091 A 
ATOM     92  F   UNL A   1      39.150  25.121  26.018  1.00  0.00    -0.205 F 
ATOM     93  C   UNL A   1      39.850  21.667  27.009  1.00  0.00     0.022 A 
BRANCH  91  94
ATOM     94  S   UNL A   1      37.652  22.473  25.576  1.00  0.00     0.127 S 
ATOM     95  O   UNL A   1      36.675  23.004  26.524  1.00  0.00    -0.237 OA
ATOM     96  O   UNL A   1      37.810  23.265  24.355  1.00  0.00    -0.237 OA
ATOM     97  O   UNL A   1      37.599  21.034  25.352  1.00  0.00    -0.744 OA
ENDBRANCH  91  94
ENDBRANCH  64  87
ENDBRANCH  38  39
ENDBRANCH  31  33
ENDBRANCH  30  31
ENDBRANCH  29  30
ENDBRANCH   1  29
TORSDOF 19
ENDMDL
MODEL 3
REMARK VINA RESULT:     -11.3      5.482     10.815
REMARK SMILES CC1=C[C@H](C)[C@H](CN2C[C@@]34C=C[C@@H](O3)[C@H](C(=O)OCCOCCOC(=O)c3ccc(-c5c6nc(c(-c7cccc(S(=O)(=O)[O-])c7F)c7ccc([nH]7)c(-c7cccc(S(=O)(=O)[O-])c7F)c7nc(c(-c8cccc(S(=O)(=O)[O-])c8F)c8ccc5[nH]8)C=C7)C=C6)cc3)[C@@H]4C2=O)[C@H](C)C1
REMARK SMILES IDX 22 1 21 2 20 3 19 4 18 5 16 6 17 7 15 8 8 9 9 10 91 11 10 12
REMARK SMILES IDX 90 13 92 14 11 15 14 16 12 17 13 18 7 19 6 20 1 21 2 22 3 23
REMARK SMILES IDX 95 24 4 25 93 26 5 27 94 28 23 29 24 30 25 31 26 32 27 33
REMARK SMILES IDX 28 34 89 35 29 36 88 37 30 38 31 39 32 40 82 41 33 42 87 43
REMARK SMILES IDX 81 44 83 45 34 46 86 47 80 48 79 49 35 51 67 52 47 53 66 54
REMARK SMILES IDX 48 55 51 56 65 57 84 58 49 59 50 60 64 62 85 63 52 64 36 65
REMARK SMILES IDX 37 66 45 67 38 68 40 69 46 70 39 71 41 72 42 73 43 74 44 75
REMARK SMILES IDX 68 76 69 77 77 78 70 79 72 80 78 81 71 82 73 83 74 84 75 85
REMARK SMILES IDX 76 86 53 87 54 88 62 89 55 90 57 91 63 92 56 93 58 94 59 95
REMARK SMILES IDX 60 96 61 97
REMARK H PARENT 83 50 51 61
REMARK Flexibility Score: inf
ROOT
ATOM      1  C   UNL A   1      38.269  21.552  25.534  1.00  0.00     0.202 C 
ENDROOT
BRANCH   1   2
ATOM      2  O   UNL A   1      38.865  22.701  26.135  1.00  0.00    -0.374 OA
BRANCH   2   3
ATOM      3  C   UNL A   1      38.045  23.837  26.391  1.00  0.00     0.202 C 
BRANCH   3   4
ATOM      4  C   UNL A   1      36.624  23.863  25.804  1.00  0.00     0.261 C 
BRANCH   4   5
ATOM      5  O   UNL A   1      35.597  23.654  26.788  1.00  0.00    -0.463 OA
BRANCH   5   6
ATOM      6  C   UNL A   1      34.718  22.690  26.452  1.00  0.00     0.312 C 
ATOM      7  O   UNL A   1      34.279  21.832  27.217  1.00  0.00    -0.252 OA
BRANCH   6   8
ATOM      8  C   UNL A   1      34.191  22.761  25.055  1.00  0.00     0.148 C 
ATOM      9  N   UNL A   1      30.715  24.151  25.258  1.00  0.00    -0.339 N 
ATOM     10  C   UNL A   1      30.790  23.497  23.915  1.00  0.00     0.160 C 
ATOM     11  C   UNL A   1      31.784  23.585  26.051  1.00  0.00     0.230 C 
ATOM     12  C   UNL A   1      32.021  22.583  24.028  1.00  0.00     0.117 C 
ATOM     13  C   UNL A   1      32.837  23.395  25.022  1.00  0.00     0.133 C 
ATOM     14  O   UNL A   1      31.909  23.583  27.267  1.00  0.00    -0.274 OA
ATOM     15  C   UNL A   1      31.843  21.144  24.445  1.00  0.00     0.009 C 
ATOM     16  O   UNL A   1      33.071  22.412  23.060  1.00  0.00    -0.360 OA
ATOM     17  C   UNL A   1      33.063  20.593  24.427  1.00  0.00     0.004 C 
ATOM     18  C   UNL A   1      33.998  21.672  24.001  1.00  0.00     0.157 C 
BRANCH   9  19
ATOM     19  C   UNL A   1      30.828  25.592  25.375  1.00  0.00     0.124 C 
BRANCH  19  20
ATOM     20  C   UNL A   1      30.823  26.565  24.198  1.00  0.00     0.018 C 
ATOM     21  C   UNL A   1      29.395  30.685  23.164  1.00  0.00     0.039 C 
ATOM     22  C   UNL A   1      29.860  29.285  23.441  1.00  0.00    -0.077 C 
ATOM     23  C   UNL A   1      29.051  28.229  23.288  1.00  0.00    -0.025 C 
ATOM     24  C   UNL A   1      31.283  29.139  23.868  1.00  0.00     0.034 C 
ATOM     25  C   UNL A   1      29.414  26.791  23.562  1.00  0.00     0.014 C 
ATOM     26  C   UNL A   1      31.594  27.870  24.667  1.00  0.00    -0.005 C 
ATOM     27  C   UNL A   1      28.229  26.145  24.296  1.00  0.00     0.012 C 
ATOM     28  C   UNL A   1      31.518  28.197  26.182  1.00  0.00     0.008 C 
ENDBRANCH  19  20
ENDBRANCH   9  19
ENDBRANCH   6   8
ENDBRANCH   5   6
ENDBRANCH   4   5
ENDBRANCH   3   4
ENDBRANCH   2   3
ENDBRANCH   1   2
BRANCH   1  29
ATOM     29  C   UNL A   1      39.060  20.237  25.490  1.00  0.00     0.261 C 
BRANCH  29  30
ATOM     30  O   UNL A   1      39.914  20.042  26.633  1.00  0.00    -0.460 OA
BRANCH  30  31
ATOM     31  C   UNL A   1      41.228  19.901  26.323  1.00  0.00     0.338 C 
ATOM     32  O   UNL A   1      41.748  18.952  25.759  1.00  0.00    -0.246 OA
BRANCH  31  33
ATOM     33  C   UNL A   1      41.977  21.141  26.600  1.00  0.00     0.060 A 
ATOM     34  C   UNL A   1      42.200  21.477  27.942  1.00  0.00     0.016 A 
ATOM     35  C   UNL A   1      42.285  22.043  25.581  1.00  0.00     0.016 A 
ATOM     36  C   UNL A   1      42.682  22.743  28.272  1.00  0.00     0.010 A 
ATOM     37  C   UNL A   1      42.759  23.318  25.918  1.00  0.00     0.010 A 
ATOM     38  C   UNL A   1      42.916  23.689  27.266  1.00  0.00    -0.014 A 
BRANCH  38  39
ATOM     39  C   UNL A   1      43.174  25.101  27.645  1.00  0.00     0.031 A 
ATOM     40  C   UNL A   1      44.578  25.641  27.566  1.00  0.00     0.074 A 
ATOM     41  C   UNL A   1      42.168  25.904  28.033  1.00  0.00     0.049 A 
ATOM     42  N   UNL A   1      45.015  26.849  27.809  1.00  0.00    -0.248 NA
ATOM     43  C   UNL A   1      45.631  24.693  27.158  1.00  0.00     0.031 C 
ATOM     44  C   UNL A   1      40.770  25.499  28.166  1.00  0.00     0.029 A 
ATOM     45  N   UNL A   1      42.176  27.223  28.411  1.00  0.00    -0.354 N 
ATOM     46  C   UNL A   1      46.390  26.805  27.610  1.00  0.00     0.074 A 
ATOM     47  C   UNL A   1      46.719  25.447  27.232  1.00  0.00     0.031 C 
ATOM     48  C   UNL A   1      40.058  26.542  28.625  1.00  0.00     0.029 A 
ATOM     49  C   UNL A   1      40.948  27.684  28.825  1.00  0.00     0.049 A 
ATOM     50  H   UNL A   1      42.983  27.787  28.387  1.00  0.00     0.167 HD
ATOM     51  C   UNL A   1      47.296  27.806  27.711  1.00  0.00     0.034 A 
ATOM     52  C   UNL A   1      40.589  28.885  29.320  1.00  0.00     0.034 A 
ATOM     53  C   UNL A   1      46.968  29.164  28.054  1.00  0.00     0.049 A 
ATOM     54  C   UNL A   1      41.614  29.984  29.418  1.00  0.00     0.074 A 
ATOM     55  C   UNL A   1      47.806  30.264  28.108  1.00  0.00     0.029 A 
ATOM     56  N   UNL A   1      45.705  29.607  28.412  1.00  0.00    -0.354 N 
ATOM     57  N   UNL A   1      42.879  29.966  29.070  1.00  0.00    -0.248 NA
ATOM     58  C   UNL A   1      41.156  31.280  29.941  1.00  0.00     0.031 C 
ATOM     59  C   UNL A   1      47.053  31.369  28.517  1.00  0.00     0.029 A 
ATOM     60  C   UNL A   1      45.743  30.959  28.705  1.00  0.00     0.049 A 
ATOM     61  H   UNL A   1      44.899  29.043  28.453  1.00  0.00     0.167 HD
ATOM     62  C   UNL A   1      43.358  31.251  29.306  1.00  0.00     0.074 A 
ATOM     63  C   UNL A   1      42.242  32.029  29.803  1.00  0.00     0.031 C 
ATOM     64  C   UNL A   1      44.614  31.737  29.146  1.00  0.00     0.034 A 
BRANCH  51  65
ATOM     65  C   UNL A   1      48.734  27.485  27.406  1.00  0.00     0.023 A 
ATOM     66  C   UNL A   1      49.537  26.898  28.403  1.00  0.00     0.012 A 
ATOM     67  C   UNL A   1      49.267  27.693  26.119  1.00  0.00     0.148 A 
ATOM     68  C   UNL A   1      50.857  26.542  28.131  1.00  0.00     0.002 A 
ATOM     69  C   UNL A   1      50.573  27.304  25.846  1.00  0.00     0.091 A 
ATOM     70  F   UNL A   1      48.492  28.275  25.193  1.00  0.00    -0.205 F 
ATOM     71  C   UNL A   1      51.372  26.735  26.852  1.00  0.00     0.022 A 
BRANCH  69  72
ATOM     72  S   UNL A   1      51.302  27.454  24.210  1.00  0.00     0.127 S 
ATOM     73  O   UNL A   1      50.300  26.791  23.379  1.00  0.00    -0.237 OA
ATOM     74  O   UNL A   1      51.376  28.905  24.035  1.00  0.00    -0.237 OA
ATOM     75  O   UNL A   1      52.595  26.789  24.288  1.00  0.00    -0.744 OA
ENDBRANCH  69  72
ENDBRANCH  51  65
BRANCH  52  76
ATOM     76  C   UNL A   1      39.175  29.124  29.725  1.00  0.00     0.023 A 
ATOM     77  C   UNL A   1      38.751  28.766  31.018  1.00  0.00     0.012 A 
ATOM     78  C   UNL A   1      38.258  29.725  28.841  1.00  0.00     0.148 A 
ATOM     79  C   UNL A   1      37.431  28.980  31.417  1.00  0.00     0.002 A 
ATOM     80  C   UNL A   1      36.957  29.982  29.262  1.00  0.00     0.091 A 
ATOM     81  F   UNL A   1      38.673  30.034  27.605  1.00  0.00    -0.205 F 
ATOM     82  C   UNL A   1      36.539  29.598  30.545  1.00  0.00     0.022 A 
BRANCH  80  83
ATOM     83  S   UNL A   1      35.788  30.881  28.238  1.00  0.00     0.127 S 
ATOM     84  O   UNL A   1      35.551  29.935  27.151  1.00  0.00    -0.237 OA
ATOM     85  O   UNL A   1      34.658  31.067  29.150  1.00  0.00    -0.237 OA
ATOM     86  O   UNL A   1      36.468  32.117  27.874  1.00  0.00    -0.744 OA
ENDBRANCH  80  83
ENDBRANCH  52  76
BRANCH  64  87
ATOM     87  C   UNL A   1      44.857  33.182  29.497  1.00  0.00     0.023 A 
ATOM     88  C   UNL A   1      45.260  33.518  30.803  1.00  0.00     0.012 A 
ATOM     89  C   UNL A   1      44.765  34.192  28.520  1.00  0.00     0.148 A 
ATOM     90  C   UNL A   1      45.543  34.841  31.141  1.00  0.00     0.002 A 
ATOM     91  C   UNL A   1      45.089  35.503  28.852  1.00  0.00     0.091 A 
ATOM     92  F   UNL A   1      44.359  33.858  27.286  1.00  0.00    -0.205 F 
ATOM     93  C   UNL A   1      45.470  35.831  30.163  1.00  0.00     0.022 A 
BRANCH  91  94
ATOM     94  S   UNL A   1      45.107  36.820  27.629  1.00  0.00     0.127 S 
ATOM     95  O   UNL A   1      45.649  37.937  28.400  1.00  0.00    -0.237 OA
ATOM     96  O   UNL A   1      46.010  36.290  26.606  1.00  0.00    -0.237 OA
ATOM     97  O   UNL A   1      43.725  36.966  27.189  1.00  0.00    -0.744 OA
ENDBRANCH  91  94
ENDBRANCH  64  87
ENDBRANCH  38  39
ENDBRANCH  31  33
ENDBRANCH  30  31
ENDBRANCH  29  30
ENDBRANCH   1  29
TORSDOF 19
ENDMDL
