MODEL 1
REMARK VINA RESULT:     -11.8      0.000      0.000
REMARK SMILES O=C(OCCOCCOC(=O)c1cc(-c2cc(Cl)ccc2Cl)cc([N+](=O)[O-])c1)c1ccc(-c2c3nc(c(-c4cccc(S(=O)(=O)[O-])c4F)c4ccc([nH]4)c(-c4cccc(S(=O)(=O)[O-])c4F)c4nc(c(-c5cccc(S(=O)(=O)[O-])c5F)c5ccc2[nH]5)C=C4)C=C3)cc1
REMARK SMILES IDX 5 1 4 2 3 3 2 4 1 5 29 6 30 7 91 8 31 9 90 10 32 11 33 12
REMARK SMILES IDX 34 13 84 14 35 15 89 16 83 17 85 18 36 19 88 20 82 21 81 22
REMARK SMILES IDX 37 24 69 25 49 26 68 27 50 28 53 29 67 30 86 31 51 32 52 33
REMARK SMILES IDX 66 35 87 36 54 37 38 38 39 39 47 40 40 41 42 42 48 43 41 44
REMARK SMILES IDX 43 45 44 46 45 47 46 48 70 49 71 50 79 51 72 52 74 53 80 54
REMARK SMILES IDX 73 55 75 56 76 57 77 58 78 59 55 60 56 61 64 62 57 63 59 64
REMARK SMILES IDX 65 65 58 66 60 67 61 68 62 69 63 70 6 71 7 72 8 73 9 74
REMARK SMILES IDX 10 75 11 76 12 77 13 78 28 79 14 80 24 81 23 82 15 83 16 84
REMARK SMILES IDX 21 85 17 86 20 87 22 88 18 89 19 90 25 91 26 92 27 93
REMARK H PARENT 85 23 53 34
REMARK Flexibility Score: inf
ROOT
ATOM      1  C   UNL A   1      31.438  28.756  24.629  1.00  0.00     0.202 C 
ENDROOT
BRANCH   1   2
ATOM      2  C   UNL A   1      31.587  30.081  25.383  1.00  0.00     0.261 C 
BRANCH   2   3
ATOM      3  O   UNL A   1      32.936  30.244  25.842  1.00  0.00    -0.460 OA
BRANCH   3   4
ATOM      4  C   UNL A   1      33.373  30.984  26.887  1.00  0.00     0.338 C 
ATOM      5  O   UNL A   1      32.690  31.940  27.249  1.00  0.00    -0.246 OA
BRANCH   4   6
ATOM      6  C   UNL A   1      34.635  30.697  27.633  1.00  0.00     0.060 A 
ATOM      7  C   UNL A   1      35.056  29.428  28.042  1.00  0.00     0.016 A 
ATOM      8  C   UNL A   1      35.502  31.779  27.846  1.00  0.00     0.016 A 
ATOM      9  C   UNL A   1      36.275  29.222  28.659  1.00  0.00     0.010 A 
ATOM     10  C   UNL A   1      36.740  31.586  28.457  1.00  0.00     0.010 A 
ATOM     11  C   UNL A   1      37.116  30.302  28.869  1.00  0.00    -0.014 A 
BRANCH  11  12
ATOM     12  C   UNL A   1      38.321  30.074  29.669  1.00  0.00     0.031 A 
ATOM     13  C   UNL A   1      39.371  29.192  29.088  1.00  0.00     0.074 A 
ATOM     14  C   UNL A   1      38.473  30.715  30.838  1.00  0.00     0.049 A 
ATOM     15  N   UNL A   1      40.449  28.720  29.640  1.00  0.00    -0.248 NA
ATOM     16  C   UNL A   1      39.175  28.784  27.685  1.00  0.00     0.031 C 
ATOM     17  C   UNL A   1      37.533  31.693  31.391  1.00  0.00     0.029 A 
ATOM     18  N   UNL A   1      39.461  30.626  31.776  1.00  0.00    -0.354 N 
ATOM     19  C   UNL A   1      41.022  27.897  28.683  1.00  0.00     0.074 A 
ATOM     20  C   UNL A   1      40.193  27.960  27.502  1.00  0.00     0.031 C 
ATOM     21  C   UNL A   1      37.971  32.082  32.598  1.00  0.00     0.029 A 
ATOM     22  C   UNL A   1      39.173  31.324  32.924  1.00  0.00     0.049 A 
ATOM     23  H   UNL A   1      40.292  30.115  31.644  1.00  0.00     0.167 HD
ATOM     24  C   UNL A   1      42.131  27.137  28.808  1.00  0.00     0.034 A 
ATOM     25  C   UNL A   1      39.781  31.285  34.123  1.00  0.00     0.034 A 
ATOM     26  C   UNL A   1      42.909  27.105  30.012  1.00  0.00     0.049 A 
ATOM     27  C   UNL A   1      40.980  30.390  34.264  1.00  0.00     0.074 A 
ATOM     28  C   UNL A   1      44.042  26.370  30.292  1.00  0.00     0.029 A 
ATOM     29  N   UNL A   1      42.605  27.838  31.155  1.00  0.00    -0.354 N 
ATOM     30  N   UNL A   1      41.530  29.609  33.362  1.00  0.00    -0.248 NA
ATOM     31  C   UNL A   1      41.655  30.375  35.566  1.00  0.00     0.031 C 
ATOM     32  C   UNL A   1      44.396  26.624  31.621  1.00  0.00     0.029 A 
ATOM     33  C   UNL A   1      43.520  27.564  32.151  1.00  0.00     0.049 A 
ATOM     34  H   UNL A   1      41.848  28.461  31.241  1.00  0.00     0.167 HD
ATOM     35  C   UNL A   1      42.637  29.036  33.971  1.00  0.00     0.074 A 
ATOM     36  C   UNL A   1      42.678  29.563  35.324  1.00  0.00     0.031 C 
ATOM     37  C   UNL A   1      43.539  28.158  33.467  1.00  0.00     0.034 A 
BRANCH  24  38
ATOM     38  C   UNL A   1      42.480  26.243  27.649  1.00  0.00     0.023 A 
ATOM     39  C   UNL A   1      43.199  26.744  26.544  1.00  0.00     0.012 A 
ATOM     40  C   UNL A   1      42.028  24.910  27.630  1.00  0.00     0.148 A 
ATOM     41  C   UNL A   1      43.408  25.952  25.415  1.00  0.00     0.002 A 
ATOM     42  C   UNL A   1      42.285  24.110  26.523  1.00  0.00     0.091 A 
ATOM     43  F   UNL A   1      41.315  24.460  28.673  1.00  0.00    -0.205 F 
ATOM     44  C   UNL A   1      42.955  24.635  25.408  1.00  0.00     0.022 A 
BRANCH  42  45
ATOM     45  S   UNL A   1      41.803  22.383  26.451  1.00  0.00     0.127 S 
ATOM     46  O   UNL A   1      42.369  21.867  27.697  1.00  0.00    -0.237 OA
ATOM     47  O   UNL A   1      40.343  22.475  26.436  1.00  0.00    -0.237 OA
ATOM     48  O   UNL A   1      42.390  21.852  25.230  1.00  0.00    -0.744 OA
ENDBRANCH  42  45
ENDBRANCH  24  38
BRANCH  25  49
ATOM     49  C   UNL A   1      39.236  32.088  35.252  1.00  0.00     0.023 A 
ATOM     50  C   UNL A   1      38.252  31.539  36.093  1.00  0.00     0.012 A 
ATOM     51  C   UNL A   1      39.752  33.369  35.544  1.00  0.00     0.148 A 
ATOM     52  C   UNL A   1      37.783  32.254  37.198  1.00  0.00     0.002 A 
ATOM     53  C   UNL A   1      39.321  34.053  36.673  1.00  0.00     0.091 A 
ATOM     54  F   UNL A   1      40.685  33.875  34.725  1.00  0.00    -0.205 F 
ATOM     55  C   UNL A   1      38.326  33.503  37.495  1.00  0.00     0.022 A 
BRANCH  53  56
ATOM     56  S   UNL A   1      40.054  35.605  37.205  1.00  0.00     0.127 S 
ATOM     57  O   UNL A   1      39.656  36.507  36.128  1.00  0.00    -0.237 OA
ATOM     58  O   UNL A   1      39.375  35.833  38.482  1.00  0.00    -0.237 OA
ATOM     59  O   UNL A   1      41.484  35.352  37.318  1.00  0.00    -0.744 OA
ENDBRANCH  53  56
ENDBRANCH  25  49
BRANCH  37  60
ATOM     60  C   UNL A   1      44.690  27.764  34.346  1.00  0.00     0.023 A 
ATOM     61  C   UNL A   1      45.830  28.584  34.435  1.00  0.00     0.012 A 
ATOM     62  C   UNL A   1      44.558  26.650  35.198  1.00  0.00     0.148 A 
ATOM     63  C   UNL A   1      46.830  28.292  35.359  1.00  0.00     0.002 A 
ATOM     64  C   UNL A   1      45.529  26.402  36.155  1.00  0.00     0.091 A 
ATOM     65  F   UNL A   1      43.467  25.879  35.075  1.00  0.00    -0.205 F 
ATOM     66  C   UNL A   1      46.670  27.215  36.230  1.00  0.00     0.022 A 
BRANCH  64  67
ATOM     67  S   UNL A   1      45.344  25.118  37.394  1.00  0.00     0.127 S 
ATOM     68  O   UNL A   1      45.206  23.921  36.563  1.00  0.00    -0.237 OA
ATOM     69  O   UNL A   1      46.608  25.212  38.124  1.00  0.00    -0.237 OA
ATOM     70  O   UNL A   1      44.165  25.470  38.173  1.00  0.00    -0.744 OA
ENDBRANCH  64  67
ENDBRANCH  37  60
ENDBRANCH  11  12
ENDBRANCH   4   6
ENDBRANCH   3   4
ENDBRANCH   2   3
ENDBRANCH   1   2
BRANCH   1  71
ATOM     71  O   UNL A   1      30.444  28.752  23.606  1.00  0.00    -0.374 OA
BRANCH  71  72
ATOM     72  C   UNL A   1      30.228  27.512  22.921  1.00  0.00     0.202 C 
BRANCH  72  73
ATOM     73  C   UNL A   1      31.423  27.220  22.013  1.00  0.00     0.261 C 
BRANCH  73  74
ATOM     74  O   UNL A   1      31.694  25.810  22.077  1.00  0.00    -0.460 OA
BRANCH  74  75
ATOM     75  C   UNL A   1      33.003  25.507  22.260  1.00  0.00     0.338 C 
ATOM     76  O   UNL A   1      33.964  25.900  21.631  1.00  0.00    -0.246 OA
BRANCH  75  77
ATOM     77  C   UNL A   1      33.118  24.740  23.517  1.00  0.00     0.067 A 
ATOM     78  C   UNL A   1      34.127  23.772  23.608  1.00  0.00     0.025 A 
ATOM     79  C   UNL A   1      32.236  24.951  24.576  1.00  0.00     0.101 A 
ATOM     80  C   UNL A   1      34.272  22.988  24.761  1.00  0.00    -0.009 A 
ATOM     81  C   UNL A   1      32.364  24.160  25.719  1.00  0.00     0.270 A 
ATOM     82  C   UNL A   1      33.385  23.199  25.828  1.00  0.00     0.094 A 
BRANCH  80  83
ATOM     83  C   UNL A   1      35.231  21.875  24.768  1.00  0.00     0.002 A 
ATOM     84  C   UNL A   1      34.792  20.544  24.642  1.00  0.00     0.030 A 
ATOM     85  C   UNL A   1      36.610  22.107  24.957  1.00  0.00     0.048 A 
ATOM     86  C   UNL A   1      35.707  19.488  24.712  1.00  0.00     0.041 A 
ATOM     87  C   UNL A   1      37.516  21.046  25.029  1.00  0.00     0.023 A 
ATOM     88  Cl  UNL A   1      37.246  23.710  25.125  1.00  0.00    -0.084 Cl
ATOM     89  Cl  UNL A   1      35.156  17.864  24.562  1.00  0.00    -0.084 Cl
ATOM     90  C   UNL A   1      37.065  19.734  24.909  1.00  0.00     0.022 A 
ENDBRANCH  80  83
BRANCH  81  91
ATOM     91  N   UNL A   1      31.365  24.283  26.785  1.00  0.00     0.062 N 
ATOM     92  O   UNL A   1      30.724  25.341  26.853  1.00  0.00    -0.258 OA
ATOM     93  O   UNL A   1      31.230  23.328  27.562  1.00  0.00    -0.258 OA
ENDBRANCH  81  91
ENDBRANCH  75  77
ENDBRANCH  74  75
ENDBRANCH  73  74
ENDBRANCH  72  73
ENDBRANCH  71  72
ENDBRANCH   1  71
TORSDOF 19
ENDMDL
MODEL 2
REMARK VINA RESULT:     -11.4      5.147      8.002
REMARK SMILES O=C(OCCOCCOC(=O)c1cc(-c2cc(Cl)ccc2Cl)cc([N+](=O)[O-])c1)c1ccc(-c2c3nc(c(-c4cccc(S(=O)(=O)[O-])c4F)c4ccc([nH]4)c(-c4cccc(S(=O)(=O)[O-])c4F)c4nc(c(-c5cccc(S(=O)(=O)[O-])c5F)c5ccc2[nH]5)C=C4)C=C3)cc1
REMARK SMILES IDX 5 1 4 2 3 3 2 4 1 5 29 6 30 7 91 8 31 9 90 10 32 11 33 12
REMARK SMILES IDX 34 13 84 14 35 15 89 16 83 17 85 18 36 19 88 20 82 21 81 22
REMARK SMILES IDX 37 24 69 25 49 26 68 27 50 28 53 29 67 30 86 31 51 32 52 33
REMARK SMILES IDX 66 35 87 36 54 37 38 38 39 39 47 40 40 41 42 42 48 43 41 44
REMARK SMILES IDX 43 45 44 46 45 47 46 48 70 49 71 50 79 51 72 52 74 53 80 54
REMARK SMILES IDX 73 55 75 56 76 57 77 58 78 59 55 60 56 61 64 62 57 63 59 64
REMARK SMILES IDX 65 65 58 66 60 67 61 68 62 69 63 70 6 71 7 72 8 73 9 74
REMARK SMILES IDX 10 75 11 76 12 77 13 78 28 79 14 80 24 81 23 82 15 83 16 84
REMARK SMILES IDX 21 85 17 86 20 87 22 88 18 89 19 90 25 91 26 92 27 93
REMARK H PARENT 85 23 53 34
REMARK Flexibility Score: inf
ROOT
ATOM      1  C   UNL A   1      38.580  20.773  26.112  1.00  0.00     0.202 C 
ENDROOT
BRANCH   1   2
ATOM      2  C   UNL A   1      39.289  19.636  25.372  1.00  0.00     0.261 C 
BRANCH   2   3
ATOM      3  O   UNL A   1      40.661  19.556  25.781  1.00  0.00    -0.460 OA
BRANCH   3   4
ATOM      4  C   UNL A   1      41.238  20.119  26.867  1.00  0.00     0.338 C 
ATOM      5  O   UNL A   1      41.571  19.385  27.796  1.00  0.00    -0.246 OA
BRANCH   4   6
ATOM      6  C   UNL A   1      41.503  21.583  26.998  1.00  0.00     0.060 A 
ATOM      7  C   UNL A   1      41.350  22.522  25.973  1.00  0.00     0.016 A 
ATOM      8  C   UNL A   1      41.831  22.053  28.278  1.00  0.00     0.016 A 
ATOM      9  C   UNL A   1      41.534  23.875  26.183  1.00  0.00     0.010 A 
ATOM     10  C   UNL A   1      42.010  23.417  28.508  1.00  0.00     0.010 A 
ATOM     11  C   UNL A   1      41.867  24.322  27.451  1.00  0.00    -0.014 A 
BRANCH  11  12
ATOM     12  C   UNL A   1      42.214  25.737  27.598  1.00  0.00     0.031 A 
ATOM     13  C   UNL A   1      43.542  26.174  27.084  1.00  0.00     0.074 A 
ATOM     14  C   UNL A   1      41.314  26.591  28.109  1.00  0.00     0.049 A 
ATOM     15  N   UNL A   1      44.142  27.319  27.218  1.00  0.00    -0.248 NA
ATOM     16  C   UNL A   1      44.300  25.174  26.309  1.00  0.00     0.031 C 
ATOM     17  C   UNL A   1      39.949  26.238  28.506  1.00  0.00     0.029 A 
ATOM     18  N   UNL A   1      41.419  27.922  28.397  1.00  0.00    -0.354 N 
ATOM     19  C   UNL A   1      45.380  27.158  26.615  1.00  0.00     0.074 A 
ATOM     20  C   UNL A   1      45.434  25.817  26.083  1.00  0.00     0.031 C 
ATOM     21  C   UNL A   1      39.355  27.322  29.030  1.00  0.00     0.029 A 
ATOM     22  C   UNL A   1      40.325  28.411  29.069  1.00  0.00     0.049 A 
ATOM     23  H   UNL A   1      42.196  28.473  28.149  1.00  0.00     0.167 HD
ATOM     24  C   UNL A   1      46.386  28.056  26.547  1.00  0.00     0.034 A 
ATOM     25  C   UNL A   1      40.168  29.585  29.706  1.00  0.00     0.034 A 
ATOM     26  C   UNL A   1      46.279  29.373  27.107  1.00  0.00     0.049 A 
ATOM     27  C   UNL A   1      41.318  30.552  29.672  1.00  0.00     0.074 A 
ATOM     28  C   UNL A   1      47.220  30.382  27.133  1.00  0.00     0.029 A 
ATOM     29  N   UNL A   1      45.151  29.849  27.767  1.00  0.00    -0.354 N 
ATOM     30  N   UNL A   1      42.492  30.408  29.102  1.00  0.00    -0.248 NA
ATOM     31  C   UNL A   1      41.128  31.841  30.345  1.00  0.00     0.031 C 
ATOM     32  C   UNL A   1      46.675  31.452  27.850  1.00  0.00     0.029 A 
ATOM     33  C   UNL A   1      45.374  31.134  28.218  1.00  0.00     0.049 A 
ATOM     34  H   UNL A   1      44.316  29.344  27.893  1.00  0.00     0.167 HD
ATOM     35  C   UNL A   1      43.172  31.598  29.313  1.00  0.00     0.074 A 
ATOM     36  C   UNL A   1      42.273  32.455  30.066  1.00  0.00     0.031 C 
ATOM     37  C   UNL A   1      44.420  31.958  28.923  1.00  0.00     0.034 A 
BRANCH  24  38
ATOM     38  C   UNL A   1      47.676  27.591  25.930  1.00  0.00     0.023 A 
ATOM     39  C   UNL A   1      48.743  27.147  26.740  1.00  0.00     0.012 A 
ATOM     40  C   UNL A   1      47.852  27.660  24.536  1.00  0.00     0.148 A 
ATOM     41  C   UNL A   1      49.981  26.840  26.176  1.00  0.00     0.002 A 
ATOM     42  C   UNL A   1      49.073  27.303  23.976  1.00  0.00     0.091 A 
ATOM     43  F   UNL A   1      46.841  28.118  23.784  1.00  0.00    -0.205 F 
ATOM     44  C   UNL A   1      50.144  26.914  24.795  1.00  0.00     0.022 A 
BRANCH  42  45
ATOM     45  S   UNL A   1      49.355  27.299  22.203  1.00  0.00     0.127 S 
ATOM     46  O   UNL A   1      49.031  28.680  21.850  1.00  0.00    -0.237 OA
ATOM     47  O   UNL A   1      50.777  26.965  22.121  1.00  0.00    -0.237 OA
ATOM     48  O   UNL A   1      48.462  26.287  21.656  1.00  0.00    -0.744 OA
ENDBRANCH  42  45
ENDBRANCH  24  38
BRANCH  25  49
ATOM     49  C   UNL A   1      38.900  29.864  30.436  1.00  0.00     0.023 A 
ATOM     50  C   UNL A   1      38.738  29.418  31.759  1.00  0.00     0.012 A 
ATOM     51  C   UNL A   1      37.883  30.645  29.845  1.00  0.00     0.148 A 
ATOM     52  C   UNL A   1      37.583  29.733  32.478  1.00  0.00     0.002 A 
ATOM     53  C   UNL A   1      36.761  31.000  30.582  1.00  0.00     0.091 A 
ATOM     54  F   UNL A   1      38.056  31.054  28.580  1.00  0.00    -0.205 F 
ATOM     55  C   UNL A   1      36.602  30.534  31.896  1.00  0.00     0.022 A 
BRANCH  53  56
ATOM     56  S   UNL A   1      35.511  32.131  29.960  1.00  0.00     0.127 S 
ATOM     57  O   UNL A   1      36.301  33.329  29.689  1.00  0.00    -0.237 OA
ATOM     58  O   UNL A   1      35.035  31.424  28.771  1.00  0.00    -0.237 OA
ATOM     59  O   UNL A   1      34.525  32.258  31.024  1.00  0.00    -0.744 OA
ENDBRANCH  53  56
ENDBRANCH  25  49
BRANCH  37  60
ATOM     60  C   UNL A   1      44.867  33.357  29.233  1.00  0.00     0.023 A 
ATOM     61  C   UNL A   1      45.614  33.623  30.396  1.00  0.00     0.012 A 
ATOM     62  C   UNL A   1      44.669  34.373  28.279  1.00  0.00     0.148 A 
ATOM     63  C   UNL A   1      46.151  34.890  30.607  1.00  0.00     0.002 A 
ATOM     64  C   UNL A   1      45.256  35.614  28.468  1.00  0.00     0.091 A 
ATOM     65  F   UNL A   1      43.937  34.091  27.190  1.00  0.00    -0.205 F 
ATOM     66  C   UNL A   1      45.989  35.878  29.635  1.00  0.00     0.022 A 
BRANCH  64  67
ATOM     67  S   UNL A   1      45.205  36.897  27.215  1.00  0.00     0.127 S 
ATOM     68  O   UNL A   1      46.062  36.330  26.174  1.00  0.00    -0.237 OA
ATOM     69  O   UNL A   1      43.782  36.941  26.878  1.00  0.00    -0.237 OA
ATOM     70  O   UNL A   1      45.717  38.105  27.848  1.00  0.00    -0.744 OA
ENDBRANCH  64  67
ENDBRANCH  37  60
ENDBRANCH  11  12
ENDBRANCH   4   6
ENDBRANCH   3   4
ENDBRANCH   2   3
ENDBRANCH   1   2
BRANCH   1  71
ATOM     71  O   UNL A   1      37.894  21.704  25.275  1.00  0.00    -0.374 OA
BRANCH  71  72
ATOM     72  C   UNL A   1      37.928  23.079  25.675  1.00  0.00     0.202 C 
BRANCH  72  73
ATOM     73  C   UNL A   1      36.503  23.562  25.949  1.00  0.00     0.261 C 
BRANCH  73  74
ATOM     74  O   UNL A   1      35.817  23.656  24.690  1.00  0.00    -0.460 OA
BRANCH  74  75
ATOM     75  C   UNL A   1      34.688  24.405  24.730  1.00  0.00     0.338 C 
ATOM     76  O   UNL A   1      34.529  25.551  24.362  1.00  0.00    -0.246 OA
BRANCH  75  77
ATOM     77  C   UNL A   1      33.573  23.522  25.129  1.00  0.00     0.067 A 
ATOM     78  C   UNL A   1      33.623  22.179  24.732  1.00  0.00     0.025 A 
ATOM     79  C   UNL A   1      32.489  24.008  25.857  1.00  0.00     0.101 A 
ATOM     80  C   UNL A   1      32.584  21.294  25.049  1.00  0.00    -0.009 A 
ATOM     81  C   UNL A   1      31.442  23.136  26.160  1.00  0.00     0.270 A 
ATOM     82  C   UNL A   1      31.491  21.782  25.782  1.00  0.00     0.094 A 
BRANCH  80  83
ATOM     83  C   UNL A   1      32.585  19.937  24.484  1.00  0.00     0.002 A 
ATOM     84  C   UNL A   1      32.917  18.825  25.280  1.00  0.00     0.030 A 
ATOM     85  C   UNL A   1      32.307  19.720  23.117  1.00  0.00     0.048 A 
ATOM     86  C   UNL A   1      32.975  17.546  24.717  1.00  0.00     0.041 A 
ATOM     87  C   UNL A   1      32.370  18.439  22.564  1.00  0.00     0.023 A 
ATOM     88  Cl  UNL A   1      31.890  21.025  22.057  1.00  0.00    -0.084 Cl
ATOM     89  Cl  UNL A   1      33.389  16.195  25.701  1.00  0.00    -0.084 Cl
ATOM     90  C   UNL A   1      32.707  17.350  23.364  1.00  0.00     0.022 A 
ENDBRANCH  80  83
BRANCH  81  91
ATOM     91  N   UNL A   1      30.240  23.665  26.811  1.00  0.00     0.062 N 
ATOM     92  O   UNL A   1      29.894  24.820  26.526  1.00  0.00    -0.258 OA
ATOM     93  O   UNL A   1      29.650  22.933  27.616  1.00  0.00    -0.258 OA
ENDBRANCH  81  91
ENDBRANCH  75  77
ENDBRANCH  74  75
ENDBRANCH  73  74
ENDBRANCH  72  73
ENDBRANCH  71  72
ENDBRANCH   1  71
TORSDOF 19
ENDMDL
MODEL 3
REMARK VINA RESULT:     -11.3      4.797      7.782
REMARK SMILES O=C(OCCOCCOC(=O)c1cc(-c2cc(Cl)ccc2Cl)cc([N+](=O)[O-])c1)c1ccc(-c2c3nc(c(-c4cccc(S(=O)(=O)[O-])c4F)c4ccc([nH]4)c(-c4cccc(S(=O)(=O)[O-])c4F)c4nc(c(-c5cccc(S(=O)(=O)[O-])c5F)c5ccc2[nH]5)C=C4)C=C3)cc1
REMARK SMILES IDX 5 1 4 2 3 3 2 4 1 5 29 6 30 7 91 8 31 9 90 10 32 11 33 12
REMARK SMILES IDX 34 13 84 14 35 15 89 16 83 17 85 18 36 19 88 20 82 21 81 22
REMARK SMILES IDX 37 24 69 25 49 26 68 27 50 28 53 29 67 30 86 31 51 32 52 33
REMARK SMILES IDX 66 35 87 36 54 37 38 38 39 39 47 40 40 41 42 42 48 43 41 44
REMARK SMILES IDX 43 45 44 46 45 47 46 48 70 49 71 50 79 51 72 52 74 53 80 54
REMARK SMILES IDX 73 55 75 56 76 57 77 58 78 59 55 60 56 61 64 62 57 63 59 64
REMARK SMILES IDX 65 65 58 66 60 67 61 68 62 69 63 70 6 71 7 72 8 73 9 74
REMARK SMILES IDX 10 75 11 76 12 77 13 78 28 79 14 80 24 81 23 82 15 83 16 84
REMARK SMILES IDX 21 85 17 86 20 87 22 88 18 89 19 90 25 91 26 92 27 93
REMARK H PARENT 85 23 53 34
REMARK Flexibility Score: inf
ROOT
ATOM      1  C   UNL A   1      35.607  20.549  25.051  1.00  0.00     0.202 C 
ENDROOT
BRANCH   1   2
ATOM      2  C   UNL A   1      37.060  20.957  24.793  1.00  0.00     0.261 C 
BRANCH   2   3
ATOM      3  O   UNL A   1      37.761  21.114  26.034  1.00  0.00    -0.460 OA
BRANCH   3   4
ATOM      4  C   UNL A   1      39.060  21.442  26.217  1.00  0.00     0.338 C 
ATOM      5  O   UNL A   1      39.906  20.556  26.108  1.00  0.00    -0.246 OA
BRANCH   4   6
ATOM      6  C   UNL A   1      39.527  22.826  26.534  1.00  0.00     0.060 A 
ATOM      7  C   UNL A   1      38.893  24.002  26.122  1.00  0.00     0.016 A 
ATOM      8  C   UNL A   1      40.629  22.938  27.395  1.00  0.00     0.016 A 
ATOM      9  C   UNL A   1      39.332  25.250  26.519  1.00  0.00     0.010 A 
ATOM     10  C   UNL A   1      41.077  24.190  27.813  1.00  0.00     0.010 A 
ATOM     11  C   UNL A   1      40.427  25.345  27.362  1.00  0.00    -0.014 A 
BRANCH  11  12
ATOM     12  C   UNL A   1      40.961  26.681  27.627  1.00  0.00     0.031 A 
ATOM     13  C   UNL A   1      42.304  27.005  27.069  1.00  0.00     0.074 A 
ATOM     14  C   UNL A   1      40.209  27.579  28.283  1.00  0.00     0.049 A 
ATOM     15  N   UNL A   1      43.053  28.047  27.276  1.00  0.00    -0.248 NA
ATOM     16  C   UNL A   1      42.882  26.011  26.146  1.00  0.00     0.031 C 
ATOM     17  C   UNL A   1      38.835  27.355  28.736  1.00  0.00     0.029 A 
ATOM     18  N   UNL A   1      40.501  28.848  28.696  1.00  0.00    -0.354 N 
ATOM     19  C   UNL A   1      44.225  27.802  26.575  1.00  0.00     0.074 A 
ATOM     20  C   UNL A   1      44.074  26.530  25.908  1.00  0.00     0.031 C 
ATOM     21  C   UNL A   1      38.417  28.440  29.407  1.00  0.00     0.029 A 
ATOM     22  C   UNL A   1      39.519  29.391  29.488  1.00  0.00     0.049 A 
ATOM     23  H   UNL A   1      41.329  29.323  28.452  1.00  0.00     0.167 HD
ATOM     24  C   UNL A   1      45.333  28.571  26.529  1.00  0.00     0.034 A 
ATOM     25  C   UNL A   1      39.552  30.499  30.250  1.00  0.00     0.034 A 
ATOM     26  C   UNL A   1      45.429  29.822  27.225  1.00  0.00     0.049 A 
ATOM     27  C   UNL A   1      40.814  31.315  30.234  1.00  0.00     0.074 A 
ATOM     28  C   UNL A   1      46.492  30.699  27.288  1.00  0.00     0.029 A 
ATOM     29  N   UNL A   1      44.411  30.359  28.006  1.00  0.00    -0.354 N 
ATOM     30  N   UNL A   1      41.926  31.091  29.572  1.00  0.00    -0.248 NA
ATOM     31  C   UNL A   1      40.831  32.536  31.046  1.00  0.00     0.031 C 
ATOM     32  C   UNL A   1      46.132  31.743  28.145  1.00  0.00     0.029 A 
ATOM     33  C   UNL A   1      44.823  31.549  28.569  1.00  0.00     0.049 A 
ATOM     34  H   UNL A   1      43.526  29.949  28.139  1.00  0.00     0.167 HD
ATOM     35  C   UNL A   1      42.765  32.159  29.854  1.00  0.00     0.074 A 
ATOM     36  C   UNL A   1      42.028  33.032  30.751  1.00  0.00     0.031 C 
ATOM     37  C   UNL A   1      44.025  32.403  29.417  1.00  0.00     0.034 A 
BRANCH  24  38
ATOM     38  C   UNL A   1      46.515  28.021  25.780  1.00  0.00     0.023 A 
ATOM     39  C   UNL A   1      46.615  28.170  24.381  1.00  0.00     0.012 A 
ATOM     40  C   UNL A   1      47.502  27.289  26.466  1.00  0.00     0.148 A 
ATOM     41  C   UNL A   1      47.642  27.548  23.672  1.00  0.00     0.002 A 
ATOM     42  C   UNL A   1      48.553  26.716  25.759  1.00  0.00     0.091 A 
ATOM     43  F   UNL A   1      47.374  27.126  27.791  1.00  0.00    -0.205 F 
ATOM     44  C   UNL A   1      48.612  26.826  24.362  1.00  0.00     0.022 A 
BRANCH  42  45
ATOM     45  S   UNL A   1      49.886  25.827  26.568  1.00  0.00     0.127 S 
ATOM     46  O   UNL A   1      50.810  25.606  25.457  1.00  0.00    -0.237 OA
ATOM     47  O   UNL A   1      50.344  26.801  27.559  1.00  0.00    -0.237 OA
ATOM     48  O   UNL A   1      49.285  24.627  27.131  1.00  0.00    -0.744 OA
ENDBRANCH  42  45
ENDBRANCH  24  38
BRANCH  25  49
ATOM     49  C   UNL A   1      38.374  30.850  31.090  1.00  0.00     0.023 A 
ATOM     50  C   UNL A   1      38.335  30.465  32.442  1.00  0.00     0.012 A 
ATOM     51  C   UNL A   1      37.325  31.639  30.570  1.00  0.00     0.148 A 
ATOM     52  C   UNL A   1      37.269  30.849  33.259  1.00  0.00     0.002 A 
ATOM     53  C   UNL A   1      36.295  32.062  31.400  1.00  0.00     0.091 A 
ATOM     54  F   UNL A   1      37.379  31.989  29.277  1.00  0.00    -0.205 F 
ATOM     55  C   UNL A   1      36.257  31.657  32.743  1.00  0.00     0.022 A 
BRANCH  53  56
ATOM     56  S   UNL A   1      35.021  33.207  30.857  1.00  0.00     0.127 S 
ATOM     57  O   UNL A   1      34.070  33.142  31.964  1.00  0.00    -0.237 OA
ATOM     58  O   UNL A   1      35.769  34.462  30.761  1.00  0.00    -0.237 OA
ATOM     59  O   UNL A   1      34.539  32.692  29.584  1.00  0.00    -0.744 OA
ENDBRANCH  53  56
ENDBRANCH  25  49
BRANCH  37  60
ATOM     60  C   UNL A   1      44.667  33.694  29.836  1.00  0.00     0.023 A 
ATOM     61  C   UNL A   1      45.500  33.739  30.969  1.00  0.00     0.012 A 
ATOM     62  C   UNL A   1      44.553  34.823  29.002  1.00  0.00     0.148 A 
ATOM     63  C   UNL A   1      46.208  34.900  31.269  1.00  0.00     0.002 A 
ATOM     64  C   UNL A   1      45.307  35.953  29.275  1.00  0.00     0.091 A 
ATOM     65  F   UNL A   1      43.736  34.752  27.940  1.00  0.00    -0.205 F 
ATOM     66  C   UNL A   1      46.126  35.998  30.413  1.00  0.00     0.022 A 
BRANCH  64  67
ATOM     67  S   UNL A   1      45.359  37.360  28.162  1.00  0.00     0.127 S 
ATOM     68  O   UNL A   1      43.937  37.589  27.907  1.00  0.00    -0.237 OA
ATOM     69  O   UNL A   1      46.004  38.380  28.988  1.00  0.00    -0.237 OA
ATOM     70  O   UNL A   1      46.135  36.935  27.004  1.00  0.00    -0.744 OA
ENDBRANCH  64  67
ENDBRANCH  37  60
ENDBRANCH  11  12
ENDBRANCH   4   6
ENDBRANCH   3   4
ENDBRANCH   2   3
ENDBRANCH   1   2
BRANCH   1  71
ATOM     71  O   UNL A   1      34.819  21.520  25.738  1.00  0.00    -0.374 OA
BRANCH  71  72
ATOM     72  C   UNL A   1      34.323  21.153  27.030  1.00  0.00     0.202 C 
BRANCH  72  73
ATOM     73  C   UNL A   1      33.289  22.183  27.488  1.00  0.00     0.261 C 
BRANCH  73  74
ATOM     74  O   UNL A   1      32.163  22.105  26.600  1.00  0.00    -0.460 OA
BRANCH  74  75
ATOM     75  C   UNL A   1      31.420  23.239  26.549  1.00  0.00     0.338 C 
ATOM     76  O   UNL A   1      30.461  23.545  27.228  1.00  0.00    -0.246 OA
BRANCH  75  77
ATOM     77  C   UNL A   1      32.095  24.180  25.632  1.00  0.00     0.067 A 
ATOM     78  C   UNL A   1      32.351  25.479  26.094  1.00  0.00     0.025 A 
ATOM     79  C   UNL A   1      32.446  23.804  24.338  1.00  0.00     0.101 A 
ATOM     80  C   UNL A   1      32.959  26.432  25.265  1.00  0.00    -0.009 A 
ATOM     81  C   UNL A   1      33.037  24.754  23.502  1.00  0.00     0.270 A 
ATOM     82  C   UNL A   1      33.314  26.054  23.961  1.00  0.00     0.094 A 
BRANCH  80  83
ATOM     83  C   UNL A   1      33.069  27.825  25.717  1.00  0.00     0.002 A 
ATOM     84  C   UNL A   1      34.166  28.248  26.491  1.00  0.00     0.030 A 
ATOM     85  C   UNL A   1      32.052  28.762  25.435  1.00  0.00     0.048 A 
ATOM     86  C   UNL A   1      34.229  29.562  26.968  1.00  0.00     0.041 A 
ATOM     87  C   UNL A   1      32.123  30.071  25.918  1.00  0.00     0.023 A 
ATOM     88  Cl  UNL A   1      30.662  28.336  24.493  1.00  0.00    -0.084 Cl
ATOM     89  Cl  UNL A   1      35.574  30.065  27.918  1.00  0.00    -0.084 Cl
ATOM     90  C   UNL A   1      33.212  30.472  26.688  1.00  0.00     0.022 A 
ENDBRANCH  80  83
BRANCH  81  91
ATOM     91  N   UNL A   1      33.292  24.408  22.100  1.00  0.00     0.062 N 
ATOM     92  O   UNL A   1      32.981  25.240  21.237  1.00  0.00    -0.258 OA
ATOM     93  O   UNL A   1      33.792  23.301  21.861  1.00  0.00    -0.258 OA
ENDBRANCH  81  91
ENDBRANCH  75  77
ENDBRANCH  74  75
ENDBRANCH  73  74
ENDBRANCH  72  73
ENDBRANCH  71  72
ENDBRANCH   1  71
TORSDOF 19
ENDMDL
