MODEL 1
REMARK VINA RESULT:     -10.6      0.000      0.000
REMARK SMILES CC[NH2+][C@]1(C(=O)OCCOCCOC(=O)c2ccc(-c3c4nc(c(-c5cccc(S(=O)(=O)[O-])c5F)c5ccc([nH]5)c(-c5cccc(S(=O)(=O)[O-])c5F)c5nc(c(-c6cccc(S(=O)(=O)[O-])c6F)c6ccc3[nH]6)C=C5)C=C4)cc2)CCC[C@@H]1CC[N@H+]1C[C@H](C)OC[C@@H]1C
REMARK SMILES IDX 10 1 9 2 8 3 7 4 5 5 6 6 4 7 79 8 82 9 80 10 81 11 3 12 2 15
REMARK SMILES IDX 1 16 83 17 84 18 85 19 86 20 91 21 87 23 90 24 92 25 89 26
REMARK SMILES IDX 88 27 11 28 12 29 13 30 14 31 15 32 16 33 17 34 78 35 18 36
REMARK SMILES IDX 77 37 19 38 20 39 21 40 71 41 22 42 76 43 70 44 72 45 23 46
REMARK SMILES IDX 75 47 69 48 68 49 24 51 56 52 36 53 55 54 37 55 40 56 54 57
REMARK SMILES IDX 73 58 38 59 39 60 53 62 74 63 41 64 25 65 26 66 34 67 27 68
REMARK SMILES IDX 29 69 35 70 28 71 30 72 31 73 32 74 33 75 57 76 58 77 66 78
REMARK SMILES IDX 59 79 61 80 67 81 60 82 62 83 63 84 64 85 65 86 42 87 43 88
REMARK SMILES IDX 51 89 44 90 46 91 52 92 45 93 47 94 48 95 49 96 50 97
REMARK H PARENT 3 13 3 14 85 22 72 50 40 61
REMARK Flexibility Score: inf
ROOT
ATOM      1  O   UNL A   1      31.922  30.703  26.276  1.00  0.00    -0.374 OA
ENDROOT
BRANCH   1   2
ATOM      2  C   UNL A   1      32.470  29.779  27.211  1.00  0.00     0.202 C 
BRANCH   2   3
ATOM      3  C   UNL A   1      31.753  28.461  27.529  1.00  0.00     0.261 C 
BRANCH   3   4
ATOM      4  O   UNL A   1      32.335  27.309  26.891  1.00  0.00    -0.459 OA
BRANCH   4   5
ATOM      5  C   UNL A   1      31.496  26.678  26.020  1.00  0.00     0.368 C 
ATOM      6  O   UNL A   1      30.543  26.012  26.403  1.00  0.00    -0.245 OA
BRANCH   5   7
ATOM      7  C   UNL A   1      31.933  26.750  24.538  1.00  0.00     0.197 C 
ATOM      8  C   UNL A   1      31.719  25.297  24.001  1.00  0.00     0.081 C 
ATOM      9  C   UNL A   1      30.825  27.488  23.697  1.00  0.00     0.068 C 
ATOM     10  C   UNL A   1      31.514  25.439  22.501  1.00  0.00     0.008 C 
ATOM     11  C   UNL A   1      30.946  26.840  22.298  1.00  0.00     0.011 C 
BRANCH   7  12
ATOM     12  N   UNL A   1      33.389  26.994  24.248  1.00  0.00    -0.332 N 
ATOM     13  H   UNL A   1      33.908  26.582  25.024  1.00  0.00     0.347 HD
ATOM     14  H   UNL A   1      33.496  26.592  23.317  1.00  0.00     0.347 HD
BRANCH  12  15
ATOM     15  C   UNL A   1      33.917  28.331  24.069  1.00  0.00     0.257 C 
ATOM     16  C   UNL A   1      34.258  28.640  22.612  1.00  0.00     0.071 C 
ENDBRANCH  12  15
ENDBRANCH   7  12
BRANCH   9  17
ATOM     17  C   UNL A   1      30.734  29.033  23.574  1.00  0.00     0.072 C 
BRANCH  17  18
ATOM     18  C   UNL A   1      30.607  29.717  22.172  1.00  0.00     0.263 C 
BRANCH  18  19
ATOM     19  N   UNL A   1      29.306  30.170  21.682  1.00  0.00    -0.329 N 
ATOM     20  C   UNL A   1      28.187  29.279  21.948  1.00  0.00     0.294 C 
ATOM     21  C   UNL A   1      28.936  31.553  22.054  1.00  0.00     0.207 C 
ATOM     22  H   UNL A   1      29.475  30.153  20.677  1.00  0.00     0.348 HD
ATOM     23  C   UNL A   1      27.584  29.387  23.351  1.00  0.00     0.170 C 
ATOM     24  C   UNL A   1      28.257  31.637  23.448  1.00  0.00     0.225 C 
ATOM     25  C   UNL A   1      27.997  32.134  20.980  1.00  0.00     0.078 C 
ATOM     26  O   UNL A   1      27.149  30.730  23.592  1.00  0.00    -0.366 OA
ATOM     27  C   UNL A   1      26.400  28.434  23.475  1.00  0.00     0.045 C 
ENDBRANCH  18  19
ENDBRANCH  17  18
ENDBRANCH   9  17
ENDBRANCH   5   7
ENDBRANCH   4   5
ENDBRANCH   3   4
ENDBRANCH   2   3
ENDBRANCH   1   2
BRANCH   1  28
ATOM     28  C   UNL A   1      31.167  31.793  26.781  1.00  0.00     0.202 C 
BRANCH  28  29
ATOM     29  C   UNL A   1      31.770  33.207  26.836  1.00  0.00     0.261 C 
BRANCH  29  30
ATOM     30  O   UNL A   1      33.190  33.262  26.980  1.00  0.00    -0.460 OA
BRANCH  30  31
ATOM     31  C   UNL A   1      33.600  33.525  28.240  1.00  0.00     0.338 C 
ATOM     32  O   UNL A   1      32.973  34.099  29.123  1.00  0.00    -0.246 OA
BRANCH  31  33
ATOM     33  C   UNL A   1      34.870  32.833  28.490  1.00  0.00     0.060 A 
ATOM     34  C   UNL A   1      34.800  31.607  29.162  1.00  0.00     0.016 A 
ATOM     35  C   UNL A   1      36.098  33.385  28.118  1.00  0.00     0.016 A 
ATOM     36  C   UNL A   1      35.964  30.949  29.514  1.00  0.00     0.010 A 
ATOM     37  C   UNL A   1      37.273  32.730  28.495  1.00  0.00     0.010 A 
ATOM     38  C   UNL A   1      37.203  31.536  29.233  1.00  0.00    -0.014 A 
BRANCH  38  39
ATOM     39  C   UNL A   1      38.391  30.957  29.890  1.00  0.00     0.031 A 
ATOM     40  C   UNL A   1      38.656  31.303  31.329  1.00  0.00     0.074 A 
ATOM     41  C   UNL A   1      39.141  30.050  29.244  1.00  0.00     0.049 A 
ATOM     42  N   UNL A   1      39.546  30.807  32.146  1.00  0.00    -0.248 NA
ATOM     43  C   UNL A   1      37.800  32.340  31.929  1.00  0.00     0.031 C 
ATOM     44  C   UNL A   1      38.953  29.638  27.853  1.00  0.00     0.029 A 
ATOM     45  N   UNL A   1      40.204  29.304  29.678  1.00  0.00    -0.354 N 
ATOM     46  C   UNL A   1      39.370  31.480  33.348  1.00  0.00     0.074 A 
ATOM     47  C   UNL A   1      38.303  32.434  33.151  1.00  0.00     0.031 C 
ATOM     48  C   UNL A   1      39.877  28.714  27.545  1.00  0.00     0.029 A 
ATOM     49  C   UNL A   1      40.726  28.482  28.711  1.00  0.00     0.049 A 
ATOM     50  H   UNL A   1      40.560  29.353  30.595  1.00  0.00     0.167 HD
ATOM     51  C   UNL A   1      40.029  31.305  34.517  1.00  0.00     0.034 A 
ATOM     52  C   UNL A   1      41.776  27.640  28.766  1.00  0.00     0.034 A 
ATOM     53  C   UNL A   1      41.083  30.344  34.700  1.00  0.00     0.049 A 
ATOM     54  C   UNL A   1      42.497  27.470  30.076  1.00  0.00     0.074 A 
ATOM     55  C   UNL A   1      41.800  30.059  35.847  1.00  0.00     0.029 A 
ATOM     56  N   UNL A   1      41.580  29.516  33.703  1.00  0.00    -0.354 N 
ATOM     57  N   UNL A   1      42.253  28.037  31.235  1.00  0.00    -0.248 NA
ATOM     58  C   UNL A   1      43.609  26.511  30.099  1.00  0.00     0.031 C 
ATOM     59  C   UNL A   1      42.755  29.086  35.534  1.00  0.00     0.029 A 
ATOM     60  C   UNL A   1      42.602  28.730  34.204  1.00  0.00     0.049 A 
ATOM     61  H   UNL A   1      41.252  29.493  32.774  1.00  0.00     0.167 HD
ATOM     62  C   UNL A   1      43.156  27.477  32.131  1.00  0.00     0.074 A 
ATOM     63  C   UNL A   1      43.932  26.508  31.384  1.00  0.00     0.031 C 
ATOM     64  C   UNL A   1      43.337  27.746  33.449  1.00  0.00     0.034 A 
BRANCH  51  65
ATOM     65  C   UNL A   1      39.626  32.167  35.684  1.00  0.00     0.023 A 
ATOM     66  C   UNL A   1      40.166  33.462  35.823  1.00  0.00     0.012 A 
ATOM     67  C   UNL A   1      38.680  31.709  36.621  1.00  0.00     0.148 A 
ATOM     68  C   UNL A   1      39.795  34.276  36.895  1.00  0.00     0.002 A 
ATOM     69  C   UNL A   1      38.279  32.543  37.659  1.00  0.00     0.091 A 
ATOM     70  F   UNL A   1      38.198  30.466  36.488  1.00  0.00    -0.205 F 
ATOM     71  C   UNL A   1      38.843  33.820  37.804  1.00  0.00     0.022 A 
BRANCH  69  72
ATOM     72  S   UNL A   1      37.003  32.079  38.835  1.00  0.00     0.127 S 
ATOM     73  O   UNL A   1      35.858  32.844  38.346  1.00  0.00    -0.237 OA
ATOM     74  O   UNL A   1      36.906  30.634  38.628  1.00  0.00    -0.237 OA
ATOM     75  O   UNL A   1      37.502  32.474  40.145  1.00  0.00    -0.744 OA
ENDBRANCH  69  72
ENDBRANCH  51  65
BRANCH  52  76
ATOM     76  C   UNL A   1      42.177  26.871  27.555  1.00  0.00     0.023 A 
ATOM     77  C   UNL A   1      42.878  27.509  26.515  1.00  0.00     0.012 A 
ATOM     78  C   UNL A   1      41.882  25.498  27.445  1.00  0.00     0.148 A 
ATOM     79  C   UNL A   1      43.249  26.801  25.370  1.00  0.00     0.002 A 
ATOM     80  C   UNL A   1      42.307  24.785  26.331  1.00  0.00     0.091 A 
ATOM     81  F   UNL A   1      41.201  24.913  28.440  1.00  0.00    -0.205 F 
ATOM     82  C   UNL A   1      42.974  25.438  25.284  1.00  0.00     0.022 A 
BRANCH  80  83
ATOM     83  S   UNL A   1      42.112  23.005  26.198  1.00  0.00     0.127 S 
ATOM     84  O   UNL A   1      42.732  22.732  24.904  1.00  0.00    -0.237 OA
ATOM     85  O   UNL A   1      42.869  22.532  27.357  1.00  0.00    -0.237 OA
ATOM     86  O   UNL A   1      40.678  22.759  26.276  1.00  0.00    -0.744 OA
ENDBRANCH  80  83
ENDBRANCH  52  76
BRANCH  64  87
ATOM     87  C   UNL A   1      44.392  26.950  34.174  1.00  0.00     0.023 A 
ATOM     88  C   UNL A   1      44.061  25.720  34.776  1.00  0.00     0.012 A 
ATOM     89  C   UNL A   1      45.723  27.409  34.224  1.00  0.00     0.148 A 
ATOM     90  C   UNL A   1      45.025  24.987  35.466  1.00  0.00     0.002 A 
ATOM     91  C   UNL A   1      46.691  26.644  34.865  1.00  0.00     0.091 A 
ATOM     92  F   UNL A   1      46.019  28.589  33.660  1.00  0.00    -0.205 F 
ATOM     93  C   UNL A   1      46.340  25.444  35.503  1.00  0.00     0.022 A 
BRANCH  91  94
ATOM     94  S   UNL A   1      48.426  27.106  34.871  1.00  0.00     0.127 S 
ATOM     95  O   UNL A   1      48.684  27.316  33.448  1.00  0.00    -0.237 OA
ATOM     96  O   UNL A   1      48.421  28.328  35.676  1.00  0.00    -0.237 OA
ATOM     97  O   UNL A   1      49.134  25.989  35.481  1.00  0.00    -0.744 OA
ENDBRANCH  91  94
ENDBRANCH  64  87
ENDBRANCH  38  39
ENDBRANCH  31  33
ENDBRANCH  30  31
ENDBRANCH  29  30
ENDBRANCH  28  29
ENDBRANCH   1  28
TORSDOF 22
ENDMDL
MODEL 2
REMARK VINA RESULT:     -10.2      3.723      5.541
REMARK SMILES CC[NH2+][C@]1(C(=O)OCCOCCOC(=O)c2ccc(-c3c4nc(c(-c5cccc(S(=O)(=O)[O-])c5F)c5ccc([nH]5)c(-c5cccc(S(=O)(=O)[O-])c5F)c5nc(c(-c6cccc(S(=O)(=O)[O-])c6F)c6ccc3[nH]6)C=C5)C=C4)cc2)CCC[C@@H]1CC[N@H+]1C[C@H](C)OC[C@@H]1C
REMARK SMILES IDX 10 1 9 2 8 3 7 4 5 5 6 6 4 7 79 8 82 9 80 10 81 11 3 12 2 15
REMARK SMILES IDX 1 16 83 17 84 18 85 19 86 20 91 21 87 23 90 24 92 25 89 26
REMARK SMILES IDX 88 27 11 28 12 29 13 30 14 31 15 32 16 33 17 34 78 35 18 36
REMARK SMILES IDX 77 37 19 38 20 39 21 40 71 41 22 42 76 43 70 44 72 45 23 46
REMARK SMILES IDX 75 47 69 48 68 49 24 51 56 52 36 53 55 54 37 55 40 56 54 57
REMARK SMILES IDX 73 58 38 59 39 60 53 62 74 63 41 64 25 65 26 66 34 67 27 68
REMARK SMILES IDX 29 69 35 70 28 71 30 72 31 73 32 74 33 75 57 76 58 77 66 78
REMARK SMILES IDX 59 79 61 80 67 81 60 82 62 83 63 84 64 85 65 86 42 87 43 88
REMARK SMILES IDX 51 89 44 90 46 91 52 92 45 93 47 94 48 95 49 96 50 97
REMARK H PARENT 3 13 3 14 85 22 72 50 40 61
REMARK Flexibility Score: inf
ROOT
ATOM      1  O   UNL A   1      31.916  28.027  25.423  1.00  0.00    -0.374 OA
ENDROOT
BRANCH   1   2
ATOM      2  C   UNL A   1      31.185  27.195  26.318  1.00  0.00     0.202 C 
BRANCH   2   3
ATOM      3  C   UNL A   1      31.080  25.684  26.081  1.00  0.00     0.261 C 
BRANCH   3   4
ATOM      4  O   UNL A   1      32.258  24.948  26.458  1.00  0.00    -0.459 OA
BRANCH   4   5
ATOM      5  C   UNL A   1      32.342  23.711  25.888  1.00  0.00     0.368 C 
ATOM      6  O   UNL A   1      31.483  22.857  26.060  1.00  0.00    -0.245 OA
BRANCH   5   7
ATOM      7  C   UNL A   1      33.670  23.434  25.145  1.00  0.00     0.197 C 
ATOM      8  C   UNL A   1      34.715  24.348  25.865  1.00  0.00     0.081 C 
ATOM      9  C   UNL A   1      34.233  22.028  25.578  1.00  0.00     0.068 C 
ATOM     10  C   UNL A   1      36.065  23.685  25.640  1.00  0.00     0.008 C 
ATOM     11  C   UNL A   1      35.764  22.202  25.451  1.00  0.00     0.011 C 
BRANCH   7  12
ATOM     12  N   UNL A   1      33.777  23.881  23.712  1.00  0.00    -0.332 N 
ATOM     13  H   UNL A   1      34.247  24.786  23.729  1.00  0.00     0.347 HD
ATOM     14  H   UNL A   1      34.248  23.090  23.272  1.00  0.00     0.347 HD
BRANCH  12  15
ATOM     15  C   UNL A   1      32.605  24.046  22.876  1.00  0.00     0.257 C 
ATOM     16  C   UNL A   1      31.982  22.713  22.465  1.00  0.00     0.071 C 
ENDBRANCH  12  15
ENDBRANCH   7  12
BRANCH   9  17
ATOM     17  C   UNL A   1      33.782  20.691  24.931  1.00  0.00     0.072 C 
BRANCH  17  18
ATOM     18  C   UNL A   1      33.897  19.343  25.719  1.00  0.00     0.263 C 
BRANCH  18  19
ATOM     19  N   UNL A   1      33.035  18.211  25.384  1.00  0.00    -0.329 N 
ATOM     20  C   UNL A   1      32.267  18.346  24.156  1.00  0.00     0.294 C 
ATOM     21  C   UNL A   1      33.691  16.886  25.414  1.00  0.00     0.207 C 
ATOM     22  H   UNL A   1      32.375  18.250  26.160  1.00  0.00     0.348 HD
ATOM     23  C   UNL A   1      33.028  18.020  22.869  1.00  0.00     0.170 C 
ATOM     24  C   UNL A   1      34.395  16.536  24.075  1.00  0.00     0.225 C 
ATOM     25  C   UNL A   1      32.642  15.809  25.750  1.00  0.00     0.078 C 
ATOM     26  O   UNL A   1      33.536  16.681  22.930  1.00  0.00    -0.366 OA
ATOM     27  C   UNL A   1      32.094  18.159  21.671  1.00  0.00     0.045 C 
ENDBRANCH  18  19
ENDBRANCH  17  18
ENDBRANCH   9  17
ENDBRANCH   5   7
ENDBRANCH   4   5
ENDBRANCH   3   4
ENDBRANCH   2   3
ENDBRANCH   1   2
BRANCH   1  28
ATOM     28  C   UNL A   1      31.567  29.401  25.353  1.00  0.00     0.202 C 
BRANCH  28  29
ATOM     29  C   UNL A   1      32.054  30.390  26.426  1.00  0.00     0.261 C 
BRANCH  29  30
ATOM     30  O   UNL A   1      33.428  30.264  26.796  1.00  0.00    -0.460 OA
BRANCH  30  31
ATOM     31  C   UNL A   1      33.894  31.301  27.524  1.00  0.00     0.338 C 
ATOM     32  O   UNL A   1      33.262  32.268  27.932  1.00  0.00    -0.246 OA
BRANCH  31  33
ATOM     33  C   UNL A   1      35.268  31.014  27.952  1.00  0.00     0.060 A 
ATOM     34  C   UNL A   1      35.559  29.687  28.290  1.00  0.00     0.016 A 
ATOM     35  C   UNL A   1      36.234  32.016  28.062  1.00  0.00     0.016 A 
ATOM     36  C   UNL A   1      36.807  29.364  28.792  1.00  0.00     0.010 A 
ATOM     37  C   UNL A   1      37.486  31.693  28.590  1.00  0.00     0.010 A 
ATOM     38  C   UNL A   1      37.754  30.374  28.997  1.00  0.00    -0.014 A 
BRANCH  38  39
ATOM     39  C   UNL A   1      38.940  30.036  29.809  1.00  0.00     0.031 A 
ATOM     40  C   UNL A   1      39.021  30.562  31.214  1.00  0.00     0.074 A 
ATOM     41  C   UNL A   1      39.857  29.179  29.333  1.00  0.00     0.049 A 
ATOM     42  N   UNL A   1      39.887  30.282  32.151  1.00  0.00    -0.248 NA
ATOM     43  C   UNL A   1      37.986  31.528  31.621  1.00  0.00     0.031 C 
ATOM     44  C   UNL A   1      39.855  28.604  27.988  1.00  0.00     0.029 A 
ATOM     45  N   UNL A   1      40.962  28.637  29.933  1.00  0.00    -0.354 N 
ATOM     46  C   UNL A   1      39.514  31.045  33.250  1.00  0.00     0.074 A 
ATOM     47  C   UNL A   1      38.356  31.817  32.860  1.00  0.00     0.031 C 
ATOM     48  C   UNL A   1      40.915  27.789  27.863  1.00  0.00     0.029 A 
ATOM     49  C   UNL A   1      41.674  27.799  29.111  1.00  0.00     0.049 A 
ATOM     50  H   UNL A   1      41.221  28.829  30.863  1.00  0.00     0.167 HD
ATOM     51  C   UNL A   1      40.077  31.084  34.479  1.00  0.00     0.034 A 
ATOM     52  C   UNL A   1      42.813  27.121  29.346  1.00  0.00     0.034 A 
ATOM     53  C   UNL A   1      41.224  30.303  34.856  1.00  0.00     0.049 A 
ATOM     54  C   UNL A   1      43.423  27.189  30.719  1.00  0.00     0.074 A 
ATOM     55  C   UNL A   1      41.861  30.241  36.081  1.00  0.00     0.029 A 
ATOM     56  N   UNL A   1      41.915  29.453  34.003  1.00  0.00    -0.354 N 
ATOM     57  N   UNL A   1      43.001  27.833  31.782  1.00  0.00    -0.248 NA
ATOM     58  C   UNL A   1      44.643  26.400  30.941  1.00  0.00     0.031 C 
ATOM     59  C   UNL A   1      42.959  29.381  35.958  1.00  0.00     0.029 A 
ATOM     60  C   UNL A   1      42.978  28.872  34.670  1.00  0.00     0.049 A 
ATOM     61  H   UNL A   1      41.682  29.288  33.060  1.00  0.00     0.167 HD
ATOM     62  C   UNL A   1      43.880  27.500  32.806  1.00  0.00     0.074 A 
ATOM     63  C   UNL A   1      44.841  26.575  32.239  1.00  0.00     0.031 C 
ATOM     64  C   UNL A   1      43.901  27.926  34.094  1.00  0.00     0.034 A 
BRANCH  51  65
ATOM     65  C   UNL A   1      39.458  31.999  35.504  1.00  0.00     0.023 A 
ATOM     66  C   UNL A   1      38.427  31.526  36.340  1.00  0.00     0.012 A 
ATOM     67  C   UNL A   1      39.928  33.317  35.665  1.00  0.00     0.148 A 
ATOM     68  C   UNL A   1      37.850  32.359  37.299  1.00  0.00     0.002 A 
ATOM     69  C   UNL A   1      39.382  34.126  36.655  1.00  0.00     0.091 A 
ATOM     70  F   UNL A   1      40.890  33.758  34.843  1.00  0.00    -0.205 F 
ATOM     71  C   UNL A   1      38.336  33.654  37.464  1.00  0.00     0.022 A 
BRANCH  69  72
ATOM     72  S   UNL A   1      39.991  35.781  36.998  1.00  0.00     0.127 S 
ATOM     73  O   UNL A   1      39.230  36.133  38.196  1.00  0.00    -0.237 OA
ATOM     74  O   UNL A   1      41.416  35.541  37.230  1.00  0.00    -0.237 OA
ATOM     75  O   UNL A   1      39.692  36.574  35.814  1.00  0.00    -0.744 OA
ENDBRANCH  69  72
ENDBRANCH  51  65
BRANCH  52  76
ATOM     76  C   UNL A   1      43.422  26.293  28.267  1.00  0.00     0.023 A 
ATOM     77  C   UNL A   1      42.941  24.993  28.020  1.00  0.00     0.012 A 
ATOM     78  C   UNL A   1      44.464  26.804  27.469  1.00  0.00     0.148 A 
ATOM     79  C   UNL A   1      43.510  24.204  27.019  1.00  0.00     0.002 A 
ATOM     80  C   UNL A   1      44.986  26.036  26.436  1.00  0.00     0.091 A 
ATOM     81  F   UNL A   1      44.917  28.038  27.731  1.00  0.00    -0.205 F 
ATOM     82  C   UNL A   1      44.524  24.729  26.221  1.00  0.00     0.022 A 
BRANCH  80  83
ATOM     83  S   UNL A   1      46.197  26.681  25.278  1.00  0.00     0.127 S 
ATOM     84  O   UNL A   1      47.311  27.012  26.163  1.00  0.00    -0.237 OA
ATOM     85  O   UNL A   1      46.423  25.528  24.406  1.00  0.00    -0.237 OA
ATOM     86  O   UNL A   1      45.553  27.812  24.623  1.00  0.00    -0.744 OA
ENDBRANCH  80  83
ENDBRANCH  52  76
BRANCH  64  87
ATOM     87  C   UNL A   1      44.977  27.363  34.987  1.00  0.00     0.023 A 
ATOM     88  C   UNL A   1      46.183  28.069  35.173  1.00  0.00     0.012 A 
ATOM     89  C   UNL A   1      44.775  26.147  35.669  1.00  0.00     0.148 A 
ATOM     90  C   UNL A   1      47.192  27.547  35.980  1.00  0.00     0.002 A 
ATOM     91  C   UNL A   1      45.764  25.661  36.517  1.00  0.00     0.091 A 
ATOM     92  F   UNL A   1      43.630  25.480  35.468  1.00  0.00    -0.205 F 
ATOM     93  C   UNL A   1      46.979  26.349  36.659  1.00  0.00     0.022 A 
BRANCH  91  94
ATOM     94  S   UNL A   1      45.532  24.181  37.507  1.00  0.00     0.127 S 
ATOM     95  O   UNL A   1      46.883  23.947  38.013  1.00  0.00    -0.237 OA
ATOM     96  O   UNL A   1      44.571  24.628  38.516  1.00  0.00    -0.237 OA
ATOM     97  O   UNL A   1      45.017  23.168  36.595  1.00  0.00    -0.744 OA
ENDBRANCH  91  94
ENDBRANCH  64  87
ENDBRANCH  38  39
ENDBRANCH  31  33
ENDBRANCH  30  31
ENDBRANCH  29  30
ENDBRANCH  28  29
ENDBRANCH   1  28
TORSDOF 22
ENDMDL
MODEL 3
REMARK VINA RESULT:      -9.9      2.260      3.919
REMARK SMILES CC[NH2+][C@]1(C(=O)OCCOCCOC(=O)c2ccc(-c3c4nc(c(-c5cccc(S(=O)(=O)[O-])c5F)c5ccc([nH]5)c(-c5cccc(S(=O)(=O)[O-])c5F)c5nc(c(-c6cccc(S(=O)(=O)[O-])c6F)c6ccc3[nH]6)C=C5)C=C4)cc2)CCC[C@@H]1CC[N@H+]1C[C@H](C)OC[C@@H]1C
REMARK SMILES IDX 10 1 9 2 8 3 7 4 5 5 6 6 4 7 79 8 82 9 80 10 81 11 3 12 2 15
REMARK SMILES IDX 1 16 83 17 84 18 85 19 86 20 91 21 87 23 90 24 92 25 89 26
REMARK SMILES IDX 88 27 11 28 12 29 13 30 14 31 15 32 16 33 17 34 78 35 18 36
REMARK SMILES IDX 77 37 19 38 20 39 21 40 71 41 22 42 76 43 70 44 72 45 23 46
REMARK SMILES IDX 75 47 69 48 68 49 24 51 56 52 36 53 55 54 37 55 40 56 54 57
REMARK SMILES IDX 73 58 38 59 39 60 53 62 74 63 41 64 25 65 26 66 34 67 27 68
REMARK SMILES IDX 29 69 35 70 28 71 30 72 31 73 32 74 33 75 57 76 58 77 66 78
REMARK SMILES IDX 59 79 61 80 67 81 60 82 62 83 63 84 64 85 65 86 42 87 43 88
REMARK SMILES IDX 51 89 44 90 46 91 52 92 45 93 47 94 48 95 49 96 50 97
REMARK H PARENT 3 13 3 14 85 22 72 50 40 61
REMARK Flexibility Score: inf
ROOT
ATOM      1  O   UNL A   1      31.742  30.558  26.281  1.00  0.00    -0.374 OA
ENDROOT
BRANCH   1   2
ATOM      2  C   UNL A   1      32.598  29.702  27.030  1.00  0.00     0.202 C 
BRANCH   2   3
ATOM      3  C   UNL A   1      32.313  28.199  27.135  1.00  0.00     0.261 C 
BRANCH   3   4
ATOM      4  O   UNL A   1      32.769  27.436  26.003  1.00  0.00    -0.459 OA
BRANCH   4   5
ATOM      5  C   UNL A   1      31.761  26.944  25.225  1.00  0.00     0.368 C 
ATOM      6  O   UNL A   1      30.829  26.307  25.697  1.00  0.00    -0.245 OA
BRANCH   5   7
ATOM      7  C   UNL A   1      31.973  27.128  23.704  1.00  0.00     0.197 C 
ATOM      8  C   UNL A   1      33.084  28.224  23.599  1.00  0.00     0.081 C 
ATOM      9  C   UNL A   1      32.783  25.904  23.134  1.00  0.00     0.068 C 
ATOM     10  C   UNL A   1      33.761  27.997  22.256  1.00  0.00     0.008 C 
ATOM     11  C   UNL A   1      33.569  26.515  21.950  1.00  0.00     0.011 C 
BRANCH   7  12
ATOM     12  N   UNL A   1      30.846  27.726  22.907  1.00  0.00    -0.332 N 
ATOM     13  H   UNL A   1      31.252  28.492  22.369  1.00  0.00     0.347 HD
ATOM     14  H   UNL A   1      30.478  26.915  22.409  1.00  0.00     0.347 HD
BRANCH  12  15
ATOM     15  C   UNL A   1      29.660  28.259  23.546  1.00  0.00     0.257 C 
ATOM     16  C   UNL A   1      28.497  27.270  23.549  1.00  0.00     0.071 C 
ENDBRANCH  12  15
ENDBRANCH   7  12
BRANCH   9  17
ATOM     17  C   UNL A   1      32.121  24.564  22.713  1.00  0.00     0.072 C 
BRANCH  17  18
ATOM     18  C   UNL A   1      32.997  23.307  22.391  1.00  0.00     0.263 C 
BRANCH  18  19
ATOM     19  N   UNL A   1      33.279  22.314  23.426  1.00  0.00    -0.329 N 
ATOM     20  C   UNL A   1      34.573  22.437  24.081  1.00  0.00     0.294 C 
ATOM     21  C   UNL A   1      32.222  22.145  24.446  1.00  0.00     0.207 C 
ATOM     22  H   UNL A   1      33.305  21.466  22.861  1.00  0.00     0.348 HD
ATOM     23  C   UNL A   1      34.643  23.477  25.200  1.00  0.00     0.170 C 
ATOM     24  C   UNL A   1      32.351  23.159  25.615  1.00  0.00     0.225 C 
ATOM     25  C   UNL A   1      32.272  20.706  24.995  1.00  0.00     0.078 C 
ATOM     26  O   UNL A   1      33.664  23.180  26.204  1.00  0.00    -0.366 OA
ATOM     27  C   UNL A   1      36.035  23.468  25.824  1.00  0.00     0.045 C 
ENDBRANCH  18  19
ENDBRANCH  17  18
ENDBRANCH   9  17
ENDBRANCH   5   7
ENDBRANCH   4   5
ENDBRANCH   3   4
ENDBRANCH   2   3
ENDBRANCH   1   2
BRANCH   1  28
ATOM     28  C   UNL A   1      31.146  31.658  26.951  1.00  0.00     0.202 C 
BRANCH  28  29
ATOM     29  C   UNL A   1      31.657  33.090  26.717  1.00  0.00     0.261 C 
BRANCH  29  30
ATOM     30  O   UNL A   1      33.067  33.268  26.862  1.00  0.00    -0.460 OA
BRANCH  30  31
ATOM     31  C   UNL A   1      33.457  33.521  28.129  1.00  0.00     0.338 C 
ATOM     32  O   UNL A   1      32.810  34.071  29.013  1.00  0.00    -0.246 OA
BRANCH  31  33
ATOM     33  C   UNL A   1      34.737  32.849  28.384  1.00  0.00     0.060 A 
ATOM     34  C   UNL A   1      34.687  31.638  29.084  1.00  0.00     0.016 A 
ATOM     35  C   UNL A   1      35.956  33.407  27.991  1.00  0.00     0.016 A 
ATOM     36  C   UNL A   1      35.861  31.001  29.442  1.00  0.00     0.010 A 
ATOM     37  C   UNL A   1      37.142  32.774  28.373  1.00  0.00     0.010 A 
ATOM     38  C   UNL A   1      37.091  31.596  29.137  1.00  0.00    -0.014 A 
BRANCH  38  39
ATOM     39  C   UNL A   1      38.291  31.045  29.798  1.00  0.00     0.031 A 
ATOM     40  C   UNL A   1      38.568  31.433  31.224  1.00  0.00     0.074 A 
ATOM     41  C   UNL A   1      39.042  30.127  29.170  1.00  0.00     0.049 A 
ATOM     42  N   UNL A   1      39.470  30.968  32.045  1.00  0.00    -0.248 NA
ATOM     43  C   UNL A   1      37.708  32.480  31.804  1.00  0.00     0.031 C 
ATOM     44  C   UNL A   1      38.843  29.675  27.792  1.00  0.00     0.029 A 
ATOM     45  N   UNL A   1      40.116  29.402  29.613  1.00  0.00    -0.354 N 
ATOM     46  C   UNL A   1      39.301  31.672  33.230  1.00  0.00     0.074 A 
ATOM     47  C   UNL A   1      38.223  32.611  33.017  1.00  0.00     0.031 C 
ATOM     48  C   UNL A   1      39.773  28.751  27.500  1.00  0.00     0.029 A 
ATOM     49  C   UNL A   1      40.635  28.558  28.663  1.00  0.00     0.049 A 
ATOM     50  H   UNL A   1      40.481  29.480  30.524  1.00  0.00     0.167 HD
ATOM     51  C   UNL A   1      39.973  31.535  34.396  1.00  0.00     0.034 A 
ATOM     52  C   UNL A   1      41.693  27.727  28.731  1.00  0.00     0.034 A 
ATOM     53  C   UNL A   1      41.037  30.588  34.595  1.00  0.00     0.049 A 
ATOM     54  C   UNL A   1      42.428  27.600  30.037  1.00  0.00     0.074 A 
ATOM     55  C   UNL A   1      41.769  30.342  35.742  1.00  0.00     0.029 A 
ATOM     56  N   UNL A   1      41.531  29.738  33.616  1.00  0.00    -0.354 N 
ATOM     57  N   UNL A   1      42.191  28.196  31.182  1.00  0.00    -0.248 NA
ATOM     58  C   UNL A   1      43.549  26.651  30.075  1.00  0.00     0.031 C 
ATOM     59  C   UNL A   1      42.729  29.368  35.446  1.00  0.00     0.029 A 
ATOM     60  C   UNL A   1      42.565  28.975  34.127  1.00  0.00     0.049 A 
ATOM     61  H   UNL A   1      41.194  29.686  32.692  1.00  0.00     0.167 HD
ATOM     62  C   UNL A   1      43.108  27.670  32.084  1.00  0.00     0.074 A 
ATOM     63  C   UNL A   1      43.885  26.686  31.356  1.00  0.00     0.031 C 
ATOM     64  C   UNL A   1      43.301  27.976  33.393  1.00  0.00     0.034 A 
BRANCH  51  65
ATOM     65  C   UNL A   1      39.574  32.426  35.543  1.00  0.00     0.023 A 
ATOM     66  C   UNL A   1      38.765  31.919  36.581  1.00  0.00     0.012 A 
ATOM     67  C   UNL A   1      40.035  33.755  35.613  1.00  0.00     0.148 A 
ATOM     68  C   UNL A   1      38.395  32.731  37.654  1.00  0.00     0.002 A 
ATOM     69  C   UNL A   1      39.702  34.543  36.709  1.00  0.00     0.091 A 
ATOM     70  F   UNL A   1      40.780  34.227  34.604  1.00  0.00    -0.205 F 
ATOM     71  C   UNL A   1      38.873  34.037  37.723  1.00  0.00     0.022 A 
BRANCH  69  72
ATOM     72  S   UNL A   1      40.330  36.211  36.929  1.00  0.00     0.127 S 
ATOM     73  O   UNL A   1      39.585  36.654  38.106  1.00  0.00    -0.237 OA
ATOM     74  O   UNL A   1      41.755  35.972  37.163  1.00  0.00    -0.237 OA
ATOM     75  O   UNL A   1      40.027  36.921  35.695  1.00  0.00    -0.744 OA
ENDBRANCH  69  72
ENDBRANCH  51  65
BRANCH  52  76
ATOM     76  C   UNL A   1      42.088  26.928  27.537  1.00  0.00     0.023 A 
ATOM     77  C   UNL A   1      42.787  27.539  26.479  1.00  0.00     0.012 A 
ATOM     78  C   UNL A   1      41.791  25.553  27.461  1.00  0.00     0.148 A 
ATOM     79  C   UNL A   1      43.152  26.803  25.351  1.00  0.00     0.002 A 
ATOM     80  C   UNL A   1      42.210  24.813  26.363  1.00  0.00     0.091 A 
ATOM     81  F   UNL A   1      41.112  24.994  28.473  1.00  0.00    -0.205 F 
ATOM     82  C   UNL A   1      42.874  25.440  25.298  1.00  0.00     0.022 A 
BRANCH  80  83
ATOM     83  S   UNL A   1      42.012  23.031  26.274  1.00  0.00     0.127 S 
ATOM     84  O   UNL A   1      42.605  22.728  24.974  1.00  0.00    -0.237 OA
ATOM     85  O   UNL A   1      42.794  22.583  27.428  1.00  0.00    -0.237 OA
ATOM     86  O   UNL A   1      40.580  22.788  26.388  1.00  0.00    -0.744 OA
ENDBRANCH  80  83
ENDBRANCH  52  76
BRANCH  64  87
ATOM     87  C   UNL A   1      44.370  27.210  34.128  1.00  0.00     0.023 A 
ATOM     88  C   UNL A   1      45.602  27.826  34.428  1.00  0.00     0.012 A 
ATOM     89  C   UNL A   1      44.137  25.887  34.551  1.00  0.00     0.148 A 
ATOM     90  C   UNL A   1      46.605  27.118  35.089  1.00  0.00     0.002 A 
ATOM     91  C   UNL A   1      45.121  25.207  35.260  1.00  0.00     0.091 A 
ATOM     92  F   UNL A   1      42.967  25.310  34.243  1.00  0.00    -0.205 F 
ATOM     93  C   UNL A   1      46.361  25.814  35.513  1.00  0.00     0.022 A 
BRANCH  91  94
ATOM     94  S   UNL A   1      44.854  23.564  35.931  1.00  0.00     0.127 S 
ATOM     95  O   UNL A   1      45.741  22.754  35.100  1.00  0.00    -0.237 OA
ATOM     96  O   UNL A   1      45.290  23.718  37.319  1.00  0.00    -0.237 OA
ATOM     97  O   UNL A   1      43.430  23.297  35.777  1.00  0.00    -0.744 OA
ENDBRANCH  91  94
ENDBRANCH  64  87
ENDBRANCH  38  39
ENDBRANCH  31  33
ENDBRANCH  30  31
ENDBRANCH  29  30
ENDBRANCH  28  29
ENDBRANCH   1  28
TORSDOF 22
ENDMDL
