MODEL 1
REMARK VINA RESULT:     -10.9      0.000      0.000
REMARK SMILES COc1ccc([C@H](CC(=O)OCCOCCOC(=O)c2ccc(-c3c4nc(c(-c5cccc(S(=O)(=O)[O-])c5F)c5ccc([nH]5)c(-c5cccc(S(=O)(=O)[O-])c5F)c5nc(c(-c6cccc(S(=O)(=O)[O-])c6F)c6ccc3[nH]6)C=C5)C=C4)cc2)NC(C)=O)cc1
REMARK SMILES IDX 14 1 13 2 12 3 11 4 9 5 10 6 8 7 7 8 6 9 3 10 4 11 88 12
REMARK SMILES IDX 5 13 87 14 2 15 1 16 83 17 84 18 85 20 86 21 15 22 16 23
REMARK SMILES IDX 17 24 18 25 19 26 20 27 21 28 82 29 22 30 81 31 23 32 24 33
REMARK SMILES IDX 25 34 75 35 26 36 80 37 74 38 76 39 27 40 79 41 73 42 72 43
REMARK SMILES IDX 28 45 60 46 40 47 59 48 41 49 44 50 58 51 77 52 42 53 43 54
REMARK SMILES IDX 57 56 78 57 45 58 29 59 30 60 38 61 31 62 33 63 39 64 32 65
REMARK SMILES IDX 34 66 35 67 36 68 37 69 61 70 62 71 70 72 63 73 65 74 71 75
REMARK SMILES IDX 64 76 66 77 67 78 68 79 69 80 46 81 47 82 55 83 48 84 50 85
REMARK SMILES IDX 56 86 49 87 51 88 52 89 53 90 54 91
REMARK H PARENT 83 19 76 44 44 55
REMARK Flexibility Score: inf
ROOT
ATOM      1  O   UNL A   1      35.115  21.858  26.255  1.00  0.00    -0.374 OA
ENDROOT
BRANCH   1   2
ATOM      2  C   UNL A   1      34.421  23.085  26.028  1.00  0.00     0.202 C 
BRANCH   2   3
ATOM      3  C   UNL A   1      32.984  22.973  25.502  1.00  0.00     0.261 C 
BRANCH   3   4
ATOM      4  O   UNL A   1      32.329  24.240  25.315  1.00  0.00    -0.463 OA
BRANCH   4   5
ATOM      5  C   UNL A   1      31.452  24.587  26.287  1.00  0.00     0.308 C 
ATOM      6  O   UNL A   1      31.141  23.873  27.237  1.00  0.00    -0.252 OA
BRANCH   5   7
ATOM      7  C   UNL A   1      30.847  25.959  26.137  1.00  0.00     0.152 C 
BRANCH   7   8
ATOM      8  C   UNL A   1      31.551  26.986  25.232  1.00  0.00     0.123 C 
BRANCH   8   9
ATOM      9  C   UNL A   1      30.470  27.764  24.459  1.00  0.00    -0.025 A 
ATOM     10  C   UNL A   1      28.634  29.251  22.905  1.00  0.00     0.118 A 
ATOM     11  C   UNL A   1      29.747  29.872  23.467  1.00  0.00     0.047 A 
ATOM     12  C   UNL A   1      28.427  27.891  23.123  1.00  0.00     0.047 A 
ATOM     13  C   UNL A   1      30.640  29.145  24.258  1.00  0.00     0.010 A 
ATOM     14  C   UNL A   1      29.339  27.155  23.890  1.00  0.00     0.010 A 
BRANCH  10  15
ATOM     15  O   UNL A   1      27.845  30.044  22.118  1.00  0.00    -0.497 OA
ATOM     16  C   UNL A   1      28.546  30.793  21.131  1.00  0.00     0.278 C 
ENDBRANCH  10  15
ENDBRANCH   8   9
BRANCH   8  17
ATOM     17  N   UNL A   1      32.369  27.902  26.035  1.00  0.00    -0.349 N 
ATOM     18  C   UNL A   1      33.736  27.767  26.149  1.00  0.00     0.217 C 
ATOM     19  H   UNL A   1      31.925  28.641  26.510  1.00  0.00     0.164 HD
ATOM     20  C   UNL A   1      34.417  28.959  26.774  1.00  0.00     0.114 C 
ATOM     21  O   UNL A   1      34.370  26.796  25.757  1.00  0.00    -0.275 OA
ENDBRANCH   8  17
ENDBRANCH   7   8
ENDBRANCH   5   7
ENDBRANCH   4   5
ENDBRANCH   3   4
ENDBRANCH   2   3
ENDBRANCH   1   2
BRANCH   1  22
ATOM     22  C   UNL A   1      35.439  21.069  25.107  1.00  0.00     0.202 C 
BRANCH  22  23
ATOM     23  C   UNL A   1      36.771  20.319  25.167  1.00  0.00     0.261 C 
BRANCH  23  24
ATOM     24  O   UNL A   1      37.872  21.217  24.951  1.00  0.00    -0.460 OA
BRANCH  24  25
ATOM     25  C   UNL A   1      38.931  20.980  25.753  1.00  0.00     0.338 C 
ATOM     26  O   UNL A   1      39.578  19.937  25.818  1.00  0.00    -0.246 OA
BRANCH  25  27
ATOM     27  C   UNL A   1      39.362  22.222  26.411  1.00  0.00     0.060 A 
ATOM     28  C   UNL A   1      38.710  23.413  26.060  1.00  0.00     0.016 A 
ATOM     29  C   UNL A   1      40.471  22.244  27.257  1.00  0.00     0.016 A 
ATOM     30  C   UNL A   1      39.203  24.637  26.513  1.00  0.00     0.010 A 
ATOM     31  C   UNL A   1      40.966  23.475  27.705  1.00  0.00     0.010 A 
ATOM     32  C   UNL A   1      40.360  24.681  27.305  1.00  0.00    -0.014 A 
BRANCH  32  33
ATOM     33  C   UNL A   1      40.993  25.988  27.619  1.00  0.00     0.031 A 
ATOM     34  C   UNL A   1      42.418  26.242  27.200  1.00  0.00     0.074 A 
ATOM     35  C   UNL A   1      40.309  26.945  28.270  1.00  0.00     0.049 A 
ATOM     36  N   UNL A   1      43.149  27.313  27.368  1.00  0.00    -0.248 NA
ATOM     37  C   UNL A   1      43.106  25.149  26.495  1.00  0.00     0.031 C 
ATOM     38  C   UNL A   1      38.928  26.826  28.734  1.00  0.00     0.029 A 
ATOM     39  N   UNL A   1      40.694  28.200  28.675  1.00  0.00    -0.354 N 
ATOM     40  C   UNL A   1      44.388  27.021  26.808  1.00  0.00     0.074 A 
ATOM     41  C   UNL A   1      44.312  25.666  26.304  1.00  0.00     0.031 C 
ATOM     42  C   UNL A   1      38.590  27.952  29.385  1.00  0.00     0.029 A 
ATOM     43  C   UNL A   1      39.734  28.864  29.400  1.00  0.00     0.049 A 
ATOM     44  H   UNL A   1      41.575  28.588  28.466  1.00  0.00     0.167 HD
ATOM     45  C   UNL A   1      45.481  27.812  26.704  1.00  0.00     0.034 A 
ATOM     46  C   UNL A   1      39.775  30.061  30.020  1.00  0.00     0.034 A 
ATOM     47  C   UNL A   1      45.557  29.167  27.184  1.00  0.00     0.049 A 
ATOM     48  C   UNL A   1      41.017  30.908  29.920  1.00  0.00     0.074 A 
ATOM     49  C   UNL A   1      46.605  30.063  27.067  1.00  0.00     0.029 A 
ATOM     50  N   UNL A   1      44.554  29.814  27.887  1.00  0.00    -0.354 N 
ATOM     51  N   UNL A   1      42.125  30.673  29.259  1.00  0.00    -0.248 NA
ATOM     52  C   UNL A   1      41.006  32.198  30.627  1.00  0.00     0.031 C 
ATOM     53  C   UNL A   1      46.242  31.248  27.716  1.00  0.00     0.029 A 
ATOM     54  C   UNL A   1      44.964  31.092  28.227  1.00  0.00     0.049 A 
ATOM     55  H   UNL A   1      43.679  29.423  28.111  1.00  0.00     0.167 HD
ATOM     56  C   UNL A   1      42.928  31.795  29.447  1.00  0.00     0.074 A 
ATOM     57  C   UNL A   1      42.171  32.718  30.266  1.00  0.00     0.031 C 
ATOM     58  C   UNL A   1      44.184  32.029  28.996  1.00  0.00     0.034 A 
BRANCH  45  59
ATOM     59  C   UNL A   1      46.685  27.251  25.995  1.00  0.00     0.023 A 
ATOM     60  C   UNL A   1      47.454  26.254  26.629  1.00  0.00     0.012 A 
ATOM     61  C   UNL A   1      47.015  27.653  24.686  1.00  0.00     0.148 A 
ATOM     62  C   UNL A   1      48.546  25.680  25.980  1.00  0.00     0.002 A 
ATOM     63  C   UNL A   1      48.086  27.053  24.032  1.00  0.00     0.091 A 
ATOM     64  F   UNL A   1      46.286  28.619  24.110  1.00  0.00    -0.205 F 
ATOM     65  C   UNL A   1      48.856  26.072  24.680  1.00  0.00     0.022 A 
BRANCH  63  66
ATOM     66  S   UNL A   1      48.519  27.445  22.334  1.00  0.00     0.127 S 
ATOM     67  O   UNL A   1      48.653  26.111  21.749  1.00  0.00    -0.237 OA
ATOM     68  O   UNL A   1      47.349  28.195  21.878  1.00  0.00    -0.237 OA
ATOM     69  O   UNL A   1      49.746  28.226  22.406  1.00  0.00    -0.744 OA
ENDBRANCH  63  66
ENDBRANCH  45  59
BRANCH  46  70
ATOM     70  C   UNL A   1      38.579  30.551  30.760  1.00  0.00     0.023 A 
ATOM     71  C   UNL A   1      38.494  30.348  32.151  1.00  0.00     0.012 A 
ATOM     72  C   UNL A   1      37.541  31.238  30.101  1.00  0.00     0.148 A 
ATOM     73  C   UNL A   1      37.388  30.805  32.870  1.00  0.00     0.002 A 
ATOM     74  C   UNL A   1      36.468  31.736  30.831  1.00  0.00     0.091 A 
ATOM     75  F   UNL A   1      37.626  31.397  28.772  1.00  0.00    -0.205 F 
ATOM     76  C   UNL A   1      36.382  31.508  32.213  1.00  0.00     0.022 A 
BRANCH  74  77
ATOM     77  S   UNL A   1      35.199  32.765  30.082  1.00  0.00     0.127 S 
ATOM     78  O   UNL A   1      34.333  33.052  31.222  1.00  0.00    -0.237 OA
ATOM     79  O   UNL A   1      35.978  33.905  29.596  1.00  0.00    -0.237 OA
ATOM     80  O   UNL A   1      34.614  31.950  29.025  1.00  0.00    -0.744 OA
ENDBRANCH  74  77
ENDBRANCH  46  70
BRANCH  58  81
ATOM     81  C   UNL A   1      44.832  33.340  29.360  1.00  0.00     0.023 A 
ATOM     82  C   UNL A   1      45.624  33.420  30.522  1.00  0.00     0.012 A 
ATOM     83  C   UNL A   1      44.733  34.460  28.512  1.00  0.00     0.148 A 
ATOM     84  C   UNL A   1      46.291  34.602  30.845  1.00  0.00     0.002 A 
ATOM     85  C   UNL A   1      45.432  35.622  28.819  1.00  0.00     0.091 A 
ATOM     86  F   UNL A   1      43.959  34.370  27.419  1.00  0.00    -0.205 F 
ATOM     87  C   UNL A   1      46.205  35.697  29.989  1.00  0.00     0.022 A 
BRANCH  85  88
ATOM     88  S   UNL A   1      45.451  37.052  27.730  1.00  0.00     0.127 S 
ATOM     89  O   UNL A   1      46.319  37.973  28.462  1.00  0.00    -0.237 OA
ATOM     90  O   UNL A   1      46.036  36.506  26.505  1.00  0.00    -0.237 OA
ATOM     91  O   UNL A   1      44.061  37.471  27.599  1.00  0.00    -0.744 OA
ENDBRANCH  85  88
ENDBRANCH  58  81
ENDBRANCH  32  33
ENDBRANCH  25  27
ENDBRANCH  24  25
ENDBRANCH  23  24
ENDBRANCH  22  23
ENDBRANCH   1  22
TORSDOF 21
ENDMDL
MODEL 2
REMARK VINA RESULT:     -10.7      1.753      2.305
REMARK SMILES COc1ccc([C@H](CC(=O)OCCOCCOC(=O)c2ccc(-c3c4nc(c(-c5cccc(S(=O)(=O)[O-])c5F)c5ccc([nH]5)c(-c5cccc(S(=O)(=O)[O-])c5F)c5nc(c(-c6cccc(S(=O)(=O)[O-])c6F)c6ccc3[nH]6)C=C5)C=C4)cc2)NC(C)=O)cc1
REMARK SMILES IDX 14 1 13 2 12 3 11 4 9 5 10 6 8 7 7 8 6 9 3 10 4 11 88 12
REMARK SMILES IDX 5 13 87 14 2 15 1 16 83 17 84 18 85 20 86 21 15 22 16 23
REMARK SMILES IDX 17 24 18 25 19 26 20 27 21 28 82 29 22 30 81 31 23 32 24 33
REMARK SMILES IDX 25 34 75 35 26 36 80 37 74 38 76 39 27 40 79 41 73 42 72 43
REMARK SMILES IDX 28 45 60 46 40 47 59 48 41 49 44 50 58 51 77 52 42 53 43 54
REMARK SMILES IDX 57 56 78 57 45 58 29 59 30 60 38 61 31 62 33 63 39 64 32 65
REMARK SMILES IDX 34 66 35 67 36 68 37 69 61 70 62 71 70 72 63 73 65 74 71 75
REMARK SMILES IDX 64 76 66 77 67 78 68 79 69 80 46 81 47 82 55 83 48 84 50 85
REMARK SMILES IDX 56 86 49 87 51 88 52 89 53 90 54 91
REMARK H PARENT 83 19 76 44 44 55
REMARK Flexibility Score: inf
ROOT
ATOM      1  O   UNL A   1      36.711  21.138  25.558  1.00  0.00    -0.374 OA
ENDROOT
BRANCH   1   2
ATOM      2  C   UNL A   1      35.309  21.290  25.775  1.00  0.00     0.202 C 
BRANCH   2   3
ATOM      3  C   UNL A   1      34.519  22.013  24.676  1.00  0.00     0.261 C 
BRANCH   3   4
ATOM      4  O   UNL A   1      34.228  23.390  24.974  1.00  0.00    -0.463 OA
BRANCH   4   5
ATOM      5  C   UNL A   1      34.226  24.225  23.906  1.00  0.00     0.308 C 
ATOM      6  O   UNL A   1      34.662  23.939  22.793  1.00  0.00    -0.252 OA
BRANCH   5   7
ATOM      7  C   UNL A   1      33.637  25.587  24.165  1.00  0.00     0.152 C 
BRANCH   7   8
ATOM      8  C   UNL A   1      32.446  25.708  25.133  1.00  0.00     0.123 C 
BRANCH   8   9
ATOM      9  C   UNL A   1      31.579  26.896  24.677  1.00  0.00    -0.025 A 
ATOM     10  C   UNL A   1      30.147  29.139  23.722  1.00  0.00     0.118 A 
ATOM     11  C   UNL A   1      31.357  29.309  24.389  1.00  0.00     0.047 A 
ATOM     12  C   UNL A   1      29.641  27.855  23.536  1.00  0.00     0.047 A 
ATOM     13  C   UNL A   1      32.052  28.203  24.886  1.00  0.00     0.010 A 
ATOM     14  C   UNL A   1      30.353  26.745  24.007  1.00  0.00     0.010 A 
BRANCH  10  15
ATOM     15  O   UNL A   1      29.568  30.282  23.242  1.00  0.00    -0.497 OA
ATOM     16  C   UNL A   1      29.094  30.197  21.903  1.00  0.00     0.278 C 
ENDBRANCH  10  15
ENDBRANCH   8   9
BRANCH   8  17
ATOM     17  N   UNL A   1      31.659  24.469  25.137  1.00  0.00    -0.349 N 
ATOM     18  C   UNL A   1      31.300  23.825  26.301  1.00  0.00     0.217 C 
ATOM     19  H   UNL A   1      31.379  24.083  24.276  1.00  0.00     0.164 HD
ATOM     20  C   UNL A   1      30.265  22.745  26.106  1.00  0.00     0.114 C 
ATOM     21  O   UNL A   1      31.736  24.105  27.410  1.00  0.00    -0.275 OA
ENDBRANCH   8  17
ENDBRANCH   7   8
ENDBRANCH   5   7
ENDBRANCH   4   5
ENDBRANCH   3   4
ENDBRANCH   2   3
ENDBRANCH   1   2
BRANCH   1  22
ATOM     22  C   UNL A   1      37.126  20.090  24.679  1.00  0.00     0.202 C 
BRANCH  22  23
ATOM     23  C   UNL A   1      38.476  19.447  24.999  1.00  0.00     0.261 C 
BRANCH  23  24
ATOM     24  O   UNL A   1      38.930  19.836  26.305  1.00  0.00    -0.460 OA
BRANCH  24  25
ATOM     25  C   UNL A   1      40.255  20.088  26.367  1.00  0.00     0.338 C 
ATOM     26  O   UNL A   1      41.152  19.399  25.888  1.00  0.00    -0.246 OA
BRANCH  25  27
ATOM     27  C   UNL A   1      40.492  21.432  26.914  1.00  0.00     0.060 A 
ATOM     28  C   UNL A   1      39.846  22.516  26.302  1.00  0.00     0.016 A 
ATOM     29  C   UNL A   1      41.434  21.645  27.921  1.00  0.00     0.016 A 
ATOM     30  C   UNL A   1      40.182  23.822  26.662  1.00  0.00     0.010 A 
ATOM     31  C   UNL A   1      41.773  22.958  28.275  1.00  0.00     0.010 A 
ATOM     32  C   UNL A   1      41.179  24.053  27.621  1.00  0.00    -0.014 A 
BRANCH  32  33
ATOM     33  C   UNL A   1      41.672  25.435  27.857  1.00  0.00     0.031 A 
ATOM     34  C   UNL A   1      43.070  25.806  27.435  1.00  0.00     0.074 A 
ATOM     35  C   UNL A   1      40.885  26.356  28.440  1.00  0.00     0.049 A 
ATOM     36  N   UNL A   1      43.687  26.954  27.541  1.00  0.00    -0.248 NA
ATOM     37  C   UNL A   1      43.875  24.746  26.806  1.00  0.00     0.031 C 
ATOM     38  C   UNL A   1      39.517  26.127  28.899  1.00  0.00     0.029 A 
ATOM     39  N   UNL A   1      41.136  27.667  28.767  1.00  0.00    -0.354 N 
ATOM     40  C   UNL A   1      44.958  26.754  27.011  1.00  0.00     0.074 A 
ATOM     41  C   UNL A   1      45.026  25.370  26.594  1.00  0.00     0.031 C 
ATOM     42  C   UNL A   1      39.057  27.252  29.474  1.00  0.00     0.029 A 
ATOM     43  C   UNL A   1      40.103  28.274  29.441  1.00  0.00     0.049 A 
ATOM     44  H   UNL A   1      41.976  28.128  28.542  1.00  0.00     0.167 HD
ATOM     45  C   UNL A   1      45.967  27.645  26.866  1.00  0.00     0.034 A 
ATOM     46  C   UNL A   1      40.014  29.505  29.983  1.00  0.00     0.034 A 
ATOM     47  C   UNL A   1      45.899  29.027  27.260  1.00  0.00     0.049 A 
ATOM     48  C   UNL A   1      41.166  30.466  29.841  1.00  0.00     0.074 A 
ATOM     49  C   UNL A   1      46.853  30.016  27.095  1.00  0.00     0.029 A 
ATOM     50  N   UNL A   1      44.825  29.612  27.912  1.00  0.00    -0.354 N 
ATOM     51  N   UNL A   1      42.301  30.304  29.206  1.00  0.00    -0.248 NA
ATOM     52  C   UNL A   1      41.014  31.790  30.464  1.00  0.00     0.031 C 
ATOM     53  C   UNL A   1      46.363  31.196  27.664  1.00  0.00     0.029 A 
ATOM     54  C   UNL A   1      45.099  30.944  28.173  1.00  0.00     0.049 A 
ATOM     55  H   UNL A   1      43.991  29.149  28.153  1.00  0.00     0.167 HD
ATOM     56  C   UNL A   1      42.984  31.511  29.329  1.00  0.00     0.074 A 
ATOM     57  C   UNL A   1      42.126  32.401  30.080  1.00  0.00     0.031 C 
ATOM     58  C   UNL A   1      44.218  31.842  28.874  1.00  0.00     0.034 A 
BRANCH  45  59
ATOM     59  C   UNL A   1      47.232  27.165  26.204  1.00  0.00     0.023 A 
ATOM     60  C   UNL A   1      47.451  27.463  24.844  1.00  0.00     0.012 A 
ATOM     61  C   UNL A   1      48.225  26.486  26.935  1.00  0.00     0.148 A 
ATOM     62  C   UNL A   1      48.633  27.074  24.215  1.00  0.00     0.002 A 
ATOM     63  C   UNL A   1      49.415  26.130  26.309  1.00  0.00     0.091 A 
ATOM     64  F   UNL A   1      47.986  26.191  28.220  1.00  0.00    -0.205 F 
ATOM     65  C   UNL A   1      49.618  26.417  24.949  1.00  0.00     0.022 A 
BRANCH  63  66
ATOM     66  S   UNL A   1      50.768  25.341  27.190  1.00  0.00     0.127 S 
ATOM     67  O   UNL A   1      51.663  24.979  26.092  1.00  0.00    -0.237 OA
ATOM     68  O   UNL A   1      51.258  26.423  28.044  1.00  0.00    -0.237 OA
ATOM     69  O   UNL A   1      50.174  24.224  27.912  1.00  0.00    -0.744 OA
ENDBRANCH  63  66
ENDBRANCH  45  59
BRANCH  46  70
ATOM     70  C   UNL A   1      38.764  29.917  30.681  1.00  0.00     0.023 A 
ATOM     71  C   UNL A   1      38.579  29.570  32.033  1.00  0.00     0.012 A 
ATOM     72  C   UNL A   1      37.772  30.670  30.022  1.00  0.00     0.148 A 
ATOM     73  C   UNL A   1      37.420  29.950  32.712  1.00  0.00     0.002 A 
ATOM     74  C   UNL A   1      36.645  31.089  30.719  1.00  0.00     0.091 A 
ATOM     75  F   UNL A   1      37.953  30.965  28.727  1.00  0.00    -0.205 F 
ATOM     76  C   UNL A   1      36.460  30.720  32.060  1.00  0.00     0.022 A 
BRANCH  74  77
ATOM     77  S   UNL A   1      35.428  32.192  29.990  1.00  0.00     0.127 S 
ATOM     78  O   UNL A   1      34.480  32.360  31.087  1.00  0.00    -0.237 OA
ATOM     79  O   UNL A   1      36.232  33.375  29.683  1.00  0.00    -0.237 OA
ATOM     80  O   UNL A   1      34.927  31.492  28.815  1.00  0.00    -0.744 OA
ENDBRANCH  74  77
ENDBRANCH  46  70
BRANCH  58  81
ATOM     81  C   UNL A   1      44.725  33.233  29.159  1.00  0.00     0.023 A 
ATOM     82  C   UNL A   1      45.443  33.476  30.347  1.00  0.00     0.012 A 
ATOM     83  C   UNL A   1      44.571  34.270  28.219  1.00  0.00     0.148 A 
ATOM     84  C   UNL A   1      45.982  34.737  30.603  1.00  0.00     0.002 A 
ATOM     85  C   UNL A   1      45.145  35.513  28.463  1.00  0.00     0.091 A 
ATOM     86  F   UNL A   1      43.868  34.024  27.103  1.00  0.00    -0.205 F 
ATOM     87  C   UNL A   1      45.844  35.750  29.657  1.00  0.00     0.022 A 
BRANCH  85  88
ATOM     88  S   UNL A   1      45.093  36.850  27.263  1.00  0.00     0.127 S 
ATOM     89  O   UNL A   1      45.532  37.989  28.067  1.00  0.00    -0.237 OA
ATOM     90  O   UNL A   1      46.058  36.406  26.256  1.00  0.00    -0.237 OA
ATOM     91  O   UNL A   1      43.716  36.909  26.791  1.00  0.00    -0.744 OA
ENDBRANCH  85  88
ENDBRANCH  58  81
ENDBRANCH  32  33
ENDBRANCH  25  27
ENDBRANCH  24  25
ENDBRANCH  23  24
ENDBRANCH  22  23
ENDBRANCH   1  22
TORSDOF 21
ENDMDL
MODEL 3
REMARK VINA RESULT:     -10.4      1.372      7.793
REMARK SMILES COc1ccc([C@H](CC(=O)OCCOCCOC(=O)c2ccc(-c3c4nc(c(-c5cccc(S(=O)(=O)[O-])c5F)c5ccc([nH]5)c(-c5cccc(S(=O)(=O)[O-])c5F)c5nc(c(-c6cccc(S(=O)(=O)[O-])c6F)c6ccc3[nH]6)C=C5)C=C4)cc2)NC(C)=O)cc1
REMARK SMILES IDX 14 1 13 2 12 3 11 4 9 5 10 6 8 7 7 8 6 9 3 10 4 11 88 12
REMARK SMILES IDX 5 13 87 14 2 15 1 16 83 17 84 18 85 20 86 21 15 22 16 23
REMARK SMILES IDX 17 24 18 25 19 26 20 27 21 28 82 29 22 30 81 31 23 32 24 33
REMARK SMILES IDX 25 34 75 35 26 36 80 37 74 38 76 39 27 40 79 41 73 42 72 43
REMARK SMILES IDX 28 45 60 46 40 47 59 48 41 49 44 50 58 51 77 52 42 53 43 54
REMARK SMILES IDX 57 56 78 57 45 58 29 59 30 60 38 61 31 62 33 63 39 64 32 65
REMARK SMILES IDX 34 66 35 67 36 68 37 69 61 70 62 71 70 72 63 73 65 74 71 75
REMARK SMILES IDX 64 76 66 77 67 78 68 79 69 80 46 81 47 82 55 83 48 84 50 85
REMARK SMILES IDX 56 86 49 87 51 88 52 89 53 90 54 91
REMARK H PARENT 83 19 76 44 44 55
REMARK Flexibility Score: inf
ROOT
ATOM      1  O   UNL A   1      37.692  21.497  24.623  1.00  0.00    -0.374 OA
ENDROOT
BRANCH   1   2
ATOM      2  C   UNL A   1      36.831  22.141  25.562  1.00  0.00     0.202 C 
BRANCH   2   3
ATOM      3  C   UNL A   1      35.723  23.027  24.980  1.00  0.00     0.261 C 
BRANCH   3   4
ATOM      4  O   UNL A   1      35.025  22.438  23.868  1.00  0.00    -0.463 OA
BRANCH   4   5
ATOM      5  C   UNL A   1      34.045  23.203  23.329  1.00  0.00     0.308 C 
ATOM      6  O   UNL A   1      33.285  22.840  22.435  1.00  0.00    -0.252 OA
BRANCH   5   7
ATOM      7  C   UNL A   1      33.932  24.590  23.907  1.00  0.00     0.152 C 
BRANCH   7   8
ATOM      8  C   UNL A   1      32.706  24.936  24.771  1.00  0.00     0.123 C 
BRANCH   8   9
ATOM      9  C   UNL A   1      31.816  25.905  23.972  1.00  0.00    -0.025 A 
ATOM     10  C   UNL A   1      30.289  27.843  22.591  1.00  0.00     0.118 A 
ATOM     11  C   UNL A   1      30.344  27.852  23.982  1.00  0.00     0.047 A 
ATOM     12  C   UNL A   1      30.984  26.866  21.884  1.00  0.00     0.047 A 
ATOM     13  C   UNL A   1      31.076  26.878  24.667  1.00  0.00     0.010 A 
ATOM     14  C   UNL A   1      31.742  25.909  22.569  1.00  0.00     0.010 A 
BRANCH  10  15
ATOM     15  O   UNL A   1      29.577  28.862  22.019  1.00  0.00    -0.497 OA
ATOM     16  C   UNL A   1      29.726  30.127  22.654  1.00  0.00     0.278 C 
ENDBRANCH  10  15
ENDBRANCH   8   9
BRANCH   8  17
ATOM     17  N   UNL A   1      31.961  23.718  25.116  1.00  0.00    -0.349 N 
ATOM     18  C   UNL A   1      31.297  23.572  26.314  1.00  0.00     0.217 C 
ATOM     19  H   UNL A   1      31.935  22.979  24.467  1.00  0.00     0.164 HD
ATOM     20  C   UNL A   1      30.368  22.385  26.356  1.00  0.00     0.114 C 
ATOM     21  O   UNL A   1      31.404  24.340  27.262  1.00  0.00    -0.275 OA
ENDBRANCH   8  17
ENDBRANCH   7   8
ENDBRANCH   5   7
ENDBRANCH   4   5
ENDBRANCH   3   4
ENDBRANCH   2   3
ENDBRANCH   1   2
BRANCH   1  22
ATOM     22  C   UNL A   1      37.784  20.072  24.690  1.00  0.00     0.202 C 
BRANCH  22  23
ATOM     23  C   UNL A   1      38.916  19.516  25.555  1.00  0.00     0.261 C 
BRANCH  23  24
ATOM     24  O   UNL A   1      39.996  20.460  25.650  1.00  0.00    -0.460 OA
BRANCH  24  25
ATOM     25  C   UNL A   1      40.628  20.444  26.843  1.00  0.00     0.338 C 
ATOM     26  O   UNL A   1      41.107  19.460  27.401  1.00  0.00    -0.246 OA
BRANCH  25  27
ATOM     27  C   UNL A   1      40.864  21.816  27.313  1.00  0.00     0.060 A 
ATOM     28  C   UNL A   1      40.396  22.874  26.521  1.00  0.00     0.016 A 
ATOM     29  C   UNL A   1      41.647  22.068  28.441  1.00  0.00     0.016 A 
ATOM     30  C   UNL A   1      40.757  24.187  26.827  1.00  0.00     0.010 A 
ATOM     31  C   UNL A   1      42.011  23.387  28.741  1.00  0.00     0.010 A 
ATOM     32  C   UNL A   1      41.602  24.450  27.915  1.00  0.00    -0.014 A 
BRANCH  32  33
ATOM     33  C   UNL A   1      42.142  25.819  28.119  1.00  0.00     0.031 A 
ATOM     34  C   UNL A   1      41.268  26.877  28.739  1.00  0.00     0.074 A 
ATOM     35  C   UNL A   1      43.402  26.122  27.758  1.00  0.00     0.049 A 
ATOM     36  N   UNL A   1      41.549  28.125  29.011  1.00  0.00    -0.248 NA
ATOM     37  C   UNL A   1      39.900  26.475  29.106  1.00  0.00     0.031 C 
ATOM     38  C   UNL A   1      44.349  25.193  27.145  1.00  0.00     0.029 A 
ATOM     39  N   UNL A   1      44.092  27.307  27.835  1.00  0.00    -0.354 N 
ATOM     40  C   UNL A   1      40.392  28.665  29.563  1.00  0.00     0.074 A 
ATOM     41  C   UNL A   1      39.402  27.610  29.578  1.00  0.00     0.031 C 
ATOM     42  C   UNL A   1      45.490  25.851  26.875  1.00  0.00     0.029 A 
ATOM     43  C   UNL A   1      45.348  27.250  27.279  1.00  0.00     0.049 A 
ATOM     44  H   UNL A   1      43.723  28.121  28.248  1.00  0.00     0.167 HD
ATOM     45  C   UNL A   1      40.180  29.916  30.034  1.00  0.00     0.034 A 
ATOM     46  C   UNL A   1      46.272  28.216  27.100  1.00  0.00     0.034 A 
ATOM     47  C   UNL A   1      41.166  30.964  30.042  1.00  0.00     0.049 A 
ATOM     48  C   UNL A   1      45.997  29.610  27.600  1.00  0.00     0.074 A 
ATOM     49  C   UNL A   1      41.056  32.245  30.555  1.00  0.00     0.029 A 
ATOM     50  N   UNL A   1      42.436  30.859  29.497  1.00  0.00    -0.354 N 
ATOM     51  N   UNL A   1      44.953  30.062  28.253  1.00  0.00    -0.248 NA
ATOM     52  C   UNL A   1      47.038  30.623  27.365  1.00  0.00     0.031 C 
ATOM     53  C   UNL A   1      42.254  32.921  30.304  1.00  0.00     0.029 A 
ATOM     54  C   UNL A   1      43.114  32.057  29.645  1.00  0.00     0.049 A 
ATOM     55  H   UNL A   1      42.801  30.052  29.069  1.00  0.00     0.167 HD
ATOM     56  C   UNL A   1      45.224  31.399  28.530  1.00  0.00     0.074 A 
ATOM     57  C   UNL A   1      46.539  31.678  27.994  1.00  0.00     0.031 C 
ATOM     58  C   UNL A   1      44.445  32.314  29.157  1.00  0.00     0.034 A 
BRANCH  45  59
ATOM     59  C   UNL A   1      38.831  30.217  30.633  1.00  0.00     0.023 A 
ATOM     60  C   UNL A   1      38.563  29.819  31.958  1.00  0.00     0.012 A 
ATOM     61  C   UNL A   1      37.862  30.947  29.918  1.00  0.00     0.148 A 
ATOM     62  C   UNL A   1      37.342  30.124  32.557  1.00  0.00     0.002 A 
ATOM     63  C   UNL A   1      36.659  31.277  30.534  1.00  0.00     0.091 A 
ATOM     64  F   UNL A   1      38.127  31.296  28.652  1.00  0.00    -0.205 F 
ATOM     65  C   UNL A   1      36.395  30.861  31.849  1.00  0.00     0.022 A 
BRANCH  63  66
ATOM     66  S   UNL A   1      35.407  32.279  29.725  1.00  0.00     0.127 S 
ATOM     67  O   UNL A   1      34.369  32.341  30.754  1.00  0.00    -0.237 OA
ATOM     68  O   UNL A   1      36.114  33.540  29.498  1.00  0.00    -0.237 OA
ATOM     69  O   UNL A   1      35.046  31.562  28.510  1.00  0.00    -0.744 OA
ENDBRANCH  63  66
ENDBRANCH  45  59
BRANCH  46  70
ATOM     70  C   UNL A   1      47.570  27.885  26.449  1.00  0.00     0.023 A 
ATOM     71  C   UNL A   1      48.695  27.607  27.249  1.00  0.00     0.012 A 
ATOM     72  C   UNL A   1      47.690  27.819  25.047  1.00  0.00     0.148 A 
ATOM     73  C   UNL A   1      49.922  27.287  26.664  1.00  0.00     0.002 A 
ATOM     74  C   UNL A   1      48.901  27.448  24.473  1.00  0.00     0.091 A 
ATOM     75  F   UNL A   1      46.615  28.115  24.302  1.00  0.00    -0.205 F 
ATOM     76  C   UNL A   1      50.021  27.196  25.278  1.00  0.00     0.022 A 
BRANCH  74  77
ATOM     77  S   UNL A   1      49.075  27.180  22.704  1.00  0.00     0.127 S 
ATOM     78  O   UNL A   1      48.335  25.935  22.516  1.00  0.00    -0.237 OA
ATOM     79  O   UNL A   1      48.430  28.371  22.150  1.00  0.00    -0.237 OA
ATOM     80  O   UNL A   1      50.510  27.113  22.463  1.00  0.00    -0.744 OA
ENDBRANCH  74  77
ENDBRANCH  46  70
BRANCH  58  81
ATOM     81  C   UNL A   1      44.987  33.711  29.317  1.00  0.00     0.023 A 
ATOM     82  C   UNL A   1      45.674  34.055  30.499  1.00  0.00     0.012 A 
ATOM     83  C   UNL A   1      44.898  34.651  28.272  1.00  0.00     0.148 A 
ATOM     84  C   UNL A   1      46.245  35.318  30.644  1.00  0.00     0.002 A 
ATOM     85  C   UNL A   1      45.504  35.894  28.408  1.00  0.00     0.091 A 
ATOM     86  F   UNL A   1      44.224  34.311  27.162  1.00  0.00    -0.205 F 
ATOM     87  C   UNL A   1      46.171  36.233  29.596  1.00  0.00     0.022 A 
BRANCH  85  88
ATOM     88  S   UNL A   1      45.534  37.103  27.077  1.00  0.00     0.127 S 
ATOM     89  O   UNL A   1      44.110  37.362  26.878  1.00  0.00    -0.237 OA
ATOM     90  O   UNL A   1      46.279  38.211  27.676  1.00  0.00    -0.237 OA
ATOM     91  O   UNL A   1      46.215  36.453  25.964  1.00  0.00    -0.744 OA
ENDBRANCH  85  88
ENDBRANCH  58  81
ENDBRANCH  32  33
ENDBRANCH  25  27
ENDBRANCH  24  25
ENDBRANCH  23  24
ENDBRANCH  22  23
ENDBRANCH   1  22
TORSDOF 21
ENDMDL
