MODEL 1
REMARK VINA RESULT:     -10.8      0.000      0.000
REMARK SMILES CSc1ccc(C=C2C(C)=C(CC(=O)OCCOCCOC(=O)c3ccc(-c4c5nc(c(-c6cccc(S(=O)(=O)[O-])c6F)c6ccc([nH]6)c(-c6cccc(S(=O)(=O)[O-])c6F)c6nc(c(-c7cccc(S(=O)(=O)[O-])c7F)c7ccc4[nH]7)C=C6)C=C5)cc3)c3cc(F)ccc32)cc1
REMARK SMILES IDX 18 1 17 2 16 3 15 4 13 5 14 6 12 7 11 8 7 9 8 10 9 11 93 12
REMARK SMILES IDX 10 13 87 14 92 15 88 16 91 17 89 18 90 19 6 20 3 21 4 22
REMARK SMILES IDX 95 23 5 24 94 25 2 26 1 27 19 28 20 29 21 30 22 31 23 32
REMARK SMILES IDX 24 33 25 34 86 35 26 36 85 37 27 38 28 39 29 40 79 41 30 42
REMARK SMILES IDX 84 43 78 44 80 45 31 46 83 47 77 48 76 49 32 51 64 52 44 53
REMARK SMILES IDX 63 54 45 55 48 56 62 57 81 58 46 59 47 60 61 62 82 63 49 64
REMARK SMILES IDX 33 65 34 66 42 67 35 68 37 69 43 70 36 71 38 72 39 73 40 74
REMARK SMILES IDX 41 75 65 76 66 77 74 78 67 79 69 80 75 81 68 82 70 83 71 84
REMARK SMILES IDX 72 85 73 86 50 87 51 88 59 89 52 90 54 91 60 92 53 93 55 94
REMARK SMILES IDX 56 95 57 96 58 97
REMARK H PARENT 80 50 48 61
REMARK Flexibility Score: inf
ROOT
ATOM      1  O   UNL A   1      34.471  34.193  27.702  1.00  0.00    -0.374 OA
ENDROOT
BRANCH   1   2
ATOM      2  C   UNL A   1      34.675  32.977  28.422  1.00  0.00     0.202 C 
BRANCH   2   3
ATOM      3  C   UNL A   1      34.894  31.692  27.617  1.00  0.00     0.261 C 
BRANCH   3   4
ATOM      4  O   UNL A   1      33.839  30.734  27.808  1.00  0.00    -0.463 OA
BRANCH   4   5
ATOM      5  C   UNL A   1      34.134  29.444  27.486  1.00  0.00     0.310 C 
ATOM      6  O   UNL A   1      35.262  29.005  27.295  1.00  0.00    -0.252 OA
BRANCH   5   7
ATOM      7  C   UNL A   1      32.894  28.583  27.356  1.00  0.00     0.159 C 
BRANCH   7   8
ATOM      8  C   UNL A   1      32.744  27.954  26.000  1.00  0.00    -0.025 C 
ATOM      9  C   UNL A   1      31.579  25.026  26.685  1.00  0.00     0.017 C 
ATOM     10  C   UNL A   1      31.869  25.871  25.669  1.00  0.00    -0.014 C 
ATOM     11  C   UNL A   1      33.121  26.676  25.743  1.00  0.00    -0.039 C 
ATOM     12  C   UNL A   1      30.913  26.814  25.046  1.00  0.00    -0.010 A 
ATOM     13  C   UNL A   1      33.841  26.393  24.414  1.00  0.00     0.045 C 
ATOM     14  C   UNL A   1      31.456  28.098  25.274  1.00  0.00    -0.011 A 
ATOM     15  C   UNL A   1      30.098  26.576  23.946  1.00  0.00     0.012 A 
ATOM     16  C   UNL A   1      31.129  29.182  24.475  1.00  0.00     0.048 A 
ATOM     17  C   UNL A   1      29.861  27.643  23.068  1.00  0.00     0.040 A 
ATOM     18  C   UNL A   1      30.366  28.923  23.342  1.00  0.00     0.123 A 
ATOM     19  F   UNL A   1      30.231  29.888  22.421  1.00  0.00    -0.207 F 
BRANCH   9  20
ATOM     20  C   UNL A   1      31.942  23.594  26.444  1.00  0.00    -0.025 A 
ATOM     21  C   UNL A   1      33.038  21.168  25.591  1.00  0.00     0.007 A 
ATOM     22  C   UNL A   1      33.540  21.788  26.725  1.00  0.00     0.015 A 
ATOM     23  C   UNL A   1      31.841  21.629  25.037  1.00  0.00     0.015 A 
ATOM     24  C   UNL A   1      32.972  22.972  27.160  1.00  0.00     0.009 A 
ATOM     25  C   UNL A   1      31.292  22.849  25.460  1.00  0.00     0.009 A 
BRANCH  21  26
ATOM     26  S   UNL A   1      34.008  19.916  24.775  1.00  0.00    -0.130 SA
ATOM     27  C   UNL A   1      35.661  20.640  25.064  1.00  0.00     0.091 C 
ENDBRANCH  21  26
ENDBRANCH   9  20
ENDBRANCH   7   8
ENDBRANCH   5   7
ENDBRANCH   4   5
ENDBRANCH   3   4
ENDBRANCH   2   3
ENDBRANCH   1   2
BRANCH   1  28
ATOM     28  C   UNL A   1      34.208  35.374  28.452  1.00  0.00     0.202 C 
BRANCH  28  29
ATOM     29  C   UNL A   1      33.053  35.344  29.461  1.00  0.00     0.261 C 
BRANCH  29  30
ATOM     30  O   UNL A   1      33.336  36.064  30.667  1.00  0.00    -0.460 OA
BRANCH  30  31
ATOM     31  C   UNL A   1      32.968  35.434  31.802  1.00  0.00     0.338 C 
ATOM     32  O   UNL A   1      31.831  35.306  32.245  1.00  0.00    -0.246 OA
BRANCH  31  33
ATOM     33  C   UNL A   1      34.127  34.746  32.381  1.00  0.00     0.060 A 
ATOM     34  C   UNL A   1      35.348  35.428  32.359  1.00  0.00     0.016 A 
ATOM     35  C   UNL A   1      34.039  33.438  32.866  1.00  0.00     0.016 A 
ATOM     36  C   UNL A   1      36.505  34.781  32.774  1.00  0.00     0.010 A 
ATOM     37  C   UNL A   1      35.202  32.791  33.283  1.00  0.00     0.010 A 
ATOM     38  C   UNL A   1      36.443  33.447  33.195  1.00  0.00    -0.014 A 
BRANCH  38  39
ATOM     39  C   UNL A   1      37.706  32.708  33.400  1.00  0.00     0.031 A 
ATOM     40  C   UNL A   1      38.467  32.910  34.678  1.00  0.00     0.074 A 
ATOM     41  C   UNL A   1      38.136  31.842  32.466  1.00  0.00     0.049 A 
ATOM     42  N   UNL A   1      39.581  32.356  35.075  1.00  0.00    -0.248 NA
ATOM     43  C   UNL A   1      37.897  33.869  35.641  1.00  0.00     0.031 C 
ATOM     44  C   UNL A   1      37.466  31.579  31.192  1.00  0.00     0.029 A 
ATOM     45  N   UNL A   1      39.245  31.039  32.438  1.00  0.00    -0.354 N 
ATOM     46  C   UNL A   1      39.859  32.914  36.317  1.00  0.00     0.074 A 
ATOM     47  C   UNL A   1      38.810  33.868  36.600  1.00  0.00     0.031 C 
ATOM     48  C   UNL A   1      38.193  30.693  30.493  1.00  0.00     0.029 A 
ATOM     49  C   UNL A   1      39.390  30.350  31.258  1.00  0.00     0.049 A 
ATOM     50  H   UNL A   1      39.876  30.963  33.189  1.00  0.00     0.167 HD
ATOM     51  C   UNL A   1      40.889  32.640  37.153  1.00  0.00     0.034 A 
ATOM     52  C   UNL A   1      40.390  29.552  30.837  1.00  0.00     0.034 A 
ATOM     53  C   UNL A   1      41.921  31.685  36.854  1.00  0.00     0.049 A 
ATOM     54  C   UNL A   1      41.534  29.278  31.774  1.00  0.00     0.074 A 
ATOM     55  C   UNL A   1      42.993  31.300  37.638  1.00  0.00     0.029 A 
ATOM     56  N   UNL A   1      42.017  30.974  35.666  1.00  0.00    -0.354 N 
ATOM     57  N   UNL A   1      41.731  29.731  32.989  1.00  0.00    -0.248 NA
ATOM     58  C   UNL A   1      42.574  28.356  31.301  1.00  0.00     0.031 C 
ATOM     59  C   UNL A   1      43.759  30.385  36.906  1.00  0.00     0.029 A 
ATOM     60  C   UNL A   1      43.137  30.164  35.686  1.00  0.00     0.049 A 
ATOM     61  H   UNL A   1      41.380  31.038  34.918  1.00  0.00     0.167 HD
ATOM     62  C   UNL A   1      42.899  29.127  33.440  1.00  0.00     0.074 A 
ATOM     63  C   UNL A   1      43.351  28.257  32.371  1.00  0.00     0.031 C 
ATOM     64  C   UNL A   1      43.545  29.281  34.622  1.00  0.00     0.034 A 
BRANCH  51  65
ATOM     65  C   UNL A   1      40.937  33.379  38.466  1.00  0.00     0.023 A 
ATOM     66  C   UNL A   1      40.349  32.811  39.616  1.00  0.00     0.012 A 
ATOM     67  C   UNL A   1      41.585  34.626  38.570  1.00  0.00     0.148 A 
ATOM     68  C   UNL A   1      40.367  33.489  40.835  1.00  0.00     0.002 A 
ATOM     69  C   UNL A   1      41.641  35.273  39.799  1.00  0.00     0.091 A 
ATOM     70  F   UNL A   1      42.119  35.163  37.464  1.00  0.00    -0.205 F 
ATOM     71  C   UNL A   1      41.020  34.714  40.928  1.00  0.00     0.022 A 
BRANCH  69  72
ATOM     72  S   UNL A   1      42.522  36.819  40.041  1.00  0.00     0.127 S 
ATOM     73  O   UNL A   1      41.849  37.696  39.084  1.00  0.00    -0.237 OA
ATOM     74  O   UNL A   1      42.238  37.117  41.446  1.00  0.00    -0.237 OA
ATOM     75  O   UNL A   1      43.921  36.535  39.751  1.00  0.00    -0.744 OA
ENDBRANCH  69  72
ENDBRANCH  51  65
BRANCH  52  76
ATOM     76  C   UNL A   1      40.334  28.952  29.475  1.00  0.00     0.023 A 
ATOM     77  C   UNL A   1      40.619  29.740  28.344  1.00  0.00     0.012 A 
ATOM     78  C   UNL A   1      40.041  27.584  29.304  1.00  0.00     0.148 A 
ATOM     79  C   UNL A   1      40.587  29.183  27.065  1.00  0.00     0.002 A 
ATOM     80  C   UNL A   1      40.069  27.022  28.034  1.00  0.00     0.091 A 
ATOM     81  F   UNL A   1      39.761  26.855  30.393  1.00  0.00    -0.205 F 
ATOM     82  C   UNL A   1      40.324  27.823  26.910  1.00  0.00     0.022 A 
BRANCH  80  83
ATOM     83  S   UNL A   1      39.880  25.258  27.758  1.00  0.00     0.127 S 
ATOM     84  O   UNL A   1      39.894  25.182  26.299  1.00  0.00    -0.237 OA
ATOM     85  O   UNL A   1      41.073  24.723  28.415  1.00  0.00    -0.237 OA
ATOM     86  O   UNL A   1      38.625  24.891  28.398  1.00  0.00    -0.744 OA
ENDBRANCH  80  83
ENDBRANCH  52  76
BRANCH  64  87
ATOM     87  C   UNL A   1      44.791  28.463  34.843  1.00  0.00     0.023 A 
ATOM     88  C   UNL A   1      46.056  29.011  34.547  1.00  0.00     0.012 A 
ATOM     89  C   UNL A   1      44.707  27.176  35.409  1.00  0.00     0.148 A 
ATOM     90  C   UNL A   1      47.215  28.273  34.780  1.00  0.00     0.002 A 
ATOM     91  C   UNL A   1      45.869  26.471  35.690  1.00  0.00     0.091 A 
ATOM     92  F   UNL A   1      43.493  26.670  35.667  1.00  0.00    -0.205 F 
ATOM     93  C   UNL A   1      47.123  27.011  35.362  1.00  0.00     0.022 A 
BRANCH  91  94
ATOM     94  S   UNL A   1      45.854  24.884  36.531  1.00  0.00     0.127 S 
ATOM     95  O   UNL A   1      45.256  25.236  37.818  1.00  0.00    -0.237 OA
ATOM     96  O   UNL A   1      44.995  24.082  35.659  1.00  0.00    -0.237 OA
ATOM     97  O   UNL A   1      47.241  24.444  36.588  1.00  0.00    -0.744 OA
ENDBRANCH  91  94
ENDBRANCH  64  87
ENDBRANCH  38  39
ENDBRANCH  31  33
ENDBRANCH  30  31
ENDBRANCH  29  30
ENDBRANCH  28  29
ENDBRANCH   1  28
TORSDOF 20
ENDMDL
MODEL 2
REMARK VINA RESULT:     -10.8      3.398      4.854
REMARK SMILES CSc1ccc(C=C2C(C)=C(CC(=O)OCCOCCOC(=O)c3ccc(-c4c5nc(c(-c6cccc(S(=O)(=O)[O-])c6F)c6ccc([nH]6)c(-c6cccc(S(=O)(=O)[O-])c6F)c6nc(c(-c7cccc(S(=O)(=O)[O-])c7F)c7ccc4[nH]7)C=C6)C=C5)cc3)c3cc(F)ccc32)cc1
REMARK SMILES IDX 18 1 17 2 16 3 15 4 13 5 14 6 12 7 11 8 7 9 8 10 9 11 93 12
REMARK SMILES IDX 10 13 87 14 92 15 88 16 91 17 89 18 90 19 6 20 3 21 4 22
REMARK SMILES IDX 95 23 5 24 94 25 2 26 1 27 19 28 20 29 21 30 22 31 23 32
REMARK SMILES IDX 24 33 25 34 86 35 26 36 85 37 27 38 28 39 29 40 79 41 30 42
REMARK SMILES IDX 84 43 78 44 80 45 31 46 83 47 77 48 76 49 32 51 64 52 44 53
REMARK SMILES IDX 63 54 45 55 48 56 62 57 81 58 46 59 47 60 61 62 82 63 49 64
REMARK SMILES IDX 33 65 34 66 42 67 35 68 37 69 43 70 36 71 38 72 39 73 40 74
REMARK SMILES IDX 41 75 65 76 66 77 74 78 67 79 69 80 75 81 68 82 70 83 71 84
REMARK SMILES IDX 72 85 73 86 50 87 51 88 59 89 52 90 54 91 60 92 53 93 55 94
REMARK SMILES IDX 56 95 57 96 58 97
REMARK H PARENT 80 50 48 61
REMARK Flexibility Score: inf
ROOT
ATOM      1  O   UNL A   1      33.290  29.334  25.950  1.00  0.00    -0.374 OA
ENDROOT
BRANCH   1   2
ATOM      2  C   UNL A   1      31.950  29.002  26.316  1.00  0.00     0.202 C 
BRANCH   2   3
ATOM      3  C   UNL A   1      31.723  27.738  27.152  1.00  0.00     0.261 C 
BRANCH   3   4
ATOM      4  O   UNL A   1      30.928  26.756  26.465  1.00  0.00    -0.463 OA
BRANCH   4   5
ATOM      5  C   UNL A   1      31.380  25.473  26.520  1.00  0.00     0.310 C 
ATOM      6  O   UNL A   1      30.673  24.473  26.472  1.00  0.00    -0.252 OA
BRANCH   5   7
ATOM      7  C   UNL A   1      32.885  25.397  26.679  1.00  0.00     0.159 C 
BRANCH   7   8
ATOM      8  C   UNL A   1      33.607  25.110  25.393  1.00  0.00    -0.025 C 
ATOM      9  C   UNL A   1      32.385  22.263  24.497  1.00  0.00     0.017 C 
ATOM     10  C   UNL A   1      33.192  23.274  24.101  1.00  0.00    -0.014 C 
ATOM     11  C   UNL A   1      34.114  23.887  25.098  1.00  0.00    -0.039 C 
ATOM     12  C   UNL A   1      32.765  24.439  23.294  1.00  0.00    -0.010 A 
ATOM     13  C   UNL A   1      35.499  23.825  24.434  1.00  0.00     0.045 C 
ATOM     14  C   UNL A   1      33.009  25.565  24.112  1.00  0.00    -0.011 A 
ATOM     15  C   UNL A   1      32.786  24.553  21.910  1.00  0.00     0.012 A 
ATOM     16  C   UNL A   1      33.184  26.832  23.576  1.00  0.00     0.048 A 
ATOM     17  C   UNL A   1      33.081  25.809  21.363  1.00  0.00     0.040 A 
ATOM     18  C   UNL A   1      33.267  26.926  22.192  1.00  0.00     0.123 A 
ATOM     19  F   UNL A   1      33.674  28.082  21.647  1.00  0.00    -0.207 F 
BRANCH   9  20
ATOM     20  C   UNL A   1      32.878  20.889  24.168  1.00  0.00    -0.025 A 
ATOM     21  C   UNL A   1      33.372  18.144  23.984  1.00  0.00     0.007 A 
ATOM     22  C   UNL A   1      32.468  18.739  23.117  1.00  0.00     0.015 A 
ATOM     23  C   UNL A   1      34.202  18.954  24.763  1.00  0.00     0.015 A 
ATOM     24  C   UNL A   1      32.252  20.104  23.193  1.00  0.00     0.009 A 
ATOM     25  C   UNL A   1      33.952  20.331  24.862  1.00  0.00     0.009 A 
BRANCH  21  26
ATOM     26  S   UNL A   1      33.340  16.376  24.204  1.00  0.00    -0.130 SA
ATOM     27  C   UNL A   1      34.979  16.183  24.990  1.00  0.00     0.091 C 
ENDBRANCH  21  26
ENDBRANCH   9  20
ENDBRANCH   7   8
ENDBRANCH   5   7
ENDBRANCH   4   5
ENDBRANCH   3   4
ENDBRANCH   2   3
ENDBRANCH   1   2
BRANCH   1  28
ATOM     28  C   UNL A   1      34.089  30.018  26.908  1.00  0.00     0.202 C 
BRANCH  28  29
ATOM     29  C   UNL A   1      33.444  31.161  27.701  1.00  0.00     0.261 C 
BRANCH  29  30
ATOM     30  O   UNL A   1      34.368  32.197  28.056  1.00  0.00    -0.460 OA
BRANCH  30  31
ATOM     31  C   UNL A   1      34.820  32.141  29.326  1.00  0.00     0.338 C 
ATOM     32  O   UNL A   1      34.236  32.511  30.340  1.00  0.00    -0.246 OA
BRANCH  31  33
ATOM     33  C   UNL A   1      36.083  31.396  29.366  1.00  0.00     0.060 A 
ATOM     34  C   UNL A   1      36.140  30.283  30.212  1.00  0.00     0.016 A 
ATOM     35  C   UNL A   1      37.208  31.816  28.650  1.00  0.00     0.016 A 
ATOM     36  C   UNL A   1      37.343  29.615  30.391  1.00  0.00     0.010 A 
ATOM     37  C   UNL A   1      38.416  31.142  28.831  1.00  0.00     0.010 A 
ATOM     38  C   UNL A   1      38.495  30.068  29.736  1.00  0.00    -0.014 A 
BRANCH  38  39
ATOM     39  C   UNL A   1      39.803  29.499  30.123  1.00  0.00     0.031 A 
ATOM     40  C   UNL A   1      40.559  30.125  31.258  1.00  0.00     0.074 A 
ATOM     41  C   UNL A   1      40.278  28.415  29.485  1.00  0.00     0.049 A 
ATOM     42  N   UNL A   1      41.708  29.782  31.776  1.00  0.00    -0.248 NA
ATOM     43  C   UNL A   1      39.938  31.298  31.897  1.00  0.00     0.031 C 
ATOM     44  C   UNL A   1      39.615  27.738  28.370  1.00  0.00     0.029 A 
ATOM     45  N   UNL A   1      41.433  27.705  29.674  1.00  0.00    -0.354 N 
ATOM     46  C   UNL A   1      41.961  30.707  32.782  1.00  0.00     0.074 A 
ATOM     47  C   UNL A   1      40.857  31.641  32.788  1.00  0.00     0.031 C 
ATOM     48  C   UNL A   1      40.391  26.724  27.955  1.00  0.00     0.029 A 
ATOM     49  C   UNL A   1      41.611  26.698  28.757  1.00  0.00     0.049 A 
ATOM     50  H   UNL A   1      42.074  27.898  30.396  1.00  0.00     0.167 HD
ATOM     51  C   UNL A   1      43.012  30.760  33.634  1.00  0.00     0.034 A 
ATOM     52  C   UNL A   1      42.655  25.868  28.573  1.00  0.00     0.034 A 
ATOM     53  C   UNL A   1      44.098  29.818  33.614  1.00  0.00     0.049 A 
ATOM     54  C   UNL A   1      43.822  25.957  29.520  1.00  0.00     0.074 A 
ATOM     55  C   UNL A   1      45.198  29.752  34.449  1.00  0.00     0.029 A 
ATOM     56  N   UNL A   1      44.228  28.785  32.696  1.00  0.00    -0.354 N 
ATOM     57  N   UNL A   1      44.000  26.770  30.534  1.00  0.00    -0.248 NA
ATOM     58  C   UNL A   1      44.912  24.994  29.323  1.00  0.00     0.031 C 
ATOM     59  C   UNL A   1      46.012  28.702  34.011  1.00  0.00     0.029 A 
ATOM     60  C   UNL A   1      45.397  28.085  32.933  1.00  0.00     0.049 A 
ATOM     61  H   UNL A   1      43.583  28.581  31.981  1.00  0.00     0.167 HD
ATOM     62  C   UNL A   1      45.206  26.399  31.116  1.00  0.00     0.074 A 
ATOM     63  C   UNL A   1      45.703  25.271  30.351  1.00  0.00     0.031 C 
ATOM     64  C   UNL A   1      45.850  26.942  32.178  1.00  0.00     0.034 A 
BRANCH  51  65
ATOM     65  C   UNL A   1      43.024  31.866  34.659  1.00  0.00     0.023 A 
ATOM     66  C   UNL A   1      43.669  33.087  34.369  1.00  0.00     0.012 A 
ATOM     67  C   UNL A   1      42.376  31.708  35.900  1.00  0.00     0.148 A 
ATOM     68  C   UNL A   1      43.707  34.115  35.312  1.00  0.00     0.002 A 
ATOM     69  C   UNL A   1      42.377  32.754  36.816  1.00  0.00     0.091 A 
ATOM     70  F   UNL A   1      41.788  30.535  36.168  1.00  0.00    -0.205 F 
ATOM     71  C   UNL A   1      43.054  33.951  36.530  1.00  0.00     0.022 A 
BRANCH  69  72
ATOM     72  S   UNL A   1      41.501  32.672  38.381  1.00  0.00     0.127 S 
ATOM     73  O   UNL A   1      41.595  34.056  38.845  1.00  0.00    -0.237 OA
ATOM     74  O   UNL A   1      40.161  32.260  37.961  1.00  0.00    -0.237 OA
ATOM     75  O   UNL A   1      42.213  31.693  39.190  1.00  0.00    -0.744 OA
ENDBRANCH  69  72
ENDBRANCH  51  65
BRANCH  52  76
ATOM     76  C   UNL A   1      42.626  24.878  27.461  1.00  0.00     0.023 A 
ATOM     77  C   UNL A   1      43.199  25.199  26.215  1.00  0.00     0.012 A 
ATOM     78  C   UNL A   1      42.069  23.598  27.652  1.00  0.00     0.148 A 
ATOM     79  C   UNL A   1      43.193  24.272  25.172  1.00  0.00     0.002 A 
ATOM     80  C   UNL A   1      42.119  22.659  26.629  1.00  0.00     0.091 A 
ATOM     81  F   UNL A   1      41.519  23.317  28.841  1.00  0.00    -0.205 F 
ATOM     82  C   UNL A   1      42.665  23.000  25.381  1.00  0.00     0.022 A 
BRANCH  80  83
ATOM     83  S   UNL A   1      41.589  20.958  26.856  1.00  0.00     0.127 S 
ATOM     84  O   UNL A   1      41.958  20.358  25.576  1.00  0.00    -0.237 OA
ATOM     85  O   UNL A   1      42.409  20.539  27.993  1.00  0.00    -0.237 OA
ATOM     86  O   UNL A   1      40.162  21.024  27.136  1.00  0.00    -0.744 OA
ENDBRANCH  80  83
ENDBRANCH  52  76
BRANCH  64  87
ATOM     87  C   UNL A   1      47.145  26.303  32.605  1.00  0.00     0.023 A 
ATOM     88  C   UNL A   1      47.136  25.237  33.528  1.00  0.00     0.012 A 
ATOM     89  C   UNL A   1      48.365  26.716  32.035  1.00  0.00     0.148 A 
ATOM     90  C   UNL A   1      48.327  24.619  33.903  1.00  0.00     0.002 A 
ATOM     91  C   UNL A   1      49.540  26.057  32.371  1.00  0.00     0.091 A 
ATOM     92  F   UNL A   1      48.352  27.742  31.172  1.00  0.00    -0.205 F 
ATOM     93  C   UNL A   1      49.525  25.019  33.316  1.00  0.00     0.022 A 
BRANCH  91  94
ATOM     94  S   UNL A   1      51.113  26.435  31.592  1.00  0.00     0.127 S 
ATOM     95  O   UNL A   1      52.034  26.346  32.723  1.00  0.00    -0.237 OA
ATOM     96  O   UNL A   1      51.240  25.353  30.614  1.00  0.00    -0.237 OA
ATOM     97  O   UNL A   1      50.967  27.763  31.011  1.00  0.00    -0.744 OA
ENDBRANCH  91  94
ENDBRANCH  64  87
ENDBRANCH  38  39
ENDBRANCH  31  33
ENDBRANCH  30  31
ENDBRANCH  29  30
ENDBRANCH  28  29
ENDBRANCH   1  28
TORSDOF 20
ENDMDL
MODEL 3
REMARK VINA RESULT:     -10.7      2.533      7.775
REMARK SMILES CSc1ccc(C=C2C(C)=C(CC(=O)OCCOCCOC(=O)c3ccc(-c4c5nc(c(-c6cccc(S(=O)(=O)[O-])c6F)c6ccc([nH]6)c(-c6cccc(S(=O)(=O)[O-])c6F)c6nc(c(-c7cccc(S(=O)(=O)[O-])c7F)c7ccc4[nH]7)C=C6)C=C5)cc3)c3cc(F)ccc32)cc1
REMARK SMILES IDX 18 1 17 2 16 3 15 4 13 5 14 6 12 7 11 8 7 9 8 10 9 11 93 12
REMARK SMILES IDX 10 13 87 14 92 15 88 16 91 17 89 18 90 19 6 20 3 21 4 22
REMARK SMILES IDX 95 23 5 24 94 25 2 26 1 27 19 28 20 29 21 30 22 31 23 32
REMARK SMILES IDX 24 33 25 34 86 35 26 36 85 37 27 38 28 39 29 40 79 41 30 42
REMARK SMILES IDX 84 43 78 44 80 45 31 46 83 47 77 48 76 49 32 51 64 52 44 53
REMARK SMILES IDX 63 54 45 55 48 56 62 57 81 58 46 59 47 60 61 62 82 63 49 64
REMARK SMILES IDX 33 65 34 66 42 67 35 68 37 69 43 70 36 71 38 72 39 73 40 74
REMARK SMILES IDX 41 75 65 76 66 77 74 78 67 79 69 80 75 81 68 82 70 83 71 84
REMARK SMILES IDX 72 85 73 86 50 87 51 88 59 89 52 90 54 91 60 92 53 93 55 94
REMARK SMILES IDX 56 95 57 96 58 97
REMARK H PARENT 80 50 48 61
REMARK Flexibility Score: inf
ROOT
ATOM      1  O   UNL A   1      31.952  30.346  26.619  1.00  0.00    -0.374 OA
ENDROOT
BRANCH   1   2
ATOM      2  C   UNL A   1      31.669  29.248  27.486  1.00  0.00     0.202 C 
BRANCH   2   3
ATOM      3  C   UNL A   1      32.482  27.962  27.307  1.00  0.00     0.261 C 
BRANCH   3   4
ATOM      4  O   UNL A   1      32.070  27.202  26.158  1.00  0.00    -0.463 OA
BRANCH   4   5
ATOM      5  C   UNL A   1      31.792  25.887  26.377  1.00  0.00     0.310 C 
ATOM      6  O   UNL A   1      30.668  25.406  26.454  1.00  0.00    -0.252 OA
BRANCH   5   7
ATOM      7  C   UNL A   1      33.046  25.052  26.548  1.00  0.00     0.159 C 
BRANCH   7   8
ATOM      8  C   UNL A   1      33.737  24.741  25.252  1.00  0.00    -0.025 C 
ATOM      9  C   UNL A   1      32.492  21.880  24.435  1.00  0.00     0.017 C 
ATOM     10  C   UNL A   1      33.291  22.883  24.003  1.00  0.00    -0.014 C 
ATOM     11  C   UNL A   1      34.236  23.512  24.967  1.00  0.00    -0.039 C 
ATOM     12  C   UNL A   1      32.847  24.034  23.184  1.00  0.00    -0.010 A 
ATOM     13  C   UNL A   1      35.605  23.436  24.272  1.00  0.00     0.045 C 
ATOM     14  C   UNL A   1      33.111  25.174  23.976  1.00  0.00    -0.011 A 
ATOM     15  C   UNL A   1      32.835  24.122  21.799  1.00  0.00     0.012 A 
ATOM     16  C   UNL A   1      33.274  26.431  23.414  1.00  0.00     0.048 A 
ATOM     17  C   UNL A   1      33.118  25.368  21.223  1.00  0.00     0.040 A 
ATOM     18  C   UNL A   1      33.325  26.500  22.027  1.00  0.00     0.123 A 
ATOM     19  F   UNL A   1      33.720  27.645  21.452  1.00  0.00    -0.207 F 
BRANCH   9  20
ATOM     20  C   UNL A   1      32.976  20.500  24.120  1.00  0.00    -0.025 A 
ATOM     21  C   UNL A   1      33.523  17.760  24.027  1.00  0.00     0.007 A 
ATOM     22  C   UNL A   1      32.488  18.280  23.265  1.00  0.00     0.015 A 
ATOM     23  C   UNL A   1      34.429  18.635  24.632  1.00  0.00     0.015 A 
ATOM     24  C   UNL A   1      32.243  19.642  23.291  1.00  0.00     0.009 A 
ATOM     25  C   UNL A   1      34.154  20.010  24.685  1.00  0.00     0.009 A 
BRANCH  21  26
ATOM     26  S   UNL A   1      33.577  16.009  24.352  1.00  0.00    -0.130 SA
ATOM     27  C   UNL A   1      35.164  15.962  25.257  1.00  0.00     0.091 C 
ENDBRANCH  21  26
ENDBRANCH   9  20
ENDBRANCH   7   8
ENDBRANCH   5   7
ENDBRANCH   4   5
ENDBRANCH   3   4
ENDBRANCH   2   3
ENDBRANCH   1   2
BRANCH   1  28
ATOM     28  C   UNL A   1      32.919  31.298  27.048  1.00  0.00     0.202 C 
BRANCH  28  29
ATOM     29  C   UNL A   1      32.461  32.746  27.260  1.00  0.00     0.261 C 
BRANCH  29  30
ATOM     30  O   UNL A   1      33.547  33.673  27.379  1.00  0.00    -0.460 OA
BRANCH  30  31
ATOM     31  C   UNL A   1      33.475  34.495  28.446  1.00  0.00     0.338 C 
ATOM     32  O   UNL A   1      32.618  35.343  28.675  1.00  0.00    -0.246 OA
BRANCH  31  33
ATOM     33  C   UNL A   1      34.500  34.119  29.426  1.00  0.00     0.060 A 
ATOM     34  C   UNL A   1      35.817  34.503  29.149  1.00  0.00     0.016 A 
ATOM     35  C   UNL A   1      34.194  33.348  30.551  1.00  0.00     0.016 A 
ATOM     36  C   UNL A   1      36.847  34.067  29.971  1.00  0.00     0.010 A 
ATOM     37  C   UNL A   1      35.232  32.913  31.376  1.00  0.00     0.010 A 
ATOM     38  C   UNL A   1      36.564  33.235  31.061  1.00  0.00    -0.014 A 
BRANCH  38  39
ATOM     39  C   UNL A   1      37.687  32.591  31.774  1.00  0.00     0.031 A 
ATOM     40  C   UNL A   1      38.402  31.446  31.117  1.00  0.00     0.074 A 
ATOM     41  C   UNL A   1      38.076  33.057  32.973  1.00  0.00     0.049 A 
ATOM     42  N   UNL A   1      39.419  30.749  31.547  1.00  0.00    -0.248 NA
ATOM     43  C   UNL A   1      37.903  31.028  29.795  1.00  0.00     0.031 C 
ATOM     44  C   UNL A   1      37.442  34.163  33.691  1.00  0.00     0.029 A 
ATOM     45  N   UNL A   1      39.085  32.648  33.803  1.00  0.00    -0.354 N 
ATOM     46  C   UNL A   1      39.667  29.797  30.566  1.00  0.00     0.074 A 
ATOM     47  C   UNL A   1      38.680  29.989  29.527  1.00  0.00     0.031 C 
ATOM     48  C   UNL A   1      38.063  34.328  34.870  1.00  0.00     0.029 A 
ATOM     49  C   UNL A   1      39.117  33.324  34.998  1.00  0.00     0.049 A 
ATOM     50  H   UNL A   1      39.726  31.938  33.567  1.00  0.00     0.167 HD
ATOM     51  C   UNL A   1      40.642  28.858  30.530  1.00  0.00     0.034 A 
ATOM     52  C   UNL A   1      39.894  33.135  36.081  1.00  0.00     0.034 A 
ATOM     53  C   UNL A   1      41.617  28.685  31.572  1.00  0.00     0.049 A 
ATOM     54  C   UNL A   1      40.959  32.073  36.027  1.00  0.00     0.074 A 
ATOM     55  C   UNL A   1      42.671  27.792  31.629  1.00  0.00     0.029 A 
ATOM     56  N   UNL A   1      41.645  29.414  32.753  1.00  0.00    -0.354 N 
ATOM     57  N   UNL A   1      41.250  31.248  35.049  1.00  0.00    -0.248 NA
ATOM     58  C   UNL A   1      41.824  31.938  37.205  1.00  0.00     0.031 C 
ATOM     59  C   UNL A   1      43.312  27.955  32.861  1.00  0.00     0.029 A 
ATOM     60  C   UNL A   1      42.687  28.982  33.553  1.00  0.00     0.049 A 
ATOM     61  H   UNL A   1      41.015  30.134  32.987  1.00  0.00     0.167 HD
ATOM     62  C   UNL A   1      42.352  30.518  35.479  1.00  0.00     0.074 A 
ATOM     63  C   UNL A   1      42.687  31.016  36.799  1.00  0.00     0.031 C 
ATOM     64  C   UNL A   1      43.021  29.521  34.848  1.00  0.00     0.034 A 
BRANCH  51  65
ATOM     65  C   UNL A   1      40.701  27.959  29.320  1.00  0.00     0.023 A 
ATOM     66  C   UNL A   1      39.894  26.804  29.262  1.00  0.00     0.012 A 
ATOM     67  C   UNL A   1      41.536  28.270  28.230  1.00  0.00     0.148 A 
ATOM     68  C   UNL A   1      39.949  25.950  28.159  1.00  0.00     0.002 A 
ATOM     69  C   UNL A   1      41.550  27.441  27.113  1.00  0.00     0.091 A 
ATOM     70  F   UNL A   1      42.313  29.359  28.310  1.00  0.00    -0.205 F 
ATOM     71  C   UNL A   1      40.770  26.275  27.083  1.00  0.00     0.022 A 
BRANCH  69  72
ATOM     72  S   UNL A   1      42.515  27.810  25.644  1.00  0.00     0.127 S 
ATOM     73  O   UNL A   1      41.957  29.101  25.241  1.00  0.00    -0.237 OA
ATOM     74  O   UNL A   1      43.876  27.874  26.180  1.00  0.00    -0.237 OA
ATOM     75  O   UNL A   1      42.277  26.711  24.719  1.00  0.00    -0.744 OA
ENDBRANCH  69  72
ENDBRANCH  51  65
BRANCH  52  76
ATOM     76  C   UNL A   1      39.698  33.982  37.290  1.00  0.00     0.023 A 
ATOM     77  C   UNL A   1      40.137  35.320  37.294  1.00  0.00     0.012 A 
ATOM     78  C   UNL A   1      39.033  33.473  38.424  1.00  0.00     0.148 A 
ATOM     79  C   UNL A   1      39.941  36.127  38.416  1.00  0.00     0.002 A 
ATOM     80  C   UNL A   1      38.788  34.299  39.514  1.00  0.00     0.091 A 
ATOM     81  F   UNL A   1      38.633  32.195  38.403  1.00  0.00    -0.205 F 
ATOM     82  C   UNL A   1      39.258  35.622  39.520  1.00  0.00     0.022 A 
BRANCH  80  83
ATOM     83  S   UNL A   1      37.797  33.774  40.916  1.00  0.00     0.127 S 
ATOM     84  O   UNL A   1      37.518  35.047  41.577  1.00  0.00    -0.237 OA
ATOM     85  O   UNL A   1      36.647  33.157  40.255  1.00  0.00    -0.237 OA
ATOM     86  O   UNL A   1      38.632  32.844  41.663  1.00  0.00    -0.744 OA
ENDBRANCH  80  83
ENDBRANCH  52  76
BRANCH  64  87
ATOM     87  C   UNL A   1      44.209  28.926  35.558  1.00  0.00     0.023 A 
ATOM     88  C   UNL A   1      45.503  29.424  35.306  1.00  0.00     0.012 A 
ATOM     89  C   UNL A   1      44.029  27.919  36.526  1.00  0.00     0.148 A 
ATOM     90  C   UNL A   1      46.604  28.902  35.983  1.00  0.00     0.002 A 
ATOM     91  C   UNL A   1      45.123  27.444  37.236  1.00  0.00     0.091 A 
ATOM     92  F   UNL A   1      42.791  27.450  36.737  1.00  0.00    -0.205 F 
ATOM     93  C   UNL A   1      46.413  27.923  36.955  1.00  0.00     0.022 A 
BRANCH  91  94
ATOM     94  S   UNL A   1      44.962  26.259  38.576  1.00  0.00     0.127 S 
ATOM     95  O   UNL A   1      45.071  24.987  37.862  1.00  0.00    -0.237 OA
ATOM     96  O   UNL A   1      46.112  26.587  39.418  1.00  0.00    -0.237 OA
ATOM     97  O   UNL A   1      43.666  26.518  39.190  1.00  0.00    -0.744 OA
ENDBRANCH  91  94
ENDBRANCH  64  87
ENDBRANCH  38  39
ENDBRANCH  31  33
ENDBRANCH  30  31
ENDBRANCH  29  30
ENDBRANCH  28  29
ENDBRANCH   1  28
TORSDOF 20
ENDMDL
