MODEL 1
REMARK VINA RESULT:     -11.1      0.000      0.000
REMARK SMILES C[C@@H](C(=O)OCCOCCOC(=O)c1ccc(-c2c3nc(c(-c4cccc(S(=O)(=O)[O-])c4F)c4ccc([nH]4)c(-c4cccc(S(=O)(=O)[O-])c4F)c4nc(c(-c5cccc(S(=O)(=O)[O-])c5F)c5ccc2[nH]5)C=C4)C=C3)cc1)c1ccc(C[C@H]2CCC[C@@H]2O)cc1F
REMARK SMILES IDX 7 1 6 2 5 3 3 4 4 5 2 6 1 7 77 8 78 9 89 10 79 11 88 12
REMARK SMILES IDX 90 13 80 14 81 15 82 16 83 17 86 18 84 19 85 20 87 21 8 23
REMARK SMILES IDX 9 24 10 25 11 26 12 27 13 28 14 29 15 30 76 31 16 32 75 33
REMARK SMILES IDX 17 34 18 35 19 36 69 37 20 38 74 39 68 40 70 41 21 42 73 43
REMARK SMILES IDX 67 44 66 45 22 47 54 48 34 49 53 50 35 51 38 52 52 53 71 54
REMARK SMILES IDX 36 55 37 56 51 58 72 59 39 60 23 61 24 62 32 63 25 64 27 65
REMARK SMILES IDX 33 66 26 67 28 68 29 69 30 70 31 71 55 72 56 73 64 74 57 75
REMARK SMILES IDX 59 76 65 77 58 78 60 79 61 80 62 81 63 82 40 83 41 84 49 85
REMARK SMILES IDX 42 86 44 87 50 88 43 89 45 90 46 91 47 92 48 93
REMARK H PARENT 87 22 70 46 38 57
REMARK Flexibility Score: inf
ROOT
ATOM      1  C   UNL A   1      33.166  29.457  25.943  1.00  0.00     0.202 C 
ENDROOT
BRANCH   1   2
ATOM      2  C   UNL A   1      32.912  28.477  24.792  1.00  0.00     0.261 C 
BRANCH   2   3
ATOM      3  O   UNL A   1      31.577  27.958  24.867  1.00  0.00    -0.463 OA
BRANCH   3   4
ATOM      4  C   UNL A   1      30.783  28.202  23.790  1.00  0.00     0.313 C 
ATOM      5  O   UNL A   1      30.774  29.255  23.160  1.00  0.00    -0.252 OA
BRANCH   4   6
ATOM      6  C   UNL A   1      30.017  26.950  23.347  1.00  0.00     0.129 C 
ATOM      7  C   UNL A   1      28.763  26.723  24.202  1.00  0.00     0.025 C 
BRANCH   6   8
ATOM      8  C   UNL A   1      30.905  25.710  23.192  1.00  0.00     0.002 A 
ATOM      9  C   UNL A   1      31.006  24.724  24.190  1.00  0.00     0.008 A 
ATOM     10  C   UNL A   1      31.741  25.562  22.077  1.00  0.00     0.127 A 
ATOM     11  C   UNL A   1      31.947  23.691  24.107  1.00  0.00     0.004 A 
ATOM     12  C   UNL A   1      32.686  24.538  21.990  1.00  0.00     0.043 A 
ATOM     13  F   UNL A   1      31.700  26.448  21.074  1.00  0.00    -0.207 F 
ATOM     14  C   UNL A   1      32.844  23.628  23.038  1.00  0.00    -0.045 A 
BRANCH  14  15
ATOM     15  C   UNL A   1      34.011  22.670  23.059  1.00  0.00     0.041 C 
BRANCH  15  16
ATOM     16  C   UNL A   1      35.127  23.018  24.068  1.00  0.00     0.022 C 
ATOM     17  C   UNL A   1      34.984  22.416  25.478  1.00  0.00     0.007 C 
ATOM     18  C   UNL A   1      36.549  22.639  23.635  1.00  0.00     0.117 C 
ATOM     19  C   UNL A   1      36.397  22.025  25.925  1.00  0.00     0.003 C 
ATOM     20  C   UNL A   1      37.335  22.697  24.936  1.00  0.00     0.032 C 
BRANCH  18  21
ATOM     21  O   UNL A   1      37.061  23.536  22.666  1.00  0.00    -0.393 OA
ATOM     22  H   UNL A   1      37.369  24.345  23.105  1.00  0.00     0.210 HD
ENDBRANCH  18  21
ENDBRANCH  15  16
ENDBRANCH  14  15
ENDBRANCH   6   8
ENDBRANCH   4   6
ENDBRANCH   3   4
ENDBRANCH   2   3
ENDBRANCH   1   2
BRANCH   1  23
ATOM     23  O   UNL A   1      32.010  29.962  26.615  1.00  0.00    -0.374 OA
BRANCH  23  24
ATOM     24  C   UNL A   1      31.403  31.148  26.094  1.00  0.00     0.202 C 
BRANCH  24  25
ATOM     25  C   UNL A   1      31.533  32.433  26.922  1.00  0.00     0.261 C 
BRANCH  25  26
ATOM     26  O   UNL A   1      32.803  33.087  26.746  1.00  0.00    -0.460 OA
BRANCH  26  27
ATOM     27  C   UNL A   1      33.357  33.564  27.887  1.00  0.00     0.338 C 
ATOM     28  O   UNL A   1      32.862  34.374  28.663  1.00  0.00    -0.246 OA
BRANCH  27  29
ATOM     29  C   UNL A   1      34.601  32.841  28.201  1.00  0.00     0.060 A 
ATOM     30  C   UNL A   1      34.482  31.528  28.675  1.00  0.00     0.016 A 
ATOM     31  C   UNL A   1      35.851  33.463  28.136  1.00  0.00     0.016 A 
ATOM     32  C   UNL A   1      35.607  30.846  29.133  1.00  0.00     0.010 A 
ATOM     33  C   UNL A   1      36.978  32.778  28.606  1.00  0.00     0.010 A 
ATOM     34  C   UNL A   1      36.856  31.483  29.141  1.00  0.00    -0.014 A 
BRANCH  34  35
ATOM     35  C   UNL A   1      37.996  30.838  29.837  1.00  0.00     0.031 A 
ATOM     36  C   UNL A   1      38.274  31.191  31.273  1.00  0.00     0.074 A 
ATOM     37  C   UNL A   1      38.767  29.937  29.202  1.00  0.00     0.049 A 
ATOM     38  N   UNL A   1      39.219  30.755  32.065  1.00  0.00    -0.248 NA
ATOM     39  C   UNL A   1      37.367  32.167  31.900  1.00  0.00     0.031 C 
ATOM     40  C   UNL A   1      38.597  29.510  27.815  1.00  0.00     0.029 A 
ATOM     41  N   UNL A   1      39.862  29.234  29.641  1.00  0.00    -0.354 N 
ATOM     42  C   UNL A   1      39.036  31.415  33.274  1.00  0.00     0.074 A 
ATOM     43  C   UNL A   1      37.899  32.294  33.107  1.00  0.00     0.031 C 
ATOM     44  C   UNL A   1      39.576  28.641  27.505  1.00  0.00     0.029 A 
ATOM     45  C   UNL A   1      40.449  28.467  28.663  1.00  0.00     0.049 A 
ATOM     46  H   UNL A   1      40.196  29.278  30.566  1.00  0.00     0.167 HD
ATOM     47  C   UNL A   1      39.739  31.288  34.425  1.00  0.00     0.034 A 
ATOM     48  C   UNL A   1      41.574  27.724  28.695  1.00  0.00     0.034 A 
ATOM     49  C   UNL A   1      40.857  30.401  34.596  1.00  0.00     0.049 A 
ATOM     50  C   UNL A   1      42.350  27.615  29.982  1.00  0.00     0.074 A 
ATOM     51  C   UNL A   1      41.607  30.172  35.736  1.00  0.00     0.029 A 
ATOM     52  N   UNL A   1      41.394  29.603  33.598  1.00  0.00    -0.354 N 
ATOM     53  N   UNL A   1      42.093  28.153  31.150  1.00  0.00    -0.248 NA
ATOM     54  C   UNL A   1      43.553  26.768  29.965  1.00  0.00     0.031 C 
ATOM     55  C   UNL A   1      42.612  29.251  35.421  1.00  0.00     0.029 A 
ATOM     56  C   UNL A   1      42.472  28.888  34.092  1.00  0.00     0.049 A 
ATOM     57  H   UNL A   1      41.058  29.553  32.674  1.00  0.00     0.167 HD
ATOM     58  C   UNL A   1      43.078  27.683  32.013  1.00  0.00     0.074 A 
ATOM     59  C   UNL A   1      43.926  26.802  31.237  1.00  0.00     0.031 C 
ATOM     60  C   UNL A   1      43.273  27.970  33.324  1.00  0.00     0.034 A 
BRANCH  47  61
ATOM     61  C   UNL A   1      39.295  32.110  35.607  1.00  0.00     0.023 A 
ATOM     62  C   UNL A   1      39.596  33.487  35.647  1.00  0.00     0.012 A 
ATOM     63  C   UNL A   1      38.536  31.538  36.646  1.00  0.00     0.148 A 
ATOM     64  C   UNL A   1      39.173  34.275  36.716  1.00  0.00     0.002 A 
ATOM     65  C   UNL A   1      38.084  32.338  37.688  1.00  0.00     0.091 A 
ATOM     66  F   UNL A   1      38.282  30.222  36.602  1.00  0.00    -0.205 F 
ATOM     67  C   UNL A   1      38.409  33.704  37.731  1.00  0.00     0.022 A 
BRANCH  65  68
ATOM     68  S   UNL A   1      37.032  31.711  39.004  1.00  0.00     0.127 S 
ATOM     69  O   UNL A   1      35.941  32.685  38.999  1.00  0.00    -0.237 OA
ATOM     70  O   UNL A   1      36.668  30.386  38.503  1.00  0.00    -0.237 OA
ATOM     71  O   UNL A   1      37.856  31.701  40.204  1.00  0.00    -0.744 OA
ENDBRANCH  65  68
ENDBRANCH  47  61
BRANCH  48  72
ATOM     72  C   UNL A   1      42.017  26.997  27.472  1.00  0.00     0.023 A 
ATOM     73  C   UNL A   1      42.623  27.707  26.418  1.00  0.00     0.012 A 
ATOM     74  C   UNL A   1      41.858  25.602  27.359  1.00  0.00     0.148 A 
ATOM     75  C   UNL A   1      43.037  27.046  25.261  1.00  0.00     0.002 A 
ATOM     76  C   UNL A   1      42.324  24.942  26.228  1.00  0.00     0.091 A 
ATOM     77  F   UNL A   1      41.260  24.947  28.364  1.00  0.00    -0.205 F 
ATOM     78  C   UNL A   1      42.898  25.663  25.170  1.00  0.00     0.022 A 
BRANCH  76  79
ATOM     79  S   UNL A   1      42.302  23.151  26.085  1.00  0.00     0.127 S 
ATOM     80  O   UNL A   1      42.842  22.950  24.743  1.00  0.00    -0.237 OA
ATOM     81  O   UNL A   1      43.192  22.750  27.175  1.00  0.00    -0.237 OA
ATOM     82  O   UNL A   1      40.910  22.760  26.274  1.00  0.00    -0.744 OA
ENDBRANCH  76  79
ENDBRANCH  48  72
BRANCH  60  83
ATOM     83  C   UNL A   1      44.429  27.301  34.024  1.00  0.00     0.023 A 
ATOM     84  C   UNL A   1      45.715  27.870  33.951  1.00  0.00     0.012 A 
ATOM     85  C   UNL A   1      44.223  26.156  34.820  1.00  0.00     0.148 A 
ATOM     86  C   UNL A   1      46.786  27.292  34.633  1.00  0.00     0.002 A 
ATOM     87  C   UNL A   1      45.285  25.612  35.534  1.00  0.00     0.091 A 
ATOM     88  F   UNL A   1      42.995  25.618  34.862  1.00  0.00    -0.205 F 
ATOM     89  C   UNL A   1      46.569  26.172  35.433  1.00  0.00     0.022 A 
BRANCH  87  90
ATOM     90  S   UNL A   1      45.078  24.229  36.661  1.00  0.00     0.127 S 
ATOM     91  O   UNL A   1      46.443  24.031  37.144  1.00  0.00    -0.237 OA
ATOM     92  O   UNL A   1      44.152  24.774  37.656  1.00  0.00    -0.237 OA
ATOM     93  O   UNL A   1      44.532  23.140  35.863  1.00  0.00    -0.744 OA
ENDBRANCH  87  90
ENDBRANCH  60  83
ENDBRANCH  34  35
ENDBRANCH  27  29
ENDBRANCH  26  27
ENDBRANCH  25  26
ENDBRANCH  24  25
ENDBRANCH  23  24
ENDBRANCH   1  23
TORSDOF 21
ENDMDL
MODEL 2
REMARK VINA RESULT:     -10.9      2.085      4.038
REMARK SMILES C[C@@H](C(=O)OCCOCCOC(=O)c1ccc(-c2c3nc(c(-c4cccc(S(=O)(=O)[O-])c4F)c4ccc([nH]4)c(-c4cccc(S(=O)(=O)[O-])c4F)c4nc(c(-c5cccc(S(=O)(=O)[O-])c5F)c5ccc2[nH]5)C=C4)C=C3)cc1)c1ccc(C[C@H]2CCC[C@@H]2O)cc1F
REMARK SMILES IDX 7 1 6 2 5 3 3 4 4 5 2 6 1 7 77 8 78 9 89 10 79 11 88 12
REMARK SMILES IDX 90 13 80 14 81 15 82 16 83 17 86 18 84 19 85 20 87 21 8 23
REMARK SMILES IDX 9 24 10 25 11 26 12 27 13 28 14 29 15 30 76 31 16 32 75 33
REMARK SMILES IDX 17 34 18 35 19 36 69 37 20 38 74 39 68 40 70 41 21 42 73 43
REMARK SMILES IDX 67 44 66 45 22 47 54 48 34 49 53 50 35 51 38 52 52 53 71 54
REMARK SMILES IDX 36 55 37 56 51 58 72 59 39 60 23 61 24 62 32 63 25 64 27 65
REMARK SMILES IDX 33 66 26 67 28 68 29 69 30 70 31 71 55 72 56 73 64 74 57 75
REMARK SMILES IDX 59 76 65 77 58 78 60 79 61 80 62 81 63 82 40 83 41 84 49 85
REMARK SMILES IDX 42 86 44 87 50 88 43 89 45 90 46 91 47 92 48 93
REMARK H PARENT 87 22 70 46 38 57
REMARK Flexibility Score: inf
ROOT
ATOM      1  C   UNL A   1      32.581  28.456  26.982  1.00  0.00     0.202 C 
ENDROOT
BRANCH   1   2
ATOM      2  C   UNL A   1      32.014  27.044  26.793  1.00  0.00     0.261 C 
BRANCH   2   3
ATOM      3  O   UNL A   1      32.953  26.221  26.087  1.00  0.00    -0.463 OA
BRANCH   3   4
ATOM      4  C   UNL A   1      32.438  25.449  25.093  1.00  0.00     0.313 C 
ATOM      5  O   UNL A   1      31.909  24.355  25.270  1.00  0.00    -0.252 OA
BRANCH   4   6
ATOM      6  C   UNL A   1      32.440  26.174  23.743  1.00  0.00     0.129 C 
ATOM      7  C   UNL A   1      33.738  26.967  23.530  1.00  0.00     0.025 C 
BRANCH   6   8
ATOM      8  C   UNL A   1      31.162  26.977  23.476  1.00  0.00     0.002 A 
ATOM      9  C   UNL A   1      31.166  28.377  23.330  1.00  0.00     0.008 A 
ATOM     10  C   UNL A   1      29.910  26.350  23.469  1.00  0.00     0.127 A 
ATOM     11  C   UNL A   1      29.976  29.109  23.258  1.00  0.00     0.004 A 
ATOM     12  C   UNL A   1      28.718  27.074  23.403  1.00  0.00     0.043 A 
ATOM     13  F   UNL A   1      29.815  25.019  23.589  1.00  0.00    -0.207 F 
ATOM     14  C   UNL A   1      28.738  28.470  23.364  1.00  0.00    -0.045 A 
BRANCH  14  15
ATOM     15  C   UNL A   1      27.466  29.266  23.530  1.00  0.00     0.041 C 
BRANCH  15  16
ATOM     16  C   UNL A   1      27.454  30.639  22.823  1.00  0.00     0.022 C 
ATOM     17  C   UNL A   1      27.850  31.853  23.684  1.00  0.00     0.007 C 
ATOM     18  C   UNL A   1      28.343  30.748  21.578  1.00  0.00     0.117 C 
ATOM     19  C   UNL A   1      28.676  32.772  22.778  1.00  0.00     0.003 C 
ATOM     20  C   UNL A   1      28.461  32.250  21.367  1.00  0.00     0.032 C 
BRANCH  18  21
ATOM     21  O   UNL A   1      27.765  30.100  20.460  1.00  0.00    -0.393 OA
ATOM     22  H   UNL A   1      26.831  30.353  20.386  1.00  0.00     0.210 HD
ENDBRANCH  18  21
ENDBRANCH  15  16
ENDBRANCH  14  15
ENDBRANCH   6   8
ENDBRANCH   4   6
ENDBRANCH   3   4
ENDBRANCH   2   3
ENDBRANCH   1   2
BRANCH   1  23
ATOM     23  O   UNL A   1      31.643  29.532  26.902  1.00  0.00    -0.374 OA
BRANCH  23  24
ATOM     24  C   UNL A   1      32.049  30.717  26.214  1.00  0.00     0.202 C 
BRANCH  24  25
ATOM     25  C   UNL A   1      31.720  32.065  26.868  1.00  0.00     0.261 C 
BRANCH  25  26
ATOM     26  O   UNL A   1      32.753  33.049  26.674  1.00  0.00    -0.460 OA
BRANCH  26  27
ATOM     27  C   UNL A   1      33.291  33.538  27.817  1.00  0.00     0.338 C 
ATOM     28  O   UNL A   1      32.783  34.352  28.580  1.00  0.00    -0.246 OA
BRANCH  27  29
ATOM     29  C   UNL A   1      34.534  32.825  28.152  1.00  0.00     0.060 A 
ATOM     30  C   UNL A   1      34.415  31.525  28.661  1.00  0.00     0.016 A 
ATOM     31  C   UNL A   1      35.784  33.445  28.072  1.00  0.00     0.016 A 
ATOM     32  C   UNL A   1      35.539  30.855  29.139  1.00  0.00     0.010 A 
ATOM     33  C   UNL A   1      36.910  32.773  28.562  1.00  0.00     0.010 A 
ATOM     34  C   UNL A   1      36.787  31.492  29.132  1.00  0.00    -0.014 A 
BRANCH  34  35
ATOM     35  C   UNL A   1      37.927  30.867  29.846  1.00  0.00     0.031 A 
ATOM     36  C   UNL A   1      38.228  31.288  31.259  1.00  0.00     0.074 A 
ATOM     37  C   UNL A   1      38.677  29.923  29.249  1.00  0.00     0.049 A 
ATOM     38  N   UNL A   1      39.176  30.878  32.061  1.00  0.00    -0.248 NA
ATOM     39  C   UNL A   1      37.343  32.307  31.846  1.00  0.00     0.031 C 
ATOM     40  C   UNL A   1      38.484  29.428  27.888  1.00  0.00     0.029 A 
ATOM     41  N   UNL A   1      39.767  29.227  29.710  1.00  0.00    -0.354 N 
ATOM     42  C   UNL A   1      39.018  31.601  33.237  1.00  0.00     0.074 A 
ATOM     43  C   UNL A   1      37.891  32.488  33.039  1.00  0.00     0.031 C 
ATOM     44  C   UNL A   1      39.446  28.531  27.611  1.00  0.00     0.029 A 
ATOM     45  C   UNL A   1      40.331  28.402  28.767  1.00  0.00     0.049 A 
ATOM     46  H   UNL A   1      40.113  29.312  30.629  1.00  0.00     0.167 HD
ATOM     47  C   UNL A   1      39.732  31.522  34.385  1.00  0.00     0.034 A 
ATOM     48  C   UNL A   1      41.445  27.645  28.823  1.00  0.00     0.034 A 
ATOM     49  C   UNL A   1      40.840  30.628  34.588  1.00  0.00     0.049 A 
ATOM     50  C   UNL A   1      42.235  27.590  30.105  1.00  0.00     0.074 A 
ATOM     51  C   UNL A   1      41.600  30.446  35.730  1.00  0.00     0.029 A 
ATOM     52  N   UNL A   1      41.353  29.773  33.626  1.00  0.00    -0.354 N 
ATOM     53  N   UNL A   1      42.001  28.190  31.247  1.00  0.00    -0.248 NA
ATOM     54  C   UNL A   1      43.425  26.725  30.117  1.00  0.00     0.031 C 
ATOM     55  C   UNL A   1      42.588  29.495  35.450  1.00  0.00     0.029 A 
ATOM     56  C   UNL A   1      42.426  29.067  34.143  1.00  0.00     0.049 A 
ATOM     57  H   UNL A   1      41.005  29.681  32.710  1.00  0.00     0.167 HD
ATOM     58  C   UNL A   1      42.989  27.750  32.121  1.00  0.00     0.074 A 
ATOM     59  C   UNL A   1      43.815  26.818  31.382  1.00  0.00     0.031 C 
ATOM     60  C   UNL A   1      43.205  28.099  33.413  1.00  0.00     0.034 A 
BRANCH  47  61
ATOM     61  C   UNL A   1      39.315  32.409  35.529  1.00  0.00     0.023 A 
ATOM     62  C   UNL A   1      38.450  31.902  36.521  1.00  0.00     0.012 A 
ATOM     63  C   UNL A   1      39.818  33.718  35.654  1.00  0.00     0.148 A 
ATOM     64  C   UNL A   1      38.071  32.694  37.604  1.00  0.00     0.002 A 
ATOM     65  C   UNL A   1      39.468  34.487  36.758  1.00  0.00     0.091 A 
ATOM     66  F   UNL A   1      40.619  34.191  34.688  1.00  0.00    -0.205 F 
ATOM     67  C   UNL A   1      38.587  33.981  37.728  1.00  0.00     0.022 A 
BRANCH  65  68
ATOM     68  S   UNL A   1      40.137  36.130  37.045  1.00  0.00     0.127 S 
ATOM     69  O   UNL A   1      41.565  35.847  37.181  1.00  0.00    -0.237 OA
ATOM     70  O   UNL A   1      39.769  36.833  35.816  1.00  0.00    -0.237 OA
ATOM     71  O   UNL A   1      39.480  36.625  38.247  1.00  0.00    -0.744 OA
ENDBRANCH  65  68
ENDBRANCH  47  61
BRANCH  48  72
ATOM     72  C   UNL A   1      41.863  26.851  27.634  1.00  0.00     0.023 A 
ATOM     73  C   UNL A   1      42.555  27.480  26.580  1.00  0.00     0.012 A 
ATOM     74  C   UNL A   1      41.595  25.470  27.552  1.00  0.00     0.148 A 
ATOM     75  C   UNL A   1      42.947  26.754  25.454  1.00  0.00     0.002 A 
ATOM     76  C   UNL A   1      42.037  24.743  26.453  1.00  0.00     0.091 A 
ATOM     77  F   UNL A   1      40.917  24.894  28.554  1.00  0.00    -0.205 F 
ATOM     78  C   UNL A   1      42.698  25.385  25.395  1.00  0.00     0.022 A 
BRANCH  76  79
ATOM     79  S   UNL A   1      41.874  22.956  26.356  1.00  0.00     0.127 S 
ATOM     80  O   UNL A   1      42.650  22.521  27.515  1.00  0.00    -0.237 OA
ATOM     81  O   UNL A   1      40.426  22.778  26.481  1.00  0.00    -0.237 OA
ATOM     82  O   UNL A   1      42.413  22.584  25.054  1.00  0.00    -0.744 OA
ENDBRANCH  76  79
ENDBRANCH  48  72
BRANCH  60  83
ATOM     83  C   UNL A   1      44.359  27.450  34.134  1.00  0.00     0.023 A 
ATOM     84  C   UNL A   1      45.635  28.046  34.091  1.00  0.00     0.012 A 
ATOM     85  C   UNL A   1      44.161  26.295  34.917  1.00  0.00     0.148 A 
ATOM     86  C   UNL A   1      46.702  27.485  34.792  1.00  0.00     0.002 A 
ATOM     87  C   UNL A   1      45.218  25.768  35.649  1.00  0.00     0.091 A 
ATOM     88  F   UNL A   1      42.944  25.731  34.929  1.00  0.00    -0.205 F 
ATOM     89  C   UNL A   1      46.492  26.355  35.580  1.00  0.00     0.022 A 
BRANCH  87  90
ATOM     90  S   UNL A   1      45.017  24.373  36.762  1.00  0.00     0.127 S 
ATOM     91  O   UNL A   1      44.421  23.372  35.881  1.00  0.00    -0.237 OA
ATOM     92  O   UNL A   1      46.397  24.090  37.160  1.00  0.00    -0.237 OA
ATOM     93  O   UNL A   1      44.163  24.844  37.845  1.00  0.00    -0.744 OA
ENDBRANCH  87  90
ENDBRANCH  60  83
ENDBRANCH  34  35
ENDBRANCH  27  29
ENDBRANCH  26  27
ENDBRANCH  25  26
ENDBRANCH  24  25
ENDBRANCH  23  24
ENDBRANCH   1  23
TORSDOF 21
ENDMDL
MODEL 3
REMARK VINA RESULT:     -10.8      0.998      7.563
REMARK SMILES C[C@@H](C(=O)OCCOCCOC(=O)c1ccc(-c2c3nc(c(-c4cccc(S(=O)(=O)[O-])c4F)c4ccc([nH]4)c(-c4cccc(S(=O)(=O)[O-])c4F)c4nc(c(-c5cccc(S(=O)(=O)[O-])c5F)c5ccc2[nH]5)C=C4)C=C3)cc1)c1ccc(C[C@H]2CCC[C@@H]2O)cc1F
REMARK SMILES IDX 7 1 6 2 5 3 3 4 4 5 2 6 1 7 77 8 78 9 89 10 79 11 88 12
REMARK SMILES IDX 90 13 80 14 81 15 82 16 83 17 86 18 84 19 85 20 87 21 8 23
REMARK SMILES IDX 9 24 10 25 11 26 12 27 13 28 14 29 15 30 76 31 16 32 75 33
REMARK SMILES IDX 17 34 18 35 19 36 69 37 20 38 74 39 68 40 70 41 21 42 73 43
REMARK SMILES IDX 67 44 66 45 22 47 54 48 34 49 53 50 35 51 38 52 52 53 71 54
REMARK SMILES IDX 36 55 37 56 51 58 72 59 39 60 23 61 24 62 32 63 25 64 27 65
REMARK SMILES IDX 33 66 26 67 28 68 29 69 30 70 31 71 55 72 56 73 64 74 57 75
REMARK SMILES IDX 59 76 65 77 58 78 60 79 61 80 62 81 63 82 40 83 41 84 49 85
REMARK SMILES IDX 42 86 44 87 50 88 43 89 45 90 46 91 47 92 48 93
REMARK H PARENT 87 22 70 46 38 57
REMARK Flexibility Score: inf
ROOT
ATOM      1  C   UNL A   1      32.987  29.186  26.777  1.00  0.00     0.202 C 
ENDROOT
BRANCH   1   2
ATOM      2  C   UNL A   1      33.292  29.052  25.281  1.00  0.00     0.261 C 
BRANCH   2   3
ATOM      3  O   UNL A   1      32.246  28.325  24.622  1.00  0.00    -0.463 OA
BRANCH   3   4
ATOM      4  C   UNL A   1      32.212  28.428  23.266  1.00  0.00     0.313 C 
ATOM      5  O   UNL A   1      33.055  29.016  22.595  1.00  0.00    -0.252 OA
BRANCH   4   6
ATOM      6  C   UNL A   1      31.090  27.583  22.654  1.00  0.00     0.129 C 
ATOM      7  C   UNL A   1      29.718  27.965  23.228  1.00  0.00     0.025 C 
BRANCH   6   8
ATOM      8  C   UNL A   1      31.378  26.078  22.666  1.00  0.00     0.002 A 
ATOM      9  C   UNL A   1      30.676  25.181  23.493  1.00  0.00     0.008 A 
ATOM     10  C   UNL A   1      32.438  25.545  21.920  1.00  0.00     0.127 A 
ATOM     11  C   UNL A   1      31.067  23.843  23.618  1.00  0.00     0.004 A 
ATOM     12  C   UNL A   1      32.835  24.212  22.044  1.00  0.00     0.043 A 
ATOM     13  F   UNL A   1      33.150  26.325  21.097  1.00  0.00    -0.207 F 
ATOM     14  C   UNL A   1      32.193  23.362  22.947  1.00  0.00    -0.045 A 
BRANCH  14  15
ATOM     15  C   UNL A   1      32.760  21.998  23.261  1.00  0.00     0.041 C 
BRANCH  15  16
ATOM     16  C   UNL A   1      33.840  21.974  24.364  1.00  0.00     0.022 C 
ATOM     17  C   UNL A   1      35.037  22.924  24.169  1.00  0.00     0.007 C 
ATOM     18  C   UNL A   1      33.341  22.277  25.783  1.00  0.00     0.117 C 
ATOM     19  C   UNL A   1      35.382  23.473  25.557  1.00  0.00     0.003 C 
ATOM     20  C   UNL A   1      34.622  22.598  26.540  1.00  0.00     0.032 C 
BRANCH  18  21
ATOM     21  O   UNL A   1      32.655  21.173  26.346  1.00  0.00    -0.393 OA
ATOM     22  H   UNL A   1      31.875  21.489  26.828  1.00  0.00     0.210 HD
ENDBRANCH  18  21
ENDBRANCH  15  16
ENDBRANCH  14  15
ENDBRANCH   6   8
ENDBRANCH   4   6
ENDBRANCH   3   4
ENDBRANCH   2   3
ENDBRANCH   1   2
BRANCH   1  23
ATOM     23  O   UNL A   1      31.916  30.065  27.130  1.00  0.00    -0.374 OA
BRANCH  23  24
ATOM     24  C   UNL A   1      31.640  31.162  26.255  1.00  0.00     0.202 C 
BRANCH  24  25
ATOM     25  C   UNL A   1      31.837  32.578  26.810  1.00  0.00     0.261 C 
BRANCH  25  26
ATOM     26  O   UNL A   1      32.709  32.615  27.955  1.00  0.00    -0.460 OA
BRANCH  26  27
ATOM     27  C   UNL A   1      33.771  33.446  27.831  1.00  0.00     0.338 C 
ATOM     28  O   UNL A   1      33.743  34.644  27.569  1.00  0.00    -0.246 OA
BRANCH  27  29
ATOM     29  C   UNL A   1      35.013  32.766  28.237  1.00  0.00     0.060 A 
ATOM     30  C   UNL A   1      34.897  31.474  28.766  1.00  0.00     0.016 A 
ATOM     31  C   UNL A   1      36.251  33.411  28.200  1.00  0.00     0.016 A 
ATOM     32  C   UNL A   1      36.012  30.839  29.308  1.00  0.00     0.010 A 
ATOM     33  C   UNL A   1      37.368  32.772  28.753  1.00  0.00     0.010 A 
ATOM     34  C   UNL A   1      37.246  31.501  29.344  1.00  0.00    -0.014 A 
BRANCH  34  35
ATOM     35  C   UNL A   1      38.365  30.914  30.120  1.00  0.00     0.031 A 
ATOM     36  C   UNL A   1      39.234  29.866  29.479  1.00  0.00     0.074 A 
ATOM     37  C   UNL A   1      38.615  31.320  31.378  1.00  0.00     0.049 A 
ATOM     38  N   UNL A   1      40.255  29.219  29.976  1.00  0.00    -0.248 NA
ATOM     39  C   UNL A   1      38.907  29.498  28.091  1.00  0.00     0.031 C 
ATOM     40  C   UNL A   1      37.849  32.329  32.107  1.00  0.00     0.029 A 
ATOM     41  N   UNL A   1      39.576  30.915  32.271  1.00  0.00    -0.354 N 
ATOM     42  C   UNL A   1      40.681  28.354  28.976  1.00  0.00     0.074 A 
ATOM     43  C   UNL A   1      39.797  28.546  27.847  1.00  0.00     0.031 C 
ATOM     44  C   UNL A   1      38.349  32.440  33.350  1.00  0.00     0.029 A 
ATOM     45  C   UNL A   1      39.456  31.500  33.509  1.00  0.00     0.049 A 
ATOM     46  H   UNL A   1      40.282  30.266  32.047  1.00  0.00     0.167 HD
ATOM     47  C   UNL A   1      41.724  27.490  28.988  1.00  0.00     0.034 A 
ATOM     48  C   UNL A   1      40.149  31.287  34.646  1.00  0.00     0.034 A 
ATOM     49  C   UNL A   1      42.614  27.312  30.104  1.00  0.00     0.049 A 
ATOM     50  C   UNL A   1      41.292  30.306  34.640  1.00  0.00     0.074 A 
ATOM     51  C   UNL A   1      43.723  26.491  30.196  1.00  0.00     0.029 A 
ATOM     52  N   UNL A   1      42.491  27.957  31.324  1.00  0.00    -0.354 N 
ATOM     53  N   UNL A   1      41.756  29.584  33.648  1.00  0.00    -0.248 NA
ATOM     54  C   UNL A   1      42.031  30.135  35.901  1.00  0.00     0.031 C 
ATOM     55  C   UNL A   1      44.259  26.623  31.482  1.00  0.00     0.029 A 
ATOM     56  C   UNL A   1      43.498  27.546  32.181  1.00  0.00     0.049 A 
ATOM     57  H   UNL A   1      41.790  28.611  31.549  1.00  0.00     0.167 HD
ATOM     58  C   UNL A   1      42.859  28.901  34.154  1.00  0.00     0.074 A 
ATOM     59  C   UNL A   1      43.004  29.312  35.536  1.00  0.00     0.031 C 
ATOM     60  C   UNL A   1      43.666  28.004  33.537  1.00  0.00     0.034 A 
BRANCH  47  61
ATOM     61  C   UNL A   1      41.981  26.690  27.738  1.00  0.00     0.023 A 
ATOM     62  C   UNL A   1      42.577  27.316  26.624  1.00  0.00     0.012 A 
ATOM     63  C   UNL A   1      41.690  25.313  27.684  1.00  0.00     0.148 A 
ATOM     64  C   UNL A   1      42.851  26.591  25.465  1.00  0.00     0.002 A 
ATOM     65  C   UNL A   1      42.003  24.589  26.540  1.00  0.00     0.091 A 
ATOM     66  F   UNL A   1      41.102  24.742  28.745  1.00  0.00    -0.205 F 
ATOM     67  C   UNL A   1      42.573  25.227  25.426  1.00  0.00     0.022 A 
BRANCH  65  68
ATOM     68  S   UNL A   1      41.753  22.813  26.419  1.00  0.00     0.127 S 
ATOM     69  O   UNL A   1      42.420  22.507  25.155  1.00  0.00    -0.237 OA
ATOM     70  O   UNL A   1      42.447  22.322  27.610  1.00  0.00    -0.237 OA
ATOM     71  O   UNL A   1      40.311  22.611  26.431  1.00  0.00    -0.744 OA
ENDBRANCH  65  68
ENDBRANCH  47  61
BRANCH  48  72
ATOM     72  C   UNL A   1      39.799  32.044  35.881  1.00  0.00     0.023 A 
ATOM     73  C   UNL A   1      40.474  33.243  36.180  1.00  0.00     0.012 A 
ATOM     74  C   UNL A   1      38.787  31.589  36.749  1.00  0.00     0.148 A 
ATOM     75  C   UNL A   1      40.166  33.962  37.337  1.00  0.00     0.002 A 
ATOM     76  C   UNL A   1      38.448  32.339  37.870  1.00  0.00     0.091 A 
ATOM     77  F   UNL A   1      38.172  30.434  36.459  1.00  0.00    -0.205 F 
ATOM     78  C   UNL A   1      39.147  33.516  38.175  1.00  0.00     0.022 A 
BRANCH  76  79
ATOM     79  S   UNL A   1      37.064  31.906  38.930  1.00  0.00     0.127 S 
ATOM     80  O   UNL A   1      37.543  32.340  40.240  1.00  0.00    -0.237 OA
ATOM     81  O   UNL A   1      35.985  32.719  38.366  1.00  0.00    -0.237 OA
ATOM     82  O   UNL A   1      36.879  30.470  38.766  1.00  0.00    -0.744 OA
ENDBRANCH  76  79
ENDBRANCH  48  72
BRANCH  60  83
ATOM     83  C   UNL A   1      44.807  27.422  34.332  1.00  0.00     0.023 A 
ATOM     84  C   UNL A   1      46.044  28.094  34.375  1.00  0.00     0.012 A 
ATOM     85  C   UNL A   1      44.627  26.252  35.098  1.00  0.00     0.148 A 
ATOM     86  C   UNL A   1      47.094  27.594  35.145  1.00  0.00     0.002 A 
ATOM     87  C   UNL A   1      45.663  25.787  35.899  1.00  0.00     0.091 A 
ATOM     88  F   UNL A   1      43.448  25.617  35.029  1.00  0.00    -0.205 F 
ATOM     89  C   UNL A   1      46.901  26.450  35.915  1.00  0.00     0.022 A 
BRANCH  87  90
ATOM     90  S   UNL A   1      45.473  24.376  36.995  1.00  0.00     0.127 S 
ATOM     91  O   UNL A   1      44.357  24.801  37.837  1.00  0.00    -0.237 OA
ATOM     92  O   UNL A   1      45.154  23.296  36.059  1.00  0.00    -0.237 OA
ATOM     93  O   UNL A   1      46.751  24.224  37.677  1.00  0.00    -0.744 OA
ENDBRANCH  87  90
ENDBRANCH  60  83
ENDBRANCH  34  35
ENDBRANCH  27  29
ENDBRANCH  26  27
ENDBRANCH  25  26
ENDBRANCH  24  25
ENDBRANCH  23  24
ENDBRANCH   1  23
TORSDOF 21
ENDMDL
