MODEL 1
REMARK VINA RESULT:      -9.7      0.000      0.000
REMARK SMILES CC(C)C[C@H](NC(=O)[C@@H](NC(=O)[C@H](C)NC(=O)CNC(=O)OCc1ccccc1)C(C)C)C(=O)OCCOCCOC(=O)c1ccc(-c2c3nc(c(-c4cccc(S(=O)(=O)[O-])c4F)c4ccc([nH]4)c(-c4cccc(S(=O)(=O)[O-])c4F)c4nc(c(-c5cccc(S(=O)(=O)[O-])c5F)c5ccc2[nH]5)C=C4)C=C3)cc1
REMARK SMILES IDX 33 1 34 2 5 3 4 4 2 5 1 6 3 7 6 8 7 9 8 11 9 12 10 13 11 14
REMARK SMILES IDX 12 16 13 17 14 18 15 19 16 20 17 22 18 23 19 24 20 25 21 27
REMARK SMILES IDX 22 28 23 29 24 30 25 31 29 32 26 33 28 34 27 35 30 36 31 37
REMARK SMILES IDX 32 38 35 39 36 40 37 41 38 42 39 43 40 44 41 45 42 46 43 47
REMARK SMILES IDX 44 48 45 49 106 50 46 51 105 52 47 53 48 54 49 55 99 56
REMARK SMILES IDX 50 57 104 58 98 59 100 60 51 61 103 62 97 63 96 64 52 66
REMARK SMILES IDX 84 67 64 68 83 69 65 70 68 71 82 72 101 73 66 74 67 75 81 77
REMARK SMILES IDX 102 78 69 79 53 80 54 81 62 82 55 83 57 84 63 85 56 86 58 87
REMARK SMILES IDX 59 88 60 89 61 90 85 91 86 92 94 93 87 94 89 95 95 96 88 97
REMARK SMILES IDX 90 98 91 99 92 100 93 101 70 102 71 103 79 104 72 105 74 106
REMARK SMILES IDX 80 107 73 108 75 109 76 110 77 111 78 112
REMARK H PARENT 6 10 10 15 15 21 19 26 100 65 68 76
REMARK Flexibility Score: inf
ROOT
ATOM      1  C   UNL A   1      37.033  21.644  25.169  1.00  0.00     0.328 C 
ATOM      2  O   UNL A   1      37.069  21.843  23.961  1.00  0.00    -0.250 OA
ENDROOT
BRANCH   1   3
ATOM      3  C   UNL A   1      35.879  20.838  25.795  1.00  0.00     0.192 C 
BRANCH   3   4
ATOM      4  C   UNL A   1      34.940  20.512  24.610  1.00  0.00     0.040 C 
BRANCH   4   5
ATOM      5  C   UNL A   1      34.032  19.310  24.918  1.00  0.00    -0.015 C 
ATOM      6  C   UNL A   1      32.606  19.601  24.453  1.00  0.00     0.007 C 
ATOM      7  C   UNL A   1      34.574  18.046  24.252  1.00  0.00     0.007 C 
ENDBRANCH   4   5
ENDBRANCH   3   4
BRANCH   3   8
ATOM      8  N   UNL A   1      35.124  21.440  26.892  1.00  0.00    -0.341 N 
ATOM      9  C   UNL A   1      34.062  22.272  27.013  1.00  0.00     0.243 C 
ATOM     10  H   UNL A   1      35.481  21.173  27.771  1.00  0.00     0.164 HD
ATOM     11  O   UNL A   1      33.803  22.554  28.191  1.00  0.00    -0.273 OA
BRANCH   9  12
ATOM     12  C   UNL A   1      33.131  22.847  25.874  1.00  0.00     0.174 C 
BRANCH  12  13
ATOM     13  N   UNL A   1      31.789  23.360  26.276  1.00  0.00    -0.342 N 
ATOM     14  C   UNL A   1      30.939  24.407  26.258  1.00  0.00     0.242 C 
ATOM     15  H   UNL A   1      31.334  22.629  26.754  1.00  0.00     0.164 HD
ATOM     16  O   UNL A   1      29.870  24.143  26.841  1.00  0.00    -0.273 OA
BRANCH  14  17
ATOM     17  C   UNL A   1      31.124  25.879  25.778  1.00  0.00     0.168 C 
ATOM     18  C   UNL A   1      31.862  26.841  26.676  1.00  0.00     0.041 C 
BRANCH  17  19
ATOM     19  N   UNL A   1      29.863  26.388  25.228  1.00  0.00    -0.343 N 
ATOM     20  C   UNL A   1      29.533  26.768  23.963  1.00  0.00     0.240 C 
ATOM     21  H   UNL A   1      29.133  26.467  25.884  1.00  0.00     0.164 HD
ATOM     22  O   UNL A   1      28.408  26.449  23.560  1.00  0.00    -0.273 OA
BRANCH  20  23
ATOM     23  C   UNL A   1      30.467  27.448  22.969  1.00  0.00     0.219 C 
BRANCH  23  24
ATOM     24  N   UNL A   1      30.009  28.612  22.253  1.00  0.00    -0.312 N 
ATOM     25  C   UNL A   1      29.853  29.847  22.795  1.00  0.00     0.407 C 
ATOM     26  H   UNL A   1      29.793  28.503  21.299  1.00  0.00     0.167 HD
ATOM     27  O   UNL A   1      29.414  30.785  22.146  1.00  0.00    -0.225 OA
BRANCH  25  28
ATOM     28  O   UNL A   1      30.133  29.857  24.120  1.00  0.00    -0.445 OA
BRANCH  28  29
ATOM     29  C   UNL A   1      30.117  31.141  24.747  1.00  0.00     0.270 C 
BRANCH  29  30
ATOM     30  C   UNL A   1      31.272  31.265  25.696  1.00  0.00    -0.011 A 
ATOM     31  C   UNL A   1      31.406  32.404  26.502  1.00  0.00     0.007 A 
ATOM     32  C   UNL A   1      32.177  30.207  25.841  1.00  0.00     0.007 A 
ATOM     33  C   UNL A   1      32.403  32.464  27.471  1.00  0.00     0.000 A 
ATOM     34  C   UNL A   1      33.179  30.273  26.805  1.00  0.00     0.000 A 
ATOM     35  C   UNL A   1      33.285  31.396  27.625  1.00  0.00     0.000 A 
ENDBRANCH  29  30
ENDBRANCH  28  29
ENDBRANCH  25  28
ENDBRANCH  23  24
ENDBRANCH  20  23
ENDBRANCH  17  19
ENDBRANCH  14  17
ENDBRANCH  12  13
BRANCH  12  36
ATOM     36  C   UNL A   1      33.847  23.605  24.707  1.00  0.00     0.015 C 
ATOM     37  C   UNL A   1      33.004  24.061  23.495  1.00  0.00     0.010 C 
ATOM     38  C   UNL A   1      34.609  24.851  25.188  1.00  0.00     0.010 C 
ENDBRANCH  12  36
ENDBRANCH   9  12
ENDBRANCH   3   8
ENDBRANCH   1   3
BRANCH   1  39
ATOM     39  O   UNL A   1      37.926  22.149  26.048  1.00  0.00    -0.462 OA
BRANCH  39  40
ATOM     40  C   UNL A   1      39.308  21.867  25.754  1.00  0.00     0.261 C 
BRANCH  40  41
ATOM     41  C   UNL A   1      39.662  20.398  25.976  1.00  0.00     0.202 C 
BRANCH  41  42
ATOM     42  O   UNL A   1      40.512  20.119  27.076  1.00  0.00    -0.374 OA
BRANCH  42  43
ATOM     43  C   UNL A   1      41.918  20.021  26.887  1.00  0.00     0.202 C 
BRANCH  43  44
ATOM     44  C   UNL A   1      42.552  19.231  25.752  1.00  0.00     0.261 C 
BRANCH  44  45
ATOM     45  O   UNL A   1      43.942  19.303  25.720  1.00  0.00    -0.460 OA
BRANCH  45  46
ATOM     46  C   UNL A   1      44.544  19.552  24.545  1.00  0.00     0.338 C 
ATOM     47  O   UNL A   1      44.799  18.827  23.625  1.00  0.00    -0.246 OA
BRANCH  46  48
ATOM     48  C   UNL A   1      44.784  20.976  24.767  1.00  0.00     0.060 A 
ATOM     49  C   UNL A   1      44.163  21.882  23.902  1.00  0.00     0.016 A 
ATOM     50  C   UNL A   1      45.210  21.329  26.054  1.00  0.00     0.016 A 
ATOM     51  C   UNL A   1      43.983  23.187  24.328  1.00  0.00     0.010 A 
ATOM     52  C   UNL A   1      44.991  22.617  26.491  1.00  0.00     0.010 A 
ATOM     53  C   UNL A   1      44.409  23.548  25.613  1.00  0.00    -0.014 A 
BRANCH  53  54
ATOM     54  C   UNL A   1      44.518  24.962  25.985  1.00  0.00     0.031 A 
ATOM     55  C   UNL A   1      45.869  25.577  25.797  1.00  0.00     0.074 A 
ATOM     56  C   UNL A   1      43.498  25.597  26.579  1.00  0.00     0.049 A 
ATOM     57  N   UNL A   1      46.310  26.736  26.187  1.00  0.00    -0.248 NA
ATOM     58  C   UNL A   1      46.879  24.737  25.120  1.00  0.00     0.031 C 
ATOM     59  C   UNL A   1      42.179  25.022  26.846  1.00  0.00     0.029 A 
ATOM     60  N   UNL A   1      43.437  26.854  27.114  1.00  0.00    -0.354 N 
ATOM     61  C   UNL A   1      47.658  26.743  25.853  1.00  0.00     0.074 A 
ATOM     62  C   UNL A   1      47.971  25.467  25.257  1.00  0.00     0.031 C 
ATOM     63  C   UNL A   1      41.450  25.914  27.540  1.00  0.00     0.029 A 
ATOM     64  C   UNL A   1      42.261  27.106  27.777  1.00  0.00     0.049 A 
ATOM     65  H   UNL A   1      44.164  27.513  27.033  1.00  0.00     0.167 HD
ATOM     66  C   UNL A   1      48.550  27.742  26.016  1.00  0.00     0.034 A 
ATOM     67  C   UNL A   1      41.907  28.178  28.512  1.00  0.00     0.034 A 
ATOM     68  C   UNL A   1      48.194  29.004  26.589  1.00  0.00     0.049 A 
ATOM     69  C   UNL A   1      42.891  29.313  28.619  1.00  0.00     0.074 A 
ATOM     70  C   UNL A   1      48.968  30.136  26.736  1.00  0.00     0.029 A 
ATOM     71  N   UNL A   1      46.943  29.289  27.122  1.00  0.00    -0.354 N 
ATOM     72  N   UNL A   1      44.119  29.382  28.158  1.00  0.00    -0.248 NA
ATOM     73  C   UNL A   1      42.437  30.530  29.302  1.00  0.00     0.031 C 
ATOM     74  C   UNL A   1      48.186  31.104  27.375  1.00  0.00     0.029 A 
ATOM     75  C   UNL A   1      46.920  30.582  27.603  1.00  0.00     0.049 A 
ATOM     76  H   UNL A   1      46.185  28.661  27.152  1.00  0.00     0.167 HD
ATOM     77  C   UNL A   1      44.576  30.658  28.464  1.00  0.00     0.074 A 
ATOM     78  C   UNL A   1      43.484  31.332  29.142  1.00  0.00     0.031 C 
ATOM     79  C   UNL A   1      45.785  31.223  28.220  1.00  0.00     0.034 A 
BRANCH  66  80
ATOM     80  C   UNL A   1      49.955  27.487  25.546  1.00  0.00     0.023 A 
ATOM     81  C   UNL A   1      50.929  27.034  26.461  1.00  0.00     0.012 A 
ATOM     82  C   UNL A   1      50.325  27.737  24.212  1.00  0.00     0.148 A 
ATOM     83  C   UNL A   1      52.259  26.885  26.071  1.00  0.00     0.002 A 
ATOM     84  C   UNL A   1      51.643  27.537  23.818  1.00  0.00     0.091 A 
ATOM     85  F   UNL A   1      49.400  28.208  23.365  1.00  0.00    -0.205 F 
ATOM     86  C   UNL A   1      52.613  27.127  24.747  1.00  0.00     0.022 A 
BRANCH  84  87
ATOM     87  S   UNL A   1      52.178  27.755  22.117  1.00  0.00     0.127 S 
ATOM     88  O   UNL A   1      51.554  26.607  21.462  1.00  0.00    -0.237 OA
ATOM     89  O   UNL A   1      51.587  29.049  21.772  1.00  0.00    -0.237 OA
ATOM     90  O   UNL A   1      53.633  27.748  22.155  1.00  0.00    -0.744 OA
ENDBRANCH  84  87
ENDBRANCH  66  80
BRANCH  67  91
ATOM     91  C   UNL A   1      40.555  28.230  29.133  1.00  0.00     0.023 A 
ATOM     92  C   UNL A   1      40.360  27.684  30.417  1.00  0.00     0.012 A 
ATOM     93  C   UNL A   1      39.487  28.898  28.502  1.00  0.00     0.148 A 
ATOM     94  C   UNL A   1      39.121  27.788  31.053  1.00  0.00     0.002 A 
ATOM     95  C   UNL A   1      38.271  29.042  29.162  1.00  0.00     0.091 A 
ATOM     96  F   UNL A   1      39.692  29.406  27.279  1.00  0.00    -0.205 F 
ATOM     97  C   UNL A   1      38.082  28.477  30.432  1.00  0.00     0.022 A 
BRANCH  95  98
ATOM     98  S   UNL A   1      36.922  30.028  28.501  1.00  0.00     0.127 S 
ATOM     99  O   UNL A   1      36.635  29.341  27.245  1.00  0.00    -0.237 OA
ATOM    100  O   UNL A   1      35.900  29.871  29.537  1.00  0.00    -0.237 OA
ATOM    101  O   UNL A   1      37.445  31.381  28.376  1.00  0.00    -0.744 OA
ENDBRANCH  95  98
ENDBRANCH  67  91
BRANCH  79 102
ATOM    102  C   UNL A   1      45.985  32.649  28.649  1.00  0.00     0.023 A 
ATOM    103  C   UNL A   1      46.588  32.926  29.889  1.00  0.00     0.012 A 
ATOM    104  C   UNL A   1      45.707  33.700  27.753  1.00  0.00     0.148 A 
ATOM    105  C   UNL A   1      46.900  34.238  30.240  1.00  0.00     0.002 A 
ATOM    106  C   UNL A   1      46.065  34.998  28.090  1.00  0.00     0.091 A 
ATOM    107  F   UNL A   1      45.118  33.406  26.586  1.00  0.00    -0.205 F 
ATOM    108  C   UNL A   1      46.654  35.269  29.336  1.00  0.00     0.022 A 
BRANCH 106 109
ATOM    109  S   UNL A   1      45.886  36.367  26.944  1.00  0.00     0.127 S 
ATOM    110  O   UNL A   1      44.434  36.437  26.789  1.00  0.00    -0.237 OA
ATOM    111  O   UNL A   1      46.474  37.478  27.693  1.00  0.00    -0.237 OA
ATOM    112  O   UNL A   1      46.626  35.990  25.747  1.00  0.00    -0.744 OA
ENDBRANCH 106 109
ENDBRANCH  79 102
ENDBRANCH  53  54
ENDBRANCH  46  48
ENDBRANCH  45  46
ENDBRANCH  44  45
ENDBRANCH  43  44
ENDBRANCH  42  43
ENDBRANCH  41  42
ENDBRANCH  40  41
ENDBRANCH  39  40
ENDBRANCH   1  39
TORSDOF 30
ENDMDL
MODEL 2
REMARK VINA RESULT:      -9.4      4.645      7.307
REMARK SMILES CC(C)C[C@H](NC(=O)[C@@H](NC(=O)[C@H](C)NC(=O)CNC(=O)OCc1ccccc1)C(C)C)C(=O)OCCOCCOC(=O)c1ccc(-c2c3nc(c(-c4cccc(S(=O)(=O)[O-])c4F)c4ccc([nH]4)c(-c4cccc(S(=O)(=O)[O-])c4F)c4nc(c(-c5cccc(S(=O)(=O)[O-])c5F)c5ccc2[nH]5)C=C4)C=C3)cc1
REMARK SMILES IDX 33 1 34 2 5 3 4 4 2 5 1 6 3 7 6 8 7 9 8 11 9 12 10 13 11 14
REMARK SMILES IDX 12 16 13 17 14 18 15 19 16 20 17 22 18 23 19 24 20 25 21 27
REMARK SMILES IDX 22 28 23 29 24 30 25 31 29 32 26 33 28 34 27 35 30 36 31 37
REMARK SMILES IDX 32 38 35 39 36 40 37 41 38 42 39 43 40 44 41 45 42 46 43 47
REMARK SMILES IDX 44 48 45 49 106 50 46 51 105 52 47 53 48 54 49 55 99 56
REMARK SMILES IDX 50 57 104 58 98 59 100 60 51 61 103 62 97 63 96 64 52 66
REMARK SMILES IDX 84 67 64 68 83 69 65 70 68 71 82 72 101 73 66 74 67 75 81 77
REMARK SMILES IDX 102 78 69 79 53 80 54 81 62 82 55 83 57 84 63 85 56 86 58 87
REMARK SMILES IDX 59 88 60 89 61 90 85 91 86 92 94 93 87 94 89 95 95 96 88 97
REMARK SMILES IDX 90 98 91 99 92 100 93 101 70 102 71 103 79 104 72 105 74 106
REMARK SMILES IDX 80 107 73 108 75 109 76 110 77 111 78 112
REMARK H PARENT 6 10 10 15 15 21 19 26 100 65 68 76
REMARK Flexibility Score: inf
ROOT
ATOM      1  C   UNL A   1      39.077  21.555  25.794  1.00  0.00     0.328 C 
ATOM      2  O   UNL A   1      38.306  20.759  25.271  1.00  0.00    -0.250 OA
ENDROOT
BRANCH   1   3
ATOM      3  C   UNL A   1      38.601  22.971  26.172  1.00  0.00     0.192 C 
BRANCH   3   4
ATOM      4  C   UNL A   1      39.589  23.438  27.265  1.00  0.00     0.040 C 
BRANCH   4   5
ATOM      5  C   UNL A   1      39.771  24.965  27.251  1.00  0.00    -0.015 C 
ATOM      6  C   UNL A   1      40.675  25.393  28.405  1.00  0.00     0.007 C 
ATOM      7  C   UNL A   1      40.344  25.423  25.912  1.00  0.00     0.007 C 
ENDBRANCH   4   5
ENDBRANCH   3   4
BRANCH   3   8
ATOM      8  N   UNL A   1      37.221  23.143  26.623  1.00  0.00    -0.341 N 
ATOM      9  C   UNL A   1      35.988  22.842  26.149  1.00  0.00     0.243 C 
ATOM     10  H   UNL A   1      37.176  23.595  27.498  1.00  0.00     0.164 HD
ATOM     11  O   UNL A   1      35.078  23.242  26.889  1.00  0.00    -0.273 OA
BRANCH   9  12
ATOM     12  C   UNL A   1      35.607  22.028  24.851  1.00  0.00     0.174 C 
BRANCH  12  13
ATOM     13  N   UNL A   1      34.734  20.831  25.020  1.00  0.00    -0.342 N 
ATOM     14  C   UNL A   1      33.471  20.356  25.023  1.00  0.00     0.242 C 
ATOM     15  H   UNL A   1      35.327  20.068  25.209  1.00  0.00     0.164 HD
ATOM     16  O   UNL A   1      33.438  19.135  25.264  1.00  0.00    -0.273 OA
BRANCH  14  17
ATOM     17  C   UNL A   1      32.096  21.084  24.926  1.00  0.00     0.168 C 
ATOM     18  C   UNL A   1      31.786  21.871  23.676  1.00  0.00     0.041 C 
BRANCH  17  19
ATOM     19  N   UNL A   1      31.809  21.782  26.184  1.00  0.00    -0.343 N 
ATOM     20  C   UNL A   1      31.211  22.982  26.419  1.00  0.00     0.240 C 
ATOM     21  H   UNL A   1      32.097  21.301  26.993  1.00  0.00     0.164 HD
ATOM     22  O   UNL A   1      30.441  23.042  27.385  1.00  0.00    -0.273 OA
BRANCH  20  23
ATOM     23  C   UNL A   1      31.321  24.217  25.532  1.00  0.00     0.219 C 
BRANCH  23  24
ATOM     24  N   UNL A   1      30.139  24.731  24.888  1.00  0.00    -0.312 N 
ATOM     25  C   UNL A   1      29.786  26.041  24.841  1.00  0.00     0.407 C 
ATOM     26  H   UNL A   1      29.543  24.082  24.449  1.00  0.00     0.167 HD
ATOM     27  O   UNL A   1      28.744  26.409  24.318  1.00  0.00    -0.225 OA
BRANCH  25  28
ATOM     28  O   UNL A   1      30.658  26.824  25.520  1.00  0.00    -0.445 OA
BRANCH  28  29
ATOM     29  C   UNL A   1      31.289  27.855  24.756  1.00  0.00     0.270 C 
BRANCH  29  30
ATOM     30  C   UNL A   1      32.239  28.627  25.623  1.00  0.00    -0.011 A 
ATOM     31  C   UNL A   1      32.037  29.997  25.847  1.00  0.00     0.007 A 
ATOM     32  C   UNL A   1      33.285  27.968  26.278  1.00  0.00     0.007 A 
ATOM     33  C   UNL A   1      32.841  30.685  26.750  1.00  0.00     0.000 A 
ATOM     34  C   UNL A   1      34.094  28.661  27.175  1.00  0.00     0.000 A 
ATOM     35  C   UNL A   1      33.865  30.015  27.416  1.00  0.00     0.000 A 
ENDBRANCH  29  30
ENDBRANCH  28  29
ENDBRANCH  25  28
ENDBRANCH  23  24
ENDBRANCH  20  23
ENDBRANCH  17  19
ENDBRANCH  14  17
ENDBRANCH  12  13
BRANCH  12  36
ATOM     36  C   UNL A   1      35.402  22.863  23.543  1.00  0.00     0.015 C 
ATOM     37  C   UNL A   1      34.752  24.260  23.653  1.00  0.00     0.010 C 
ATOM     38  C   UNL A   1      36.707  23.062  22.756  1.00  0.00     0.010 C 
ENDBRANCH  12  36
ENDBRANCH   9  12
ENDBRANCH   3   8
ENDBRANCH   1   3
BRANCH   1  39
ATOM     39  O   UNL A   1      40.386  21.308  26.020  1.00  0.00    -0.462 OA
BRANCH  39  40
ATOM     40  C   UNL A   1      40.714  19.935  26.306  1.00  0.00     0.261 C 
BRANCH  40  41
ATOM     41  C   UNL A   1      42.220  19.685  26.305  1.00  0.00     0.202 C 
BRANCH  41  42
ATOM     42  O   UNL A   1      42.903  19.983  25.098  1.00  0.00    -0.374 OA
BRANCH  42  43
ATOM     43  C   UNL A   1      44.320  19.897  25.037  1.00  0.00     0.202 C 
BRANCH  43  44
ATOM     44  C   UNL A   1      45.243  21.009  25.509  1.00  0.00     0.261 C 
BRANCH  44  45
ATOM     45  O   UNL A   1      45.710  21.830  24.486  1.00  0.00    -0.460 OA
BRANCH  45  46
ATOM     46  C   UNL A   1      44.827  22.601  23.828  1.00  0.00     0.338 C 
ATOM     47  O   UNL A   1      44.186  22.387  22.838  1.00  0.00    -0.246 OA
BRANCH  46  48
ATOM     48  C   UNL A   1      44.917  23.764  24.707  1.00  0.00     0.060 A 
ATOM     49  C   UNL A   1      43.777  24.119  25.433  1.00  0.00     0.016 A 
ATOM     50  C   UNL A   1      46.211  24.131  25.101  1.00  0.00     0.016 A 
ATOM     51  C   UNL A   1      43.932  24.885  26.576  1.00  0.00     0.010 A 
ATOM     52  C   UNL A   1      46.365  24.857  26.262  1.00  0.00     0.010 A 
ATOM     53  C   UNL A   1      45.222  25.259  26.975  1.00  0.00    -0.014 A 
BRANCH  53  54
ATOM     54  C   UNL A   1      45.410  26.306  27.984  1.00  0.00     0.031 A 
ATOM     55  C   UNL A   1      45.329  25.853  29.407  1.00  0.00     0.074 A 
ATOM     56  C   UNL A   1      45.508  27.594  27.628  1.00  0.00     0.049 A 
ATOM     57  N   UNL A   1      45.286  26.559  30.498  1.00  0.00    -0.248 NA
ATOM     58  C   UNL A   1      45.226  24.394  29.622  1.00  0.00     0.031 C 
ATOM     59  C   UNL A   1      45.526  28.097  26.254  1.00  0.00     0.029 A 
ATOM     60  N   UNL A   1      45.556  28.720  28.403  1.00  0.00    -0.354 N 
ATOM     61  C   UNL A   1      45.097  25.638  31.520  1.00  0.00     0.074 A 
ATOM     62  C   UNL A   1      45.005  24.328  30.922  1.00  0.00     0.031 C 
ATOM     63  C   UNL A   1      45.534  29.442  26.284  1.00  0.00     0.029 A 
ATOM     64  C   UNL A   1      45.503  29.884  27.677  1.00  0.00     0.049 A 
ATOM     65  H   UNL A   1      45.621  28.698  29.385  1.00  0.00     0.167 HD
ATOM     66  C   UNL A   1      45.027  25.871  32.847  1.00  0.00     0.034 A 
ATOM     67  C   UNL A   1      45.414  31.157  28.107  1.00  0.00     0.034 A 
ATOM     68  C   UNL A   1      45.149  27.184  33.404  1.00  0.00     0.049 A 
ATOM     69  C   UNL A   1      45.411  31.398  29.594  1.00  0.00     0.074 A 
ATOM     70  C   UNL A   1      45.185  27.561  34.730  1.00  0.00     0.029 A 
ATOM     71  N   UNL A   1      45.246  28.343  32.644  1.00  0.00    -0.354 N 
ATOM     72  N   UNL A   1      45.397  30.517  30.569  1.00  0.00    -0.248 NA
ATOM     73  C   UNL A   1      45.457  32.793  30.046  1.00  0.00     0.031 C 
ATOM     74  C   UNL A   1      45.289  28.955  34.772  1.00  0.00     0.029 A 
ATOM     75  C   UNL A   1      45.341  29.442  33.473  1.00  0.00     0.049 A 
ATOM     76  H   UNL A   1      45.248  28.376  31.660  1.00  0.00     0.167 HD
ATOM     77  C   UNL A   1      45.464  31.247  31.750  1.00  0.00     0.074 A 
ATOM     78  C   UNL A   1      45.531  32.644  31.364  1.00  0.00     0.031 C 
ATOM     79  C   UNL A   1      45.462  30.811  33.034  1.00  0.00     0.034 A 
BRANCH  66  80
ATOM     80  C   UNL A   1      44.833  24.679  33.741  1.00  0.00     0.023 A 
ATOM     81  C   UNL A   1      43.530  24.289  34.117  1.00  0.00     0.012 A 
ATOM     82  C   UNL A   1      45.938  23.970  34.246  1.00  0.00     0.148 A 
ATOM     83  C   UNL A   1      43.331  23.248  35.022  1.00  0.00     0.002 A 
ATOM     84  C   UNL A   1      45.729  22.900  35.110  1.00  0.00     0.091 A 
ATOM     85  F   UNL A   1      47.170  24.378  33.915  1.00  0.00    -0.205 F 
ATOM     86  C   UNL A   1      44.430  22.548  35.511  1.00  0.00     0.022 A 
BRANCH  84  87
ATOM     87  S   UNL A   1      47.081  21.895  35.733  1.00  0.00     0.127 S 
ATOM     88  O   UNL A   1      47.744  22.823  36.645  1.00  0.00    -0.237 OA
ATOM     89  O   UNL A   1      46.371  20.796  36.390  1.00  0.00    -0.237 OA
ATOM     90  O   UNL A   1      47.851  21.498  34.563  1.00  0.00    -0.744 OA
ENDBRANCH  84  87
ENDBRANCH  66  80
BRANCH  67  91
ATOM     91  C   UNL A   1      45.382  32.268  27.117  1.00  0.00     0.023 A 
ATOM     92  C   UNL A   1      44.174  32.581  26.464  1.00  0.00     0.012 A 
ATOM     93  C   UNL A   1      46.514  33.074  26.888  1.00  0.00     0.148 A 
ATOM     94  C   UNL A   1      44.099  33.667  25.589  1.00  0.00     0.002 A 
ATOM     95  C   UNL A   1      46.420  34.184  26.054  1.00  0.00     0.091 A 
ATOM     96  F   UNL A   1      47.656  32.757  27.516  1.00  0.00    -0.205 F 
ATOM     97  C   UNL A   1      45.217  34.474  25.394  1.00  0.00     0.022 A 
BRANCH  95  98
ATOM     98  S   UNL A   1      47.764  35.359  25.850  1.00  0.00     0.127 S 
ATOM     99  O   UNL A   1      47.042  36.592  25.548  1.00  0.00    -0.237 OA
ATOM    100  O   UNL A   1      48.397  35.323  27.169  1.00  0.00    -0.237 OA
ATOM    101  O   UNL A   1      48.591  34.831  24.774  1.00  0.00    -0.744 OA
ENDBRANCH  95  98
ENDBRANCH  67  91
BRANCH  79 102
ATOM    102  C   UNL A   1      45.574  31.844  34.119  1.00  0.00     0.023 A 
ATOM    103  C   UNL A   1      44.408  32.413  34.663  1.00  0.00     0.012 A 
ATOM    104  C   UNL A   1      46.828  32.133  34.691  1.00  0.00     0.148 A 
ATOM    105  C   UNL A   1      44.491  33.272  35.757  1.00  0.00     0.002 A 
ATOM    106  C   UNL A   1      46.897  32.949  35.811  1.00  0.00     0.091 A 
ATOM    107  F   UNL A   1      47.923  31.587  34.142  1.00  0.00    -0.205 F 
ATOM    108  C   UNL A   1      45.731  33.526  36.340  1.00  0.00     0.022 A 
BRANCH 106 109
ATOM    109  S   UNL A   1      48.435  33.241  36.690  1.00  0.00     0.127 S 
ATOM    110  O   UNL A   1      47.967  33.948  37.881  1.00  0.00    -0.237 OA
ATOM    111  O   UNL A   1      48.915  31.881  36.936  1.00  0.00    -0.237 OA
ATOM    112  O   UNL A   1      49.272  34.022  35.788  1.00  0.00    -0.744 OA
ENDBRANCH 106 109
ENDBRANCH  79 102
ENDBRANCH  53  54
ENDBRANCH  46  48
ENDBRANCH  45  46
ENDBRANCH  44  45
ENDBRANCH  43  44
ENDBRANCH  42  43
ENDBRANCH  41  42
ENDBRANCH  40  41
ENDBRANCH  39  40
ENDBRANCH   1  39
TORSDOF 30
ENDMDL
MODEL 3
REMARK VINA RESULT:      -9.4      1.686      2.129
REMARK SMILES CC(C)C[C@H](NC(=O)[C@@H](NC(=O)[C@H](C)NC(=O)CNC(=O)OCc1ccccc1)C(C)C)C(=O)OCCOCCOC(=O)c1ccc(-c2c3nc(c(-c4cccc(S(=O)(=O)[O-])c4F)c4ccc([nH]4)c(-c4cccc(S(=O)(=O)[O-])c4F)c4nc(c(-c5cccc(S(=O)(=O)[O-])c5F)c5ccc2[nH]5)C=C4)C=C3)cc1
REMARK SMILES IDX 33 1 34 2 5 3 4 4 2 5 1 6 3 7 6 8 7 9 8 11 9 12 10 13 11 14
REMARK SMILES IDX 12 16 13 17 14 18 15 19 16 20 17 22 18 23 19 24 20 25 21 27
REMARK SMILES IDX 22 28 23 29 24 30 25 31 29 32 26 33 28 34 27 35 30 36 31 37
REMARK SMILES IDX 32 38 35 39 36 40 37 41 38 42 39 43 40 44 41 45 42 46 43 47
REMARK SMILES IDX 44 48 45 49 106 50 46 51 105 52 47 53 48 54 49 55 99 56
REMARK SMILES IDX 50 57 104 58 98 59 100 60 51 61 103 62 97 63 96 64 52 66
REMARK SMILES IDX 84 67 64 68 83 69 65 70 68 71 82 72 101 73 66 74 67 75 81 77
REMARK SMILES IDX 102 78 69 79 53 80 54 81 62 82 55 83 57 84 63 85 56 86 58 87
REMARK SMILES IDX 59 88 60 89 61 90 85 91 86 92 94 93 87 94 89 95 95 96 88 97
REMARK SMILES IDX 90 98 91 99 92 100 93 101 70 102 71 103 79 104 72 105 74 106
REMARK SMILES IDX 80 107 73 108 75 109 76 110 77 111 78 112
REMARK H PARENT 6 10 10 15 15 21 19 26 100 65 68 76
REMARK Flexibility Score: inf
ROOT
ATOM      1  C   UNL A   1      37.187  21.428  25.111  1.00  0.00     0.328 C 
ATOM      2  O   UNL A   1      37.230  21.570  23.896  1.00  0.00    -0.250 OA
ENDROOT
BRANCH   1   3
ATOM      3  C   UNL A   1      36.007  20.689  25.771  1.00  0.00     0.192 C 
BRANCH   3   4
ATOM      4  C   UNL A   1      35.068  20.324  24.598  1.00  0.00     0.040 C 
BRANCH   4   5
ATOM      5  C   UNL A   1      34.075  19.216  24.988  1.00  0.00    -0.015 C 
ATOM      6  C   UNL A   1      32.642  19.716  24.818  1.00  0.00     0.007 C 
ATOM      7  C   UNL A   1      34.318  17.963  24.150  1.00  0.00     0.007 C 
ENDBRANCH   4   5
ENDBRANCH   3   4
BRANCH   3   8
ATOM      8  N   UNL A   1      35.263  21.372  26.828  1.00  0.00    -0.341 N 
ATOM      9  C   UNL A   1      34.350  22.371  26.897  1.00  0.00     0.243 C 
ATOM     10  H   UNL A   1      35.481  21.013  27.719  1.00  0.00     0.164 HD
ATOM     11  O   UNL A   1      34.029  22.649  28.061  1.00  0.00    -0.273 OA
BRANCH   9  12
ATOM     12  C   UNL A   1      33.647  23.143  25.713  1.00  0.00     0.174 C 
BRANCH  12  13
ATOM     13  N   UNL A   1      32.156  23.205  25.721  1.00  0.00    -0.342 N 
ATOM     14  C   UNL A   1      31.065  23.959  25.474  1.00  0.00     0.242 C 
ATOM     15  H   UNL A   1      31.835  22.331  26.041  1.00  0.00     0.164 HD
ATOM     16  O   UNL A   1      30.013  23.343  25.725  1.00  0.00    -0.273 OA
BRANCH  14  17
ATOM     17  C   UNL A   1      30.916  25.461  25.083  1.00  0.00     0.168 C 
ATOM     18  C   UNL A   1      30.024  26.338  25.927  1.00  0.00     0.041 C 
BRANCH  17  19
ATOM     19  N   UNL A   1      30.715  25.583  23.635  1.00  0.00    -0.343 N 
ATOM     20  C   UNL A   1      30.245  26.619  22.887  1.00  0.00     0.240 C 
ATOM     21  H   UNL A   1      30.961  24.782  23.118  1.00  0.00     0.164 HD
ATOM     22  O   UNL A   1      30.809  26.826  21.805  1.00  0.00    -0.273 OA
BRANCH  20  23
ATOM     23  C   UNL A   1      29.168  27.608  23.317  1.00  0.00     0.219 C 
BRANCH  23  24
ATOM     24  N   UNL A   1      28.943  28.793  22.529  1.00  0.00    -0.312 N 
ATOM     25  C   UNL A   1      29.513  30.002  22.763  1.00  0.00     0.407 C 
ATOM     26  H   UNL A   1      28.329  28.720  21.763  1.00  0.00     0.167 HD
ATOM     27  O   UNL A   1      29.245  30.984  22.085  1.00  0.00    -0.225 OA
BRANCH  25  28
ATOM     28  O   UNL A   1      30.295  29.987  23.868  1.00  0.00    -0.445 OA
BRANCH  28  29
ATOM     29  C   UNL A   1      31.662  29.625  23.655  1.00  0.00     0.270 C 
BRANCH  29  30
ATOM     30  C   UNL A   1      32.268  29.131  24.936  1.00  0.00    -0.011 A 
ATOM     31  C   UNL A   1      33.413  28.323  24.910  1.00  0.00     0.007 A 
ATOM     32  C   UNL A   1      31.741  29.543  26.165  1.00  0.00     0.007 A 
ATOM     33  C   UNL A   1      34.049  27.971  26.096  1.00  0.00     0.000 A 
ATOM     34  C   UNL A   1      32.374  29.182  27.352  1.00  0.00     0.000 A 
ATOM     35  C   UNL A   1      33.532  28.405  27.315  1.00  0.00     0.000 A 
ENDBRANCH  29  30
ENDBRANCH  28  29
ENDBRANCH  25  28
ENDBRANCH  23  24
ENDBRANCH  20  23
ENDBRANCH  17  19
ENDBRANCH  14  17
ENDBRANCH  12  13
BRANCH  12  36
ATOM     36  C   UNL A   1      34.395  24.402  25.161  1.00  0.00     0.015 C 
ATOM     37  C   UNL A   1      35.885  24.593  25.523  1.00  0.00     0.010 C 
ATOM     38  C   UNL A   1      34.313  24.517  23.630  1.00  0.00     0.010 C 
ENDBRANCH  12  36
ENDBRANCH   9  12
ENDBRANCH   3   8
ENDBRANCH   1   3
BRANCH   1  39
ATOM     39  O   UNL A   1      38.097  21.942  25.968  1.00  0.00    -0.462 OA
BRANCH  39  40
ATOM     40  C   UNL A   1      39.463  21.556  25.723  1.00  0.00     0.261 C 
BRANCH  40  41
ATOM     41  C   UNL A   1      39.753  20.127  26.177  1.00  0.00     0.202 C 
BRANCH  41  42
ATOM     42  O   UNL A   1      40.696  19.984  27.227  1.00  0.00    -0.374 OA
BRANCH  42  43
ATOM     43  C   UNL A   1      42.090  20.047  26.951  1.00  0.00     0.202 C 
BRANCH  43  44
ATOM     44  C   UNL A   1      42.712  19.490  25.681  1.00  0.00     0.261 C 
BRANCH  44  45
ATOM     45  O   UNL A   1      44.105  19.487  25.687  1.00  0.00    -0.460 OA
BRANCH  45  46
ATOM     46  C   UNL A   1      44.751  19.645  24.519  1.00  0.00     0.338 C 
ATOM     47  O   UNL A   1      44.982  18.864  23.640  1.00  0.00    -0.246 OA
BRANCH  46  48
ATOM     48  C   UNL A   1      45.075  21.059  24.685  1.00  0.00     0.060 A 
ATOM     49  C   UNL A   1      44.548  21.960  23.755  1.00  0.00     0.016 A 
ATOM     50  C   UNL A   1      45.473  21.446  25.972  1.00  0.00     0.016 A 
ATOM     51  C   UNL A   1      44.437  23.293  24.113  1.00  0.00     0.010 A 
ATOM     52  C   UNL A   1      45.322  22.766  26.340  1.00  0.00     0.010 A 
ATOM     53  C   UNL A   1      44.837  23.688  25.397  1.00  0.00    -0.014 A 
BRANCH  53  54
ATOM     54  C   UNL A   1      45.023  25.108  25.708  1.00  0.00     0.031 A 
ATOM     55  C   UNL A   1      46.440  25.590  25.701  1.00  0.00     0.074 A 
ATOM     56  C   UNL A   1      43.992  25.867  26.102  1.00  0.00     0.049 A 
ATOM     57  N   UNL A   1      46.927  26.730  26.094  1.00  0.00    -0.248 NA
ATOM     58  C   UNL A   1      47.455  24.623  25.233  1.00  0.00     0.031 C 
ATOM     59  C   UNL A   1      42.599  25.427  26.191  1.00  0.00     0.029 A 
ATOM     60  N   UNL A   1      43.972  27.157  26.556  1.00  0.00    -0.354 N 
ATOM     61  C   UNL A   1      48.304  26.597  25.973  1.00  0.00     0.074 A 
ATOM     62  C   UNL A   1      48.579  25.263  25.500  1.00  0.00     0.031 C 
ATOM     63  C   UNL A   1      41.862  26.423  26.716  1.00  0.00     0.029 A 
ATOM     64  C   UNL A   1      42.739  27.553  27.015  1.00  0.00     0.049 A 
ATOM     65  H   UNL A   1      44.762  27.743  26.556  1.00  0.00     0.167 HD
ATOM     66  C   UNL A   1      49.253  27.524  26.221  1.00  0.00     0.034 A 
ATOM     67  C   UNL A   1      42.384  28.697  27.630  1.00  0.00     0.034 A 
ATOM     68  C   UNL A   1      48.938  28.847  26.667  1.00  0.00     0.049 A 
ATOM     69  C   UNL A   1      43.444  29.748  27.830  1.00  0.00     0.074 A 
ATOM     70  C   UNL A   1      49.786  29.915  26.873  1.00  0.00     0.029 A 
ATOM     71  N   UNL A   1      47.654  29.274  26.983  1.00  0.00    -0.354 N 
ATOM     72  N   UNL A   1      44.729  29.679  27.562  1.00  0.00    -0.248 NA
ATOM     73  C   UNL A   1      43.012  31.042  28.370  1.00  0.00     0.031 C 
ATOM     74  C   UNL A   1      49.013  30.987  27.332  1.00  0.00     0.029 A 
ATOM     75  C   UNL A   1      47.683  30.592  27.387  1.00  0.00     0.049 A 
ATOM     76  H   UNL A   1      46.843  28.717  26.927  1.00  0.00     0.167 HD
ATOM     77  C   UNL A   1      45.254  30.928  27.869  1.00  0.00     0.074 A 
ATOM     78  C   UNL A   1      44.143  31.737  28.334  1.00  0.00     0.031 C 
ATOM     79  C   UNL A   1      46.535  31.369  27.787  1.00  0.00     0.034 A 
BRANCH  66  80
ATOM     80  C   UNL A   1      50.681  27.117  25.989  1.00  0.00     0.023 A 
ATOM     81  C   UNL A   1      51.448  26.610  27.059  1.00  0.00     0.012 A 
ATOM     82  C   UNL A   1      51.280  27.279  24.727  1.00  0.00     0.148 A 
ATOM     83  C   UNL A   1      52.801  26.319  26.891  1.00  0.00     0.002 A 
ATOM     84  C   UNL A   1      52.617  26.939  24.554  1.00  0.00     0.091 A 
ATOM     85  F   UNL A   1      50.552  27.803  23.732  1.00  0.00    -0.205 F 
ATOM     86  C   UNL A   1      53.382  26.474  25.636  1.00  0.00     0.022 A 
BRANCH  84  87
ATOM     87  S   UNL A   1      53.432  27.039  22.957  1.00  0.00     0.127 S 
ATOM     88  O   UNL A   1      54.782  26.584  23.284  1.00  0.00    -0.237 OA
ATOM     89  O   UNL A   1      52.650  26.098  22.153  1.00  0.00    -0.237 OA
ATOM     90  O   UNL A   1      53.316  28.429  22.539  1.00  0.00    -0.744 OA
ENDBRANCH  84  87
ENDBRANCH  66  80
BRANCH  67  91
ATOM     91  C   UNL A   1      40.965  28.907  28.030  1.00  0.00     0.023 A 
ATOM     92  C   UNL A   1      40.016  29.272  27.055  1.00  0.00     0.012 A 
ATOM     93  C   UNL A   1      40.534  28.658  29.348  1.00  0.00     0.148 A 
ATOM     94  C   UNL A   1      38.666  29.400  27.389  1.00  0.00     0.002 A 
ATOM     95  C   UNL A   1      39.181  28.738  29.663  1.00  0.00     0.091 A 
ATOM     96  F   UNL A   1      41.453  28.317  30.262  1.00  0.00    -0.205 F 
ATOM     97  C   UNL A   1      38.247  29.121  28.688  1.00  0.00     0.022 A 
BRANCH  95  98
ATOM     98  S   UNL A   1      38.532  28.265  31.271  1.00  0.00     0.127 S 
ATOM     99  O   UNL A   1      38.607  26.808  31.208  1.00  0.00    -0.237 OA
ATOM    100  O   UNL A   1      39.492  28.894  32.179  1.00  0.00    -0.237 OA
ATOM    101  O   UNL A   1      37.190  28.826  31.335  1.00  0.00    -0.744 OA
ENDBRANCH  95  98
ENDBRANCH  67  91
BRANCH  79 102
ATOM    102  C   UNL A   1      46.805  32.797  28.168  1.00  0.00     0.023 A 
ATOM    103  C   UNL A   1      46.707  33.809  27.196  1.00  0.00     0.012 A 
ATOM    104  C   UNL A   1      47.010  33.139  29.519  1.00  0.00     0.148 A 
ATOM    105  C   UNL A   1      46.824  35.147  27.561  1.00  0.00     0.002 A 
ATOM    106  C   UNL A   1      47.077  34.477  29.882  1.00  0.00     0.091 A 
ATOM    107  F   UNL A   1      47.115  32.153  30.420  1.00  0.00    -0.205 F 
ATOM    108  C   UNL A   1      46.992  35.482  28.904  1.00  0.00     0.022 A 
BRANCH 106 109
ATOM    109  S   UNL A   1      47.181  34.999  31.596  1.00  0.00     0.127 S 
ATOM    110  O   UNL A   1      48.627  35.025  31.811  1.00  0.00    -0.237 OA
ATOM    111  O   UNL A   1      46.546  36.316  31.559  1.00  0.00    -0.237 OA
ATOM    112  O   UNL A   1      46.452  34.000  32.366  1.00  0.00    -0.744 OA
ENDBRANCH 106 109
ENDBRANCH  79 102
ENDBRANCH  53  54
ENDBRANCH  46  48
ENDBRANCH  45  46
ENDBRANCH  44  45
ENDBRANCH  43  44
ENDBRANCH  42  43
ENDBRANCH  41  42
ENDBRANCH  40  41
ENDBRANCH  39  40
ENDBRANCH   1  39
TORSDOF 30
ENDMDL
