MODEL 1
REMARK VINA RESULT:     -11.1      0.000      0.000
REMARK SMILES O=C(C[C@@H]([NH2+]C[C@H]1CCCO1)C(=O)OCCOCCOC(=O)c1ccc(-c2c3nc(c(-c4cccc(S(=O)(=O)[O-])c4F)c4ccc([nH]4)c(-c4cccc(S(=O)(=O)[O-])c4F)c4nc(c(-c5cccc(S(=O)(=O)[O-])c5F)c5ccc2[nH]5)C=C4)C=C3)cc1)Nc1cccc(Cl)c1
REMARK SMILES IDX 17 1 16 2 15 3 14 4 12 5 13 6 4 7 3 8 2 9 1 10 86 11 87 13
REMARK SMILES IDX 88 14 93 15 89 16 91 17 90 18 92 19 5 20 6 23 7 24 8 25
REMARK SMILES IDX 11 26 9 27 10 28 18 29 19 30 20 31 21 32 22 33 23 34 24 35
REMARK SMILES IDX 85 36 25 37 84 38 26 39 27 40 28 41 78 42 29 43 83 44 77 45
REMARK SMILES IDX 79 46 30 47 82 48 76 49 75 50 31 52 63 53 43 54 62 55 44 56
REMARK SMILES IDX 47 57 61 58 80 59 45 60 46 61 60 63 81 64 48 65 32 66 33 67
REMARK SMILES IDX 41 68 34 69 36 70 42 71 35 72 37 73 38 74 39 75 40 76 64 77
REMARK SMILES IDX 65 78 73 79 66 80 68 81 74 82 67 83 69 84 70 85 71 86 72 87
REMARK SMILES IDX 49 88 50 89 58 90 51 91 53 92 59 93 52 94 54 95 55 96 56 97
REMARK SMILES IDX 57 98
REMARK H PARENT 86 12 5 21 5 22 79 51 47 62
REMARK Flexibility Score: inf
ROOT
ATOM      1  O   UNL A   1      34.835  21.777  26.128  1.00  0.00    -0.374 OA
ENDROOT
BRANCH   1   2
ATOM      2  C   UNL A   1      33.628  21.058  26.357  1.00  0.00     0.202 C 
BRANCH   2   3
ATOM      3  C   UNL A   1      32.841  20.529  25.149  1.00  0.00     0.261 C 
BRANCH   3   4
ATOM      4  O   UNL A   1      31.826  21.417  24.662  1.00  0.00    -0.459 OA
BRANCH   4   5
ATOM      5  C   UNL A   1      32.317  22.430  23.901  1.00  0.00     0.365 C 
ATOM      6  O   UNL A   1      32.812  22.264  22.787  1.00  0.00    -0.245 OA
BRANCH   5   7
ATOM      7  C   UNL A   1      32.096  23.832  24.504  1.00  0.00     0.302 C 
BRANCH   7   8
ATOM      8  C   UNL A   1      30.877  23.935  25.441  1.00  0.00     0.177 C 
BRANCH   8   9
ATOM      9  C   UNL A   1      30.282  25.333  25.378  1.00  0.00     0.231 C 
ATOM     10  O   UNL A   1      30.135  26.013  26.389  1.00  0.00    -0.274 OA
ATOM     11  N   UNL A   1      29.834  25.650  24.108  1.00  0.00    -0.326 N 
ATOM     12  H   UNL A   1      30.036  24.995  23.400  1.00  0.00     0.169 HD
BRANCH  11  13
ATOM     13  C   UNL A   1      29.125  26.795  23.708  1.00  0.00     0.042 A 
ATOM     14  C   UNL A   1      27.746  26.805  23.966  1.00  0.00     0.026 A 
ATOM     15  C   UNL A   1      29.710  27.890  23.070  1.00  0.00     0.046 A 
ATOM     16  C   UNL A   1      26.962  27.902  23.607  1.00  0.00     0.004 A 
ATOM     17  C   UNL A   1      28.913  28.968  22.678  1.00  0.00     0.043 A 
ATOM     18  C   UNL A   1      27.545  28.982  22.950  1.00  0.00     0.020 A 
ATOM     19  Cl  UNL A   1      29.614  30.292  21.827  1.00  0.00    -0.084 Cl
ENDBRANCH  11  13
ENDBRANCH   8   9
ENDBRANCH   7   8
BRANCH   7  20
ATOM     20  N   UNL A   1      33.313  24.387  25.167  1.00  0.00    -0.332 N 
ATOM     21  H   UNL A   1      33.978  23.621  25.282  1.00  0.00     0.347 HD
ATOM     22  H   UNL A   1      32.978  24.797  26.038  1.00  0.00     0.347 HD
BRANCH  20  23
ATOM     23  C   UNL A   1      34.013  25.482  24.471  1.00  0.00     0.293 C 
BRANCH  23  24
ATOM     24  C   UNL A   1      33.173  26.706  24.031  1.00  0.00     0.173 C 
ATOM     25  C   UNL A   1      33.611  28.102  24.458  1.00  0.00     0.040 C 
ATOM     26  O   UNL A   1      33.149  26.720  22.582  1.00  0.00    -0.372 OA
ATOM     27  C   UNL A   1      34.350  28.630  23.250  1.00  0.00     0.031 C 
ATOM     28  C   UNL A   1      33.572  28.005  22.119  1.00  0.00     0.161 C 
ENDBRANCH  23  24
ENDBRANCH  20  23
ENDBRANCH   7  20
ENDBRANCH   5   7
ENDBRANCH   4   5
ENDBRANCH   3   4
ENDBRANCH   2   3
ENDBRANCH   1   2
BRANCH   1  29
ATOM     29  C   UNL A   1      35.640  21.440  24.998  1.00  0.00     0.202 C 
BRANCH  29  30
ATOM     30  C   UNL A   1      36.860  20.540  25.213  1.00  0.00     0.261 C 
BRANCH  30  31
ATOM     31  O   UNL A   1      38.093  21.241  24.973  1.00  0.00    -0.460 OA
BRANCH  31  32
ATOM     32  C   UNL A   1      39.085  20.954  25.848  1.00  0.00     0.338 C 
ATOM     33  O   UNL A   1      39.654  19.878  25.991  1.00  0.00    -0.246 OA
BRANCH  32  34
ATOM     34  C   UNL A   1      39.566  22.187  26.490  1.00  0.00     0.060 A 
ATOM     35  C   UNL A   1      39.012  23.401  26.062  1.00  0.00     0.016 A 
ATOM     36  C   UNL A   1      40.612  22.165  27.414  1.00  0.00     0.016 A 
ATOM     37  C   UNL A   1      39.542  24.605  26.515  1.00  0.00     0.010 A 
ATOM     38  C   UNL A   1      41.149  23.376  27.858  1.00  0.00     0.010 A 
ATOM     39  C   UNL A   1      40.644  24.599  27.378  1.00  0.00    -0.014 A 
BRANCH  39  40
ATOM     40  C   UNL A   1      41.362  25.866  27.645  1.00  0.00     0.031 A 
ATOM     41  C   UNL A   1      40.662  26.951  28.417  1.00  0.00     0.074 A 
ATOM     42  C   UNL A   1      42.627  26.040  27.225  1.00  0.00     0.049 A 
ATOM     43  N   UNL A   1      41.098  28.133  28.763  1.00  0.00    -0.248 NA
ATOM     44  C   UNL A   1      39.286  26.663  28.856  1.00  0.00     0.031 C 
ATOM     45  C   UNL A   1      43.413  25.055  26.485  1.00  0.00     0.029 A 
ATOM     46  N   UNL A   1      43.466  27.118  27.353  1.00  0.00    -0.354 N 
ATOM     47  C   UNL A   1      40.047  28.740  29.441  1.00  0.00     0.074 A 
ATOM     48  C   UNL A   1      38.945  27.802  29.440  1.00  0.00     0.031 C 
ATOM     49  C   UNL A   1      44.616  25.583  26.203  1.00  0.00     0.029 A 
ATOM     50  C   UNL A   1      44.676  26.947  26.723  1.00  0.00     0.049 A 
ATOM     51  H   UNL A   1      43.226  27.934  27.846  1.00  0.00     0.167 HD
ATOM     52  C   UNL A   1      40.007  29.960  30.027  1.00  0.00     0.034 A 
ATOM     53  C   UNL A   1      45.707  27.803  26.574  1.00  0.00     0.034 A 
ATOM     54  C   UNL A   1      41.109  30.885  30.037  1.00  0.00     0.049 A 
ATOM     55  C   UNL A   1      45.623  29.171  27.198  1.00  0.00     0.074 A 
ATOM     56  C   UNL A   1      41.182  32.130  30.636  1.00  0.00     0.029 A 
ATOM     57  N   UNL A   1      42.325  30.672  29.407  1.00  0.00    -0.354 N 
ATOM     58  N   UNL A   1      44.668  29.687  27.933  1.00  0.00    -0.248 NA
ATOM     59  C   UNL A   1      46.776  30.063  27.001  1.00  0.00     0.031 C 
ATOM     60  C   UNL A   1      42.436  32.680  30.347  1.00  0.00     0.029 A 
ATOM     61  C   UNL A   1      43.153  31.766  29.590  1.00  0.00     0.049 A 
ATOM     62  H   UNL A   1      42.565  29.860  28.904  1.00  0.00     0.167 HD
ATOM     63  C   UNL A   1      45.115  30.948  28.313  1.00  0.00     0.074 A 
ATOM     64  C   UNL A   1      46.437  31.110  27.742  1.00  0.00     0.031 C 
ATOM     65  C   UNL A   1      44.486  31.892  29.057  1.00  0.00     0.034 A 
BRANCH  52  66
ATOM     66  C   UNL A   1      38.732  30.352  30.728  1.00  0.00     0.023 A 
ATOM     67  C   UNL A   1      38.545  29.998  32.079  1.00  0.00     0.012 A 
ATOM     68  C   UNL A   1      37.735  31.091  30.063  1.00  0.00     0.148 A 
ATOM     69  C   UNL A   1      37.370  30.342  32.748  1.00  0.00     0.002 A 
ATOM     70  C   UNL A   1      36.586  31.467  30.748  1.00  0.00     0.091 A 
ATOM     71  F   UNL A   1      37.919  31.395  28.770  1.00  0.00    -0.205 F 
ATOM     72  C   UNL A   1      36.396  31.085  32.085  1.00  0.00     0.022 A 
BRANCH  70  73
ATOM     73  S   UNL A   1      35.309  32.487  30.000  1.00  0.00     0.127 S 
ATOM     74  O   UNL A   1      36.071  33.670  29.605  1.00  0.00    -0.237 OA
ATOM     75  O   UNL A   1      34.857  31.652  28.886  1.00  0.00    -0.237 OA
ATOM     76  O   UNL A   1      34.311  32.698  31.039  1.00  0.00    -0.744 OA
ENDBRANCH  70  73
ENDBRANCH  52  66
BRANCH  53  77
ATOM     77  C   UNL A   1      46.927  27.370  25.837  1.00  0.00     0.023 A 
ATOM     78  C   UNL A   1      47.875  26.556  26.486  1.00  0.00     0.012 A 
ATOM     79  C   UNL A   1      47.138  27.733  24.492  1.00  0.00     0.148 A 
ATOM     80  C   UNL A   1      49.024  26.130  25.817  1.00  0.00     0.002 A 
ATOM     81  C   UNL A   1      48.256  27.261  23.814  1.00  0.00     0.091 A 
ATOM     82  F   UNL A   1      46.231  28.522  23.898  1.00  0.00    -0.205 F 
ATOM     83  C   UNL A   1      49.208  26.473  24.479  1.00  0.00     0.022 A 
BRANCH  81  84
ATOM     84  S   UNL A   1      48.512  27.544  22.059  1.00  0.00     0.127 S 
ATOM     85  O   UNL A   1      48.739  26.188  21.567  1.00  0.00    -0.237 OA
ATOM     86  O   UNL A   1      47.235  28.140  21.662  1.00  0.00    -0.237 OA
ATOM     87  O   UNL A   1      49.650  28.448  21.968  1.00  0.00    -0.744 OA
ENDBRANCH  81  84
ENDBRANCH  53  77
BRANCH  65  88
ATOM     88  C   UNL A   1      45.225  33.178  29.327  1.00  0.00     0.023 A 
ATOM     89  C   UNL A   1      46.082  33.271  30.443  1.00  0.00     0.012 A 
ATOM     90  C   UNL A   1      45.131  34.264  28.435  1.00  0.00     0.148 A 
ATOM     91  C   UNL A   1      46.807  34.437  30.684  1.00  0.00     0.002 A 
ATOM     92  C   UNL A   1      45.894  35.405  28.656  1.00  0.00     0.091 A 
ATOM     93  F   UNL A   1      44.296  34.164  27.390  1.00  0.00    -0.205 F 
ATOM     94  C   UNL A   1      46.724  35.498  29.785  1.00  0.00     0.022 A 
BRANCH  92  95
ATOM     95  S   UNL A   1      45.921  36.782  27.501  1.00  0.00     0.127 S 
ATOM     96  O   UNL A   1      46.381  36.133  26.275  1.00  0.00    -0.237 OA
ATOM     97  O   UNL A   1      44.518  37.199  27.481  1.00  0.00    -0.237 OA
ATOM     98  O   UNL A   1      46.833  37.764  28.071  1.00  0.00    -0.744 OA
ENDBRANCH  92  95
ENDBRANCH  65  88
ENDBRANCH  39  40
ENDBRANCH  32  34
ENDBRANCH  31  32
ENDBRANCH  30  31
ENDBRANCH  29  30
ENDBRANCH   1  29
TORSDOF 23
ENDMDL
MODEL 2
REMARK VINA RESULT:     -10.8      2.103      7.783
REMARK SMILES O=C(C[C@@H]([NH2+]C[C@H]1CCCO1)C(=O)OCCOCCOC(=O)c1ccc(-c2c3nc(c(-c4cccc(S(=O)(=O)[O-])c4F)c4ccc([nH]4)c(-c4cccc(S(=O)(=O)[O-])c4F)c4nc(c(-c5cccc(S(=O)(=O)[O-])c5F)c5ccc2[nH]5)C=C4)C=C3)cc1)Nc1cccc(Cl)c1
REMARK SMILES IDX 17 1 16 2 15 3 14 4 12 5 13 6 4 7 3 8 2 9 1 10 86 11 87 13
REMARK SMILES IDX 88 14 93 15 89 16 91 17 90 18 92 19 5 20 6 23 7 24 8 25
REMARK SMILES IDX 11 26 9 27 10 28 18 29 19 30 20 31 21 32 22 33 23 34 24 35
REMARK SMILES IDX 85 36 25 37 84 38 26 39 27 40 28 41 78 42 29 43 83 44 77 45
REMARK SMILES IDX 79 46 30 47 82 48 76 49 75 50 31 52 63 53 43 54 62 55 44 56
REMARK SMILES IDX 47 57 61 58 80 59 45 60 46 61 60 63 81 64 48 65 32 66 33 67
REMARK SMILES IDX 41 68 34 69 36 70 42 71 35 72 37 73 38 74 39 75 40 76 64 77
REMARK SMILES IDX 65 78 73 79 66 80 68 81 74 82 67 83 69 84 70 85 71 86 72 87
REMARK SMILES IDX 49 88 50 89 58 90 51 91 53 92 59 93 52 94 54 95 55 96 56 97
REMARK SMILES IDX 57 98
REMARK H PARENT 86 12 5 21 5 22 79 51 47 62
REMARK Flexibility Score: inf
ROOT
ATOM      1  O   UNL A   1      35.965  21.443  26.106  1.00  0.00    -0.374 OA
ENDROOT
BRANCH   1   2
ATOM      2  C   UNL A   1      34.622  21.904  26.210  1.00  0.00     0.202 C 
BRANCH   2   3
ATOM      3  C   UNL A   1      34.358  23.280  26.840  1.00  0.00     0.261 C 
BRANCH   3   4
ATOM      4  O   UNL A   1      33.296  24.023  26.226  1.00  0.00    -0.459 OA
BRANCH   4   5
ATOM      5  C   UNL A   1      32.060  23.556  26.540  1.00  0.00     0.365 C 
ATOM      6  O   UNL A   1      31.675  23.377  27.694  1.00  0.00    -0.245 OA
BRANCH   5   7
ATOM      7  C   UNL A   1      31.130  23.376  25.323  1.00  0.00     0.302 C 
BRANCH   7   8
ATOM      8  C   UNL A   1      30.433  24.669  24.859  1.00  0.00     0.177 C 
BRANCH   8   9
ATOM      9  C   UNL A   1      30.826  25.831  25.758  1.00  0.00     0.231 C 
ATOM     10  O   UNL A   1      30.186  26.105  26.768  1.00  0.00    -0.274 OA
ATOM     11  N   UNL A   1      31.869  26.569  25.226  1.00  0.00    -0.326 N 
ATOM     12  H   UNL A   1      32.282  26.209  24.408  1.00  0.00     0.169 HD
BRANCH  11  13
ATOM     13  C   UNL A   1      32.408  27.771  25.716  1.00  0.00     0.042 A 
ATOM     14  C   UNL A   1      31.679  28.940  25.456  1.00  0.00     0.026 A 
ATOM     15  C   UNL A   1      33.611  27.855  26.418  1.00  0.00     0.046 A 
ATOM     16  C   UNL A   1      32.136  30.179  25.907  1.00  0.00     0.004 A 
ATOM     17  C   UNL A   1      34.083  29.103  26.833  1.00  0.00     0.043 A 
ATOM     18  C   UNL A   1      33.348  30.263  26.588  1.00  0.00     0.020 A 
ATOM     19  Cl  UNL A   1      35.600  29.224  27.639  1.00  0.00    -0.084 Cl
ENDBRANCH  11  13
ENDBRANCH   8   9
ENDBRANCH   7   8
BRANCH   7  20
ATOM     20  N   UNL A   1      31.793  22.698  24.170  1.00  0.00    -0.332 N 
ATOM     21  H   UNL A   1      31.386  21.766  24.085  1.00  0.00     0.347 HD
ATOM     22  H   UNL A   1      32.789  22.712  24.391  1.00  0.00     0.347 HD
BRANCH  20  23
ATOM     23  C   UNL A   1      31.683  23.354  22.855  1.00  0.00     0.293 C 
BRANCH  23  24
ATOM     24  C   UNL A   1      32.967  23.971  22.248  1.00  0.00     0.173 C 
ATOM     25  C   UNL A   1      32.984  24.355  20.773  1.00  0.00     0.040 C 
ATOM     26  O   UNL A   1      33.255  25.186  22.982  1.00  0.00    -0.372 OA
ATOM     27  C   UNL A   1      32.711  25.841  20.789  1.00  0.00     0.031 C 
ATOM     28  C   UNL A   1      33.407  26.266  22.058  1.00  0.00     0.161 C 
ENDBRANCH  23  24
ENDBRANCH  20  23
ENDBRANCH   7  20
ENDBRANCH   5   7
ENDBRANCH   4   5
ENDBRANCH   3   4
ENDBRANCH   2   3
ENDBRANCH   1   2
BRANCH   1  29
ATOM     29  C   UNL A   1      36.321  20.576  25.029  1.00  0.00     0.202 C 
BRANCH  29  30
ATOM     30  C   UNL A   1      37.723  19.959  25.023  1.00  0.00     0.261 C 
BRANCH  30  31
ATOM     31  O   UNL A   1      38.750  20.962  25.114  1.00  0.00    -0.460 OA
BRANCH  31  32
ATOM     32  C   UNL A   1      39.635  20.773  26.121  1.00  0.00     0.338 C 
ATOM     33  O   UNL A   1      40.245  19.743  26.384  1.00  0.00    -0.246 OA
BRANCH  32  34
ATOM     34  C   UNL A   1      39.951  22.057  26.765  1.00  0.00     0.060 A 
ATOM     35  C   UNL A   1      39.288  23.199  26.296  1.00  0.00     0.016 A 
ATOM     36  C   UNL A   1      40.952  22.158  27.732  1.00  0.00     0.016 A 
ATOM     37  C   UNL A   1      39.664  24.458  26.753  1.00  0.00     0.010 A 
ATOM     38  C   UNL A   1      41.335  23.425  28.181  1.00  0.00     0.010 A 
ATOM     39  C   UNL A   1      40.722  24.580  27.662  1.00  0.00    -0.014 A 
BRANCH  39  40
ATOM     40  C   UNL A   1      41.286  25.921  27.941  1.00  0.00     0.031 A 
ATOM     41  C   UNL A   1      42.680  26.237  27.472  1.00  0.00     0.074 A 
ATOM     42  C   UNL A   1      40.559  26.851  28.584  1.00  0.00     0.049 A 
ATOM     43  N   UNL A   1      43.368  27.340  27.606  1.00  0.00    -0.248 NA
ATOM     44  C   UNL A   1      43.392  25.165  26.757  1.00  0.00     0.031 C 
ATOM     45  C   UNL A   1      39.193  26.666  29.069  1.00  0.00     0.029 A 
ATOM     46  N   UNL A   1      40.879  28.134  28.949  1.00  0.00    -0.354 N 
ATOM     47  C   UNL A   1      44.600  27.091  27.014  1.00  0.00     0.074 A 
ATOM     48  C   UNL A   1      44.572  25.725  26.535  1.00  0.00     0.031 C 
ATOM     49  C   UNL A   1      38.797  27.790  29.691  1.00  0.00     0.029 A 
ATOM     50  C   UNL A   1      39.888  28.762  29.665  1.00  0.00     0.049 A 
ATOM     51  H   UNL A   1      41.735  28.563  28.722  1.00  0.00     0.167 HD
ATOM     52  C   UNL A   1      45.655  27.927  26.864  1.00  0.00     0.034 A 
ATOM     53  C   UNL A   1      39.873  29.979  30.245  1.00  0.00     0.034 A 
ATOM     54  C   UNL A   1      45.674  29.288  27.329  1.00  0.00     0.049 A 
ATOM     55  C   UNL A   1      41.074  30.877  30.102  1.00  0.00     0.074 A 
ATOM     56  C   UNL A   1      46.679  30.231  27.193  1.00  0.00     0.029 A 
ATOM     57  N   UNL A   1      44.647  29.898  28.032  1.00  0.00    -0.354 N 
ATOM     58  N   UNL A   1      42.187  30.670  29.441  1.00  0.00    -0.248 NA
ATOM     59  C   UNL A   1      41.002  32.192  30.757  1.00  0.00     0.031 C 
ATOM     60  C   UNL A   1      46.267  31.403  27.836  1.00  0.00     0.029 A 
ATOM     61  C   UNL A   1      44.996  31.199  28.350  1.00  0.00     0.049 A 
ATOM     62  H   UNL A   1      43.793  29.469  28.270  1.00  0.00     0.167 HD
ATOM     63  C   UNL A   1      42.933  31.836  29.571  1.00  0.00     0.074 A 
ATOM     64  C   UNL A   1      42.136  32.754  30.360  1.00  0.00     0.031 C 
ATOM     65  C   UNL A   1      44.171  32.118  29.093  1.00  0.00     0.034 A 
BRANCH  52  66
ATOM     66  C   UNL A   1      46.866  27.395  26.144  1.00  0.00     0.023 A 
ATOM     67  C   UNL A   1      46.982  27.575  24.751  1.00  0.00     0.012 A 
ATOM     68  C   UNL A   1      47.900  26.745  26.845  1.00  0.00     0.148 A 
ATOM     69  C   UNL A   1      48.090  27.084  24.061  1.00  0.00     0.002 A 
ATOM     70  C   UNL A   1      49.021  26.297  26.157  1.00  0.00     0.091 A 
ATOM     71  F   UNL A   1      47.760  26.559  28.166  1.00  0.00    -0.205 F 
ATOM     72  C   UNL A   1      49.113  26.454  24.765  1.00  0.00     0.022 A 
BRANCH  70  73
ATOM     73  S   UNL A   1      50.422  25.539  26.988  1.00  0.00     0.127 S 
ATOM     74  O   UNL A   1      50.832  26.603  27.904  1.00  0.00    -0.237 OA
ATOM     75  O   UNL A   1      49.809  24.378  27.636  1.00  0.00    -0.237 OA
ATOM     76  O   UNL A   1      51.377  25.211  25.939  1.00  0.00    -0.744 OA
ENDBRANCH  70  73
ENDBRANCH  52  66
BRANCH  53  77
ATOM     77  C   UNL A   1      38.658  30.436  30.977  1.00  0.00     0.023 A 
ATOM     78  C   UNL A   1      38.512  30.118  32.341  1.00  0.00     0.012 A 
ATOM     79  C   UNL A   1      37.666  31.206  30.341  1.00  0.00     0.148 A 
ATOM     80  C   UNL A   1      37.388  30.539  33.052  1.00  0.00     0.002 A 
ATOM     81  C   UNL A   1      36.576  31.669  31.067  1.00  0.00     0.091 A 
ATOM     82  F   UNL A   1      37.817  31.484  29.037  1.00  0.00    -0.205 F 
ATOM     83  C   UNL A   1      36.426  31.323  32.419  1.00  0.00     0.022 A 
BRANCH  81  84
ATOM     84  S   UNL A   1      35.356  32.789  30.371  1.00  0.00     0.127 S 
ATOM     85  O   UNL A   1      34.628  33.218  31.563  1.00  0.00    -0.237 OA
ATOM     86  O   UNL A   1      36.203  33.816  29.762  1.00  0.00    -0.237 OA
ATOM     87  O   UNL A   1      34.593  31.996  29.416  1.00  0.00    -0.744 OA
ENDBRANCH  81  84
ENDBRANCH  53  77
BRANCH  65  88
ATOM     88  C   UNL A   1      44.736  33.487  29.378  1.00  0.00     0.023 A 
ATOM     89  C   UNL A   1      45.476  33.706  30.558  1.00  0.00     0.012 A 
ATOM     90  C   UNL A   1      44.601  34.532  28.443  1.00  0.00     0.148 A 
ATOM     91  C   UNL A   1      46.044  34.953  30.817  1.00  0.00     0.002 A 
ATOM     92  C   UNL A   1      45.210  35.757  28.685  1.00  0.00     0.091 A 
ATOM     93  F   UNL A   1      43.878  34.309  27.335  1.00  0.00    -0.205 F 
ATOM     94  C   UNL A   1      45.922  35.974  29.876  1.00  0.00     0.022 A 
BRANCH  92  95
ATOM     95  S   UNL A   1      45.186  37.097  27.488  1.00  0.00     0.127 S 
ATOM     96  O   UNL A   1      45.787  38.189  28.251  1.00  0.00    -0.237 OA
ATOM     97  O   UNL A   1      46.028  36.568  26.413  1.00  0.00    -0.237 OA
ATOM     98  O   UNL A   1      43.788  37.282  27.123  1.00  0.00    -0.744 OA
ENDBRANCH  92  95
ENDBRANCH  65  88
ENDBRANCH  39  40
ENDBRANCH  32  34
ENDBRANCH  31  32
ENDBRANCH  30  31
ENDBRANCH  29  30
ENDBRANCH   1  29
TORSDOF 23
ENDMDL
MODEL 3
REMARK VINA RESULT:     -10.6      0.919      7.415
REMARK SMILES O=C(C[C@@H]([NH2+]C[C@H]1CCCO1)C(=O)OCCOCCOC(=O)c1ccc(-c2c3nc(c(-c4cccc(S(=O)(=O)[O-])c4F)c4ccc([nH]4)c(-c4cccc(S(=O)(=O)[O-])c4F)c4nc(c(-c5cccc(S(=O)(=O)[O-])c5F)c5ccc2[nH]5)C=C4)C=C3)cc1)Nc1cccc(Cl)c1
REMARK SMILES IDX 17 1 16 2 15 3 14 4 12 5 13 6 4 7 3 8 2 9 1 10 86 11 87 13
REMARK SMILES IDX 88 14 93 15 89 16 91 17 90 18 92 19 5 20 6 23 7 24 8 25
REMARK SMILES IDX 11 26 9 27 10 28 18 29 19 30 20 31 21 32 22 33 23 34 24 35
REMARK SMILES IDX 85 36 25 37 84 38 26 39 27 40 28 41 78 42 29 43 83 44 77 45
REMARK SMILES IDX 79 46 30 47 82 48 76 49 75 50 31 52 63 53 43 54 62 55 44 56
REMARK SMILES IDX 47 57 61 58 80 59 45 60 46 61 60 63 81 64 48 65 32 66 33 67
REMARK SMILES IDX 41 68 34 69 36 70 42 71 35 72 37 73 38 74 39 75 40 76 64 77
REMARK SMILES IDX 65 78 73 79 66 80 68 81 74 82 67 83 69 84 70 85 71 86 72 87
REMARK SMILES IDX 49 88 50 89 58 90 51 91 53 92 59 93 52 94 54 95 55 96 56 97
REMARK SMILES IDX 57 98
REMARK H PARENT 86 12 5 21 5 22 79 51 47 62
REMARK Flexibility Score: inf
ROOT
ATOM      1  O   UNL A   1      36.469  21.678  25.094  1.00  0.00    -0.374 OA
ENDROOT
BRANCH   1   2
ATOM      2  C   UNL A   1      35.302  21.712  25.908  1.00  0.00     0.202 C 
BRANCH   2   3
ATOM      3  C   UNL A   1      34.034  20.999  25.413  1.00  0.00     0.261 C 
BRANCH   3   4
ATOM      4  O   UNL A   1      32.851  21.808  25.427  1.00  0.00    -0.459 OA
BRANCH   4   5
ATOM      5  C   UNL A   1      32.716  22.584  24.319  1.00  0.00     0.365 C 
ATOM      6  O   UNL A   1      32.960  22.188  23.180  1.00  0.00    -0.245 OA
BRANCH   5   7
ATOM      7  C   UNL A   1      32.117  23.977  24.598  1.00  0.00     0.302 C 
BRANCH   7   8
ATOM      8  C   UNL A   1      30.839  23.958  25.458  1.00  0.00     0.177 C 
BRANCH   8   9
ATOM      9  C   UNL A   1      30.159  25.318  25.419  1.00  0.00     0.231 C 
ATOM     10  O   UNL A   1      29.877  25.923  26.449  1.00  0.00    -0.274 OA
ATOM     11  N   UNL A   1      29.806  25.685  24.132  1.00  0.00    -0.326 N 
ATOM     12  H   UNL A   1      30.114  25.090  23.411  1.00  0.00     0.169 HD
BRANCH  11  13
ATOM     13  C   UNL A   1      29.059  26.806  23.734  1.00  0.00     0.042 A 
ATOM     14  C   UNL A   1      27.683  26.777  24.004  1.00  0.00     0.026 A 
ATOM     15  C   UNL A   1      29.606  27.915  23.085  1.00  0.00     0.046 A 
ATOM     16  C   UNL A   1      26.864  27.848  23.647  1.00  0.00     0.004 A 
ATOM     17  C   UNL A   1      28.773  28.967  22.695  1.00  0.00     0.043 A 
ATOM     18  C   UNL A   1      27.408  28.942  22.980  1.00  0.00     0.020 A 
ATOM     19  Cl  UNL A   1      29.427  30.306  21.832  1.00  0.00    -0.084 Cl
ENDBRANCH  11  13
ENDBRANCH   8   9
ENDBRANCH   7   8
BRANCH   7  20
ATOM     20  N   UNL A   1      33.109  24.944  25.156  1.00  0.00    -0.332 N 
ATOM     21  H   UNL A   1      33.886  24.402  25.536  1.00  0.00     0.347 HD
ATOM     22  H   UNL A   1      32.590  25.489  25.844  1.00  0.00     0.347 HD
BRANCH  20  23
ATOM     23  C   UNL A   1      33.672  25.937  24.224  1.00  0.00     0.293 C 
BRANCH  23  24
ATOM     24  C   UNL A   1      33.899  27.374  24.754  1.00  0.00     0.173 C 
ATOM     25  C   UNL A   1      32.790  28.408  24.601  1.00  0.00     0.040 C 
ATOM     26  O   UNL A   1      34.164  27.277  26.175  1.00  0.00    -0.372 OA
ATOM     27  C   UNL A   1      32.111  28.404  25.951  1.00  0.00     0.031 C 
ATOM     28  C   UNL A   1      33.274  28.148  26.877  1.00  0.00     0.161 C 
ENDBRANCH  23  24
ENDBRANCH  20  23
ENDBRANCH   7  20
ENDBRANCH   5   7
ENDBRANCH   4   5
ENDBRANCH   3   4
ENDBRANCH   2   3
ENDBRANCH   1   2
BRANCH   1  29
ATOM     29  C   UNL A   1      37.007  20.415  24.702  1.00  0.00     0.202 C 
BRANCH  29  30
ATOM     30  C   UNL A   1      38.261  19.902  25.418  1.00  0.00     0.261 C 
BRANCH  30  31
ATOM     31  O   UNL A   1      39.297  20.898  25.463  1.00  0.00    -0.460 OA
BRANCH  31  32
ATOM     32  C   UNL A   1      40.147  20.781  26.510  1.00  0.00     0.338 C 
ATOM     33  O   UNL A   1      40.786  19.787  26.834  1.00  0.00    -0.246 OA
BRANCH  32  34
ATOM     34  C   UNL A   1      40.387  22.099  27.117  1.00  0.00     0.060 A 
ATOM     35  C   UNL A   1      39.675  23.191  26.603  1.00  0.00     0.016 A 
ATOM     36  C   UNL A   1      41.365  22.281  28.096  1.00  0.00     0.016 A 
ATOM     37  C   UNL A   1      39.980  24.481  27.025  1.00  0.00     0.010 A 
ATOM     38  C   UNL A   1      41.676  23.579  28.510  1.00  0.00     0.010 A 
ATOM     39  C   UNL A   1      41.014  24.685  27.945  1.00  0.00    -0.014 A 
BRANCH  39  40
ATOM     40  C   UNL A   1      41.505  26.061  28.190  1.00  0.00     0.031 A 
ATOM     41  C   UNL A   1      42.901  26.423  27.763  1.00  0.00     0.074 A 
ATOM     42  C   UNL A   1      40.711  26.980  28.766  1.00  0.00     0.049 A 
ATOM     43  N   UNL A   1      43.532  27.562  27.877  1.00  0.00    -0.248 NA
ATOM     44  C   UNL A   1      43.689  25.359  27.120  1.00  0.00     0.031 C 
ATOM     45  C   UNL A   1      39.337  26.750  29.206  1.00  0.00     0.029 A 
ATOM     46  N   UNL A   1      40.957  28.290  29.090  1.00  0.00    -0.354 N 
ATOM     47  C   UNL A   1      44.797  27.348  27.343  1.00  0.00     0.074 A 
ATOM     48  C   UNL A   1      44.850  25.965  26.921  1.00  0.00     0.031 C 
ATOM     49  C   UNL A   1      38.866  27.879  29.765  1.00  0.00     0.029 A 
ATOM     50  C   UNL A   1      39.911  28.899  29.741  1.00  0.00     0.049 A 
ATOM     51  H   UNL A   1      41.801  28.749  28.879  1.00  0.00     0.167 HD
ATOM     52  C   UNL A   1      45.818  28.227  27.200  1.00  0.00     0.034 A 
ATOM     53  C   UNL A   1      39.818  30.135  30.269  1.00  0.00     0.034 A 
ATOM     54  C   UNL A   1      45.756  29.605  27.608  1.00  0.00     0.049 A 
ATOM     55  C   UNL A   1      40.981  31.083  30.135  1.00  0.00     0.074 A 
ATOM     56  C   UNL A   1      46.722  30.587  27.472  1.00  0.00     0.029 A 
ATOM     57  N   UNL A   1      44.675  30.193  28.246  1.00  0.00    -0.354 N 
ATOM     58  N   UNL A   1      42.128  30.902  29.527  1.00  0.00    -0.248 NA
ATOM     59  C   UNL A   1      40.823  32.418  30.733  1.00  0.00     0.031 C 
ATOM     60  C   UNL A   1      46.232  31.763  28.050  1.00  0.00     0.029 A 
ATOM     61  C   UNL A   1      44.952  31.520  28.523  1.00  0.00     0.049 A 
ATOM     62  H   UNL A   1      43.833  29.733  28.468  1.00  0.00     0.167 HD
ATOM     63  C   UNL A   1      42.814  32.106  29.637  1.00  0.00     0.074 A 
ATOM     64  C   UNL A   1      41.946  33.016  30.356  1.00  0.00     0.031 C 
ATOM     65  C   UNL A   1      44.056  32.428  29.196  1.00  0.00     0.034 A 
BRANCH  52  66
ATOM     66  C   UNL A   1      47.080  27.724  26.549  1.00  0.00     0.023 A 
ATOM     67  C   UNL A   1      48.097  27.162  27.346  1.00  0.00     0.012 A 
ATOM     68  C   UNL A   1      47.248  27.781  25.152  1.00  0.00     0.148 A 
ATOM     69  C   UNL A   1      49.278  26.697  26.768  1.00  0.00     0.002 A 
ATOM     70  C   UNL A   1      48.410  27.277  24.579  1.00  0.00     0.091 A 
ATOM     71  F   UNL A   1      46.282  28.344  24.413  1.00  0.00    -0.205 F 
ATOM     72  C   UNL A   1      49.430  26.746  25.384  1.00  0.00     0.022 A 
BRANCH  70  73
ATOM     73  S   UNL A   1      48.665  27.230  22.801  1.00  0.00     0.127 S 
ATOM     74  O   UNL A   1      48.355  25.834  22.496  1.00  0.00    -0.237 OA
ATOM     75  O   UNL A   1      47.675  28.194  22.319  1.00  0.00    -0.237 OA
ATOM     76  O   UNL A   1      50.049  27.628  22.587  1.00  0.00    -0.744 OA
ENDBRANCH  70  73
ENDBRANCH  52  66
BRANCH  53  77
ATOM     77  C   UNL A   1      38.554  30.563  30.935  1.00  0.00     0.023 A 
ATOM     78  C   UNL A   1      38.388  30.336  32.315  1.00  0.00     0.012 A 
ATOM     79  C   UNL A   1      37.534  31.218  30.218  1.00  0.00     0.148 A 
ATOM     80  C   UNL A   1      37.219  30.733  32.964  1.00  0.00     0.002 A 
ATOM     81  C   UNL A   1      36.396  31.659  30.881  1.00  0.00     0.091 A 
ATOM     82  F   UNL A   1      37.706  31.410  28.902  1.00  0.00    -0.205 F 
ATOM     83  C   UNL A   1      36.229  31.404  32.251  1.00  0.00     0.022 A 
BRANCH  81  84
ATOM     84  S   UNL A   1      35.128  32.643  30.073  1.00  0.00     0.127 S 
ATOM     85  O   UNL A   1      34.205  32.904  31.175  1.00  0.00    -0.237 OA
ATOM     86  O   UNL A   1      35.893  33.805  29.620  1.00  0.00    -0.237 OA
ATOM     87  O   UNL A   1      34.609  31.809  28.997  1.00  0.00    -0.744 OA
ENDBRANCH  81  84
ENDBRANCH  53  77
BRANCH  65  88
ATOM     88  C   UNL A   1      44.547  33.831  29.446  1.00  0.00     0.023 A 
ATOM     89  C   UNL A   1      45.180  34.145  30.665  1.00  0.00     0.012 A 
ATOM     90  C   UNL A   1      44.450  34.818  28.444  1.00  0.00     0.148 A 
ATOM     91  C   UNL A   1      45.680  35.425  30.896  1.00  0.00     0.002 A 
ATOM     92  C   UNL A   1      44.993  36.078  28.663  1.00  0.00     0.091 A 
ATOM     93  F   UNL A   1      43.827  34.507  27.298  1.00  0.00    -0.205 F 
ATOM     94  C   UNL A   1      45.598  36.388  29.892  1.00  0.00     0.022 A 
BRANCH  92  95
ATOM     95  S   UNL A   1      45.017  37.349  27.393  1.00  0.00     0.127 S 
ATOM     96  O   UNL A   1      45.859  36.733  26.370  1.00  0.00    -0.237 OA
ATOM     97  O   UNL A   1      43.602  37.457  27.034  1.00  0.00    -0.237 OA
ATOM     98  O   UNL A   1      45.569  38.538  28.027  1.00  0.00    -0.744 OA
ENDBRANCH  92  95
ENDBRANCH  65  88
ENDBRANCH  39  40
ENDBRANCH  32  34
ENDBRANCH  31  32
ENDBRANCH  30  31
ENDBRANCH  29  30
ENDBRANCH   1  29
TORSDOF 23
ENDMDL
