MODEL 1
REMARK VINA RESULT:      -9.6      0.000      0.000
REMARK SMILES C[NH+](C)CCNC(=O)NC1(CC(=O)OCCOCCOC(=O)c2ccc(-c3c4nc(c(-c5cccc(S(=O)(=O)[O-])c5F)c5ccc([nH]5)c(-c5cccc(S(=O)(=O)[O-])c5F)c5nc(c(-c6cccc(S(=O)(=O)[O-])c6F)c6ccc3[nH]6)C=C5)C=C4)cc2)CCC1
REMARK SMILES IDX 16 1 15 2 14 3 12 4 13 5 11 6 10 7 86 8 88 9 87 10 9 11 6 12
REMARK SMILES IDX 7 13 8 15 5 17 4 18 2 19 1 20 3 21 17 23 18 24 19 25 20 26
REMARK SMILES IDX 21 27 22 28 23 29 24 30 85 31 25 32 84 33 26 34 27 35 28 36
REMARK SMILES IDX 78 37 29 38 83 39 77 40 79 41 30 42 82 43 76 44 75 45 31 47
REMARK SMILES IDX 63 48 43 49 62 50 44 51 47 52 61 53 80 54 45 55 46 56 60 58
REMARK SMILES IDX 81 59 48 60 32 61 33 62 41 63 34 64 36 65 42 66 35 67 37 68
REMARK SMILES IDX 38 69 39 70 40 71 64 72 65 73 73 74 66 75 68 76 74 77 67 78
REMARK SMILES IDX 69 79 70 80 71 81 72 82 49 83 50 84 58 85 51 86 53 87 59 88
REMARK SMILES IDX 52 89 54 90 55 91 56 92 57 93
REMARK H PARENT 6 14 9 16 2 22 79 46 47 57
REMARK Flexibility Score: inf
ROOT
ATOM      1  C   UNL A   1      34.308  22.120  26.244  1.00  0.00     0.202 C 
ENDROOT
BRANCH   1   2
ATOM      2  C   UNL A   1      34.086  23.621  25.964  1.00  0.00     0.261 C 
BRANCH   2   3
ATOM      3  O   UNL A   1      32.832  24.100  26.522  1.00  0.00    -0.463 OA
BRANCH   3   4
ATOM      4  C   UNL A   1      32.356  25.297  26.096  1.00  0.00     0.308 C 
ATOM      5  O   UNL A   1      31.548  25.954  26.750  1.00  0.00    -0.252 OA
BRANCH   4   6
ATOM      6  C   UNL A   1      32.731  25.691  24.652  1.00  0.00     0.151 C 
BRANCH   6   7
ATOM      7  C   UNL A   1      31.813  25.436  23.423  1.00  0.00     0.052 C 
ATOM      8  C   UNL A   1      32.241  24.093  22.692  1.00  0.00     0.029 C 
ATOM      9  C   UNL A   1      31.886  26.028  21.916  1.00  0.00     0.029 C 
ATOM     10  C   UNL A   1      32.863  24.931  21.556  1.00  0.00     0.005 C 
BRANCH   7  11
ATOM     11  N   UNL A   1      30.406  25.480  23.810  1.00  0.00    -0.332 N 
ATOM     12  N   UNL A   1      30.081  27.830  23.914  1.00  0.00    -0.332 N 
ATOM     13  C   UNL A   1      29.606  26.566  23.868  1.00  0.00     0.315 C 
ATOM     14  H   UNL A   1      29.364  28.500  23.840  1.00  0.00     0.165 HD
ATOM     15  O   UNL A   1      28.392  26.366  23.899  1.00  0.00    -0.249 OA
ATOM     16  H   UNL A   1      29.994  24.621  24.057  1.00  0.00     0.165 HD
BRANCH  12  17
ATOM     17  C   UNL A   1      31.408  28.450  24.048  1.00  0.00     0.179 C 
BRANCH  17  18
ATOM     18  C   UNL A   1      31.561  29.396  25.249  1.00  0.00     0.283 C 
BRANCH  18  19
ATOM     19  N   UNL A   1      32.609  29.032  26.218  1.00  0.00    -0.338 N 
ATOM     20  C   UNL A   1      33.897  28.755  25.598  1.00  0.00     0.332 C 
ATOM     21  C   UNL A   1      32.774  30.031  27.272  1.00  0.00     0.332 C 
ATOM     22  H   UNL A   1      32.275  28.167  26.642  1.00  0.00     0.347 HD
ENDBRANCH  18  19
ENDBRANCH  17  18
ENDBRANCH  12  17
ENDBRANCH   7  11
ENDBRANCH   6   7
ENDBRANCH   4   6
ENDBRANCH   3   4
ENDBRANCH   2   3
ENDBRANCH   1   2
BRANCH   1  23
ATOM     23  O   UNL A   1      35.684  21.733  26.237  1.00  0.00    -0.374 OA
BRANCH  23  24
ATOM     24  C   UNL A   1      36.298  21.815  24.949  1.00  0.00     0.202 C 
BRANCH  24  25
ATOM     25  C   UNL A   1      37.760  22.286  24.997  1.00  0.00     0.261 C 
BRANCH  25  26
ATOM     26  O   UNL A   1      38.473  21.853  26.177  1.00  0.00    -0.460 OA
BRANCH  26  27
ATOM     27  C   UNL A   1      39.676  22.474  26.310  1.00  0.00     0.338 C 
ATOM     28  O   UNL A   1      40.764  22.035  25.988  1.00  0.00    -0.246 OA
BRANCH  27  29
ATOM     29  C   UNL A   1      39.508  23.849  26.816  1.00  0.00     0.060 A 
ATOM     30  C   UNL A   1      39.960  24.894  26.007  1.00  0.00     0.016 A 
ATOM     31  C   UNL A   1      39.052  24.102  28.117  1.00  0.00     0.016 A 
ATOM     32  C   UNL A   1      40.018  26.189  26.516  1.00  0.00     0.010 A 
ATOM     33  C   UNL A   1      39.114  25.409  28.627  1.00  0.00     0.010 A 
ATOM     34  C   UNL A   1      39.660  26.445  27.848  1.00  0.00    -0.014 A 
BRANCH  34  35
ATOM     35  C   UNL A   1      40.173  27.706  28.451  1.00  0.00     0.031 A 
ATOM     36  C   UNL A   1      41.654  27.977  28.344  1.00  0.00     0.074 A 
ATOM     37  C   UNL A   1      39.347  28.660  28.921  1.00  0.00     0.049 A 
ATOM     38  N   UNL A   1      42.317  29.083  28.560  1.00  0.00    -0.248 NA
ATOM     39  C   UNL A   1      42.500  26.851  27.910  1.00  0.00     0.031 C 
ATOM     40  C   UNL A   1      37.898  28.534  29.057  1.00  0.00     0.029 A 
ATOM     41  N   UNL A   1      39.617  29.937  29.352  1.00  0.00    -0.354 N 
ATOM     42  C   UNL A   1      43.647  28.788  28.283  1.00  0.00     0.074 A 
ATOM     43  C   UNL A   1      43.706  27.394  27.913  1.00  0.00     0.031 C 
ATOM     44  C   UNL A   1      37.404  29.692  29.534  1.00  0.00     0.029 A 
ATOM     45  C   UNL A   1      38.500  30.639  29.741  1.00  0.00     0.049 A 
ATOM     46  H   UNL A   1      40.526  30.316  29.378  1.00  0.00     0.167 HD
ATOM     47  C   UNL A   1      44.725  29.605  28.308  1.00  0.00     0.034 A 
ATOM     48  C   UNL A   1      38.379  31.902  30.201  1.00  0.00     0.034 A 
ATOM     49  C   UNL A   1      44.674  30.989  28.688  1.00  0.00     0.049 A 
ATOM     50  C   UNL A   1      39.604  32.785  30.262  1.00  0.00     0.074 A 
ATOM     51  C   UNL A   1      45.708  31.903  28.751  1.00  0.00     0.029 A 
ATOM     52  N   UNL A   1      43.526  31.652  29.089  1.00  0.00    -0.354 N 
ATOM     53  N   UNL A   1      40.834  32.519  29.895  1.00  0.00    -0.248 NA
ATOM     54  C   UNL A   1      39.414  34.156  30.760  1.00  0.00     0.031 C 
ATOM     55  C   UNL A   1      45.192  33.111  29.231  1.00  0.00     0.029 A 
ATOM     56  C   UNL A   1      43.826  32.962  29.416  1.00  0.00     0.049 A 
ATOM     57  H   UNL A   1      42.628  31.249  29.136  1.00  0.00     0.167 HD
ATOM     58  C   UNL A   1      41.552  33.699  30.074  1.00  0.00     0.074 A 
ATOM     59  C   UNL A   1      40.614  34.686  30.567  1.00  0.00     0.031 C 
ATOM     60  C   UNL A   1      42.868  33.944  29.856  1.00  0.00     0.034 A 
BRANCH  47  61
ATOM     61  C   UNL A   1      46.054  29.009  27.920  1.00  0.00     0.023 A 
ATOM     62  C   UNL A   1      47.056  28.826  28.894  1.00  0.00     0.012 A 
ATOM     63  C   UNL A   1      46.302  28.615  26.591  1.00  0.00     0.148 A 
ATOM     64  C   UNL A   1      48.299  28.300  28.544  1.00  0.00     0.002 A 
ATOM     65  C   UNL A   1      47.525  28.047  26.259  1.00  0.00     0.091 A 
ATOM     66  F   UNL A   1      45.344  28.819  25.675  1.00  0.00    -0.205 F 
ATOM     67  C   UNL A   1      48.530  27.902  27.230  1.00  0.00     0.022 A 
BRANCH  65  68
ATOM     68  S   UNL A   1      47.894  27.438  24.611  1.00  0.00     0.127 S 
ATOM     69  O   UNL A   1      47.143  26.184  24.583  1.00  0.00    -0.237 OA
ATOM     70  O   UNL A   1      47.346  28.496  23.763  1.00  0.00    -0.237 OA
ATOM     71  O   UNL A   1      49.343  27.296  24.548  1.00  0.00    -0.744 OA
ENDBRANCH  65  68
ENDBRANCH  47  61
BRANCH  48  72
ATOM     72  C   UNL A   1      37.043  32.431  30.611  1.00  0.00     0.023 A 
ATOM     73  C   UNL A   1      36.612  32.316  31.949  1.00  0.00     0.012 A 
ATOM     74  C   UNL A   1      36.189  33.037  29.669  1.00  0.00     0.148 A 
ATOM     75  C   UNL A   1      35.342  32.758  32.329  1.00  0.00     0.002 A 
ATOM     76  C   UNL A   1      34.950  33.528  30.066  1.00  0.00     0.091 A 
ATOM     77  F   UNL A   1      36.604  33.118  28.397  1.00  0.00    -0.205 F 
ATOM     78  C   UNL A   1      34.516  33.372  31.391  1.00  0.00     0.022 A 
BRANCH  76  79
ATOM     79  S   UNL A   1      33.873  34.439  28.954  1.00  0.00     0.127 S 
ATOM     80  O   UNL A   1      33.535  33.421  27.963  1.00  0.00    -0.237 OA
ATOM     81  O   UNL A   1      32.777  34.822  29.845  1.00  0.00    -0.237 OA
ATOM     82  O   UNL A   1      34.666  35.558  28.464  1.00  0.00    -0.744 OA
ENDBRANCH  76  79
ENDBRANCH  48  72
BRANCH  60  83
ATOM     83  C   UNL A   1      43.374  35.346  30.091  1.00  0.00     0.023 A 
ATOM     84  C   UNL A   1      43.987  35.685  31.312  1.00  0.00     0.012 A 
ATOM     85  C   UNL A   1      43.307  36.306  29.061  1.00  0.00     0.148 A 
ATOM     86  C   UNL A   1      44.487  36.971  31.521  1.00  0.00     0.002 A 
ATOM     87  C   UNL A   1      43.857  37.567  29.256  1.00  0.00     0.091 A 
ATOM     88  F   UNL A   1      42.705  35.970  27.910  1.00  0.00    -0.205 F 
ATOM     89  C   UNL A   1      44.434  37.906  30.489  1.00  0.00     0.022 A 
BRANCH  87  90
ATOM     90  S   UNL A   1      43.927  38.795  27.947  1.00  0.00     0.127 S 
ATOM     91  O   UNL A   1      42.630  39.453  28.087  1.00  0.00    -0.237 OA
ATOM     92  O   UNL A   1      45.073  39.613  28.349  1.00  0.00    -0.237 OA
ATOM     93  O   UNL A   1      44.122  38.052  26.709  1.00  0.00    -0.744 OA
ENDBRANCH  87  90
ENDBRANCH  60  83
ENDBRANCH  34  35
ENDBRANCH  27  29
ENDBRANCH  26  27
ENDBRANCH  25  26
ENDBRANCH  24  25
ENDBRANCH  23  24
ENDBRANCH   1  23
TORSDOF 22
ENDMDL
MODEL 2
REMARK VINA RESULT:      -9.3      1.776      2.564
REMARK SMILES C[NH+](C)CCNC(=O)NC1(CC(=O)OCCOCCOC(=O)c2ccc(-c3c4nc(c(-c5cccc(S(=O)(=O)[O-])c5F)c5ccc([nH]5)c(-c5cccc(S(=O)(=O)[O-])c5F)c5nc(c(-c6cccc(S(=O)(=O)[O-])c6F)c6ccc3[nH]6)C=C5)C=C4)cc2)CCC1
REMARK SMILES IDX 16 1 15 2 14 3 12 4 13 5 11 6 10 7 86 8 88 9 87 10 9 11 6 12
REMARK SMILES IDX 7 13 8 15 5 17 4 18 2 19 1 20 3 21 17 23 18 24 19 25 20 26
REMARK SMILES IDX 21 27 22 28 23 29 24 30 85 31 25 32 84 33 26 34 27 35 28 36
REMARK SMILES IDX 78 37 29 38 83 39 77 40 79 41 30 42 82 43 76 44 75 45 31 47
REMARK SMILES IDX 63 48 43 49 62 50 44 51 47 52 61 53 80 54 45 55 46 56 60 58
REMARK SMILES IDX 81 59 48 60 32 61 33 62 41 63 34 64 36 65 42 66 35 67 37 68
REMARK SMILES IDX 38 69 39 70 40 71 64 72 65 73 73 74 66 75 68 76 74 77 67 78
REMARK SMILES IDX 69 79 70 80 71 81 72 82 49 83 50 84 58 85 51 86 53 87 59 88
REMARK SMILES IDX 52 89 54 90 55 91 56 92 57 93
REMARK H PARENT 6 14 9 16 2 22 79 46 47 57
REMARK Flexibility Score: inf
ROOT
ATOM      1  C   UNL A   1      35.748  23.481  24.888  1.00  0.00     0.202 C 
ENDROOT
BRANCH   1   2
ATOM      2  C   UNL A   1      35.147  24.670  25.668  1.00  0.00     0.261 C 
BRANCH   2   3
ATOM      3  O   UNL A   1      34.005  25.250  24.980  1.00  0.00    -0.463 OA
BRANCH   3   4
ATOM      4  C   UNL A   1      33.599  26.493  25.347  1.00  0.00     0.308 C 
ATOM      5  O   UNL A   1      34.144  27.121  26.253  1.00  0.00    -0.252 OA
BRANCH   4   6
ATOM      6  C   UNL A   1      32.288  26.987  24.701  1.00  0.00     0.151 C 
BRANCH   6   7
ATOM      7  C   UNL A   1      32.102  27.181  23.169  1.00  0.00     0.052 C 
ATOM      8  C   UNL A   1      32.324  28.705  22.783  1.00  0.00     0.029 C 
ATOM      9  C   UNL A   1      30.754  27.376  22.290  1.00  0.00     0.029 C 
ATOM     10  C   UNL A   1      30.800  28.858  22.587  1.00  0.00     0.005 C 
BRANCH   7  11
ATOM     11  N   UNL A   1      32.944  26.250  22.423  1.00  0.00    -0.332 N 
ATOM     12  N   UNL A   1      31.666  24.262  22.656  1.00  0.00    -0.332 N 
ATOM     13  C   UNL A   1      32.648  24.981  22.070  1.00  0.00     0.315 C 
ATOM     14  H   UNL A   1      31.513  23.403  22.203  1.00  0.00     0.165 HD
ATOM     15  O   UNL A   1      33.332  24.473  21.181  1.00  0.00    -0.249 OA
ATOM     16  H   UNL A   1      33.827  26.585  22.147  1.00  0.00     0.165 HD
BRANCH  12  17
ATOM     17  C   UNL A   1      30.770  24.450  23.807  1.00  0.00     0.179 C 
BRANCH  17  18
ATOM     18  C   UNL A   1      30.769  23.296  24.821  1.00  0.00     0.283 C 
BRANCH  18  19
ATOM     19  N   UNL A   1      32.086  22.930  25.370  1.00  0.00    -0.338 N 
ATOM     20  C   UNL A   1      32.131  22.952  26.826  1.00  0.00     0.332 C 
ATOM     21  C   UNL A   1      32.561  21.636  24.883  1.00  0.00     0.332 C 
ATOM     22  H   UNL A   1      32.716  23.655  25.029  1.00  0.00     0.347 HD
ENDBRANCH  18  19
ENDBRANCH  17  18
ENDBRANCH  12  17
ENDBRANCH   7  11
ENDBRANCH   6   7
ENDBRANCH   4   6
ENDBRANCH   3   4
ENDBRANCH   2   3
ENDBRANCH   1   2
BRANCH   1  23
ATOM     23  O   UNL A   1      36.717  22.740  25.630  1.00  0.00    -0.374 OA
BRANCH  23  24
ATOM     24  C   UNL A   1      37.508  21.862  24.827  1.00  0.00     0.202 C 
BRANCH  24  25
ATOM     25  C   UNL A   1      38.751  21.320  25.553  1.00  0.00     0.261 C 
BRANCH  25  26
ATOM     26  O   UNL A   1      39.099  22.062  26.743  1.00  0.00    -0.460 OA
BRANCH  26  27
ATOM     27  C   UNL A   1      40.187  22.857  26.555  1.00  0.00     0.338 C 
ATOM     28  O   UNL A   1      41.235  22.546  26.022  1.00  0.00    -0.246 OA
BRANCH  27  29
ATOM     29  C   UNL A   1      39.915  24.238  26.996  1.00  0.00     0.060 A 
ATOM     30  C   UNL A   1      40.433  25.276  26.218  1.00  0.00     0.016 A 
ATOM     31  C   UNL A   1      39.294  24.509  28.221  1.00  0.00     0.016 A 
ATOM     32  C   UNL A   1      40.388  26.586  26.691  1.00  0.00     0.010 A 
ATOM     33  C   UNL A   1      39.252  25.831  28.696  1.00  0.00     0.010 A 
ATOM     34  C   UNL A   1      39.859  26.864  27.959  1.00  0.00    -0.014 A 
BRANCH  34  35
ATOM     35  C   UNL A   1      40.255  28.157  28.583  1.00  0.00     0.031 A 
ATOM     36  C   UNL A   1      41.725  28.390  28.830  1.00  0.00     0.074 A 
ATOM     37  C   UNL A   1      39.375  29.160  28.766  1.00  0.00     0.049 A 
ATOM     38  N   UNL A   1      42.355  29.497  29.127  1.00  0.00    -0.248 NA
ATOM     39  C   UNL A   1      42.609  27.219  28.698  1.00  0.00     0.031 C 
ATOM     40  C   UNL A   1      37.933  29.073  28.546  1.00  0.00     0.029 A 
ATOM     41  N   UNL A   1      39.578  30.461  29.162  1.00  0.00    -0.354 N 
ATOM     42  C   UNL A   1      43.700  29.156  29.210  1.00  0.00     0.074 A 
ATOM     43  C   UNL A   1      43.797  27.736  28.963  1.00  0.00     0.031 C 
ATOM     44  C   UNL A   1      37.380  30.273  28.804  1.00  0.00     0.029 A 
ATOM     45  C   UNL A   1      38.426  31.211  29.212  1.00  0.00     0.049 A 
ATOM     46  H   UNL A   1      40.466  30.822  29.387  1.00  0.00     0.167 HD
ATOM     47  C   UNL A   1      44.769  29.951  29.447  1.00  0.00     0.034 A 
ATOM     48  C   UNL A   1      38.243  32.508  29.540  1.00  0.00     0.034 A 
ATOM     49  C   UNL A   1      44.678  31.361  29.706  1.00  0.00     0.049 A 
ATOM     50  C   UNL A   1      39.447  33.369  29.843  1.00  0.00     0.074 A 
ATOM     51  C   UNL A   1      45.698  32.257  29.962  1.00  0.00     0.029 A 
ATOM     52  N   UNL A   1      43.492  32.075  29.763  1.00  0.00    -0.354 N 
ATOM     53  N   UNL A   1      40.719  33.052  29.812  1.00  0.00    -0.248 NA
ATOM     54  C   UNL A   1      39.192  34.777  30.183  1.00  0.00     0.031 C 
ATOM     55  C   UNL A   1      45.125  33.508  30.214  1.00  0.00     0.029 A 
ATOM     56  C   UNL A   1      43.751  33.399  30.063  1.00  0.00     0.049 A 
ATOM     57  H   UNL A   1      42.596  31.694  29.612  1.00  0.00     0.167 HD
ATOM     58  C   UNL A   1      41.415  34.228  30.083  1.00  0.00     0.074 A 
ATOM     59  C   UNL A   1      40.421  35.267  30.258  1.00  0.00     0.031 C 
ATOM     60  C   UNL A   1      42.752  34.431  30.183  1.00  0.00     0.034 A 
BRANCH  47  61
ATOM     61  C   UNL A   1      46.129  29.302  29.444  1.00  0.00     0.023 A 
ATOM     62  C   UNL A   1      46.745  28.949  30.662  1.00  0.00     0.012 A 
ATOM     63  C   UNL A   1      46.789  29.027  28.231  1.00  0.00     0.148 A 
ATOM     64  C   UNL A   1      48.014  28.370  30.674  1.00  0.00     0.002 A 
ATOM     65  C   UNL A   1      48.033  28.408  28.248  1.00  0.00     0.091 A 
ATOM     66  F   UNL A   1      46.197  29.393  27.084  1.00  0.00    -0.205 F 
ATOM     67  C   UNL A   1      48.653  28.092  29.468  1.00  0.00     0.022 A 
BRANCH  65  68
ATOM     68  S   UNL A   1      48.904  27.944  26.749  1.00  0.00     0.127 S 
ATOM     69  O   UNL A   1      50.274  28.344  27.067  1.00  0.00    -0.237 OA
ATOM     70  O   UNL A   1      48.686  26.498  26.704  1.00  0.00    -0.237 OA
ATOM     71  O   UNL A   1      48.273  28.689  25.668  1.00  0.00    -0.744 OA
ENDBRANCH  65  68
ENDBRANCH  47  61
BRANCH  48  72
ATOM     72  C   UNL A   1      36.867  33.092  29.567  1.00  0.00     0.023 A 
ATOM     73  C   UNL A   1      36.189  33.372  28.364  1.00  0.00     0.012 A 
ATOM     74  C   UNL A   1      36.236  33.387  30.792  1.00  0.00     0.148 A 
ATOM     75  C   UNL A   1      34.926  33.969  28.380  1.00  0.00     0.002 A 
ATOM     76  C   UNL A   1      34.954  33.927  30.802  1.00  0.00     0.091 A 
ATOM     77  F   UNL A   1      36.904  33.136  31.926  1.00  0.00    -0.205 F 
ATOM     78  C   UNL A   1      34.305  34.238  29.597  1.00  0.00     0.022 A 
BRANCH  76  79
ATOM     79  S   UNL A   1      34.034  34.192  32.321  1.00  0.00     0.127 S 
ATOM     80  O   UNL A   1      33.705  32.825  32.715  1.00  0.00    -0.237 OA
ATOM     81  O   UNL A   1      35.031  34.854  33.164  1.00  0.00    -0.237 OA
ATOM     82  O   UNL A   1      32.902  35.033  31.956  1.00  0.00    -0.744 OA
ENDBRANCH  76  79
ENDBRANCH  48  72
BRANCH  60  83
ATOM     83  C   UNL A   1      43.236  35.836  30.440  1.00  0.00     0.023 A 
ATOM     84  C   UNL A   1      43.599  36.237  31.740  1.00  0.00     0.012 A 
ATOM     85  C   UNL A   1      43.404  36.735  29.368  1.00  0.00     0.148 A 
ATOM     86  C   UNL A   1      44.081  37.525  31.976  1.00  0.00     0.002 A 
ATOM     87  C   UNL A   1      43.936  37.997  29.601  1.00  0.00     0.091 A 
ATOM     88  F   UNL A   1      43.038  36.342  28.138  1.00  0.00    -0.205 F 
ATOM     89  C   UNL A   1      44.261  38.399  30.906  1.00  0.00     0.022 A 
BRANCH  87  90
ATOM     90  S   UNL A   1      44.300  39.146  28.269  1.00  0.00     0.127 S 
ATOM     91  O   UNL A   1      43.095  39.971  28.250  1.00  0.00    -0.237 OA
ATOM     92  O   UNL A   1      45.498  39.827  28.765  1.00  0.00    -0.237 OA
ATOM     93  O   UNL A   1      44.520  38.329  27.083  1.00  0.00    -0.744 OA
ENDBRANCH  87  90
ENDBRANCH  60  83
ENDBRANCH  34  35
ENDBRANCH  27  29
ENDBRANCH  26  27
ENDBRANCH  25  26
ENDBRANCH  24  25
ENDBRANCH  23  24
ENDBRANCH   1  23
TORSDOF 22
ENDMDL
MODEL 3
REMARK VINA RESULT:      -9.3      2.422      3.452
REMARK SMILES C[NH+](C)CCNC(=O)NC1(CC(=O)OCCOCCOC(=O)c2ccc(-c3c4nc(c(-c5cccc(S(=O)(=O)[O-])c5F)c5ccc([nH]5)c(-c5cccc(S(=O)(=O)[O-])c5F)c5nc(c(-c6cccc(S(=O)(=O)[O-])c6F)c6ccc3[nH]6)C=C5)C=C4)cc2)CCC1
REMARK SMILES IDX 16 1 15 2 14 3 12 4 13 5 11 6 10 7 86 8 88 9 87 10 9 11 6 12
REMARK SMILES IDX 7 13 8 15 5 17 4 18 2 19 1 20 3 21 17 23 18 24 19 25 20 26
REMARK SMILES IDX 21 27 22 28 23 29 24 30 85 31 25 32 84 33 26 34 27 35 28 36
REMARK SMILES IDX 78 37 29 38 83 39 77 40 79 41 30 42 82 43 76 44 75 45 31 47
REMARK SMILES IDX 63 48 43 49 62 50 44 51 47 52 61 53 80 54 45 55 46 56 60 58
REMARK SMILES IDX 81 59 48 60 32 61 33 62 41 63 34 64 36 65 42 66 35 67 37 68
REMARK SMILES IDX 38 69 39 70 40 71 64 72 65 73 73 74 66 75 68 76 74 77 67 78
REMARK SMILES IDX 69 79 70 80 71 81 72 82 49 83 50 84 58 85 51 86 53 87 59 88
REMARK SMILES IDX 52 89 54 90 55 91 56 92 57 93
REMARK H PARENT 6 14 9 16 2 22 79 46 47 57
REMARK Flexibility Score: inf
ROOT
ATOM      1  C   UNL A   1      36.393  21.403  24.978  1.00  0.00     0.202 C 
ENDROOT
BRANCH   1   2
ATOM      2  C   UNL A   1      36.199  22.718  24.192  1.00  0.00     0.261 C 
BRANCH   2   3
ATOM      3  O   UNL A   1      35.758  23.805  25.050  1.00  0.00    -0.463 OA
BRANCH   3   4
ATOM      4  C   UNL A   1      34.452  24.171  25.000  1.00  0.00     0.308 C 
ATOM      5  O   UNL A   1      34.064  25.138  24.347  1.00  0.00    -0.252 OA
BRANCH   4   6
ATOM      6  C   UNL A   1      33.511  23.428  25.973  1.00  0.00     0.151 C 
BRANCH   6   7
ATOM      7  C   UNL A   1      32.238  22.658  25.521  1.00  0.00     0.052 C 
ATOM      8  C   UNL A   1      32.647  21.295  24.817  1.00  0.00     0.029 C 
ATOM      9  C   UNL A   1      31.327  22.823  24.190  1.00  0.00     0.029 C 
ATOM     10  C   UNL A   1      32.279  21.911  23.451  1.00  0.00     0.005 C 
BRANCH   7  11
ATOM     11  N   UNL A   1      31.308  22.497  26.634  1.00  0.00    -0.332 N 
ATOM     12  N   UNL A   1      30.123  24.549  26.480  1.00  0.00    -0.332 N 
ATOM     13  C   UNL A   1      30.260  23.288  26.946  1.00  0.00     0.315 C 
ATOM     14  H   UNL A   1      29.250  24.940  26.715  1.00  0.00     0.165 HD
ATOM     15  O   UNL A   1      29.413  22.822  27.709  1.00  0.00    -0.249 OA
ATOM     16  H   UNL A   1      31.463  21.725  27.224  1.00  0.00     0.165 HD
BRANCH  12  17
ATOM     17  C   UNL A   1      30.958  25.481  25.708  1.00  0.00     0.179 C 
BRANCH  17  18
ATOM     18  C   UNL A   1      31.747  26.493  26.552  1.00  0.00     0.283 C 
BRANCH  18  19
ATOM     19  N   UNL A   1      32.137  27.734  25.861  1.00  0.00    -0.338 N 
ATOM     20  C   UNL A   1      31.633  27.817  24.497  1.00  0.00     0.332 C 
ATOM     21  C   UNL A   1      31.757  28.936  26.601  1.00  0.00     0.332 C 
ATOM     22  H   UNL A   1      33.154  27.691  25.814  1.00  0.00     0.347 HD
ENDBRANCH  18  19
ENDBRANCH  17  18
ENDBRANCH  12  17
ENDBRANCH   7  11
ENDBRANCH   6   7
ENDBRANCH   4   6
ENDBRANCH   3   4
ENDBRANCH   2   3
ENDBRANCH   1   2
BRANCH   1  23
ATOM     23  O   UNL A   1      37.762  21.084  25.233  1.00  0.00    -0.374 OA
BRANCH  23  24
ATOM     24  C   UNL A   1      38.545  22.204  25.651  1.00  0.00     0.202 C 
BRANCH  24  25
ATOM     25  C   UNL A   1      39.649  21.838  26.657  1.00  0.00     0.261 C 
BRANCH  25  26
ATOM     26  O   UNL A   1      40.084  20.463  26.569  1.00  0.00    -0.460 OA
BRANCH  26  27
ATOM     27  C   UNL A   1      41.357  20.354  26.104  1.00  0.00     0.338 C 
ATOM     28  O   UNL A   1      41.807  19.465  25.405  1.00  0.00    -0.246 OA
BRANCH  27  29
ATOM     29  C   UNL A   1      42.156  21.539  26.468  1.00  0.00     0.060 A 
ATOM     30  C   UNL A   1      42.528  21.679  27.807  1.00  0.00     0.016 A 
ATOM     31  C   UNL A   1      42.410  22.564  25.548  1.00  0.00     0.016 A 
ATOM     32  C   UNL A   1      43.100  22.871  28.247  1.00  0.00     0.010 A 
ATOM     33  C   UNL A   1      42.985  23.766  25.996  1.00  0.00     0.010 A 
ATOM     34  C   UNL A   1      43.271  23.945  27.362  1.00  0.00    -0.014 A 
BRANCH  34  35
ATOM     35  C   UNL A   1      43.437  25.295  27.967  1.00  0.00     0.031 A 
ATOM     36  C   UNL A   1      44.817  25.904  27.941  1.00  0.00     0.074 A 
ATOM     37  C   UNL A   1      42.384  26.031  28.369  1.00  0.00     0.049 A 
ATOM     38  N   UNL A   1      45.188  27.137  28.172  1.00  0.00    -0.248 NA
ATOM     39  C   UNL A   1      45.927  25.006  27.579  1.00  0.00     0.031 C 
ATOM     40  C   UNL A   1      40.998  25.570  28.424  1.00  0.00     0.029 A 
ATOM     41  N   UNL A   1      42.320  27.339  28.788  1.00  0.00    -0.354 N 
ATOM     42  C   UNL A   1      46.564  27.161  27.978  1.00  0.00     0.074 A 
ATOM     43  C   UNL A   1      46.971  25.816  27.641  1.00  0.00     0.031 C 
ATOM     44  C   UNL A   1      40.219  26.582  28.847  1.00  0.00     0.029 A 
ATOM     45  C   UNL A   1      41.048  27.762  29.098  1.00  0.00     0.049 A 
ATOM     46  H   UNL A   1      43.112  27.920  28.859  1.00  0.00     0.167 HD
ATOM     47  C   UNL A   1      47.418  28.208  28.049  1.00  0.00     0.034 A 
ATOM     48  C   UNL A   1      40.607  28.964  29.524  1.00  0.00     0.034 A 
ATOM     49  C   UNL A   1      47.022  29.543  28.396  1.00  0.00     0.049 A 
ATOM     50  C   UNL A   1      41.586  30.110  29.638  1.00  0.00     0.074 A 
ATOM     51  C   UNL A   1      47.808  30.675  28.500  1.00  0.00     0.029 A 
ATOM     52  N   UNL A   1      45.728  29.921  28.717  1.00  0.00    -0.354 N 
ATOM     53  N   UNL A   1      42.864  30.138  29.347  1.00  0.00    -0.248 NA
ATOM     54  C   UNL A   1      41.051  31.402  30.095  1.00  0.00     0.031 C 
ATOM     55  C   UNL A   1      46.995  31.731  28.924  1.00  0.00     0.029 A 
ATOM     56  C   UNL A   1      45.693  31.267  29.033  1.00  0.00     0.049 A 
ATOM     57  H   UNL A   1      44.948  29.319  28.720  1.00  0.00     0.167 HD
ATOM     58  C   UNL A   1      43.275  31.454  29.543  1.00  0.00     0.074 A 
ATOM     59  C   UNL A   1      42.103  32.196  29.960  1.00  0.00     0.031 C 
ATOM     60  C   UNL A   1      44.508  32.000  29.397  1.00  0.00     0.034 A 
BRANCH  47  61
ATOM     61  C   UNL A   1      48.870  27.938  27.750  1.00  0.00     0.023 A 
ATOM     62  C   UNL A   1      49.755  27.601  28.796  1.00  0.00     0.012 A 
ATOM     63  C   UNL A   1      49.355  28.001  26.430  1.00  0.00     0.148 A 
ATOM     64  C   UNL A   1      51.106  27.374  28.537  1.00  0.00     0.002 A 
ATOM     65  C   UNL A   1      50.693  27.727  26.173  1.00  0.00     0.091 A 
ATOM     66  F   UNL A   1      48.504  28.346  25.453  1.00  0.00    -0.205 F 
ATOM     67  C   UNL A   1      51.572  27.428  27.226  1.00  0.00     0.022 A 
BRANCH  65  68
ATOM     68  S   UNL A   1      51.374  27.701  24.512  1.00  0.00     0.127 S 
ATOM     69  O   UNL A   1      50.467  26.775  23.835  1.00  0.00    -0.237 OA
ATOM     70  O   UNL A   1      51.237  29.098  24.103  1.00  0.00    -0.237 OA
ATOM     71  O   UNL A   1      52.749  27.237  24.648  1.00  0.00    -0.744 OA
ENDBRANCH  65  68
ENDBRANCH  47  61
BRANCH  48  72
ATOM     72  C   UNL A   1      39.162  29.167  29.845  1.00  0.00     0.023 A 
ATOM     73  C   UNL A   1      38.662  28.830  31.120  1.00  0.00     0.012 A 
ATOM     74  C   UNL A   1      38.276  29.682  28.879  1.00  0.00     0.148 A 
ATOM     75  C   UNL A   1      37.302  28.966  31.411  1.00  0.00     0.002 A 
ATOM     76  C   UNL A   1      36.934  29.870  29.194  1.00  0.00     0.091 A 
ATOM     77  F   UNL A   1      38.763  29.976  27.665  1.00  0.00    -0.205 F 
ATOM     78  C   UNL A   1      36.441  29.494  30.452  1.00  0.00     0.022 A 
BRANCH  76  79
ATOM     79  S   UNL A   1      35.781  30.654  28.063  1.00  0.00     0.127 S 
ATOM     80  O   UNL A   1      36.519  31.850  27.663  1.00  0.00    -0.237 OA
ATOM     81  O   UNL A   1      35.645  29.637  27.020  1.00  0.00    -0.237 OA
ATOM     82  O   UNL A   1      34.568  30.890  28.834  1.00  0.00    -0.744 OA
ENDBRANCH  76  79
ENDBRANCH  48  72
BRANCH  60  83
ATOM     83  C   UNL A   1      44.656  33.483  29.632  1.00  0.00     0.023 A 
ATOM     84  C   UNL A   1      45.004  33.970  30.907  1.00  0.00     0.012 A 
ATOM     85  C   UNL A   1      44.525  34.388  28.559  1.00  0.00     0.148 A 
ATOM     86  C   UNL A   1      45.177  35.338  31.119  1.00  0.00     0.002 A 
ATOM     87  C   UNL A   1      44.752  35.742  28.766  1.00  0.00     0.091 A 
ATOM     88  F   UNL A   1      44.177  33.908  27.355  1.00  0.00    -0.205 F 
ATOM     89  C   UNL A   1      45.064  36.221  30.048  1.00  0.00     0.022 A 
BRANCH  87  90
ATOM     90  S   UNL A   1      44.732  36.934  27.422  1.00  0.00     0.127 S 
ATOM     91  O   UNL A   1      43.374  36.778  26.907  1.00  0.00    -0.237 OA
ATOM     92  O   UNL A   1      44.978  38.197  28.123  1.00  0.00    -0.237 OA
ATOM     93  O   UNL A   1      45.798  36.533  26.514  1.00  0.00    -0.744 OA
ENDBRANCH  87  90
ENDBRANCH  60  83
ENDBRANCH  34  35
ENDBRANCH  27  29
ENDBRANCH  26  27
ENDBRANCH  25  26
ENDBRANCH  24  25
ENDBRANCH  23  24
ENDBRANCH   1  23
TORSDOF 22
ENDMDL
