MODEL 1
REMARK VINA RESULT:     -11.7      0.000      0.000
REMARK SMILES O=C(OCCOCCOC(=O)c1ccccc1/N=C/c1coc2ccccc2c1=O)c1ccc(-c2c3nc(c(-c4cccc(S(=O)(=O)[O-])c4F)c4ccc([nH]4)c(-c4cccc(S(=O)(=O)[O-])c4F)c4nc(c(-c5cccc(S(=O)(=O)[O-])c5F)c5ccc2[nH]5)C=C4)C=C3)cc1
REMARK SMILES IDX 5 1 4 2 3 3 2 4 1 5 31 6 32 7 93 8 33 9 92 10 34 11 35 12
REMARK SMILES IDX 36 13 86 14 37 15 91 16 85 17 87 18 38 19 90 20 84 21 83 22
REMARK SMILES IDX 39 24 71 25 51 26 70 27 52 28 55 29 69 30 88 31 53 32 54 33
REMARK SMILES IDX 68 35 89 36 56 37 40 38 41 39 49 40 42 41 44 42 50 43 43 44
REMARK SMILES IDX 45 45 46 46 47 47 48 48 72 49 73 50 81 51 74 52 76 53 82 54
REMARK SMILES IDX 75 55 77 56 78 57 79 58 80 59 57 60 58 61 66 62 59 63 61 64
REMARK SMILES IDX 67 65 60 66 62 67 63 68 64 69 65 70 6 71 7 72 8 73 9 74
REMARK SMILES IDX 10 75 11 76 12 77 13 78 17 79 14 80 16 81 15 82 18 83 19 84
REMARK SMILES IDX 20 85 21 86 29 87 22 88 28 89 30 90 23 91 27 92 24 93 26 94
REMARK SMILES IDX 25 95
REMARK H PARENT 87 23 55 34
REMARK Flexibility Score: inf
ROOT
ATOM      1  C   UNL A   1      38.244  20.280  24.983  1.00  0.00     0.202 C 
ENDROOT
BRANCH   1   2
ATOM      2  C   UNL A   1      39.091  19.267  25.758  1.00  0.00     0.261 C 
BRANCH   2   3
ATOM      3  O   UNL A   1      40.483  19.390  25.418  1.00  0.00    -0.460 OA
BRANCH   3   4
ATOM      4  C   UNL A   1      41.518  19.730  26.227  1.00  0.00     0.338 C 
ATOM      5  O   UNL A   1      42.197  18.829  26.717  1.00  0.00    -0.246 OA
BRANCH   4   6
ATOM      6  C   UNL A   1      41.860  21.143  26.583  1.00  0.00     0.060 A 
ATOM      7  C   UNL A   1      41.754  22.219  25.705  1.00  0.00     0.016 A 
ATOM      8  C   UNL A   1      42.214  21.425  27.913  1.00  0.00     0.016 A 
ATOM      9  C   UNL A   1      41.966  23.519  26.092  1.00  0.00     0.010 A 
ATOM     10  C   UNL A   1      42.448  22.743  28.324  1.00  0.00     0.010 A 
ATOM     11  C   UNL A   1      42.312  23.786  27.402  1.00  0.00    -0.014 A 
BRANCH  11  12
ATOM     12  C   UNL A   1      42.686  25.177  27.658  1.00  0.00     0.031 A 
ATOM     13  C   UNL A   1      43.965  25.659  27.061  1.00  0.00     0.074 A 
ATOM     14  C   UNL A   1      41.767  26.009  28.181  1.00  0.00     0.049 A 
ATOM     15  N   UNL A   1      44.508  26.838  27.126  1.00  0.00    -0.248 NA
ATOM     16  C   UNL A   1      44.720  24.687  26.246  1.00  0.00     0.031 C 
ATOM     17  C   UNL A   1      40.409  25.622  28.582  1.00  0.00     0.029 A 
ATOM     18  N   UNL A   1      41.817  27.351  28.426  1.00  0.00    -0.354 N 
ATOM     19  C   UNL A   1      45.698  26.735  26.421  1.00  0.00     0.074 A 
ATOM     20  C   UNL A   1      45.784  25.392  25.899  1.00  0.00     0.031 C 
ATOM     21  C   UNL A   1      39.762  26.705  29.043  1.00  0.00     0.029 A 
ATOM     22  C   UNL A   1      40.683  27.832  29.038  1.00  0.00     0.049 A 
ATOM     23  H   UNL A   1      42.586  27.917  28.188  1.00  0.00     0.167 HD
ATOM     24  C   UNL A   1      46.639  27.687  26.254  1.00  0.00     0.034 A 
ATOM     25  C   UNL A   1      40.463  29.039  29.586  1.00  0.00     0.034 A 
ATOM     26  C   UNL A   1      46.505  29.005  26.802  1.00  0.00     0.049 A 
ATOM     27  C   UNL A   1      41.579  30.044  29.488  1.00  0.00     0.074 A 
ATOM     28  C   UNL A   1      47.412  30.044  26.791  1.00  0.00     0.029 A 
ATOM     29  N   UNL A   1      45.377  29.453  27.481  1.00  0.00    -0.354 N 
ATOM     30  N   UNL A   1      42.731  29.938  28.864  1.00  0.00    -0.248 NA
ATOM     31  C   UNL A   1      41.373  31.331  30.157  1.00  0.00     0.031 C 
ATOM     32  C   UNL A   1      46.847  31.109  27.500  1.00  0.00     0.029 A 
ATOM     33  C   UNL A   1      45.568  30.752  27.906  1.00  0.00     0.049 A 
ATOM     34  H   UNL A   1      44.563  28.923  27.634  1.00  0.00     0.167 HD
ATOM     35  C   UNL A   1      43.375  31.153  29.040  1.00  0.00     0.074 A 
ATOM     36  C   UNL A   1      42.469  31.990  29.806  1.00  0.00     0.031 C 
ATOM     37  C   UNL A   1      44.605  31.548  28.628  1.00  0.00     0.034 A 
BRANCH  24  38
ATOM     38  C   UNL A   1      47.898  27.287  25.540  1.00  0.00     0.023 A 
ATOM     39  C   UNL A   1      48.973  26.712  26.245  1.00  0.00     0.012 A 
ATOM     40  C   UNL A   1      48.023  27.527  24.159  1.00  0.00     0.148 A 
ATOM     41  C   UNL A   1      50.169  26.414  25.591  1.00  0.00     0.002 A 
ATOM     42  C   UNL A   1      49.198  27.184  23.505  1.00  0.00     0.091 A 
ATOM     43  F   UNL A   1      47.001  28.111  23.518  1.00  0.00    -0.205 F 
ATOM     44  C   UNL A   1      50.277  26.642  24.221  1.00  0.00     0.022 A 
BRANCH  42  45
ATOM     45  S   UNL A   1      49.415  27.387  21.734  1.00  0.00     0.127 S 
ATOM     46  O   UNL A   1      49.344  28.840  21.591  1.00  0.00    -0.237 OA
ATOM     47  O   UNL A   1      50.746  26.817  21.527  1.00  0.00    -0.237 OA
ATOM     48  O   UNL A   1      48.326  26.652  21.105  1.00  0.00    -0.744 OA
ENDBRANCH  42  45
ENDBRANCH  24  38
BRANCH  25  49
ATOM     49  C   UNL A   1      39.194  29.338  30.312  1.00  0.00     0.023 A 
ATOM     50  C   UNL A   1      38.911  28.694  31.531  1.00  0.00     0.012 A 
ATOM     51  C   UNL A   1      38.246  30.238  29.781  1.00  0.00     0.148 A 
ATOM     52  C   UNL A   1      37.694  28.905  32.183  1.00  0.00     0.002 A 
ATOM     53  C   UNL A   1      37.060  30.487  30.464  1.00  0.00     0.091 A 
ATOM     54  F   UNL A   1      38.516  30.833  28.611  1.00  0.00    -0.205 F 
ATOM     55  C   UNL A   1      36.772  29.803  31.654  1.00  0.00     0.022 A 
BRANCH  53  56
ATOM     56  S   UNL A   1      35.868  31.713  29.912  1.00  0.00     0.127 S 
ATOM     57  O   UNL A   1      35.229  31.023  28.793  1.00  0.00    -0.237 OA
ATOM     58  O   UNL A   1      35.026  31.873  31.098  1.00  0.00    -0.237 OA
ATOM     59  O   UNL A   1      36.647  32.894  29.566  1.00  0.00    -0.744 OA
ENDBRANCH  53  56
ENDBRANCH  25  49
BRANCH  37  60
ATOM     60  C   UNL A   1      45.012  32.955  28.958  1.00  0.00     0.023 A 
ATOM     61  C   UNL A   1      45.664  33.234  30.175  1.00  0.00     0.012 A 
ATOM     62  C   UNL A   1      44.816  33.981  28.016  1.00  0.00     0.148 A 
ATOM     63  C   UNL A   1      46.085  34.529  30.463  1.00  0.00     0.002 A 
ATOM     64  C   UNL A   1      45.295  35.254  28.283  1.00  0.00     0.091 A 
ATOM     65  F   UNL A   1      44.175  33.689  26.875  1.00  0.00    -0.205 F 
ATOM     66  C   UNL A   1      45.915  35.534  29.512  1.00  0.00     0.022 A 
BRANCH  64  67
ATOM     67  S   UNL A   1      45.225  36.574  27.069  1.00  0.00     0.127 S 
ATOM     68  O   UNL A   1      45.988  36.000  25.962  1.00  0.00    -0.237 OA
ATOM     69  O   UNL A   1      43.788  36.690  26.825  1.00  0.00    -0.237 OA
ATOM     70  O   UNL A   1      45.827  37.738  27.704  1.00  0.00    -0.744 OA
ENDBRANCH  64  67
ENDBRANCH  37  60
ENDBRANCH  11  12
ENDBRANCH   4   6
ENDBRANCH   3   4
ENDBRANCH   2   3
ENDBRANCH   1   2
BRANCH   1  71
ATOM     71  O   UNL A   1      38.504  21.632  25.328  1.00  0.00    -0.374 OA
BRANCH  71  72
ATOM     72  C   UNL A   1      37.465  22.336  26.015  1.00  0.00     0.202 C 
BRANCH  72  73
ATOM     73  C   UNL A   1      37.429  23.724  25.417  1.00  0.00     0.261 C 
BRANCH  73  74
ATOM     74  O   UNL A   1      36.125  23.857  24.836  1.00  0.00    -0.460 OA
BRANCH  74  75
ATOM     75  C   UNL A   1      35.931  23.215  23.658  1.00  0.00     0.340 C 
ATOM     76  O   UNL A   1      36.703  23.064  22.737  1.00  0.00    -0.246 OA
BRANCH  75  77
ATOM     77  C   UNL A   1      34.578  22.652  23.683  1.00  0.00     0.085 A 
ATOM     78  C   UNL A   1      34.472  21.319  24.122  1.00  0.00     0.018 A 
ATOM     79  C   UNL A   1      33.444  23.420  23.377  1.00  0.00     0.077 A 
ATOM     80  C   UNL A   1      33.221  20.734  24.286  1.00  0.00     0.001 A 
ATOM     81  C   UNL A   1      32.202  22.772  23.473  1.00  0.00     0.029 A 
ATOM     82  C   UNL A   1      32.085  21.455  23.937  1.00  0.00     0.002 A 
BRANCH  79  83
ATOM     83  N   UNL A   1      33.379  24.826  23.357  1.00  0.00    -0.255 NA
ATOM     84  C   UNL A   1      32.347  25.546  23.659  1.00  0.00     0.127 C 
BRANCH  84  85
ATOM     85  C   UNL A   1      32.037  26.813  22.872  1.00  0.00     0.076 A 
ATOM     86  C   UNL A   1      30.822  27.345  23.113  1.00  0.00     0.209 A 
ATOM     87  C   UNL A   1      32.997  27.952  23.170  1.00  0.00     0.201 A 
ATOM     88  O   UNL A   1      30.524  27.973  24.344  1.00  0.00    -0.463 OA
ATOM     89  C   UNL A   1      32.899  28.400  24.573  1.00  0.00     0.065 A 
ATOM     90  O   UNL A   1      33.772  28.438  22.363  1.00  0.00    -0.288 OA
ATOM     91  C   UNL A   1      31.618  28.292  25.132  1.00  0.00     0.137 A 
ATOM     92  C   UNL A   1      34.035  28.559  25.366  1.00  0.00     0.016 A 
ATOM     93  C   UNL A   1      31.459  28.327  26.509  1.00  0.00     0.048 A 
ATOM     94  C   UNL A   1      33.873  28.550  26.753  1.00  0.00     0.001 A 
ATOM     95  C   UNL A   1      32.595  28.427  27.318  1.00  0.00     0.004 A 
ENDBRANCH  84  85
ENDBRANCH  79  83
ENDBRANCH  75  77
ENDBRANCH  74  75
ENDBRANCH  73  74
ENDBRANCH  72  73
ENDBRANCH  71  72
ENDBRANCH   1  71
TORSDOF 19
ENDMDL
MODEL 2
REMARK VINA RESULT:     -11.4      1.490      7.620
REMARK SMILES O=C(OCCOCCOC(=O)c1ccccc1/N=C/c1coc2ccccc2c1=O)c1ccc(-c2c3nc(c(-c4cccc(S(=O)(=O)[O-])c4F)c4ccc([nH]4)c(-c4cccc(S(=O)(=O)[O-])c4F)c4nc(c(-c5cccc(S(=O)(=O)[O-])c5F)c5ccc2[nH]5)C=C4)C=C3)cc1
REMARK SMILES IDX 5 1 4 2 3 3 2 4 1 5 31 6 32 7 93 8 33 9 92 10 34 11 35 12
REMARK SMILES IDX 36 13 86 14 37 15 91 16 85 17 87 18 38 19 90 20 84 21 83 22
REMARK SMILES IDX 39 24 71 25 51 26 70 27 52 28 55 29 69 30 88 31 53 32 54 33
REMARK SMILES IDX 68 35 89 36 56 37 40 38 41 39 49 40 42 41 44 42 50 43 43 44
REMARK SMILES IDX 45 45 46 46 47 47 48 48 72 49 73 50 81 51 74 52 76 53 82 54
REMARK SMILES IDX 75 55 77 56 78 57 79 58 80 59 57 60 58 61 66 62 59 63 61 64
REMARK SMILES IDX 67 65 60 66 62 67 63 68 64 69 65 70 6 71 7 72 8 73 9 74
REMARK SMILES IDX 10 75 11 76 12 77 13 78 17 79 14 80 16 81 15 82 18 83 19 84
REMARK SMILES IDX 20 85 21 86 29 87 22 88 28 89 30 90 23 91 27 92 24 93 26 94
REMARK SMILES IDX 25 95
REMARK H PARENT 87 23 55 34
REMARK Flexibility Score: inf
ROOT
ATOM      1  C   UNL A   1      36.213  20.352  24.998  1.00  0.00     0.202 C 
ENDROOT
BRANCH   1   2
ATOM      2  C   UNL A   1      37.711  20.635  24.852  1.00  0.00     0.261 C 
BRANCH   2   3
ATOM      3  O   UNL A   1      38.196  21.426  25.950  1.00  0.00    -0.460 OA
BRANCH   3   4
ATOM      4  C   UNL A   1      39.469  21.533  26.410  1.00  0.00     0.338 C 
ATOM      5  O   UNL A   1      40.121  20.503  26.570  1.00  0.00    -0.246 OA
BRANCH   4   6
ATOM      6  C   UNL A   1      40.113  22.837  26.765  1.00  0.00     0.060 A 
ATOM      7  C   UNL A   1      39.810  24.052  26.154  1.00  0.00     0.016 A 
ATOM      8  C   UNL A   1      41.008  22.862  27.847  1.00  0.00     0.016 A 
ATOM      9  C   UNL A   1      40.334  25.248  26.577  1.00  0.00     0.010 A 
ATOM     10  C   UNL A   1      41.564  24.071  28.285  1.00  0.00     0.010 A 
ATOM     11  C   UNL A   1      41.211  25.263  27.644  1.00  0.00    -0.014 A 
BRANCH  11  12
ATOM     12  C   UNL A   1      41.841  26.559  27.892  1.00  0.00     0.031 A 
ATOM     13  C   UNL A   1      41.062  27.554  28.685  1.00  0.00     0.074 A 
ATOM     14  C   UNL A   1      43.152  26.703  27.630  1.00  0.00     0.049 A 
ATOM     15  N   UNL A   1      41.396  28.756  29.050  1.00  0.00    -0.248 NA
ATOM     16  C   UNL A   1      39.735  27.121  29.165  1.00  0.00     0.031 C 
ATOM     17  C   UNL A   1      44.016  25.668  27.048  1.00  0.00     0.029 A 
ATOM     18  N   UNL A   1      43.996  27.752  27.853  1.00  0.00    -0.354 N 
ATOM     19  C   UNL A   1      40.301  29.248  29.743  1.00  0.00     0.074 A 
ATOM     20  C   UNL A   1      39.304  28.206  29.787  1.00  0.00     0.031 C 
ATOM     21  C   UNL A   1      45.266  26.146  26.944  1.00  0.00     0.029 A 
ATOM     22  C   UNL A   1      45.268  27.536  27.378  1.00  0.00     0.049 A 
ATOM     23  H   UNL A   1      43.722  28.581  28.309  1.00  0.00     0.167 HD
ATOM     24  C   UNL A   1      40.149  30.481  30.272  1.00  0.00     0.034 A 
ATOM     25  C   UNL A   1      46.287  28.403  27.257  1.00  0.00     0.034 A 
ATOM     26  C   UNL A   1      41.172  31.483  30.192  1.00  0.00     0.049 A 
ATOM     27  C   UNL A   1      46.048  29.805  27.747  1.00  0.00     0.074 A 
ATOM     28  C   UNL A   1      41.129  32.799  30.601  1.00  0.00     0.029 A 
ATOM     29  N   UNL A   1      42.431  31.266  29.643  1.00  0.00    -0.354 N 
ATOM     30  N   UNL A   1      44.994  30.295  28.362  1.00  0.00    -0.248 NA
ATOM     31  C   UNL A   1      47.128  30.774  27.540  1.00  0.00     0.031 C 
ATOM     32  C   UNL A   1      42.351  33.390  30.261  1.00  0.00     0.029 A 
ATOM     33  C   UNL A   1      43.173  32.428  29.690  1.00  0.00     0.049 A 
ATOM     34  H   UNL A   1      42.747  30.409  29.276  1.00  0.00     0.167 HD
ATOM     35  C   UNL A   1      45.294  31.621  28.639  1.00  0.00     0.074 A 
ATOM     36  C   UNL A   1      46.643  31.846  28.151  1.00  0.00     0.031 C 
ATOM     37  C   UNL A   1      44.531  32.575  29.226  1.00  0.00     0.034 A 
BRANCH  24  38
ATOM     38  C   UNL A   1      38.815  30.806  30.877  1.00  0.00     0.023 A 
ATOM     39  C   UNL A   1      38.548  30.516  32.229  1.00  0.00     0.012 A 
ATOM     40  C   UNL A   1      37.804  31.369  30.075  1.00  0.00     0.148 A 
ATOM     41  C   UNL A   1      37.281  30.749  32.765  1.00  0.00     0.002 A 
ATOM     42  C   UNL A   1      36.561  31.644  30.628  1.00  0.00     0.091 A 
ATOM     43  F   UNL A   1      38.070  31.601  28.782  1.00  0.00    -0.205 F 
ATOM     44  C   UNL A   1      36.292  31.320  31.968  1.00  0.00     0.022 A 
BRANCH  42  45
ATOM     45  S   UNL A   1      35.240  32.428  29.699  1.00  0.00     0.127 S 
ATOM     46  O   UNL A   1      34.225  32.623  30.733  1.00  0.00    -0.237 OA
ATOM     47  O   UNL A   1      35.886  33.657  29.238  1.00  0.00    -0.237 OA
ATOM     48  O   UNL A   1      34.874  31.493  28.644  1.00  0.00    -0.744 OA
ENDBRANCH  42  45
ENDBRANCH  24  38
BRANCH  25  49
ATOM     49  C   UNL A   1      47.568  28.003  26.605  1.00  0.00     0.023 A 
ATOM     50  C   UNL A   1      48.711  27.756  27.389  1.00  0.00     0.012 A 
ATOM     51  C   UNL A   1      47.669  27.894  25.201  1.00  0.00     0.148 A 
ATOM     52  C   UNL A   1      49.937  27.456  26.789  1.00  0.00     0.002 A 
ATOM     53  C   UNL A   1      48.878  27.539  24.613  1.00  0.00     0.091 A 
ATOM     54  F   UNL A   1      46.580  28.148  24.463  1.00  0.00    -0.205 F 
ATOM     55  C   UNL A   1      50.019  27.342  25.404  1.00  0.00     0.022 A 
BRANCH  53  56
ATOM     56  S   UNL A   1      49.045  27.260  22.846  1.00  0.00     0.127 S 
ATOM     57  O   UNL A   1      50.492  27.113  22.704  1.00  0.00    -0.237 OA
ATOM     58  O   UNL A   1      48.280  26.027  22.660  1.00  0.00    -0.237 OA
ATOM     59  O   UNL A   1      48.461  28.430  22.205  1.00  0.00    -0.744 OA
ENDBRANCH  53  56
ENDBRANCH  25  49
BRANCH  37  60
ATOM     60  C   UNL A   1      45.160  33.926  29.411  1.00  0.00     0.023 A 
ATOM     61  C   UNL A   1      45.870  34.219  30.591  1.00  0.00     0.012 A 
ATOM     62  C   UNL A   1      45.112  34.871  28.369  1.00  0.00     0.148 A 
ATOM     63  C   UNL A   1      46.494  35.453  30.745  1.00  0.00     0.002 A 
ATOM     64  C   UNL A   1      45.790  36.072  28.504  1.00  0.00     0.091 A 
ATOM     65  F   UNL A   1      44.412  34.571  27.265  1.00  0.00    -0.205 F 
ATOM     66  C   UNL A   1      46.468  36.372  29.697  1.00  0.00     0.022 A 
BRANCH  64  67
ATOM     67  S   UNL A   1      45.907  37.258  27.163  1.00  0.00     0.127 S 
ATOM     68  O   UNL A   1      46.377  36.417  26.063  1.00  0.00    -0.237 OA
ATOM     69  O   UNL A   1      44.523  37.714  27.034  1.00  0.00    -0.237 OA
ATOM     70  O   UNL A   1      46.841  38.281  27.610  1.00  0.00    -0.744 OA
ENDBRANCH  64  67
ENDBRANCH  37  60
ENDBRANCH  11  12
ENDBRANCH   4   6
ENDBRANCH   3   4
ENDBRANCH   2   3
ENDBRANCH   1   2
BRANCH   1  71
ATOM     71  O   UNL A   1      35.563  21.170  25.958  1.00  0.00    -0.374 OA
BRANCH  71  72
ATOM     72  C   UNL A   1      35.038  22.418  25.496  1.00  0.00     0.202 C 
BRANCH  72  73
ATOM     73  C   UNL A   1      34.497  22.160  24.107  1.00  0.00     0.261 C 
BRANCH  73  74
ATOM     74  O   UNL A   1      33.203  21.577  24.302  1.00  0.00    -0.460 OA
BRANCH  74  75
ATOM     75  C   UNL A   1      32.184  22.148  23.612  1.00  0.00     0.340 C 
ATOM     76  O   UNL A   1      31.882  22.010  22.448  1.00  0.00    -0.246 OA
BRANCH  75  77
ATOM     77  C   UNL A   1      31.423  22.971  24.556  1.00  0.00     0.085 A 
ATOM     78  C   UNL A   1      31.171  22.394  25.815  1.00  0.00     0.018 A 
ATOM     79  C   UNL A   1      31.045  24.290  24.261  1.00  0.00     0.077 A 
ATOM     80  C   UNL A   1      30.555  23.139  26.815  1.00  0.00     0.001 A 
ATOM     81  C   UNL A   1      30.350  24.984  25.264  1.00  0.00     0.029 A 
ATOM     82  C   UNL A   1      30.121  24.428  26.530  1.00  0.00     0.002 A 
BRANCH  79  83
ATOM     83  N   UNL A   1      31.600  25.102  23.254  1.00  0.00    -0.255 NA
ATOM     84  C   UNL A   1      32.623  25.885  23.382  1.00  0.00     0.127 C 
BRANCH  84  85
ATOM     85  C   UNL A   1      32.648  27.238  22.683  1.00  0.00     0.076 A 
ATOM     86  C   UNL A   1      31.475  27.903  22.698  1.00  0.00     0.209 A 
ATOM     87  C   UNL A   1      33.626  28.216  23.310  1.00  0.00     0.201 A 
ATOM     88  O   UNL A   1      30.963  28.467  23.889  1.00  0.00    -0.463 OA
ATOM     89  C   UNL A   1      33.248  28.563  24.694  1.00  0.00     0.065 A 
ATOM     90  O   UNL A   1      34.619  28.659  22.756  1.00  0.00    -0.288 OA
ATOM     91  C   UNL A   1      31.867  28.578  24.934  1.00  0.00     0.137 A 
ATOM     92  C   UNL A   1      34.173  28.510  25.736  1.00  0.00     0.016 A 
ATOM     93  C   UNL A   1      31.390  28.526  26.235  1.00  0.00     0.048 A 
ATOM     94  C   UNL A   1      33.687  28.415  27.041  1.00  0.00     0.001 A 
ATOM     95  C   UNL A   1      32.305  28.415  27.286  1.00  0.00     0.004 A 
ENDBRANCH  84  85
ENDBRANCH  79  83
ENDBRANCH  75  77
ENDBRANCH  74  75
ENDBRANCH  73  74
ENDBRANCH  72  73
ENDBRANCH  71  72
ENDBRANCH   1  71
TORSDOF 19
ENDMDL
MODEL 3
REMARK VINA RESULT:     -11.2      5.294     11.091
REMARK SMILES O=C(OCCOCCOC(=O)c1ccccc1/N=C/c1coc2ccccc2c1=O)c1ccc(-c2c3nc(c(-c4cccc(S(=O)(=O)[O-])c4F)c4ccc([nH]4)c(-c4cccc(S(=O)(=O)[O-])c4F)c4nc(c(-c5cccc(S(=O)(=O)[O-])c5F)c5ccc2[nH]5)C=C4)C=C3)cc1
REMARK SMILES IDX 5 1 4 2 3 3 2 4 1 5 31 6 32 7 93 8 33 9 92 10 34 11 35 12
REMARK SMILES IDX 36 13 86 14 37 15 91 16 85 17 87 18 38 19 90 20 84 21 83 22
REMARK SMILES IDX 39 24 71 25 51 26 70 27 52 28 55 29 69 30 88 31 53 32 54 33
REMARK SMILES IDX 68 35 89 36 56 37 40 38 41 39 49 40 42 41 44 42 50 43 43 44
REMARK SMILES IDX 45 45 46 46 47 47 48 48 72 49 73 50 81 51 74 52 76 53 82 54
REMARK SMILES IDX 75 55 77 56 78 57 79 58 80 59 57 60 58 61 66 62 59 63 61 64
REMARK SMILES IDX 67 65 60 66 62 67 63 68 64 69 65 70 6 71 7 72 8 73 9 74
REMARK SMILES IDX 10 75 11 76 12 77 13 78 17 79 14 80 16 81 15 82 18 83 19 84
REMARK SMILES IDX 20 85 21 86 29 87 22 88 28 89 30 90 23 91 27 92 24 93 26 94
REMARK SMILES IDX 25 95
REMARK H PARENT 87 23 55 34
REMARK Flexibility Score: inf
ROOT
ATOM      1  C   UNL A   1      32.913  31.356  27.115  1.00  0.00     0.202 C 
ENDROOT
BRANCH   1   2
ATOM      2  C   UNL A   1      31.868  32.473  27.192  1.00  0.00     0.261 C 
BRANCH   2   3
ATOM      3  O   UNL A   1      32.493  33.751  27.400  1.00  0.00    -0.460 OA
BRANCH   3   4
ATOM      4  C   UNL A   1      33.151  34.195  28.501  1.00  0.00     0.338 C 
ATOM      5  O   UNL A   1      32.727  35.200  29.070  1.00  0.00    -0.246 OA
BRANCH   4   6
ATOM      6  C   UNL A   1      34.385  33.547  29.045  1.00  0.00     0.060 A 
ATOM      7  C   UNL A   1      34.379  32.473  29.932  1.00  0.00     0.016 A 
ATOM      8  C   UNL A   1      35.631  33.978  28.558  1.00  0.00     0.016 A 
ATOM      9  C   UNL A   1      35.526  31.827  30.325  1.00  0.00     0.010 A 
ATOM     10  C   UNL A   1      36.812  33.341  28.958  1.00  0.00     0.010 A 
ATOM     11  C   UNL A   1      36.745  32.257  29.839  1.00  0.00    -0.014 A 
BRANCH  11  12
ATOM     12  C   UNL A   1      37.904  31.615  30.459  1.00  0.00     0.031 A 
ATOM     13  C   UNL A   1      38.145  31.895  31.904  1.00  0.00     0.074 A 
ATOM     14  C   UNL A   1      38.530  30.628  29.794  1.00  0.00     0.049 A 
ATOM     15  N   UNL A   1      39.084  31.445  32.682  1.00  0.00    -0.248 NA
ATOM     16  C   UNL A   1      37.172  32.778  32.576  1.00  0.00     0.031 C 
ATOM     17  C   UNL A   1      38.183  30.166  28.444  1.00  0.00     0.029 A 
ATOM     18  N   UNL A   1      39.556  29.810  30.171  1.00  0.00    -0.354 N 
ATOM     19  C   UNL A   1      38.857  32.038  33.914  1.00  0.00     0.074 A 
ATOM     20  C   UNL A   1      37.669  32.850  33.799  1.00  0.00     0.031 C 
ATOM     21  C   UNL A   1      39.000  29.157  28.102  1.00  0.00     0.029 A 
ATOM     22  C   UNL A   1      39.967  28.960  29.172  1.00  0.00     0.049 A 
ATOM     23  H   UNL A   1      39.961  29.828  31.068  1.00  0.00     0.167 HD
ATOM     24  C   UNL A   1      39.604  31.921  35.033  1.00  0.00     0.034 A 
ATOM     25  C   UNL A   1      41.050  28.164  29.127  1.00  0.00     0.034 A 
ATOM     26  C   UNL A   1      40.781  31.104  35.089  1.00  0.00     0.049 A 
ATOM     27  C   UNL A   1      41.930  28.146  30.347  1.00  0.00     0.074 A 
ATOM     28  C   UNL A   1      41.684  30.958  36.120  1.00  0.00     0.029 A 
ATOM     29  N   UNL A   1      41.221  30.302  34.042  1.00  0.00    -0.354 N 
ATOM     30  N   UNL A   1      41.749  28.743  31.503  1.00  0.00    -0.248 NA
ATOM     31  C   UNL A   1      43.155  27.345  30.268  1.00  0.00     0.031 C 
ATOM     32  C   UNL A   1      42.695  30.096  35.681  1.00  0.00     0.029 A 
ATOM     33  C   UNL A   1      42.392  29.665  34.395  1.00  0.00     0.049 A 
ATOM     34  H   UNL A   1      40.764  30.203  33.176  1.00  0.00     0.167 HD
ATOM     35  C   UNL A   1      42.821  28.370  32.300  1.00  0.00     0.074 A 
ATOM     36  C   UNL A   1      43.631  27.469  31.499  1.00  0.00     0.031 C 
ATOM     37  C   UNL A   1      43.128  28.742  33.567  1.00  0.00     0.034 A 
BRANCH  24  38
ATOM     38  C   UNL A   1      39.206  32.761  36.211  1.00  0.00     0.023 A 
ATOM     39  C   UNL A   1      39.716  34.065  36.371  1.00  0.00     0.012 A 
ATOM     40  C   UNL A   1      38.349  32.226  37.192  1.00  0.00     0.148 A 
ATOM     41  C   UNL A   1      39.405  34.811  37.507  1.00  0.00     0.002 A 
ATOM     42  C   UNL A   1      38.005  32.993  38.296  1.00  0.00     0.091 A 
ATOM     43  F   UNL A   1      37.908  30.970  37.037  1.00  0.00    -0.205 F 
ATOM     44  C   UNL A   1      38.544  34.279  38.464  1.00  0.00     0.022 A 
BRANCH  42  45
ATOM     45  S   UNL A   1      36.860  32.418  39.555  1.00  0.00     0.127 S 
ATOM     46  O   UNL A   1      35.582  32.489  38.848  1.00  0.00    -0.237 OA
ATOM     47  O   UNL A   1      37.346  31.062  39.805  1.00  0.00    -0.237 OA
ATOM     48  O   UNL A   1      36.996  33.337  40.676  1.00  0.00    -0.744 OA
ENDBRANCH  42  45
ENDBRANCH  24  38
BRANCH  25  49
ATOM     49  C   UNL A   1      41.390  27.393  27.896  1.00  0.00     0.023 A 
ATOM     50  C   UNL A   1      41.857  28.063  26.750  1.00  0.00     0.012 A 
ATOM     51  C   UNL A   1      41.222  25.992  27.845  1.00  0.00     0.148 A 
ATOM     52  C   UNL A   1      42.106  27.363  25.566  1.00  0.00     0.002 A 
ATOM     53  C   UNL A   1      41.525  25.294  26.681  1.00  0.00     0.091 A 
ATOM     54  F   UNL A   1      40.760  25.365  28.936  1.00  0.00    -0.205 F 
ATOM     55  C   UNL A   1      41.946  25.981  25.533  1.00  0.00     0.022 A 
BRANCH  53  56
ATOM     56  S   UNL A   1      41.455  23.501  26.586  1.00  0.00     0.127 S 
ATOM     57  O   UNL A   1      42.241  23.236  25.383  1.00  0.00    -0.237 OA
ATOM     58  O   UNL A   1      42.098  23.106  27.840  1.00  0.00    -0.237 OA
ATOM     59  O   UNL A   1      40.040  23.165  26.506  1.00  0.00    -0.744 OA
ENDBRANCH  53  56
ENDBRANCH  25  49
BRANCH  37  60
ATOM     60  C   UNL A   1      44.361  28.135  34.171  1.00  0.00     0.023 A 
ATOM     61  C   UNL A   1      45.593  28.813  34.094  1.00  0.00     0.012 A 
ATOM     62  C   UNL A   1      44.270  26.928  34.889  1.00  0.00     0.148 A 
ATOM     63  C   UNL A   1      46.728  28.276  34.695  1.00  0.00     0.002 A 
ATOM     64  C   UNL A   1      45.389  26.432  35.538  1.00  0.00     0.091 A 
ATOM     65  F   UNL A   1      43.088  26.295  34.929  1.00  0.00    -0.205 F 
ATOM     66  C   UNL A   1      46.623  27.095  35.428  1.00  0.00     0.022 A 
BRANCH  64  67
ATOM     67  S   UNL A   1      45.316  24.988  36.600  1.00  0.00     0.127 S 
ATOM     68  O   UNL A   1      44.547  24.054  35.778  1.00  0.00    -0.237 OA
ATOM     69  O   UNL A   1      46.730  24.646  36.751  1.00  0.00    -0.237 OA
ATOM     70  O   UNL A   1      44.664  25.422  37.827  1.00  0.00    -0.744 OA
ENDBRANCH  64  67
ENDBRANCH  37  60
ENDBRANCH  11  12
ENDBRANCH   4   6
ENDBRANCH   3   4
ENDBRANCH   2   3
ENDBRANCH   1   2
BRANCH   1  71
ATOM     71  O   UNL A   1      32.836  30.577  25.931  1.00  0.00    -0.374 OA
BRANCH  71  72
ATOM     72  C   UNL A   1      31.647  29.803  25.742  1.00  0.00     0.202 C 
BRANCH  72  73
ATOM     73  C   UNL A   1      31.745  28.638  26.701  1.00  0.00     0.261 C 
BRANCH  73  74
ATOM     74  O   UNL A   1      32.213  27.534  25.916  1.00  0.00    -0.460 OA
BRANCH  74  75
ATOM     75  C   UNL A   1      31.256  26.785  25.313  1.00  0.00     0.340 C 
ATOM     76  O   UNL A   1      30.122  26.565  25.674  1.00  0.00    -0.246 OA
BRANCH  75  77
ATOM     77  C   UNL A   1      31.818  26.288  24.055  1.00  0.00     0.085 A 
ATOM     78  C   UNL A   1      32.478  27.240  23.254  1.00  0.00     0.018 A 
ATOM     79  C   UNL A   1      31.784  24.928  23.706  1.00  0.00     0.077 A 
ATOM     80  C   UNL A   1      33.139  26.843  22.097  1.00  0.00     0.001 A 
ATOM     81  C   UNL A   1      32.389  24.576  22.488  1.00  0.00     0.029 A 
ATOM     82  C   UNL A   1      33.073  25.512  21.701  1.00  0.00     0.002 A 
BRANCH  79  83
ATOM     83  N   UNL A   1      31.559  23.855  24.589  1.00  0.00    -0.255 NA
ATOM     84  C   UNL A   1      32.277  23.555  25.623  1.00  0.00     0.127 C 
BRANCH  84  85
ATOM     85  C   UNL A   1      32.544  22.097  25.976  1.00  0.00     0.076 A 
ATOM     86  C   UNL A   1      32.540  21.251  24.926  1.00  0.00     0.209 A 
ATOM     87  C   UNL A   1      33.904  21.876  26.614  1.00  0.00     0.201 A 
ATOM     88  O   UNL A   1      33.579  21.264  23.966  1.00  0.00    -0.463 OA
ATOM     89  C   UNL A   1      35.006  22.200  25.687  1.00  0.00     0.065 A 
ATOM     90  O   UNL A   1      34.082  21.492  27.759  1.00  0.00    -0.288 OA
ATOM     91  C   UNL A   1      34.727  21.946  24.337  1.00  0.00     0.137 A 
ATOM     92  C   UNL A   1      36.065  23.020  26.075  1.00  0.00     0.016 A 
ATOM     93  C   UNL A   1      35.504  22.528  23.348  1.00  0.00     0.048 A 
ATOM     94  C   UNL A   1      36.818  23.638  25.075  1.00  0.00     0.001 A 
ATOM     95  C   UNL A   1      36.533  23.398  23.721  1.00  0.00     0.004 A 
ENDBRANCH  84  85
ENDBRANCH  79  83
ENDBRANCH  75  77
ENDBRANCH  74  75
ENDBRANCH  73  74
ENDBRANCH  72  73
ENDBRANCH  71  72
ENDBRANCH   1  71
TORSDOF 19
ENDMDL
