MODEL 1
REMARK VINA RESULT:     -11.7      0.000      0.000
REMARK SMILES O=C(OCCOCCOC(=O)[C@@H]1CS[C@H](c2ncc(-c3ccccc3)s2)[NH2+]1)c1ccc(-c2c3nc(c(-c4cccc(S(=O)(=O)[O-])c4F)c4ccc([nH]4)c(-c4cccc(S(=O)(=O)[O-])c4F)c4nc(c(-c5cccc(S(=O)(=O)[O-])c5F)c5ccc2[nH]5)C=C4)C=C3)cc1
REMARK SMILES IDX 5 1 4 2 3 3 2 4 1 5 28 6 29 7 90 8 30 9 89 10 31 11 32 12
REMARK SMILES IDX 33 13 83 14 34 15 88 16 82 17 84 18 35 19 87 20 81 21 80 22
REMARK SMILES IDX 36 24 68 25 48 26 67 27 49 28 52 29 66 30 85 31 50 32 51 33
REMARK SMILES IDX 65 35 86 36 53 37 37 38 38 39 46 40 39 41 41 42 47 43 40 44
REMARK SMILES IDX 42 45 43 46 44 47 45 48 69 49 70 50 78 51 71 52 73 53 79 54
REMARK SMILES IDX 72 55 74 56 75 57 76 58 77 59 54 60 55 61 63 62 56 63 58 64
REMARK SMILES IDX 64 65 57 66 59 67 60 68 61 69 62 70 6 71 7 72 8 73 9 74
REMARK SMILES IDX 10 75 11 76 12 77 13 78 27 79 14 80 15 81 16 84 17 85 26 86
REMARK SMILES IDX 18 87 19 88 20 89 21 90 25 91 22 92 24 93 23 94
REMARK H PARENT 84 23 52 34 27 82 27 83
REMARK Flexibility Score: inf
ROOT
ATOM      1  C   UNL A   1      31.802  30.508  26.805  1.00  0.00     0.202 C 
ENDROOT
BRANCH   1   2
ATOM      2  C   UNL A   1      31.417  31.992  26.827  1.00  0.00     0.261 C 
BRANCH   2   3
ATOM      3  O   UNL A   1      32.586  32.825  26.757  1.00  0.00    -0.460 OA
BRANCH   3   4
ATOM      4  C   UNL A   1      33.307  33.369  27.766  1.00  0.00     0.338 C 
ATOM      5  O   UNL A   1      32.944  34.455  28.217  1.00  0.00    -0.246 OA
BRANCH   4   6
ATOM      6  C   UNL A   1      34.530  32.739  28.355  1.00  0.00     0.060 A 
ATOM      7  C   UNL A   1      34.580  31.462  28.913  1.00  0.00     0.016 A 
ATOM      8  C   UNL A   1      35.738  33.452  28.254  1.00  0.00     0.016 A 
ATOM      9  C   UNL A   1      35.755  30.905  29.373  1.00  0.00     0.010 A 
ATOM     10  C   UNL A   1      36.939  32.898  28.707  1.00  0.00     0.010 A 
ATOM     11  C   UNL A   1      36.937  31.622  29.277  1.00  0.00    -0.014 A 
BRANCH  11  12
ATOM     12  C   UNL A   1      38.099  31.025  29.942  1.00  0.00     0.031 A 
ATOM     13  C   UNL A   1      38.294  31.326  31.393  1.00  0.00     0.074 A 
ATOM     14  C   UNL A   1      38.804  30.079  29.299  1.00  0.00     0.049 A 
ATOM     15  N   UNL A   1      39.209  30.888  32.209  1.00  0.00    -0.248 NA
ATOM     16  C   UNL A   1      37.300  32.219  32.020  1.00  0.00     0.031 C 
ATOM     17  C   UNL A   1      38.558  29.634  27.922  1.00  0.00     0.029 A 
ATOM     18  N   UNL A   1      39.845  29.301  29.719  1.00  0.00    -0.354 N 
ATOM     19  C   UNL A   1      38.928  31.479  33.432  1.00  0.00     0.074 A 
ATOM     20  C   UNL A   1      37.752  32.299  33.261  1.00  0.00     0.031 C 
ATOM     21  C   UNL A   1      39.434  28.666  27.611  1.00  0.00     0.029 A 
ATOM     22  C   UNL A   1      40.336  28.472  28.739  1.00  0.00     0.049 A 
ATOM     23  H   UNL A   1      40.207  29.331  30.634  1.00  0.00     0.167 HD
ATOM     24  C   UNL A   1      39.604  31.343  34.593  1.00  0.00     0.034 A 
ATOM     25  C   UNL A   1      41.427  27.685  28.753  1.00  0.00     0.034 A 
ATOM     26  C   UNL A   1      40.776  30.524  34.716  1.00  0.00     0.049 A 
ATOM     27  C   UNL A   1      42.223  27.634  30.031  1.00  0.00     0.074 A 
ATOM     28  C   UNL A   1      41.610  30.362  35.804  1.00  0.00     0.029 A 
ATOM     29  N   UNL A   1      41.283  29.730  33.693  1.00  0.00    -0.354 N 
ATOM     30  N   UNL A   1      41.971  28.215  31.182  1.00  0.00    -0.248 NA
ATOM     31  C   UNL A   1      43.440  26.815  30.022  1.00  0.00     0.031 C 
ATOM     32  C   UNL A   1      42.638  29.491  35.429  1.00  0.00     0.029 A 
ATOM     33  C   UNL A   1      42.420  29.077  34.122  1.00  0.00     0.049 A 
ATOM     34  H   UNL A   1      40.888  29.647  32.796  1.00  0.00     0.167 HD
ATOM     35  C   UNL A   1      42.980  27.808  32.044  1.00  0.00     0.074 A 
ATOM     36  C   UNL A   1      43.830  26.910  31.286  1.00  0.00     0.031 C 
ATOM     37  C   UNL A   1      43.202  28.154  33.337  1.00  0.00     0.034 A 
BRANCH  24  38
ATOM     38  C   UNL A   1      39.112  32.136  35.771  1.00  0.00     0.023 A 
ATOM     39  C   UNL A   1      39.471  33.492  35.912  1.00  0.00     0.012 A 
ATOM     40  C   UNL A   1      38.318  31.523  36.759  1.00  0.00     0.148 A 
ATOM     41  C   UNL A   1      39.079  34.215  37.040  1.00  0.00     0.002 A 
ATOM     42  C   UNL A   1      37.895  32.261  37.857  1.00  0.00     0.091 A 
ATOM     43  F   UNL A   1      38.016  30.224  36.620  1.00  0.00    -0.205 F 
ATOM     44  C   UNL A   1      38.286  33.602  38.007  1.00  0.00     0.022 A 
BRANCH  42  45
ATOM     45  S   UNL A   1      36.829  31.580  39.131  1.00  0.00     0.127 S 
ATOM     46  O   UNL A   1      36.692  30.191  38.692  1.00  0.00    -0.237 OA
ATOM     47  O   UNL A   1      37.640  31.762  40.333  1.00  0.00    -0.237 OA
ATOM     48  O   UNL A   1      35.603  32.364  39.094  1.00  0.00    -0.744 OA
ENDBRANCH  42  45
ENDBRANCH  24  38
BRANCH  25  49
ATOM     49  C   UNL A   1      41.846  26.934  27.535  1.00  0.00     0.023 A 
ATOM     50  C   UNL A   1      42.383  27.619  26.428  1.00  0.00     0.012 A 
ATOM     51  C   UNL A   1      41.698  25.533  27.462  1.00  0.00     0.148 A 
ATOM     52  C   UNL A   1      42.723  26.930  25.261  1.00  0.00     0.002 A 
ATOM     53  C   UNL A   1      42.092  24.847  26.320  1.00  0.00     0.091 A 
ATOM     54  F   UNL A   1      41.165  24.894  28.513  1.00  0.00    -0.205 F 
ATOM     55  C   UNL A   1      42.585  25.546  25.209  1.00  0.00     0.022 A 
BRANCH  53  56
ATOM     56  S   UNL A   1      42.062  23.053  26.220  1.00  0.00     0.127 S 
ATOM     57  O   UNL A   1      42.654  22.816  24.907  1.00  0.00    -0.237 OA
ATOM     58  O   UNL A   1      42.903  22.671  27.355  1.00  0.00    -0.237 OA
ATOM     59  O   UNL A   1      40.661  22.677  26.364  1.00  0.00    -0.744 OA
ENDBRANCH  53  56
ENDBRANCH  25  49
BRANCH  37  60
ATOM     60  C   UNL A   1      44.380  27.516  34.017  1.00  0.00     0.023 A 
ATOM     61  C   UNL A   1      45.631  28.162  34.014  1.00  0.00     0.012 A 
ATOM     62  C   UNL A   1      44.217  26.312  34.726  1.00  0.00     0.148 A 
ATOM     63  C   UNL A   1      46.716  27.597  34.680  1.00  0.00     0.002 A 
ATOM     64  C   UNL A   1      45.286  25.786  35.437  1.00  0.00     0.091 A 
ATOM     65  F   UNL A   1      43.020  25.708  34.697  1.00  0.00    -0.205 F 
ATOM     66  C   UNL A   1      46.539  26.418  35.404  1.00  0.00     0.022 A 
BRANCH  64  67
ATOM     67  S   UNL A   1      45.117  24.340  36.486  1.00  0.00     0.127 S 
ATOM     68  O   UNL A   1      44.226  24.835  37.534  1.00  0.00    -0.237 OA
ATOM     69  O   UNL A   1      44.510  23.369  35.575  1.00  0.00    -0.237 OA
ATOM     70  O   UNL A   1      46.465  23.999  36.920  1.00  0.00    -0.744 OA
ENDBRANCH  64  67
ENDBRANCH  37  60
ENDBRANCH  11  12
ENDBRANCH   4   6
ENDBRANCH   3   4
ENDBRANCH   2   3
ENDBRANCH   1   2
BRANCH   1  71
ATOM     71  O   UNL A   1      32.632  30.116  25.712  1.00  0.00    -0.374 OA
BRANCH  71  72
ATOM     72  C   UNL A   1      33.838  29.423  26.064  1.00  0.00     0.202 C 
BRANCH  72  73
ATOM     73  C   UNL A   1      33.474  28.209  26.902  1.00  0.00     0.261 C 
BRANCH  73  74
ATOM     74  O   UNL A   1      32.977  27.232  25.985  1.00  0.00    -0.459 OA
BRANCH  74  75
ATOM     75  C   UNL A   1      32.018  26.383  26.437  1.00  0.00     0.365 C 
ATOM     76  O   UNL A   1      30.882  26.706  26.767  1.00  0.00    -0.245 OA
BRANCH  75  77
ATOM     77  C   UNL A   1      32.492  24.927  26.313  1.00  0.00     0.304 C 
ATOM     78  C   UNL A   1      33.849  24.804  25.627  1.00  0.00     0.153 C 
ATOM     79  N   UNL A   1      31.484  24.019  25.663  1.00  0.00    -0.317 N 
ATOM     80  S   UNL A   1      33.560  23.773  24.158  1.00  0.00    -0.085 SA
ATOM     81  C   UNL A   1      31.756  24.036  24.212  1.00  0.00     0.303 C 
ATOM     82  H   UNL A   1      30.539  24.358  25.847  1.00  0.00     0.348 HD
ATOM     83  H   UNL A   1      31.556  23.072  26.034  1.00  0.00     0.348 HD
BRANCH  81  84
ATOM     84  C   UNL A   1      31.323  25.315  23.502  1.00  0.00     0.162 A 
ATOM     85  N   UNL A   1      32.138  26.147  22.877  1.00  0.00    -0.242 NA
ATOM     86  S   UNL A   1      29.667  25.844  23.541  1.00  0.00    -0.112 S 
ATOM     87  C   UNL A   1      31.494  27.340  22.637  1.00  0.00     0.132 A 
ATOM     88  C   UNL A   1      30.184  27.414  23.063  1.00  0.00     0.055 A 
BRANCH  88  89
ATOM     89  C   UNL A   1      29.342  28.598  23.207  1.00  0.00    -0.007 A 
ATOM     90  C   UNL A   1      29.950  29.824  23.532  1.00  0.00     0.009 A 
ATOM     91  C   UNL A   1      27.961  28.566  22.999  1.00  0.00     0.009 A 
ATOM     92  C   UNL A   1      29.193  30.987  23.672  1.00  0.00     0.001 A 
ATOM     93  C   UNL A   1      27.206  29.739  23.115  1.00  0.00     0.001 A 
ATOM     94  C   UNL A   1      27.819  30.945  23.457  1.00  0.00     0.000 A 
ENDBRANCH  88  89
ENDBRANCH  81  84
ENDBRANCH  75  77
ENDBRANCH  74  75
ENDBRANCH  73  74
ENDBRANCH  72  73
ENDBRANCH  71  72
ENDBRANCH   1  71
TORSDOF 19
ENDMDL
MODEL 2
REMARK VINA RESULT:     -11.4      5.500     10.826
REMARK SMILES O=C(OCCOCCOC(=O)[C@@H]1CS[C@H](c2ncc(-c3ccccc3)s2)[NH2+]1)c1ccc(-c2c3nc(c(-c4cccc(S(=O)(=O)[O-])c4F)c4ccc([nH]4)c(-c4cccc(S(=O)(=O)[O-])c4F)c4nc(c(-c5cccc(S(=O)(=O)[O-])c5F)c5ccc2[nH]5)C=C4)C=C3)cc1
REMARK SMILES IDX 5 1 4 2 3 3 2 4 1 5 28 6 29 7 90 8 30 9 89 10 31 11 32 12
REMARK SMILES IDX 33 13 83 14 34 15 88 16 82 17 84 18 35 19 87 20 81 21 80 22
REMARK SMILES IDX 36 24 68 25 48 26 67 27 49 28 52 29 66 30 85 31 50 32 51 33
REMARK SMILES IDX 65 35 86 36 53 37 37 38 38 39 46 40 39 41 41 42 47 43 40 44
REMARK SMILES IDX 42 45 43 46 44 47 45 48 69 49 70 50 78 51 71 52 73 53 79 54
REMARK SMILES IDX 72 55 74 56 75 57 76 58 77 59 54 60 55 61 63 62 56 63 58 64
REMARK SMILES IDX 64 65 57 66 59 67 60 68 61 69 62 70 6 71 7 72 8 73 9 74
REMARK SMILES IDX 10 75 11 76 12 77 13 78 27 79 14 80 15 81 16 84 17 85 26 86
REMARK SMILES IDX 18 87 19 88 20 89 21 90 25 91 22 92 24 93 23 94
REMARK H PARENT 84 23 52 34 27 82 27 83
REMARK Flexibility Score: inf
ROOT
ATOM      1  C   UNL A   1      37.658  19.878  24.869  1.00  0.00     0.202 C 
ENDROOT
BRANCH   1   2
ATOM      2  C   UNL A   1      38.852  19.141  25.487  1.00  0.00     0.261 C 
BRANCH   2   3
ATOM      3  O   UNL A   1      39.960  20.036  25.683  1.00  0.00    -0.460 OA
BRANCH   3   4
ATOM      4  C   UNL A   1      40.574  20.394  26.836  1.00  0.00     0.338 C 
ATOM      5  O   UNL A   1      40.815  19.513  27.661  1.00  0.00    -0.246 OA
BRANCH   4   6
ATOM      6  C   UNL A   1      40.960  21.799  27.177  1.00  0.00     0.060 A 
ATOM      7  C   UNL A   1      40.543  22.932  26.480  1.00  0.00     0.016 A 
ATOM      8  C   UNL A   1      41.724  21.995  28.341  1.00  0.00     0.016 A 
ATOM      9  C   UNL A   1      40.872  24.209  26.886  1.00  0.00     0.010 A 
ATOM     10  C   UNL A   1      42.059  23.283  28.772  1.00  0.00     0.010 A 
ATOM     11  C   UNL A   1      41.635  24.389  28.029  1.00  0.00    -0.014 A 
BRANCH  11  12
ATOM     12  C   UNL A   1      42.078  25.762  28.289  1.00  0.00     0.031 A 
ATOM     13  C   UNL A   1      43.431  26.156  27.793  1.00  0.00     0.074 A 
ATOM     14  C   UNL A   1      41.189  26.656  28.755  1.00  0.00     0.049 A 
ATOM     15  N   UNL A   1      44.026  27.312  27.858  1.00  0.00    -0.248 NA
ATOM     16  C   UNL A   1      44.209  25.112  27.101  1.00  0.00     0.031 C 
ATOM     17  C   UNL A   1      39.798  26.355  29.113  1.00  0.00     0.029 A 
ATOM     18  N   UNL A   1      41.307  27.999  28.979  1.00  0.00    -0.354 N 
ATOM     19  C   UNL A   1      45.260  27.128  27.251  1.00  0.00     0.074 A 
ATOM     20  C   UNL A   1      45.330  25.753  26.814  1.00  0.00     0.031 C 
ATOM     21  C   UNL A   1      39.196  27.484  29.522  1.00  0.00     0.029 A 
ATOM     22  C   UNL A   1      40.174  28.564  29.513  1.00  0.00     0.049 A 
ATOM     23  H   UNL A   1      42.124  28.510  28.778  1.00  0.00     0.167 HD
ATOM     24  C   UNL A   1      46.245  28.036  27.083  1.00  0.00     0.034 A 
ATOM     25  C   UNL A   1      39.981  29.809  29.984  1.00  0.00     0.034 A 
ATOM     26  C   UNL A   1      46.138  29.391  27.543  1.00  0.00     0.049 A 
ATOM     27  C   UNL A   1      41.134  30.772  29.878  1.00  0.00     0.074 A 
ATOM     28  C   UNL A   1      47.086  30.392  27.519  1.00  0.00     0.029 A 
ATOM     29  N   UNL A   1      44.995  29.927  28.126  1.00  0.00    -0.354 N 
ATOM     30  N   UNL A   1      42.313  30.588  29.327  1.00  0.00    -0.248 NA
ATOM     31  C   UNL A   1      40.934  32.112  30.441  1.00  0.00     0.031 C 
ATOM     32  C   UNL A   1      46.526  31.527  28.113  1.00  0.00     0.029 A 
ATOM     33  C   UNL A   1      45.214  31.245  28.469  1.00  0.00     0.049 A 
ATOM     34  H   UNL A   1      44.154  29.437  28.272  1.00  0.00     0.167 HD
ATOM     35  C   UNL A   1      42.984  31.797  29.449  1.00  0.00     0.074 A 
ATOM     36  C   UNL A   1      42.067  32.712  30.103  1.00  0.00     0.031 C 
ATOM     37  C   UNL A   1      44.246  32.125  29.076  1.00  0.00     0.034 A 
BRANCH  24  38
ATOM     38  C   UNL A   1      47.512  27.560  26.428  1.00  0.00     0.023 A 
ATOM     39  C   UNL A   1      47.769  27.866  25.076  1.00  0.00     0.012 A 
ATOM     40  C   UNL A   1      48.434  26.778  27.149  1.00  0.00     0.148 A 
ATOM     41  C   UNL A   1      48.907  27.367  24.440  1.00  0.00     0.002 A 
ATOM     42  C   UNL A   1      49.587  26.322  26.522  1.00  0.00     0.091 A 
ATOM     43  F   UNL A   1      48.154  26.473  28.423  1.00  0.00    -0.205 F 
ATOM     44  C   UNL A   1      49.818  26.602  25.165  1.00  0.00     0.022 A 
BRANCH  42  45
ATOM     45  S   UNL A   1      50.847  25.373  27.379  1.00  0.00     0.127 S 
ATOM     46  O   UNL A   1      51.748  25.020  26.283  1.00  0.00    -0.237 OA
ATOM     47  O   UNL A   1      51.383  26.360  28.316  1.00  0.00    -0.237 OA
ATOM     48  O   UNL A   1      50.157  24.251  28.000  1.00  0.00    -0.744 OA
ENDBRANCH  42  45
ENDBRANCH  24  38
BRANCH  25  49
ATOM     49  C   UNL A   1      38.690  30.195  30.624  1.00  0.00     0.023 A 
ATOM     50  C   UNL A   1      38.430  29.850  31.964  1.00  0.00     0.012 A 
ATOM     51  C   UNL A   1      37.704  30.894  29.897  1.00  0.00     0.148 A 
ATOM     52  C   UNL A   1      37.200  30.156  32.552  1.00  0.00     0.002 A 
ATOM     53  C   UNL A   1      36.505  31.246  30.506  1.00  0.00     0.091 A 
ATOM     54  F   UNL A   1      37.953  31.198  28.615  1.00  0.00    -0.205 F 
ATOM     55  C   UNL A   1      36.242  30.859  31.827  1.00  0.00     0.022 A 
BRANCH  53  56
ATOM     56  S   UNL A   1      35.271  32.258  29.679  1.00  0.00     0.127 S 
ATOM     57  O   UNL A   1      34.747  31.333  28.679  1.00  0.00    -0.237 OA
ATOM     58  O   UNL A   1      34.351  32.571  30.773  1.00  0.00    -0.237 OA
ATOM     59  O   UNL A   1      35.995  33.412  29.161  1.00  0.00    -0.744 OA
ENDBRANCH  53  56
ENDBRANCH  25  49
BRANCH  37  60
ATOM     60  C   UNL A   1      44.681  33.542  29.323  1.00  0.00     0.023 A 
ATOM     61  C   UNL A   1      45.267  33.895  30.553  1.00  0.00     0.012 A 
ATOM     62  C   UNL A   1      44.575  34.499  28.298  1.00  0.00     0.148 A 
ATOM     63  C   UNL A   1      45.712  35.197  30.771  1.00  0.00     0.002 A 
ATOM     64  C   UNL A   1      45.075  35.777  28.501  1.00  0.00     0.091 A 
ATOM     65  F   UNL A   1      43.994  34.141  27.143  1.00  0.00    -0.205 F 
ATOM     66  C   UNL A   1      45.630  36.133  29.740  1.00  0.00     0.022 A 
BRANCH  64  67
ATOM     67  S   UNL A   1      45.114  37.007  27.194  1.00  0.00     0.127 S 
ATOM     68  O   UNL A   1      45.704  38.153  27.883  1.00  0.00    -0.237 OA
ATOM     69  O   UNL A   1      45.984  36.374  26.202  1.00  0.00    -0.237 OA
ATOM     70  O   UNL A   1      43.733  37.179  26.763  1.00  0.00    -0.744 OA
ENDBRANCH  64  67
ENDBRANCH  37  60
ENDBRANCH  11  12
ENDBRANCH   4   6
ENDBRANCH   3   4
ENDBRANCH   2   3
ENDBRANCH   1   2
BRANCH   1  71
ATOM     71  O   UNL A   1      37.688  21.298  25.008  1.00  0.00    -0.374 OA
BRANCH  71  72
ATOM     72  C   UNL A   1      36.546  21.885  25.647  1.00  0.00     0.202 C 
BRANCH  72  73
ATOM     73  C   UNL A   1      36.528  23.373  25.341  1.00  0.00     0.261 C 
BRANCH  73  74
ATOM     74  O   UNL A   1      35.181  23.685  24.980  1.00  0.00    -0.459 OA
BRANCH  74  75
ATOM     75  C   UNL A   1      34.925  23.920  23.667  1.00  0.00     0.365 C 
ATOM     76  O   UNL A   1      35.153  23.139  22.749  1.00  0.00    -0.245 OA
BRANCH  75  77
ATOM     77  C   UNL A   1      34.145  25.233  23.501  1.00  0.00     0.304 C 
ATOM     78  C   UNL A   1      33.772  25.871  24.836  1.00  0.00     0.153 C 
ATOM     79  N   UNL A   1      32.936  25.106  22.616  1.00  0.00    -0.317 N 
ATOM     80  S   UNL A   1      31.957  25.970  24.836  1.00  0.00    -0.085 SA
ATOM     81  C   UNL A   1      31.795  24.755  23.485  1.00  0.00     0.303 C 
ATOM     82  H   UNL A   1      33.087  24.374  21.921  1.00  0.00     0.348 HD
ATOM     83  H   UNL A   1      32.758  25.979  22.118  1.00  0.00     0.348 HD
BRANCH  81  84
ATOM     84  C   UNL A   1      31.800  23.313  23.982  1.00  0.00     0.162 A 
ATOM     85  N   UNL A   1      31.876  22.950  25.250  1.00  0.00    -0.242 NA
ATOM     86  S   UNL A   1      31.795  21.981  22.864  1.00  0.00    -0.112 S 
ATOM     87  C   UNL A   1      32.184  21.610  25.335  1.00  0.00     0.132 A 
ATOM     88  C   UNL A   1      32.325  20.947  24.134  1.00  0.00     0.055 A 
BRANCH  88  89
ATOM     89  C   UNL A   1      32.909  19.631  23.886  1.00  0.00    -0.007 A 
ATOM     90  C   UNL A   1      33.998  19.217  24.674  1.00  0.00     0.009 A 
ATOM     91  C   UNL A   1      32.403  18.757  22.922  1.00  0.00     0.009 A 
ATOM     92  C   UNL A   1      34.586  17.966  24.485  1.00  0.00     0.001 A 
ATOM     93  C   UNL A   1      32.978  17.491  22.751  1.00  0.00     0.001 A 
ATOM     94  C   UNL A   1      34.071  17.100  23.526  1.00  0.00     0.000 A 
ENDBRANCH  88  89
ENDBRANCH  81  84
ENDBRANCH  75  77
ENDBRANCH  74  75
ENDBRANCH  73  74
ENDBRANCH  72  73
ENDBRANCH  71  72
ENDBRANCH   1  71
TORSDOF 19
ENDMDL
MODEL 3
REMARK VINA RESULT:     -11.4      1.225      3.125
REMARK SMILES O=C(OCCOCCOC(=O)[C@@H]1CS[C@H](c2ncc(-c3ccccc3)s2)[NH2+]1)c1ccc(-c2c3nc(c(-c4cccc(S(=O)(=O)[O-])c4F)c4ccc([nH]4)c(-c4cccc(S(=O)(=O)[O-])c4F)c4nc(c(-c5cccc(S(=O)(=O)[O-])c5F)c5ccc2[nH]5)C=C4)C=C3)cc1
REMARK SMILES IDX 5 1 4 2 3 3 2 4 1 5 28 6 29 7 90 8 30 9 89 10 31 11 32 12
REMARK SMILES IDX 33 13 83 14 34 15 88 16 82 17 84 18 35 19 87 20 81 21 80 22
REMARK SMILES IDX 36 24 68 25 48 26 67 27 49 28 52 29 66 30 85 31 50 32 51 33
REMARK SMILES IDX 65 35 86 36 53 37 37 38 38 39 46 40 39 41 41 42 47 43 40 44
REMARK SMILES IDX 42 45 43 46 44 47 45 48 69 49 70 50 78 51 71 52 73 53 79 54
REMARK SMILES IDX 72 55 74 56 75 57 76 58 77 59 54 60 55 61 63 62 56 63 58 64
REMARK SMILES IDX 64 65 57 66 59 67 60 68 61 69 62 70 6 71 7 72 8 73 9 74
REMARK SMILES IDX 10 75 11 76 12 77 13 78 27 79 14 80 15 81 16 84 17 85 26 86
REMARK SMILES IDX 18 87 19 88 20 89 21 90 25 91 22 92 24 93 23 94
REMARK H PARENT 84 23 52 34 27 82 27 83
REMARK Flexibility Score: inf
ROOT
ATOM      1  C   UNL A   1      31.430  31.618  26.783  1.00  0.00     0.202 C 
ENDROOT
BRANCH   1   2
ATOM      2  C   UNL A   1      32.380  32.811  26.627  1.00  0.00     0.261 C 
BRANCH   2   3
ATOM      3  O   UNL A   1      32.247  33.719  27.733  1.00  0.00    -0.460 OA
BRANCH   3   4
ATOM      4  C   UNL A   1      33.216  34.322  28.463  1.00  0.00     0.338 C 
ATOM      5  O   UNL A   1      33.111  35.529  28.680  1.00  0.00    -0.246 OA
BRANCH   4   6
ATOM      6  C   UNL A   1      34.416  33.613  29.006  1.00  0.00     0.060 A 
ATOM      7  C   UNL A   1      34.388  32.380  29.658  1.00  0.00     0.016 A 
ATOM      8  C   UNL A   1      35.675  34.189  28.759  1.00  0.00     0.016 A 
ATOM      9  C   UNL A   1      35.537  31.740  30.072  1.00  0.00     0.010 A 
ATOM     10  C   UNL A   1      36.850  33.548  29.164  1.00  0.00     0.010 A 
ATOM     11  C   UNL A   1      36.771  32.323  29.832  1.00  0.00    -0.014 A 
BRANCH  11  12
ATOM     12  C   UNL A   1      37.921  31.659  30.453  1.00  0.00     0.031 A 
ATOM     13  C   UNL A   1      38.179  31.935  31.899  1.00  0.00     0.074 A 
ATOM     14  C   UNL A   1      38.553  30.682  29.779  1.00  0.00     0.049 A 
ATOM     15  N   UNL A   1      39.095  31.442  32.680  1.00  0.00    -0.248 NA
ATOM     16  C   UNL A   1      37.256  32.874  32.565  1.00  0.00     0.031 C 
ATOM     17  C   UNL A   1      38.237  30.263  28.409  1.00  0.00     0.029 A 
ATOM     18  N   UNL A   1      39.563  29.846  30.158  1.00  0.00    -0.354 N 
ATOM     19  C   UNL A   1      38.887  32.035  33.917  1.00  0.00     0.074 A 
ATOM     20  C   UNL A   1      37.752  32.919  33.791  1.00  0.00     0.031 C 
ATOM     21  C   UNL A   1      39.050  29.253  28.061  1.00  0.00     0.029 A 
ATOM     22  C   UNL A   1      39.976  29.001  29.157  1.00  0.00     0.049 A 
ATOM     23  H   UNL A   1      39.957  29.848  31.061  1.00  0.00     0.167 HD
ATOM     24  C   UNL A   1      39.593  31.852  35.053  1.00  0.00     0.034 A 
ATOM     25  C   UNL A   1      41.024  28.157  29.129  1.00  0.00     0.034 A 
ATOM     26  C   UNL A   1      40.723  30.971  35.131  1.00  0.00     0.049 A 
ATOM     27  C   UNL A   1      41.857  28.052  30.379  1.00  0.00     0.074 A 
ATOM     28  C   UNL A   1      41.582  30.755  36.189  1.00  0.00     0.029 A 
ATOM     29  N   UNL A   1      41.152  30.161  34.086  1.00  0.00    -0.354 N 
ATOM     30  N   UNL A   1      41.675  28.634  31.542  1.00  0.00    -0.248 NA
ATOM     31  C   UNL A   1      43.028  27.169  30.323  1.00  0.00     0.031 C 
ATOM     32  C   UNL A   1      42.549  29.834  35.774  1.00  0.00     0.029 A 
ATOM     33  C   UNL A   1      42.267  29.444  34.472  1.00  0.00     0.049 A 
ATOM     34  H   UNL A   1      40.724  30.107  33.202  1.00  0.00     0.167 HD
ATOM     35  C   UNL A   1      42.688  28.167  32.367  1.00  0.00     0.074 A 
ATOM     36  C   UNL A   1      43.464  27.231  31.574  1.00  0.00     0.031 C 
ATOM     37  C   UNL A   1      42.972  28.488  33.654  1.00  0.00     0.034 A 
BRANCH  24  38
ATOM     38  C   UNL A   1      39.183  32.660  36.253  1.00  0.00     0.023 A 
ATOM     39  C   UNL A   1      39.711  33.952  36.452  1.00  0.00     0.012 A 
ATOM     40  C   UNL A   1      38.296  32.120  37.204  1.00  0.00     0.148 A 
ATOM     41  C   UNL A   1      39.392  34.678  37.600  1.00  0.00     0.002 A 
ATOM     42  C   UNL A   1      37.949  32.866  38.322  1.00  0.00     0.091 A 
ATOM     43  F   UNL A   1      37.832  30.877  37.010  1.00  0.00    -0.205 F 
ATOM     44  C   UNL A   1      38.507  34.139  38.530  1.00  0.00     0.022 A 
BRANCH  42  45
ATOM     45  S   UNL A   1      36.779  32.284  39.552  1.00  0.00     0.127 S 
ATOM     46  O   UNL A   1      35.507  32.429  38.843  1.00  0.00    -0.237 OA
ATOM     47  O   UNL A   1      37.211  30.902  39.752  1.00  0.00    -0.237 OA
ATOM     48  O   UNL A   1      36.944  33.151  40.710  1.00  0.00    -0.744 OA
ENDBRANCH  42  45
ENDBRANCH  24  38
BRANCH  25  49
ATOM     49  C   UNL A   1      41.362  27.396  27.891  1.00  0.00     0.023 A 
ATOM     50  C   UNL A   1      41.854  28.068  26.756  1.00  0.00     0.012 A 
ATOM     51  C   UNL A   1      41.179  25.998  27.829  1.00  0.00     0.148 A 
ATOM     52  C   UNL A   1      42.117  27.372  25.574  1.00  0.00     0.002 A 
ATOM     53  C   UNL A   1      41.498  25.303  26.669  1.00  0.00     0.091 A 
ATOM     54  F   UNL A   1      40.689  25.372  28.909  1.00  0.00    -0.205 F 
ATOM     55  C   UNL A   1      41.947  25.990  25.533  1.00  0.00     0.022 A 
BRANCH  53  56
ATOM     56  S   UNL A   1      41.424  23.510  26.575  1.00  0.00     0.127 S 
ATOM     57  O   UNL A   1      42.026  23.118  27.846  1.00  0.00    -0.237 OA
ATOM     58  O   UNL A   1      39.984  23.270  26.475  1.00  0.00    -0.237 OA
ATOM     59  O   UNL A   1      42.173  23.150  25.379  1.00  0.00    -0.744 OA
ENDBRANCH  53  56
ENDBRANCH  25  49
BRANCH  37  60
ATOM     60  C   UNL A   1      44.135  27.782  34.290  1.00  0.00     0.023 A 
ATOM     61  C   UNL A   1      45.416  28.364  34.257  1.00  0.00     0.012 A 
ATOM     62  C   UNL A   1      43.933  26.577  34.987  1.00  0.00     0.148 A 
ATOM     63  C   UNL A   1      46.490  27.736  34.883  1.00  0.00     0.002 A 
ATOM     64  C   UNL A   1      44.994  25.988  35.659  1.00  0.00     0.091 A 
ATOM     65  F   UNL A   1      42.706  26.034  34.986  1.00  0.00    -0.205 F 
ATOM     66  C   UNL A   1      46.276  26.557  35.596  1.00  0.00     0.022 A 
BRANCH  64  67
ATOM     67  S   UNL A   1      44.783  24.536  36.693  1.00  0.00     0.127 S 
ATOM     68  O   UNL A   1      43.896  25.043  37.738  1.00  0.00    -0.237 OA
ATOM     69  O   UNL A   1      44.161  23.588  35.768  1.00  0.00    -0.237 OA
ATOM     70  O   UNL A   1      46.120  24.160  37.134  1.00  0.00    -0.744 OA
ENDBRANCH  64  67
ENDBRANCH  37  60
ENDBRANCH  11  12
ENDBRANCH   4   6
ENDBRANCH   3   4
ENDBRANCH   2   3
ENDBRANCH   1   2
BRANCH   1  71
ATOM     71  O   UNL A   1      32.042  30.417  27.253  1.00  0.00    -0.374 OA
BRANCH  71  72
ATOM     72  C   UNL A   1      33.361  30.154  26.753  1.00  0.00     0.202 C 
BRANCH  72  73
ATOM     73  C   UNL A   1      33.553  28.650  26.655  1.00  0.00     0.261 C 
BRANCH  73  74
ATOM     74  O   UNL A   1      32.719  28.215  25.579  1.00  0.00    -0.459 OA
BRANCH  74  75
ATOM     75  C   UNL A   1      33.169  28.427  24.315  1.00  0.00     0.365 C 
ATOM     76  O   UNL A   1      34.262  28.075  23.882  1.00  0.00    -0.245 OA
BRANCH  75  77
ATOM     77  C   UNL A   1      32.052  29.016  23.441  1.00  0.00     0.304 C 
ATOM     78  C   UNL A   1      30.702  29.048  24.151  1.00  0.00     0.153 C 
ATOM     79  N   UNL A   1      31.928  28.354  22.096  1.00  0.00    -0.317 N 
ATOM     80  S   UNL A   1      29.589  28.040  23.127  1.00  0.00    -0.085 SA
ATOM     81  C   UNL A   1      30.971  27.240  22.245  1.00  0.00     0.303 C 
ATOM     82  H   UNL A   1      32.837  27.998  21.797  1.00  0.00     0.348 HD
ATOM     83  H   UNL A   1      31.605  29.019  21.393  1.00  0.00     0.348 HD
BRANCH  81  84
ATOM     84  C   UNL A   1      31.523  26.027  22.986  1.00  0.00     0.162 A 
ATOM     85  N   UNL A   1      31.071  25.578  24.144  1.00  0.00    -0.242 NA
ATOM     86  S   UNL A   1      32.904  25.161  22.382  1.00  0.00    -0.112 S 
ATOM     87  C   UNL A   1      31.977  24.694  24.688  1.00  0.00     0.132 A 
ATOM     88  C   UNL A   1      33.109  24.454  23.938  1.00  0.00     0.055 A 
BRANCH  88  89
ATOM     89  C   UNL A   1      34.352  23.808  24.351  1.00  0.00    -0.007 A 
ATOM     90  C   UNL A   1      35.223  24.505  25.208  1.00  0.00     0.009 A 
ATOM     91  C   UNL A   1      34.688  22.511  23.958  1.00  0.00     0.009 A 
ATOM     92  C   UNL A   1      36.418  23.929  25.641  1.00  0.00     0.001 A 
ATOM     93  C   UNL A   1      35.875  21.924  24.414  1.00  0.00     0.001 A 
ATOM     94  C   UNL A   1      36.741  22.635  25.247  1.00  0.00     0.000 A 
ENDBRANCH  88  89
ENDBRANCH  81  84
ENDBRANCH  75  77
ENDBRANCH  74  75
ENDBRANCH  73  74
ENDBRANCH  72  73
ENDBRANCH  71  72
ENDBRANCH   1  71
TORSDOF 19
ENDMDL
