MODEL 1
REMARK VINA RESULT:     -12.1      0.000      0.000
REMARK SMILES Cc1ccc(C(=O)N2CCCC[C@@H]2C(=O)OCCOCCOC(=O)c2ccc(-c3c4nc(c(-c5cccc(S(=O)(=O)[O-])c5F)c5ccc([nH]5)c(-c5cccc(S(=O)(=O)[O-])c5F)c5nc(c(-c6cccc(S(=O)(=O)[O-])c6F)c6ccc3[nH]6)C=C5)C=C4)cc2)cc1S(=O)(=O)N1CCCCC1
REMARK SMILES IDX 18 1 17 2 16 3 14 4 15 5 13 6 8 7 9 8 10 9 12 10 11 11 6 12
REMARK SMILES IDX 7 13 5 14 1 15 2 16 3 17 89 18 4 19 88 20 90 21 91 22 92 23
REMARK SMILES IDX 93 24 94 25 98 26 95 27 97 28 96 29 19 30 20 31 21 32 22 33
REMARK SMILES IDX 23 34 24 35 25 36 26 37 87 38 27 39 86 40 28 41 29 42 30 43
REMARK SMILES IDX 80 44 31 45 85 46 79 47 81 48 32 49 84 50 78 51 77 52 33 54
REMARK SMILES IDX 65 55 45 56 64 57 46 58 49 59 63 60 82 61 47 62 48 63 62 65
REMARK SMILES IDX 83 66 50 67 34 68 35 69 43 70 36 71 38 72 44 73 37 74 39 75
REMARK SMILES IDX 40 76 41 77 42 78 66 79 67 80 75 81 68 82 70 83 76 84 69 85
REMARK SMILES IDX 71 86 72 87 73 88 74 89 51 90 52 91 60 92 53 93 55 94 61 95
REMARK SMILES IDX 54 96 56 97 57 98 58 99 59 100
REMARK H PARENT 81 53 49 64
REMARK Flexibility Score: inf
ROOT
ATOM      1  C   UNL A   1      34.708  28.945  27.052  1.00  0.00     0.202 C 
ENDROOT
BRANCH   1   2
ATOM      2  C   UNL A   1      33.251  28.468  26.984  1.00  0.00     0.261 C 
BRANCH   2   3
ATOM      3  O   UNL A   1      32.957  27.823  25.712  1.00  0.00    -0.462 OA
BRANCH   3   4
ATOM      4  C   UNL A   1      32.560  28.609  24.661  1.00  0.00     0.328 C 
ATOM      5  O   UNL A   1      33.273  28.997  23.746  1.00  0.00    -0.250 OA
BRANCH   4   6
ATOM      6  C   UNL A   1      31.023  28.791  24.624  1.00  0.00     0.195 C 
ATOM      7  N   UNL A   1      30.125  27.954  23.765  1.00  0.00    -0.325 N 
ATOM      8  C   UNL A   1      29.316  28.563  22.709  1.00  0.00     0.121 C 
ATOM      9  C   UNL A   1      29.501  30.049  22.491  1.00  0.00     0.022 C 
ATOM     10  C   UNL A   1      30.792  30.325  24.544  1.00  0.00     0.037 C 
ATOM     11  C   UNL A   1      29.521  30.736  23.840  1.00  0.00     0.005 C 
BRANCH   7  12
ATOM     12  C   UNL A   1      29.670  26.663  24.137  1.00  0.00     0.254 C 
ATOM     13  O   UNL A   1      28.554  26.234  23.844  1.00  0.00    -0.269 OA
BRANCH  12  14
ATOM     14  C   UNL A   1      30.650  25.668  24.591  1.00  0.00     0.041 A 
ATOM     15  C   UNL A   1      31.804  22.062  25.715  1.00  0.00     0.046 C 
ATOM     16  C   UNL A   1      31.833  23.503  25.553  1.00  0.00    -0.031 A 
ATOM     17  C   UNL A   1      31.024  24.240  26.422  1.00  0.00     0.005 A 
ATOM     18  C   UNL A   1      32.361  23.954  24.361  1.00  0.00     0.086 A 
ATOM     19  C   UNL A   1      30.428  25.358  25.934  1.00  0.00     0.014 A 
ATOM     20  C   UNL A   1      31.689  25.059  23.822  1.00  0.00     0.035 A 
BRANCH  18  21
ATOM     21  S   UNL A   1      33.687  22.953  23.495  1.00  0.00     0.243 S 
ATOM     22  O   UNL A   1      33.117  21.632  23.311  1.00  0.00    -0.207 OA
ATOM     23  O   UNL A   1      34.030  23.782  22.353  1.00  0.00    -0.207 OA
BRANCH  21  24
ATOM     24  N   UNL A   1      35.185  22.778  24.460  1.00  0.00    -0.198 NA
ATOM     25  C   UNL A   1      35.995  21.121  24.397  1.00  0.00     0.102 C 
ATOM     26  C   UNL A   1      35.921  24.229  25.412  1.00  0.00     0.102 C 
ATOM     27  C   UNL A   1      37.787  20.847  25.269  1.00  0.00     0.017 C 
ATOM     28  C   UNL A   1      37.766  24.068  26.176  1.00  0.00     0.017 C 
ATOM     29  C   UNL A   1      38.663  22.335  26.171  1.00  0.00     0.003 C 
ENDBRANCH  21  24
ENDBRANCH  18  21
ENDBRANCH  12  14
ENDBRANCH   7  12
ENDBRANCH   4   6
ENDBRANCH   3   4
ENDBRANCH   2   3
ENDBRANCH   1   2
BRANCH   1  30
ATOM     30  O   UNL A   1      34.794  29.940  28.064  1.00  0.00    -0.374 OA
BRANCH  30  31
ATOM     31  C   UNL A   1      34.864  31.296  27.658  1.00  0.00     0.202 C 
BRANCH  31  32
ATOM     32  C   UNL A   1      33.617  32.129  27.975  1.00  0.00     0.261 C 
BRANCH  32  33
ATOM     33  O   UNL A   1      33.983  33.512  28.096  1.00  0.00    -0.460 OA
BRANCH  33  34
ATOM     34  C   UNL A   1      33.688  34.055  29.307  1.00  0.00     0.338 C 
ATOM     35  O   UNL A   1      32.781  34.846  29.505  1.00  0.00    -0.246 OA
BRANCH  34  36
ATOM     36  C   UNL A   1      34.752  33.705  30.287  1.00  0.00     0.060 A 
ATOM     37  C   UNL A   1      36.099  33.789  29.902  1.00  0.00     0.016 A 
ATOM     38  C   UNL A   1      34.415  33.085  31.491  1.00  0.00     0.016 A 
ATOM     39  C   UNL A   1      37.094  33.184  30.679  1.00  0.00     0.010 A 
ATOM     40  C   UNL A   1      35.392  32.425  32.218  1.00  0.00     0.010 A 
ATOM     41  C   UNL A   1      36.744  32.462  31.824  1.00  0.00    -0.014 A 
BRANCH  41  42
ATOM     42  C   UNL A   1      37.733  31.635  32.598  1.00  0.00     0.031 A 
ATOM     43  C   UNL A   1      38.161  30.323  31.925  1.00  0.00     0.074 A 
ATOM     44  C   UNL A   1      38.611  32.487  33.166  1.00  0.00     0.049 A 
ATOM     45  N   UNL A   1      39.231  29.573  32.009  1.00  0.00    -0.248 NA
ATOM     46  C   UNL A   1      37.174  29.765  31.027  1.00  0.00     0.031 C 
ATOM     47  C   UNL A   1      39.809  33.059  32.595  1.00  0.00     0.029 A 
ATOM     48  N   UNL A   1      38.477  33.202  34.333  1.00  0.00    -0.354 N 
ATOM     49  C   UNL A   1      39.327  28.711  30.868  1.00  0.00     0.074 A 
ATOM     50  C   UNL A   1      37.905  28.877  30.376  1.00  0.00     0.031 C 
ATOM     51  C   UNL A   1      40.513  33.726  33.510  1.00  0.00     0.029 A 
ATOM     52  C   UNL A   1      39.709  33.741  34.695  1.00  0.00     0.049 A 
ATOM     53  H   UNL A   1      37.638  33.316  34.836  1.00  0.00     0.167 HD
ATOM     54  C   UNL A   1      40.637  28.024  30.324  1.00  0.00     0.034 A 
ATOM     55  C   UNL A   1      40.242  33.796  35.929  1.00  0.00     0.034 A 
ATOM     56  C   UNL A   1      41.645  28.407  31.740  1.00  0.00     0.049 A 
ATOM     57  C   UNL A   1      41.006  32.517  36.161  1.00  0.00     0.074 A 
ATOM     58  C   UNL A   1      43.021  28.700  32.009  1.00  0.00     0.029 A 
ATOM     59  N   UNL A   1      41.154  28.490  33.102  1.00  0.00    -0.354 N 
ATOM     60  N   UNL A   1      41.180  31.542  35.297  1.00  0.00    -0.248 NA
ATOM     61  C   UNL A   1      41.713  32.299  37.418  1.00  0.00     0.031 C 
ATOM     62  C   UNL A   1      43.199  29.361  33.224  1.00  0.00     0.029 A 
ATOM     63  C   UNL A   1      42.069  29.135  33.959  1.00  0.00     0.049 A 
ATOM     64  H   UNL A   1      40.282  28.139  33.394  1.00  0.00     0.167 HD
ATOM     65  C   UNL A   1      41.839  30.512  35.929  1.00  0.00     0.074 A 
ATOM     66  C   UNL A   1      42.233  31.081  37.213  1.00  0.00     0.031 C 
ATOM     67  C   UNL A   1      42.039  29.257  35.411  1.00  0.00     0.034 A 
BRANCH  54  68
ATOM     68  C   UNL A   1      41.149  27.044  28.548  1.00  0.00     0.023 A 
ATOM     69  C   UNL A   1      41.058  27.415  27.052  1.00  0.00     0.012 A 
ATOM     70  C   UNL A   1      41.903  25.713  28.200  1.00  0.00     0.148 A 
ATOM     71  C   UNL A   1      41.135  26.673  25.819  1.00  0.00     0.002 A 
ATOM     72  C   UNL A   1      41.846  24.871  27.029  1.00  0.00     0.091 A 
ATOM     73  F   UNL A   1      43.137  25.519  28.736  1.00  0.00    -0.205 F 
ATOM     74  C   UNL A   1      41.397  25.342  25.827  1.00  0.00     0.022 A 
BRANCH  72  75
ATOM     75  S   UNL A   1      42.585  23.224  27.058  1.00  0.00     0.127 S 
ATOM     76  O   UNL A   1      44.020  23.505  26.987  1.00  0.00    -0.237 OA
ATOM     77  O   UNL A   1      42.141  22.687  28.341  1.00  0.00    -0.237 OA
ATOM     78  O   UNL A   1      42.040  22.587  25.863  1.00  0.00    -0.744 OA
ENDBRANCH  72  75
ENDBRANCH  54  68
BRANCH  55  79
ATOM     79  C   UNL A   1      39.335  34.580  36.819  1.00  0.00     0.023 A 
ATOM     80  C   UNL A   1      38.390  33.765  37.501  1.00  0.00     0.012 A 
ATOM     81  C   UNL A   1      39.869  35.688  37.486  1.00  0.00     0.148 A 
ATOM     82  C   UNL A   1      38.196  33.901  38.879  1.00  0.00     0.002 A 
ATOM     83  C   UNL A   1      39.758  35.742  38.877  1.00  0.00     0.091 A 
ATOM     84  F   UNL A   1      40.715  36.483  36.816  1.00  0.00    -0.205 F 
ATOM     85  C   UNL A   1      38.935  34.848  39.580  1.00  0.00     0.022 A 
BRANCH  83  86
ATOM     86  S   UNL A   1      41.016  36.652  39.793  1.00  0.00     0.127 S 
ATOM     87  O   UNL A   1      42.248  36.047  39.302  1.00  0.00    -0.237 OA
ATOM     88  O   UNL A   1      40.795  38.038  39.382  1.00  0.00    -0.237 OA
ATOM     89  O   UNL A   1      40.657  36.390  41.183  1.00  0.00    -0.744 OA
ENDBRANCH  83  86
ENDBRANCH  55  79
BRANCH  67  90
ATOM     90  C   UNL A   1      42.618  28.108  36.242  1.00  0.00     0.023 A 
ATOM     91  C   UNL A   1      41.810  27.033  36.665  1.00  0.00     0.012 A 
ATOM     92  C   UNL A   1      44.005  28.001  36.529  1.00  0.00     0.148 A 
ATOM     93  C   UNL A   1      42.330  25.949  37.384  1.00  0.00     0.002 A 
ATOM     94  C   UNL A   1      44.535  26.867  37.136  1.00  0.00     0.091 A 
ATOM     95  F   UNL A   1      44.838  29.012  36.263  1.00  0.00    -0.205 F 
ATOM     96  C   UNL A   1      43.698  25.850  37.593  1.00  0.00     0.022 A 
BRANCH  94  97
ATOM     97  S   UNL A   1      46.314  26.598  37.192  1.00  0.00     0.127 S 
ATOM     98  O   UNL A   1      46.408  25.313  37.880  1.00  0.00    -0.237 OA
ATOM     99  O   UNL A   1      46.664  26.558  35.770  1.00  0.00    -0.237 OA
ATOM    100  O   UNL A   1      46.861  27.745  37.904  1.00  0.00    -0.744 OA
ENDBRANCH  94  97
ENDBRANCH  67  90
ENDBRANCH  41  42
ENDBRANCH  34  36
ENDBRANCH  33  34
ENDBRANCH  32  33
ENDBRANCH  31  32
ENDBRANCH  30  31
ENDBRANCH   1  30
TORSDOF 21
ENDMDL
MODEL 2
REMARK VINA RESULT:     -11.4      2.600      8.270
REMARK SMILES Cc1ccc(C(=O)N2CCCC[C@@H]2C(=O)OCCOCCOC(=O)c2ccc(-c3c4nc(c(-c5cccc(S(=O)(=O)[O-])c5F)c5ccc([nH]5)c(-c5cccc(S(=O)(=O)[O-])c5F)c5nc(c(-c6cccc(S(=O)(=O)[O-])c6F)c6ccc3[nH]6)C=C5)C=C4)cc2)cc1S(=O)(=O)N1CCCCC1
REMARK SMILES IDX 18 1 17 2 16 3 14 4 15 5 13 6 8 7 9 8 10 9 12 10 11 11 6 12
REMARK SMILES IDX 7 13 5 14 1 15 2 16 3 17 89 18 4 19 88 20 90 21 91 22 92 23
REMARK SMILES IDX 93 24 94 25 98 26 95 27 97 28 96 29 19 30 20 31 21 32 22 33
REMARK SMILES IDX 23 34 24 35 25 36 26 37 87 38 27 39 86 40 28 41 29 42 30 43
REMARK SMILES IDX 80 44 31 45 85 46 79 47 81 48 32 49 84 50 78 51 77 52 33 54
REMARK SMILES IDX 65 55 45 56 64 57 46 58 49 59 63 60 82 61 47 62 48 63 62 65
REMARK SMILES IDX 83 66 50 67 34 68 35 69 43 70 36 71 38 72 44 73 37 74 39 75
REMARK SMILES IDX 40 76 41 77 42 78 66 79 67 80 75 81 68 82 70 83 76 84 69 85
REMARK SMILES IDX 71 86 72 87 73 88 74 89 51 90 52 91 60 92 53 93 55 94 61 95
REMARK SMILES IDX 54 96 56 97 57 98 58 99 59 100
REMARK H PARENT 81 53 49 64
REMARK Flexibility Score: inf
ROOT
ATOM      1  C   UNL A   1      32.044  29.483  26.901  1.00  0.00     0.202 C 
ENDROOT
BRANCH   1   2
ATOM      2  C   UNL A   1      32.694  28.771  25.706  1.00  0.00     0.261 C 
BRANCH   2   3
ATOM      3  O   UNL A   1      32.489  29.508  24.468  1.00  0.00    -0.462 OA
BRANCH   3   4
ATOM      4  C   UNL A   1      31.671  28.961  23.513  1.00  0.00     0.328 C 
ATOM      5  O   UNL A   1      32.034  28.301  22.550  1.00  0.00    -0.250 OA
BRANCH   4   6
ATOM      6  C   UNL A   1      30.175  29.081  23.897  1.00  0.00     0.195 C 
ATOM      7  N   UNL A   1      29.127  28.141  23.384  1.00  0.00    -0.325 N 
ATOM      8  C   UNL A   1      28.022  28.629  22.558  1.00  0.00     0.121 C 
ATOM      9  C   UNL A   1      28.050  30.097  22.194  1.00  0.00     0.022 C 
ATOM     10  C   UNL A   1      29.840  30.592  23.778  1.00  0.00     0.037 C 
ATOM     11  C   UNL A   1      28.401  30.895  23.433  1.00  0.00     0.005 C 
BRANCH   7  12
ATOM     12  C   UNL A   1      28.872  26.869  23.958  1.00  0.00     0.254 C 
ATOM     13  O   UNL A   1      27.779  26.306  23.883  1.00  0.00    -0.269 OA
BRANCH  12  14
ATOM     14  C   UNL A   1      30.007  26.031  24.364  1.00  0.00     0.041 A 
ATOM     15  C   UNL A   1      31.679  22.817  25.937  1.00  0.00     0.046 C 
ATOM     16  C   UNL A   1      31.553  24.181  25.458  1.00  0.00    -0.031 A 
ATOM     17  C   UNL A   1      30.915  25.082  26.315  1.00  0.00     0.005 A 
ATOM     18  C   UNL A   1      31.749  24.353  24.104  1.00  0.00     0.086 A 
ATOM     19  C   UNL A   1      30.132  26.039  25.755  1.00  0.00     0.014 A 
ATOM     20  C   UNL A   1      30.882  25.285  23.516  1.00  0.00     0.035 A 
BRANCH  18  21
ATOM     21  S   UNL A   1      32.910  23.208  23.180  1.00  0.00     0.243 S 
ATOM     22  O   UNL A   1      32.171  21.975  22.993  1.00  0.00    -0.207 OA
ATOM     23  O   UNL A   1      33.323  24.009  22.042  1.00  0.00    -0.207 OA
BRANCH  21  24
ATOM     24  N   UNL A   1      34.400  22.826  24.095  1.00  0.00    -0.198 NA
ATOM     25  C   UNL A   1      34.809  21.033  24.254  1.00  0.00     0.102 C 
ATOM     26  C   UNL A   1      35.516  24.183  24.779  1.00  0.00     0.102 C 
ATOM     27  C   UNL A   1      36.556  20.472  25.081  1.00  0.00     0.017 C 
ATOM     28  C   UNL A   1      37.331  23.703  25.479  1.00  0.00     0.017 C 
ATOM     29  C   UNL A   1      37.812  21.824  25.703  1.00  0.00     0.003 C 
ENDBRANCH  21  24
ENDBRANCH  18  21
ENDBRANCH  12  14
ENDBRANCH   7  12
ENDBRANCH   4   6
ENDBRANCH   3   4
ENDBRANCH   2   3
ENDBRANCH   1   2
BRANCH   1  30
ATOM     30  O   UNL A   1      32.457  30.844  26.871  1.00  0.00    -0.374 OA
BRANCH  30  31
ATOM     31  C   UNL A   1      31.478  31.828  26.584  1.00  0.00     0.202 C 
BRANCH  31  32
ATOM     32  C   UNL A   1      31.767  33.215  27.169  1.00  0.00     0.261 C 
BRANCH  32  33
ATOM     33  O   UNL A   1      33.187  33.413  27.254  1.00  0.00    -0.460 OA
BRANCH  33  34
ATOM     34  C   UNL A   1      33.617  33.785  28.489  1.00  0.00     0.338 C 
ATOM     35  O   UNL A   1      33.218  34.767  29.092  1.00  0.00    -0.246 OA
BRANCH  34  36
ATOM     36  C   UNL A   1      34.777  32.944  28.891  1.00  0.00     0.060 A 
ATOM     37  C   UNL A   1      34.781  32.331  30.152  1.00  0.00     0.016 A 
ATOM     38  C   UNL A   1      35.943  32.950  28.122  1.00  0.00     0.016 A 
ATOM     39  C   UNL A   1      35.966  31.800  30.676  1.00  0.00     0.010 A 
ATOM     40  C   UNL A   1      37.128  32.490  28.673  1.00  0.00     0.010 A 
ATOM     41  C   UNL A   1      37.159  31.910  29.956  1.00  0.00    -0.014 A 
BRANCH  41  42
ATOM     42  C   UNL A   1      38.495  31.532  30.533  1.00  0.00     0.031 A 
ATOM     43  C   UNL A   1      38.873  32.246  31.839  1.00  0.00     0.074 A 
ATOM     44  C   UNL A   1      38.647  30.204  30.355  1.00  0.00     0.049 A 
ATOM     45  N   UNL A   1      39.658  31.940  32.840  1.00  0.00    -0.248 NA
ATOM     46  C   UNL A   1      38.266  33.549  32.001  1.00  0.00     0.031 C 
ATOM     47  C   UNL A   1      38.181  29.123  31.194  1.00  0.00     0.029 A 
ATOM     48  N   UNL A   1      39.076  29.534  29.233  1.00  0.00    -0.354 N 
ATOM     49  C   UNL A   1      39.327  32.725  33.993  1.00  0.00     0.074 A 
ATOM     50  C   UNL A   1      38.487  33.767  33.286  1.00  0.00     0.031 C 
ATOM     51  C   UNL A   1      38.663  27.948  30.786  1.00  0.00     0.029 A 
ATOM     52  C   UNL A   1      39.349  28.207  29.556  1.00  0.00     0.049 A 
ATOM     53  H   UNL A   1      39.175  29.932  28.338  1.00  0.00     0.167 HD
ATOM     54  C   UNL A   1      39.658  32.369  35.492  1.00  0.00     0.034 A 
ATOM     55  C   UNL A   1      40.394  27.467  29.142  1.00  0.00     0.034 A 
ATOM     56  C   UNL A   1      40.768  31.028  35.121  1.00  0.00     0.049 A 
ATOM     57  C   UNL A   1      41.528  27.683  30.112  1.00  0.00     0.074 A 
ATOM     58  C   UNL A   1      41.154  29.781  35.709  1.00  0.00     0.029 A 
ATOM     59  N   UNL A   1      41.630  30.972  33.954  1.00  0.00    -0.354 N 
ATOM     60  N   UNL A   1      41.494  28.413  31.204  1.00  0.00    -0.248 NA
ATOM     61  C   UNL A   1      42.797  26.989  29.928  1.00  0.00     0.031 C 
ATOM     62  C   UNL A   1      41.732  28.910  34.786  1.00  0.00     0.029 A 
ATOM     63  C   UNL A   1      42.135  29.676  33.728  1.00  0.00     0.049 A 
ATOM     64  H   UNL A   1      41.837  31.749  33.387  1.00  0.00     0.167 HD
ATOM     65  C   UNL A   1      42.758  28.439  31.750  1.00  0.00     0.074 A 
ATOM     66  C   UNL A   1      43.499  27.455  30.970  1.00  0.00     0.031 C 
ATOM     67  C   UNL A   1      43.161  29.240  32.790  1.00  0.00     0.034 A 
BRANCH  54  68
ATOM     68  C   UNL A   1      39.019  33.096  37.347  1.00  0.00     0.023 A 
ATOM     69  C   UNL A   1      39.073  34.476  38.036  1.00  0.00     0.012 A 
ATOM     70  C   UNL A   1      38.174  32.507  38.531  1.00  0.00     0.148 A 
ATOM     71  C   UNL A   1      38.905  34.939  39.390  1.00  0.00     0.002 A 
ATOM     72  C   UNL A   1      38.136  32.856  39.931  1.00  0.00     0.091 A 
ATOM     73  F   UNL A   1      36.953  31.984  38.246  1.00  0.00    -0.205 F 
ATOM     74  C   UNL A   1      38.565  34.074  40.379  1.00  0.00     0.022 A 
BRANCH  72  75
ATOM     75  S   UNL A   1      37.303  31.776  41.113  1.00  0.00     0.127 S 
ATOM     76  O   UNL A   1      37.605  30.436  40.606  1.00  0.00    -0.237 OA
ATOM     77  O   UNL A   1      37.958  32.102  42.377  1.00  0.00    -0.237 OA
ATOM     78  O   UNL A   1      35.900  32.158  40.990  1.00  0.00    -0.744 OA
ENDBRANCH  72  75
ENDBRANCH  54  68
BRANCH  55  79
ATOM     79  C   UNL A   1      40.372  27.381  27.652  1.00  0.00     0.023 A 
ATOM     80  C   UNL A   1      40.621  28.631  27.022  1.00  0.00     0.012 A 
ATOM     81  C   UNL A   1      40.875  26.219  27.055  1.00  0.00     0.148 A 
ATOM     82  C   UNL A   1      41.559  28.735  25.990  1.00  0.00     0.002 A 
ATOM     83  C   UNL A   1      41.892  26.346  26.107  1.00  0.00     0.091 A 
ATOM     84  F   UNL A   1      40.587  25.040  27.625  1.00  0.00    -0.205 F 
ATOM     85  C   UNL A   1      42.246  27.598  25.579  1.00  0.00     0.022 A 
BRANCH  83  86
ATOM     86  S   UNL A   1      43.043  24.974  25.909  1.00  0.00     0.127 S 
ATOM     87  O   UNL A   1      44.054  25.548  25.030  1.00  0.00    -0.237 OA
ATOM     88  O   UNL A   1      43.487  24.706  27.277  1.00  0.00    -0.237 OA
ATOM     89  O   UNL A   1      42.200  23.923  25.351  1.00  0.00    -0.744 OA
ENDBRANCH  83  86
ENDBRANCH  55  79
BRANCH  67  90
ATOM     90  C   UNL A   1      44.626  29.349  33.222  1.00  0.00     0.023 A 
ATOM     91  C   UNL A   1      45.197  28.414  34.109  1.00  0.00     0.012 A 
ATOM     92  C   UNL A   1      45.511  30.314  32.673  1.00  0.00     0.148 A 
ATOM     93  C   UNL A   1      46.547  28.467  34.479  1.00  0.00     0.002 A 
ATOM     94  C   UNL A   1      46.874  30.289  32.949  1.00  0.00     0.091 A 
ATOM     95  F   UNL A   1      45.050  31.307  31.905  1.00  0.00    -0.205 F 
ATOM     96  C   UNL A   1      47.394  29.386  33.875  1.00  0.00     0.022 A 
BRANCH  94  97
ATOM     97  S   UNL A   1      48.026  31.294  31.997  1.00  0.00     0.127 S 
ATOM     98  O   UNL A   1      48.240  30.473  30.809  1.00  0.00    -0.237 OA
ATOM     99  O   UNL A   1      47.249  32.514  31.766  1.00  0.00    -0.237 OA
ATOM    100  O   UNL A   1      49.184  31.485  32.860  1.00  0.00    -0.744 OA
ENDBRANCH  94  97
ENDBRANCH  67  90
ENDBRANCH  41  42
ENDBRANCH  34  36
ENDBRANCH  33  34
ENDBRANCH  32  33
ENDBRANCH  31  32
ENDBRANCH  30  31
ENDBRANCH   1  30
TORSDOF 21
ENDMDL
MODEL 3
REMARK VINA RESULT:     -11.3      1.541      2.289
REMARK SMILES Cc1ccc(C(=O)N2CCCC[C@@H]2C(=O)OCCOCCOC(=O)c2ccc(-c3c4nc(c(-c5cccc(S(=O)(=O)[O-])c5F)c5ccc([nH]5)c(-c5cccc(S(=O)(=O)[O-])c5F)c5nc(c(-c6cccc(S(=O)(=O)[O-])c6F)c6ccc3[nH]6)C=C5)C=C4)cc2)cc1S(=O)(=O)N1CCCCC1
REMARK SMILES IDX 18 1 17 2 16 3 14 4 15 5 13 6 8 7 9 8 10 9 12 10 11 11 6 12
REMARK SMILES IDX 7 13 5 14 1 15 2 16 3 17 89 18 4 19 88 20 90 21 91 22 92 23
REMARK SMILES IDX 93 24 94 25 98 26 95 27 97 28 96 29 19 30 20 31 21 32 22 33
REMARK SMILES IDX 23 34 24 35 25 36 26 37 87 38 27 39 86 40 28 41 29 42 30 43
REMARK SMILES IDX 80 44 31 45 85 46 79 47 81 48 32 49 84 50 78 51 77 52 33 54
REMARK SMILES IDX 65 55 45 56 64 57 46 58 49 59 63 60 82 61 47 62 48 63 62 65
REMARK SMILES IDX 83 66 50 67 34 68 35 69 43 70 36 71 38 72 44 73 37 74 39 75
REMARK SMILES IDX 40 76 41 77 42 78 66 79 67 80 75 81 68 82 70 83 76 84 69 85
REMARK SMILES IDX 71 86 72 87 73 88 74 89 51 90 52 91 60 92 53 93 55 94 61 95
REMARK SMILES IDX 54 96 56 97 57 98 58 99 59 100
REMARK H PARENT 81 53 49 64
REMARK Flexibility Score: inf
ROOT
ATOM      1  C   UNL A   1      32.322  29.407  27.315  1.00  0.00     0.202 C 
ENDROOT
BRANCH   1   2
ATOM      2  C   UNL A   1      32.920  27.997  27.222  1.00  0.00     0.261 C 
BRANCH   2   3
ATOM      3  O   UNL A   1      33.942  27.917  26.187  1.00  0.00    -0.462 OA
BRANCH   3   4
ATOM      4  C   UNL A   1      33.539  27.787  24.884  1.00  0.00     0.328 C 
ATOM      5  O   UNL A   1      34.161  28.163  23.899  1.00  0.00    -0.250 OA
BRANCH   4   6
ATOM      6  C   UNL A   1      32.278  26.898  24.755  1.00  0.00     0.195 C 
ATOM      7  N   UNL A   1      32.335  25.401  24.758  1.00  0.00    -0.325 N 
ATOM      8  C   UNL A   1      31.891  24.631  23.595  1.00  0.00     0.121 C 
ATOM      9  C   UNL A   1      31.458  25.428  22.385  1.00  0.00     0.022 C 
ATOM     10  C   UNL A   1      31.440  27.537  23.614  1.00  0.00     0.037 C 
ATOM     11  C   UNL A   1      30.572  26.566  22.848  1.00  0.00     0.005 C 
BRANCH   7  12
ATOM     12  C   UNL A   1      32.403  24.625  25.944  1.00  0.00     0.254 C 
ATOM     13  O   UNL A   1      31.566  24.700  26.844  1.00  0.00    -0.269 OA
BRANCH  12  14
ATOM     14  C   UNL A   1      33.293  23.458  25.980  1.00  0.00     0.041 A 
ATOM     15  C   UNL A   1      34.536  19.889  24.833  1.00  0.00     0.046 C 
ATOM     16  C   UNL A   1      34.376  21.061  25.671  1.00  0.00    -0.031 A 
ATOM     17  C   UNL A   1      33.186  21.146  26.398  1.00  0.00     0.005 A 
ATOM     18  C   UNL A   1      35.230  22.109  25.394  1.00  0.00     0.086 A 
ATOM     19  C   UNL A   1      32.636  22.375  26.569  1.00  0.00     0.014 A 
ATOM     20  C   UNL A   1      34.634  23.373  25.493  1.00  0.00     0.035 A 
BRANCH  18  21
ATOM     21  S   UNL A   1      36.936  21.757  24.701  1.00  0.00     0.243 S 
ATOM     22  O   UNL A   1      37.042  20.313  24.646  1.00  0.00    -0.207 OA
ATOM     23  O   UNL A   1      36.966  22.554  23.487  1.00  0.00    -0.207 OA
BRANCH  21  24
ATOM     24  N   UNL A   1      38.260  22.369  25.739  1.00  0.00    -0.198 NA
ATOM     25  C   UNL A   1      38.039  24.078  26.401  1.00  0.00     0.102 C 
ATOM     26  C   UNL A   1      39.743  21.295  26.185  1.00  0.00     0.102 C 
ATOM     27  C   UNL A   1      39.349  24.812  27.741  1.00  0.00     0.017 C 
ATOM     28  C   UNL A   1      41.002  21.904  27.620  1.00  0.00     0.017 C 
ATOM     29  C   UNL A   1      40.843  23.712  28.337  1.00  0.00     0.003 C 
ENDBRANCH  21  24
ENDBRANCH  18  21
ENDBRANCH  12  14
ENDBRANCH   7  12
ENDBRANCH   4   6
ENDBRANCH   3   4
ENDBRANCH   2   3
ENDBRANCH   1   2
BRANCH   1  30
ATOM     30  O   UNL A   1      33.284  30.322  26.804  1.00  0.00    -0.374 OA
BRANCH  30  31
ATOM     31  C   UNL A   1      33.758  31.339  27.669  1.00  0.00     0.202 C 
BRANCH  31  32
ATOM     32  C   UNL A   1      33.066  32.698  27.507  1.00  0.00     0.261 C 
BRANCH  32  33
ATOM     33  O   UNL A   1      33.458  33.566  28.581  1.00  0.00    -0.460 OA
BRANCH  33  34
ATOM     34  C   UNL A   1      34.615  34.241  28.349  1.00  0.00     0.338 C 
ATOM     35  O   UNL A   1      34.831  34.920  27.359  1.00  0.00    -0.246 OA
BRANCH  34  36
ATOM     36  C   UNL A   1      35.631  33.859  29.367  1.00  0.00     0.060 A 
ATOM     37  C   UNL A   1      36.978  33.752  28.990  1.00  0.00     0.016 A 
ATOM     38  C   UNL A   1      35.225  33.394  30.619  1.00  0.00     0.016 A 
ATOM     39  C   UNL A   1      37.896  33.107  29.828  1.00  0.00     0.010 A 
ATOM     40  C   UNL A   1      36.119  32.694  31.412  1.00  0.00     0.010 A 
ATOM     41  C   UNL A   1      37.466  32.538  31.029  1.00  0.00    -0.014 A 
BRANCH  41  42
ATOM     42  C   UNL A   1      38.352  31.675  31.885  1.00  0.00     0.031 A 
ATOM     43  C   UNL A   1      38.843  30.379  31.224  1.00  0.00     0.074 A 
ATOM     44  C   UNL A   1      39.166  32.498  32.576  1.00  0.00     0.049 A 
ATOM     45  N   UNL A   1      39.889  29.614  31.405  1.00  0.00    -0.248 NA
ATOM     46  C   UNL A   1      37.960  29.861  30.202  1.00  0.00     0.031 C 
ATOM     47  C   UNL A   1      40.428  33.073  32.164  1.00  0.00     0.029 A 
ATOM     48  N   UNL A   1      38.906  33.179  33.742  1.00  0.00    -0.354 N 
ATOM     49  C   UNL A   1      40.108  28.786  30.256  1.00  0.00     0.074 A 
ATOM     50  C   UNL A   1      38.753  28.985  29.610  1.00  0.00     0.031 C 
ATOM     51  C   UNL A   1      41.028  33.702  33.175  1.00  0.00     0.029 A 
ATOM     52  C   UNL A   1      40.094  33.691  34.260  1.00  0.00     0.049 A 
ATOM     53  H   UNL A   1      38.017  33.288  34.150  1.00  0.00     0.167 HD
ATOM     54  C   UNL A   1      41.465  28.100  29.843  1.00  0.00     0.034 A 
ATOM     55  C   UNL A   1      40.482  33.701  35.548  1.00  0.00     0.034 A 
ATOM     56  C   UNL A   1      42.308  28.426  31.376  1.00  0.00     0.049 A 
ATOM     57  C   UNL A   1      41.203  32.406  35.825  1.00  0.00     0.074 A 
ATOM     58  C   UNL A   1      43.646  28.694  31.810  1.00  0.00     0.029 A 
ATOM     59  N   UNL A   1      41.665  28.474  32.676  1.00  0.00    -0.354 N 
ATOM     60  N   UNL A   1      41.466  31.456  34.956  1.00  0.00    -0.248 NA
ATOM     61  C   UNL A   1      41.760  32.141  37.146  1.00  0.00     0.031 C 
ATOM     62  C   UNL A   1      43.690  29.315  33.058  1.00  0.00     0.029 A 
ATOM     63  C   UNL A   1      42.481  29.081  33.651  1.00  0.00     0.049 A 
ATOM     64  H   UNL A   1      40.763  28.125  32.855  1.00  0.00     0.167 HD
ATOM     65  C   UNL A   1      42.040  30.400  35.625  1.00  0.00     0.074 A 
ATOM     66  C   UNL A   1      42.289  30.923  36.963  1.00  0.00     0.031 C 
ATOM     67  C   UNL A   1      42.287  29.158  35.094  1.00  0.00     0.034 A 
BRANCH  54  68
ATOM     68  C   UNL A   1      42.169  27.169  28.107  1.00  0.00     0.023 A 
ATOM     69  C   UNL A   1      41.834  27.302  26.606  1.00  0.00     0.012 A 
ATOM     70  C   UNL A   1      43.335  26.169  27.786  1.00  0.00     0.148 A 
ATOM     71  C   UNL A   1      42.088  26.499  25.437  1.00  0.00     0.002 A 
ATOM     72  C   UNL A   1      43.505  25.231  26.702  1.00  0.00     0.091 A 
ATOM     73  F   UNL A   1      44.589  26.499  28.192  1.00  0.00    -0.205 F 
ATOM     74  C   UNL A   1      42.824  25.363  25.525  1.00  0.00     0.022 A 
BRANCH  72  75
ATOM     75  S   UNL A   1      44.802  23.978  26.782  1.00  0.00     0.127 S 
ATOM     76  O   UNL A   1      44.820  23.611  28.200  1.00  0.00    -0.237 OA
ATOM     77  O   UNL A   1      44.304  22.930  25.896  1.00  0.00    -0.237 OA
ATOM     78  O   UNL A   1      45.994  24.695  26.337  1.00  0.00    -0.744 OA
ENDBRANCH  72  75
ENDBRANCH  54  68
BRANCH  55  79
ATOM     79  C   UNL A   1      39.486  34.469  36.353  1.00  0.00     0.023 A 
ATOM     80  C   UNL A   1      38.453  33.648  36.882  1.00  0.00     0.012 A 
ATOM     81  C   UNL A   1      39.952  35.539  37.124  1.00  0.00     0.148 A 
ATOM     82  C   UNL A   1      38.095  33.734  38.231  1.00  0.00     0.002 A 
ATOM     83  C   UNL A   1      39.674  35.541  38.493  1.00  0.00     0.091 A 
ATOM     84  F   UNL A   1      40.886  36.342  36.595  1.00  0.00    -0.205 F 
ATOM     85  C   UNL A   1      38.758  34.638  39.054  1.00  0.00     0.022 A 
BRANCH  83  86
ATOM     86  S   UNL A   1      40.825  36.390  39.591  1.00  0.00     0.127 S 
ATOM     87  O   UNL A   1      40.671  37.779  39.178  1.00  0.00    -0.237 OA
ATOM     88  O   UNL A   1      40.314  36.075  40.924  1.00  0.00    -0.237 OA
ATOM     89  O   UNL A   1      42.098  35.746  39.284  1.00  0.00    -0.744 OA
ENDBRANCH  83  86
ENDBRANCH  55  79
BRANCH  67  90
ATOM     90  C   UNL A   1      42.756  27.977  35.948  1.00  0.00     0.023 A 
ATOM     91  C   UNL A   1      41.867  26.953  36.329  1.00  0.00     0.012 A 
ATOM     92  C   UNL A   1      44.119  27.789  36.301  1.00  0.00     0.148 A 
ATOM     93  C   UNL A   1      42.287  25.840  37.069  1.00  0.00     0.002 A 
ATOM     94  C   UNL A   1      44.552  26.625  36.929  1.00  0.00     0.091 A 
ATOM     95  F   UNL A   1      45.023  28.748  36.077  1.00  0.00    -0.205 F 
ATOM     96  C   UNL A   1      43.635  25.660  37.343  1.00  0.00     0.022 A 
BRANCH  94  97
ATOM     97  S   UNL A   1      46.308  26.251  37.069  1.00  0.00     0.127 S 
ATOM     98  O   UNL A   1      46.776  27.312  37.956  1.00  0.00    -0.237 OA
ATOM     99  O   UNL A   1      46.290  24.915  37.669  1.00  0.00    -0.237 OA
ATOM    100  O   UNL A   1      46.824  26.282  35.707  1.00  0.00    -0.744 OA
ENDBRANCH  94  97
ENDBRANCH  67  90
ENDBRANCH  41  42
ENDBRANCH  34  36
ENDBRANCH  33  34
ENDBRANCH  32  33
ENDBRANCH  31  32
ENDBRANCH  30  31
ENDBRANCH   1  30
TORSDOF 21
ENDMDL
