MODEL 1
REMARK VINA RESULT:     -10.9      0.000      0.000
REMARK SMILES Cn1ccc(CNC(=O)[C@@H]2[C@@H]3CC[C@@H](C3)[C@@H]2C(=O)OCCOCCOC(=O)c2ccc(-c3c4nc(c(-c5cccc(S(=O)(=O)[O-])c5F)c5ccc([nH]5)c(-c5cccc(S(=O)(=O)[O-])c5F)c5nc(c(-c6cccc(S(=O)(=O)[O-])c6F)c6ccc3[nH]6)C=C5)C=C4)cc2)n1
REMARK SMILES IDX 22 1 21 2 20 3 19 4 17 5 18 6 16 7 10 8 11 9 12 10 15 11
REMARK SMILES IDX 14 12 13 13 8 14 7 15 9 17 6 18 5 19 1 20 2 21 3 22 91 23
REMARK SMILES IDX 4 24 23 25 24 26 25 27 26 28 27 29 28 30 29 31 90 32 30 33
REMARK SMILES IDX 89 34 31 35 32 36 33 37 83 38 34 39 88 40 82 41 84 42 35 43
REMARK SMILES IDX 87 44 81 45 80 46 36 48 68 49 48 50 67 51 49 52 52 53 66 54
REMARK SMILES IDX 85 55 50 56 51 57 65 59 86 60 53 61 37 62 38 63 46 64 39 65
REMARK SMILES IDX 41 66 47 67 40 68 42 69 43 70 44 71 45 72 69 73 70 74 78 75
REMARK SMILES IDX 71 76 73 77 79 78 72 79 74 80 75 81 76 82 77 83 54 84 55 85
REMARK SMILES IDX 63 86 56 87 58 88 64 89 57 90 59 91 60 92 61 93 62 94
REMARK H PARENT 7 16 84 47 52 58
REMARK Flexibility Score: inf
ROOT
ATOM      1  O   UNL A   1      31.281  28.754  26.117  1.00  0.00    -0.374 OA
ENDROOT
BRANCH   1   2
ATOM      2  C   UNL A   1      32.488  28.041  26.379  1.00  0.00     0.202 C 
BRANCH   2   3
ATOM      3  C   UNL A   1      32.538  26.531  26.126  1.00  0.00     0.261 C 
BRANCH   3   4
ATOM      4  O   UNL A   1      33.874  26.021  26.166  1.00  0.00    -0.463 OA
BRANCH   4   5
ATOM      5  C   UNL A   1      33.980  24.693  25.873  1.00  0.00     0.310 C 
ATOM      6  O   UNL A   1      33.357  23.809  26.436  1.00  0.00    -0.252 OA
BRANCH   5   7
ATOM      7  C   UNL A   1      34.909  24.509  24.689  1.00  0.00     0.115 C 
ATOM      8  C   UNL A   1      34.337  23.786  23.445  1.00  0.00     0.096 C 
ATOM      9  C   UNL A   1      35.285  22.564  23.336  1.00  0.00     0.002 C 
ATOM     10  C   UNL A   1      35.143  21.603  24.537  1.00  0.00     0.005 C 
ATOM     11  C   UNL A   1      36.633  23.223  23.650  1.00  0.00     0.009 C 
ATOM     12  C   UNL A   1      36.180  23.696  25.033  1.00  0.00     0.004 C 
ATOM     13  C   UNL A   1      35.804  22.363  25.691  1.00  0.00     0.005 C 
BRANCH   8  14
ATOM     14  C   UNL A   1      32.849  23.457  23.371  1.00  0.00     0.224 C 
ATOM     15  N   UNL A   1      31.966  24.410  22.969  1.00  0.00    -0.350 N 
ATOM     16  H   UNL A   1      31.020  24.148  23.036  1.00  0.00     0.163 HD
ATOM     17  O   UNL A   1      32.407  22.332  23.609  1.00  0.00    -0.275 OA
BRANCH  15  18
ATOM     18  C   UNL A   1      32.187  25.747  22.459  1.00  0.00     0.174 C 
BRANCH  18  19
ATOM     19  C   UNL A   1      31.003  26.607  22.783  1.00  0.00     0.082 A 
ATOM     20  C   UNL A   1      29.148  29.500  22.181  1.00  0.00     0.173 C 
ATOM     21  N   UNL A   1      29.672  28.252  22.677  1.00  0.00    -0.275 N 
ATOM     22  C   UNL A   1      29.078  27.394  23.553  1.00  0.00     0.108 A 
ATOM     23  N   UNL A   1      30.863  27.823  22.233  1.00  0.00    -0.176 NA
ATOM     24  C   UNL A   1      29.918  26.309  23.644  1.00  0.00     0.047 A 
ENDBRANCH  18  19
ENDBRANCH  15  18
ENDBRANCH   8  14
ENDBRANCH   5   7
ENDBRANCH   4   5
ENDBRANCH   3   4
ENDBRANCH   2   3
ENDBRANCH   1   2
BRANCH   1  25
ATOM     25  C   UNL A   1      31.369  30.069  25.574  1.00  0.00     0.202 C 
BRANCH  25  26
ATOM     26  C   UNL A   1      31.714  31.266  26.465  1.00  0.00     0.261 C 
BRANCH  26  27
ATOM     27  O   UNL A   1      33.087  31.647  26.393  1.00  0.00    -0.460 OA
BRANCH  27  28
ATOM     28  C   UNL A   1      33.499  32.442  27.408  1.00  0.00     0.338 C 
ATOM     29  O   UNL A   1      32.844  33.286  28.003  1.00  0.00    -0.246 OA
BRANCH  28  30
ATOM     30  C   UNL A   1      34.821  31.984  27.849  1.00  0.00     0.060 A 
ATOM     31  C   UNL A   1      34.970  30.637  28.209  1.00  0.00     0.016 A 
ATOM     32  C   UNL A   1      35.886  32.879  27.940  1.00  0.00     0.016 A 
ATOM     33  C   UNL A   1      36.185  30.185  28.708  1.00  0.00     0.010 A 
ATOM     34  C   UNL A   1      37.096  32.430  28.455  1.00  0.00     0.010 A 
ATOM     35  C   UNL A   1      37.235  31.094  28.875  1.00  0.00    -0.014 A 
BRANCH  35  36
ATOM     36  C   UNL A   1      38.419  30.721  29.673  1.00  0.00     0.031 A 
ATOM     37  C   UNL A   1      39.346  29.686  29.105  1.00  0.00     0.074 A 
ATOM     38  C   UNL A   1      38.621  31.252  30.889  1.00  0.00     0.049 A 
ATOM     39  N   UNL A   1      40.331  29.055  29.680  1.00  0.00    -0.248 NA
ATOM     40  C   UNL A   1      39.116  29.298  27.701  1.00  0.00     0.031 C 
ATOM     41  C   UNL A   1      37.787  32.277  31.515  1.00  0.00     0.029 A 
ATOM     42  N   UNL A   1      39.569  30.960  31.836  1.00  0.00    -0.354 N 
ATOM     43  C   UNL A   1      40.819  28.172  28.724  1.00  0.00     0.074 A 
ATOM     44  C   UNL A   1      40.012  28.336  27.536  1.00  0.00     0.031 C 
ATOM     45  C   UNL A   1      38.227  32.488  32.768  1.00  0.00     0.029 A 
ATOM     46  C   UNL A   1      39.342  31.585  33.039  1.00  0.00     0.049 A 
ATOM     47  H   UNL A   1      40.335  30.363  31.670  1.00  0.00     0.167 HD
ATOM     48  C   UNL A   1      41.855  27.310  28.828  1.00  0.00     0.034 A 
ATOM     49  C   UNL A   1      39.939  31.401  34.233  1.00  0.00     0.034 A 
ATOM     50  C   UNL A   1      42.650  27.166  30.016  1.00  0.00     0.049 A 
ATOM     51  C   UNL A   1      41.063  30.402  34.337  1.00  0.00     0.074 A 
ATOM     52  C   UNL A   1      43.733  26.336  30.231  1.00  0.00     0.029 A 
ATOM     53  N   UNL A   1      42.438  27.869  31.192  1.00  0.00    -0.354 N 
ATOM     54  N   UNL A   1      41.566  29.625  33.407  1.00  0.00    -0.248 NA
ATOM     55  C   UNL A   1      41.723  30.274  35.643  1.00  0.00     0.031 C 
ATOM     56  C   UNL A   1      44.163  26.519  31.548  1.00  0.00     0.029 A 
ATOM     57  C   UNL A   1      43.373  27.494  32.138  1.00  0.00     0.049 A 
ATOM     58  H   UNL A   1      41.728  28.535  31.333  1.00  0.00     0.167 HD
ATOM     59  C   UNL A   1      42.630  28.957  34.000  1.00  0.00     0.074 A 
ATOM     60  C   UNL A   1      42.704  29.426  35.369  1.00  0.00     0.031 C 
ATOM     61  C   UNL A   1      43.468  28.033  33.469  1.00  0.00     0.034 A 
BRANCH  48  62
ATOM     62  C   UNL A   1      42.203  26.480  27.622  1.00  0.00     0.023 A 
ATOM     63  C   UNL A   1      42.959  27.051  26.578  1.00  0.00     0.012 A 
ATOM     64  C   UNL A   1      41.837  25.123  27.548  1.00  0.00     0.148 A 
ATOM     65  C   UNL A   1      43.320  26.293  25.466  1.00  0.00     0.002 A 
ATOM     66  C   UNL A   1      42.240  24.360  26.459  1.00  0.00     0.091 A 
ATOM     67  F   UNL A   1      41.099  24.605  28.540  1.00  0.00    -0.205 F 
ATOM     68  C   UNL A   1      42.972  24.946  25.413  1.00  0.00     0.022 A 
BRANCH  66  69
ATOM     69  S   UNL A   1      41.910  22.600  26.329  1.00  0.00     0.127 S 
ATOM     70  O   UNL A   1      40.448  22.578  26.277  1.00  0.00    -0.237 OA
ATOM     71  O   UNL A   1      42.570  22.258  25.069  1.00  0.00    -0.237 OA
ATOM     72  O   UNL A   1      42.497  21.990  27.512  1.00  0.00    -0.744 OA
ENDBRANCH  66  69
ENDBRANCH  48  62
BRANCH  49  73
ATOM     73  C   UNL A   1      39.486  32.170  35.426  1.00  0.00     0.023 A 
ATOM     74  C   UNL A   1      38.602  31.573  36.347  1.00  0.00     0.012 A 
ATOM     75  C   UNL A   1      39.917  33.492  35.648  1.00  0.00     0.148 A 
ATOM     76  C   UNL A   1      38.120  32.294  37.439  1.00  0.00     0.002 A 
ATOM     77  C   UNL A   1      39.478  34.185  36.769  1.00  0.00     0.091 A 
ATOM     78  F   UNL A   1      40.748  34.048  34.755  1.00  0.00    -0.205 F 
ATOM     79  C   UNL A   1      38.563  33.597  37.654  1.00  0.00     0.022 A 
BRANCH  77  80
ATOM     80  S   UNL A   1      40.094  35.819  37.191  1.00  0.00     0.127 S 
ATOM     81  O   UNL A   1      39.707  36.597  36.017  1.00  0.00    -0.237 OA
ATOM     82  O   UNL A   1      39.341  36.121  38.408  1.00  0.00    -0.237 OA
ATOM     83  O   UNL A   1      41.527  35.655  37.398  1.00  0.00    -0.744 OA
ENDBRANCH  77  80
ENDBRANCH  49  73
BRANCH  61  84
ATOM     84  C   UNL A   1      44.593  27.524  34.329  1.00  0.00     0.023 A 
ATOM     85  C   UNL A   1      45.794  28.252  34.435  1.00  0.00     0.012 A 
ATOM     86  C   UNL A   1      44.405  26.373  35.120  1.00  0.00     0.148 A 
ATOM     87  C   UNL A   1      46.801  27.827  35.300  1.00  0.00     0.002 A 
ATOM     88  C   UNL A   1      45.390  25.987  36.019  1.00  0.00     0.091 A 
ATOM     89  F   UNL A   1      43.259  25.690  34.991  1.00  0.00    -0.205 F 
ATOM     90  C   UNL A   1      46.594  26.705  36.102  1.00  0.00     0.022 A 
BRANCH  88  91
ATOM     91  S   UNL A   1      45.170  24.622  37.165  1.00  0.00     0.127 S 
ATOM     92  O   UNL A   1      46.466  24.588  37.840  1.00  0.00    -0.237 OA
ATOM     93  O   UNL A   1      44.062  25.094  37.995  1.00  0.00    -0.237 OA
ATOM     94  O   UNL A   1      44.865  23.453  36.350  1.00  0.00    -0.744 OA
ENDBRANCH  88  91
ENDBRANCH  61  84
ENDBRANCH  35  36
ENDBRANCH  28  30
ENDBRANCH  27  28
ENDBRANCH  26  27
ENDBRANCH  25  26
ENDBRANCH   1  25
TORSDOF 20
ENDMDL
MODEL 2
REMARK VINA RESULT:     -10.8      2.055      3.608
REMARK SMILES Cn1ccc(CNC(=O)[C@@H]2[C@@H]3CC[C@@H](C3)[C@@H]2C(=O)OCCOCCOC(=O)c2ccc(-c3c4nc(c(-c5cccc(S(=O)(=O)[O-])c5F)c5ccc([nH]5)c(-c5cccc(S(=O)(=O)[O-])c5F)c5nc(c(-c6cccc(S(=O)(=O)[O-])c6F)c6ccc3[nH]6)C=C5)C=C4)cc2)n1
REMARK SMILES IDX 22 1 21 2 20 3 19 4 17 5 18 6 16 7 10 8 11 9 12 10 15 11
REMARK SMILES IDX 14 12 13 13 8 14 7 15 9 17 6 18 5 19 1 20 2 21 3 22 91 23
REMARK SMILES IDX 4 24 23 25 24 26 25 27 26 28 27 29 28 30 29 31 90 32 30 33
REMARK SMILES IDX 89 34 31 35 32 36 33 37 83 38 34 39 88 40 82 41 84 42 35 43
REMARK SMILES IDX 87 44 81 45 80 46 36 48 68 49 48 50 67 51 49 52 52 53 66 54
REMARK SMILES IDX 85 55 50 56 51 57 65 59 86 60 53 61 37 62 38 63 46 64 39 65
REMARK SMILES IDX 41 66 47 67 40 68 42 69 43 70 44 71 45 72 69 73 70 74 78 75
REMARK SMILES IDX 71 76 73 77 79 78 72 79 74 80 75 81 76 82 77 83 54 84 55 85
REMARK SMILES IDX 63 86 56 87 58 88 64 89 57 90 59 91 60 92 61 93 62 94
REMARK H PARENT 7 16 84 47 52 58
REMARK Flexibility Score: inf
ROOT
ATOM      1  O   UNL A   1      32.603  26.925  24.419  1.00  0.00    -0.374 OA
ENDROOT
BRANCH   1   2
ATOM      2  C   UNL A   1      31.561  25.959  24.298  1.00  0.00     0.202 C 
BRANCH   2   3
ATOM      3  C   UNL A   1      31.639  24.905  23.189  1.00  0.00     0.261 C 
BRANCH   3   4
ATOM      4  O   UNL A   1      32.897  24.225  23.179  1.00  0.00    -0.463 OA
BRANCH   4   5
ATOM      5  C   UNL A   1      32.940  23.106  23.960  1.00  0.00     0.310 C 
ATOM      6  O   UNL A   1      31.999  22.681  24.610  1.00  0.00    -0.252 OA
BRANCH   5   7
ATOM      7  C   UNL A   1      34.291  22.437  23.811  1.00  0.00     0.115 C 
ATOM      8  C   UNL A   1      34.702  21.415  24.899  1.00  0.00     0.096 C 
ATOM      9  C   UNL A   1      35.995  22.062  25.457  1.00  0.00     0.002 C 
ATOM     10  C   UNL A   1      35.721  23.408  26.164  1.00  0.00     0.005 C 
ATOM     11  C   UNL A   1      36.652  22.545  24.159  1.00  0.00     0.009 C 
ATOM     12  C   UNL A   1      35.469  23.442  23.789  1.00  0.00     0.004 C 
ATOM     13  C   UNL A   1      35.408  24.366  25.011  1.00  0.00     0.005 C 
BRANCH   8  14
ATOM     14  C   UNL A   1      33.690  20.981  25.957  1.00  0.00     0.224 C 
ATOM     15  N   UNL A   1      32.722  20.081  25.634  1.00  0.00    -0.350 N 
ATOM     16  H   UNL A   1      32.057  19.923  26.343  1.00  0.00     0.163 HD
ATOM     17  O   UNL A   1      33.743  21.369  27.124  1.00  0.00    -0.275 OA
BRANCH  15  18
ATOM     18  C   UNL A   1      32.508  19.318  24.423  1.00  0.00     0.174 C 
BRANCH  18  19
ATOM     19  C   UNL A   1      33.080  17.943  24.592  1.00  0.00     0.082 A 
ATOM     20  C   UNL A   1      32.648  14.613  25.539  1.00  0.00     0.173 C 
ATOM     21  N   UNL A   1      33.156  15.885  25.088  1.00  0.00    -0.275 N 
ATOM     22  C   UNL A   1      34.364  16.136  24.511  1.00  0.00     0.108 A 
ATOM     23  N   UNL A   1      32.377  16.971  25.194  1.00  0.00    -0.176 NA
ATOM     24  C   UNL A   1      34.349  17.469  24.174  1.00  0.00     0.047 A 
ENDBRANCH  18  19
ENDBRANCH  15  18
ENDBRANCH   8  14
ENDBRANCH   5   7
ENDBRANCH   4   5
ENDBRANCH   3   4
ENDBRANCH   2   3
ENDBRANCH   1   2
BRANCH   1  25
ATOM     25  C   UNL A   1      32.365  28.249  23.947  1.00  0.00     0.202 C 
BRANCH  25  26
ATOM     26  C   UNL A   1      32.180  29.411  24.928  1.00  0.00     0.261 C 
BRANCH  26  27
ATOM     27  O   UNL A   1      33.345  29.682  25.708  1.00  0.00    -0.460 OA
BRANCH  27  28
ATOM     28  C   UNL A   1      33.226  30.747  26.535  1.00  0.00     0.338 C 
ATOM     29  O   UNL A   1      32.285  31.524  26.614  1.00  0.00    -0.246 OA
BRANCH  28  30
ATOM     30  C   UNL A   1      34.328  30.709  27.502  1.00  0.00     0.060 A 
ATOM     31  C   UNL A   1      35.130  31.852  27.638  1.00  0.00     0.016 A 
ATOM     32  C   UNL A   1      34.588  29.551  28.234  1.00  0.00     0.016 A 
ATOM     33  C   UNL A   1      36.231  31.827  28.484  1.00  0.00     0.010 A 
ATOM     34  C   UNL A   1      35.701  29.521  29.066  1.00  0.00     0.010 A 
ATOM     35  C   UNL A   1      36.544  30.644  29.162  1.00  0.00    -0.014 A 
BRANCH  35  36
ATOM     36  C   UNL A   1      37.857  30.491  29.818  1.00  0.00     0.031 A 
ATOM     37  C   UNL A   1      38.859  29.579  29.172  1.00  0.00     0.074 A 
ATOM     38  C   UNL A   1      38.117  31.105  30.983  1.00  0.00     0.049 A 
ATOM     39  N   UNL A   1      39.990  29.130  29.640  1.00  0.00    -0.248 NA
ATOM     40  C   UNL A   1      38.528  29.092  27.819  1.00  0.00     0.031 C 
ATOM     41  C   UNL A   1      37.215  32.024  31.675  1.00  0.00     0.029 A 
ATOM     42  N   UNL A   1      39.203  31.004  31.814  1.00  0.00    -0.354 N 
ATOM     43  C   UNL A   1      40.492  28.284  28.658  1.00  0.00     0.074 A 
ATOM     44  C   UNL A   1      39.536  28.268  27.575  1.00  0.00     0.031 C 
ATOM     45  C   UNL A   1      37.761  32.359  32.858  1.00  0.00     0.029 A 
ATOM     46  C   UNL A   1      39.026  31.646  33.016  1.00  0.00     0.049 A 
ATOM     47  H   UNL A   1      40.027  30.520  31.572  1.00  0.00     0.167 HD
ATOM     48  C   UNL A   1      41.653  27.592  28.659  1.00  0.00     0.034 A 
ATOM     49  C   UNL A   1      39.780  31.612  34.132  1.00  0.00     0.034 A 
ATOM     50  C   UNL A   1      42.594  27.626  29.744  1.00  0.00     0.049 A 
ATOM     51  C   UNL A   1      41.049  30.798  34.126  1.00  0.00     0.074 A 
ATOM     52  C   UNL A   1      43.810  26.978  29.848  1.00  0.00     0.029 A 
ATOM     53  N   UNL A   1      42.417  28.346  30.915  1.00  0.00    -0.354 N 
ATOM     54  N   UNL A   1      41.552  30.060  33.166  1.00  0.00    -0.248 NA
ATOM     55  C   UNL A   1      41.870  30.833  35.345  1.00  0.00     0.031 C 
ATOM     56  C   UNL A   1      44.359  27.287  31.096  1.00  0.00     0.029 A 
ATOM     57  C   UNL A   1      43.503  28.162  31.749  1.00  0.00     0.049 A 
ATOM     58  H   UNL A   1      41.634  28.906  31.122  1.00  0.00     0.167 HD
ATOM     59  C   UNL A   1      42.769  29.587  33.643  1.00  0.00     0.074 A 
ATOM     60  C   UNL A   1      42.930  30.128  34.978  1.00  0.00     0.031 C 
ATOM     61  C   UNL A   1      43.670  28.774  33.041  1.00  0.00     0.034 A 
BRANCH  48  62
ATOM     62  C   UNL A   1      41.980  26.765  27.446  1.00  0.00     0.023 A 
ATOM     63  C   UNL A   1      42.536  27.385  26.309  1.00  0.00     0.012 A 
ATOM     64  C   UNL A   1      41.797  25.369  27.451  1.00  0.00     0.148 A 
ATOM     65  C   UNL A   1      42.876  26.635  25.185  1.00  0.00     0.002 A 
ATOM     66  C   UNL A   1      42.181  24.620  26.345  1.00  0.00     0.091 A 
ATOM     67  F   UNL A   1      41.246  24.800  28.533  1.00  0.00    -0.205 F 
ATOM     68  C   UNL A   1      42.711  25.254  25.208  1.00  0.00     0.022 A 
BRANCH  66  69
ATOM     69  S   UNL A   1      42.082  22.828  26.301  1.00  0.00     0.127 S 
ATOM     70  O   UNL A   1      42.863  22.461  27.482  1.00  0.00    -0.237 OA
ATOM     71  O   UNL A   1      40.643  22.599  26.427  1.00  0.00    -0.237 OA
ATOM     72  O   UNL A   1      42.657  22.423  25.027  1.00  0.00    -0.744 OA
ENDBRANCH  66  69
ENDBRANCH  48  62
BRANCH  49  73
ATOM     73  C   UNL A   1      39.358  32.362  35.348  1.00  0.00     0.023 A 
ATOM     74  C   UNL A   1      38.468  31.765  36.263  1.00  0.00     0.012 A 
ATOM     75  C   UNL A   1      39.824  33.667  35.597  1.00  0.00     0.148 A 
ATOM     76  C   UNL A   1      38.015  32.472  37.377  1.00  0.00     0.002 A 
ATOM     77  C   UNL A   1      39.413  34.344  36.739  1.00  0.00     0.091 A 
ATOM     78  F   UNL A   1      40.661  34.224  34.710  1.00  0.00    -0.205 F 
ATOM     79  C   UNL A   1      38.492  33.757  37.619  1.00  0.00     0.022 A 
BRANCH  77  80
ATOM     80  S   UNL A   1      40.075  35.951  37.195  1.00  0.00     0.127 S 
ATOM     81  O   UNL A   1      39.707  36.764  36.039  1.00  0.00    -0.237 OA
ATOM     82  O   UNL A   1      39.333  36.247  38.419  1.00  0.00    -0.237 OA
ATOM     83  O   UNL A   1      41.504  35.743  37.395  1.00  0.00    -0.744 OA
ENDBRANCH  77  80
ENDBRANCH  49  73
BRANCH  61  84
ATOM     84  C   UNL A   1      44.953  28.480  33.771  1.00  0.00     0.023 A 
ATOM     85  C   UNL A   1      46.057  29.345  33.646  1.00  0.00     0.012 A 
ATOM     86  C   UNL A   1      45.016  27.397  34.671  1.00  0.00     0.148 A 
ATOM     87  C   UNL A   1      47.214  29.122  34.390  1.00  0.00     0.002 A 
ATOM     88  C   UNL A   1      46.152  27.214  35.449  1.00  0.00     0.091 A 
ATOM     89  F   UNL A   1      43.957  26.580  34.761  1.00  0.00    -0.205 F 
ATOM     90  C   UNL A   1      47.257  28.068  35.301  1.00  0.00     0.022 A 
BRANCH  88  91
ATOM     91  S   UNL A   1      46.256  25.950  36.720  1.00  0.00     0.127 S 
ATOM     92  O   UNL A   1      47.584  26.199  37.278  1.00  0.00    -0.237 OA
ATOM     93  O   UNL A   1      45.146  26.310  37.602  1.00  0.00    -0.237 OA
ATOM     94  O   UNL A   1      46.101  24.672  36.036  1.00  0.00    -0.744 OA
ENDBRANCH  88  91
ENDBRANCH  61  84
ENDBRANCH  35  36
ENDBRANCH  28  30
ENDBRANCH  27  28
ENDBRANCH  26  27
ENDBRANCH  25  26
ENDBRANCH   1  25
TORSDOF 20
ENDMDL
MODEL 3
REMARK VINA RESULT:     -10.4      2.139      2.820
REMARK SMILES Cn1ccc(CNC(=O)[C@@H]2[C@@H]3CC[C@@H](C3)[C@@H]2C(=O)OCCOCCOC(=O)c2ccc(-c3c4nc(c(-c5cccc(S(=O)(=O)[O-])c5F)c5ccc([nH]5)c(-c5cccc(S(=O)(=O)[O-])c5F)c5nc(c(-c6cccc(S(=O)(=O)[O-])c6F)c6ccc3[nH]6)C=C5)C=C4)cc2)n1
REMARK SMILES IDX 22 1 21 2 20 3 19 4 17 5 18 6 16 7 10 8 11 9 12 10 15 11
REMARK SMILES IDX 14 12 13 13 8 14 7 15 9 17 6 18 5 19 1 20 2 21 3 22 91 23
REMARK SMILES IDX 4 24 23 25 24 26 25 27 26 28 27 29 28 30 29 31 90 32 30 33
REMARK SMILES IDX 89 34 31 35 32 36 33 37 83 38 34 39 88 40 82 41 84 42 35 43
REMARK SMILES IDX 87 44 81 45 80 46 36 48 68 49 48 50 67 51 49 52 52 53 66 54
REMARK SMILES IDX 85 55 50 56 51 57 65 59 86 60 53 61 37 62 38 63 46 64 39 65
REMARK SMILES IDX 41 66 47 67 40 68 42 69 43 70 44 71 45 72 69 73 70 74 78 75
REMARK SMILES IDX 71 76 73 77 79 78 72 79 74 80 75 81 76 82 77 83 54 84 55 85
REMARK SMILES IDX 63 86 56 87 58 88 64 89 57 90 59 91 60 92 61 93 62 94
REMARK H PARENT 7 16 84 47 52 58
REMARK Flexibility Score: inf
ROOT
ATOM      1  O   UNL A   1      31.925  30.063  26.959  1.00  0.00    -0.374 OA
ENDROOT
BRANCH   1   2
ATOM      2  C   UNL A   1      31.845  28.696  27.355  1.00  0.00     0.202 C 
BRANCH   2   3
ATOM      3  C   UNL A   1      31.376  27.646  26.341  1.00  0.00     0.261 C 
BRANCH   3   4
ATOM      4  O   UNL A   1      31.411  26.322  26.880  1.00  0.00    -0.463 OA
BRANCH   4   5
ATOM      5  C   UNL A   1      31.639  25.343  25.958  1.00  0.00     0.310 C 
ATOM      6  O   UNL A   1      30.802  24.541  25.580  1.00  0.00    -0.252 OA
BRANCH   5   7
ATOM      7  C   UNL A   1      33.049  25.476  25.417  1.00  0.00     0.115 C 
ATOM      8  C   UNL A   1      33.264  25.175  23.914  1.00  0.00     0.096 C 
ATOM      9  C   UNL A   1      34.273  24.000  23.976  1.00  0.00     0.002 C 
ATOM     10  C   UNL A   1      33.663  22.735  24.619  1.00  0.00     0.005 C 
ATOM     11  C   UNL A   1      35.197  24.480  25.101  1.00  0.00     0.009 C 
ATOM     12  C   UNL A   1      34.062  24.544  26.126  1.00  0.00     0.004 C 
ATOM     13  C   UNL A   1      33.565  23.095  26.105  1.00  0.00     0.005 C 
BRANCH   8  14
ATOM     14  C   UNL A   1      32.061  24.945  23.003  1.00  0.00     0.224 C 
ATOM     15  N   UNL A   1      31.363  26.010  22.526  1.00  0.00    -0.350 N 
ATOM     16  H   UNL A   1      30.551  25.776  22.021  1.00  0.00     0.163 HD
ATOM     17  O   UNL A   1      31.720  23.823  22.627  1.00  0.00    -0.275 OA
BRANCH  15  18
ATOM     18  C   UNL A   1      31.617  27.431  22.635  1.00  0.00     0.174 C 
BRANCH  18  19
ATOM     19  C   UNL A   1      30.316  28.175  22.602  1.00  0.00     0.082 A 
ATOM     20  C   UNL A   1      28.373  30.756  21.284  1.00  0.00     0.173 C 
ATOM     21  N   UNL A   1      28.892  29.634  22.026  1.00  0.00    -0.275 N 
ATOM     22  C   UNL A   1      28.205  28.803  22.860  1.00  0.00     0.108 A 
ATOM     23  N   UNL A   1      30.185  29.305  21.891  1.00  0.00    -0.176 NA
ATOM     24  C   UNL A   1      29.103  27.839  23.253  1.00  0.00     0.047 A 
ENDBRANCH  18  19
ENDBRANCH  15  18
ENDBRANCH   8  14
ENDBRANCH   5   7
ENDBRANCH   4   5
ENDBRANCH   3   4
ENDBRANCH   2   3
ENDBRANCH   1   2
BRANCH   1  25
ATOM     25  C   UNL A   1      33.211  30.669  26.850  1.00  0.00     0.202 C 
BRANCH  25  26
ATOM     26  C   UNL A   1      33.687  31.692  27.885  1.00  0.00     0.261 C 
BRANCH  26  27
ATOM     27  O   UNL A   1      33.488  33.045  27.476  1.00  0.00    -0.460 OA
BRANCH  27  28
ATOM     28  C   UNL A   1      33.449  33.936  28.495  1.00  0.00     0.338 C 
ATOM     29  O   UNL A   1      32.533  34.691  28.785  1.00  0.00    -0.246 OA
BRANCH  28  30
ATOM     30  C   UNL A   1      34.614  33.708  29.356  1.00  0.00     0.060 A 
ATOM     31  C   UNL A   1      35.861  34.185  28.924  1.00  0.00     0.016 A 
ATOM     32  C   UNL A   1      34.483  33.003  30.551  1.00  0.00     0.016 A 
ATOM     33  C   UNL A   1      37.000  33.918  29.673  1.00  0.00     0.010 A 
ATOM     34  C   UNL A   1      35.626  32.722  31.291  1.00  0.00     0.010 A 
ATOM     35  C   UNL A   1      36.888  33.145  30.833  1.00  0.00    -0.014 A 
BRANCH  35  36
ATOM     36  C   UNL A   1      38.097  32.594  31.477  1.00  0.00     0.031 A 
ATOM     37  C   UNL A   1      38.762  31.419  30.822  1.00  0.00     0.074 A 
ATOM     38  C   UNL A   1      38.545  33.097  32.637  1.00  0.00     0.049 A 
ATOM     39  N   UNL A   1      39.706  30.643  31.279  1.00  0.00    -0.248 NA
ATOM     40  C   UNL A   1      38.284  31.060  29.474  1.00  0.00     0.031 C 
ATOM     41  C   UNL A   1      37.977  34.248  33.337  1.00  0.00     0.029 A 
ATOM     42  N   UNL A   1      39.556  32.665  33.457  1.00  0.00    -0.354 N 
ATOM     43  C   UNL A   1      39.912  29.685  30.293  1.00  0.00     0.074 A 
ATOM     44  C   UNL A   1      38.987  29.965  29.220  1.00  0.00     0.031 C 
ATOM     45  C   UNL A   1      38.612  34.397  34.514  1.00  0.00     0.029 A 
ATOM     46  C   UNL A   1      39.597  33.329  34.660  1.00  0.00     0.049 A 
ATOM     47  H   UNL A   1      40.188  31.952  33.208  1.00  0.00     0.167 HD
ATOM     48  C   UNL A   1      40.805  28.669  30.284  1.00  0.00     0.034 A 
ATOM     49  C   UNL A   1      40.315  33.063  35.768  1.00  0.00     0.034 A 
ATOM     50  C   UNL A   1      41.721  28.411  31.359  1.00  0.00     0.049 A 
ATOM     51  C   UNL A   1      41.272  31.898  35.752  1.00  0.00     0.074 A 
ATOM     52  C   UNL A   1      42.680  27.420  31.453  1.00  0.00     0.029 A 
ATOM     53  N   UNL A   1      41.786  29.149  32.531  1.00  0.00    -0.354 N 
ATOM     54  N   UNL A   1      41.514  31.042  34.787  1.00  0.00    -0.248 NA
ATOM     55  C   UNL A   1      42.076  31.677  36.961  1.00  0.00     0.031 C 
ATOM     56  C   UNL A   1      43.310  27.543  32.694  1.00  0.00     0.029 A 
ATOM     57  C   UNL A   1      42.772  28.638  33.354  1.00  0.00     0.049 A 
ATOM     58  H   UNL A   1      41.216  29.922  32.745  1.00  0.00     0.167 HD
ATOM     59  C   UNL A   1      42.531  30.217  35.253  1.00  0.00     0.074 A 
ATOM     60  C   UNL A   1      42.865  30.681  36.585  1.00  0.00     0.031 C 
ATOM     61  C   UNL A   1      43.132  29.167  34.644  1.00  0.00     0.034 A 
BRANCH  48  62
ATOM     62  C   UNL A   1      40.848  27.783  29.069  1.00  0.00     0.023 A 
ATOM     63  C   UNL A   1      39.876  26.777  28.905  1.00  0.00     0.012 A 
ATOM     64  C   UNL A   1      41.811  27.985  28.061  1.00  0.00     0.148 A 
ATOM     65  C   UNL A   1      39.877  25.965  27.773  1.00  0.00     0.002 A 
ATOM     66  C   UNL A   1      41.778  27.204  26.913  1.00  0.00     0.091 A 
ATOM     67  F   UNL A   1      42.741  28.933  28.246  1.00  0.00    -0.205 F 
ATOM     68  C   UNL A   1      40.819  26.186  26.772  1.00  0.00     0.022 A 
BRANCH  66  69
ATOM     69  S   UNL A   1      42.897  27.457  25.532  1.00  0.00     0.127 S 
ATOM     70  O   UNL A   1      44.118  27.881  26.216  1.00  0.00    -0.237 OA
ATOM     71  O   UNL A   1      42.961  26.120  24.942  1.00  0.00    -0.237 OA
ATOM     72  O   UNL A   1      42.277  28.468  24.689  1.00  0.00    -0.744 OA
ENDBRANCH  66  69
ENDBRANCH  48  62
BRANCH  49  73
ATOM     73  C   UNL A   1      40.157  33.905  36.988  1.00  0.00     0.023 A 
ATOM     74  C   UNL A   1      40.784  35.165  37.052  1.00  0.00     0.012 A 
ATOM     75  C   UNL A   1      39.400  33.459  38.087  1.00  0.00     0.148 A 
ATOM     76  C   UNL A   1      40.697  35.943  38.207  1.00  0.00     0.002 A 
ATOM     77  C   UNL A   1      39.270  34.264  39.212  1.00  0.00     0.091 A 
ATOM     78  F   UNL A   1      38.821  32.252  38.013  1.00  0.00    -0.205 F 
ATOM     79  C   UNL A   1      39.935  35.497  39.283  1.00  0.00     0.022 A 
BRANCH  77  80
ATOM     80  S   UNL A   1      38.206  33.825  40.591  1.00  0.00     0.127 S 
ATOM     81  O   UNL A   1      37.032  33.292  39.905  1.00  0.00    -0.237 OA
ATOM     82  O   UNL A   1      39.015  32.830  41.293  1.00  0.00    -0.237 OA
ATOM     83  O   UNL A   1      37.998  35.061  41.335  1.00  0.00    -0.744 OA
ENDBRANCH  77  80
ENDBRANCH  49  73
BRANCH  61  84
ATOM     84  C   UNL A   1      44.270  28.492  35.361  1.00  0.00     0.023 A 
ATOM     85  C   UNL A   1      45.600  28.882  35.112  1.00  0.00     0.012 A 
ATOM     86  C   UNL A   1      43.999  27.543  36.367  1.00  0.00     0.148 A 
ATOM     87  C   UNL A   1      46.647  28.320  35.840  1.00  0.00     0.002 A 
ATOM     88  C   UNL A   1      45.043  27.027  37.125  1.00  0.00     0.091 A 
ATOM     89  F   UNL A   1      42.727  27.177  36.575  1.00  0.00    -0.205 F 
ATOM     90  C   UNL A   1      46.368  27.405  36.854  1.00  0.00     0.022 A 
BRANCH  88  91
ATOM     91  S   UNL A   1      44.771  25.927  38.518  1.00  0.00     0.127 S 
ATOM     92  O   UNL A   1      45.863  26.307  39.413  1.00  0.00    -0.237 OA
ATOM     93  O   UNL A   1      43.441  26.331  38.972  1.00  0.00    -0.237 OA
ATOM     94  O   UNL A   1      44.848  24.572  37.987  1.00  0.00    -0.744 OA
ENDBRANCH  88  91
ENDBRANCH  61  84
ENDBRANCH  35  36
ENDBRANCH  28  30
ENDBRANCH  27  28
ENDBRANCH  26  27
ENDBRANCH  25  26
ENDBRANCH   1  25
TORSDOF 20
ENDMDL
