MODEL 1
REMARK VINA RESULT:      -7.9      0.000      0.000
REMARK SMILES CC1CC[NH+]([C@H](c2ccc(F)cc2)c2ccc([C@@H](C)C(=O)OCCOCCOC(=O)c3ccc(-c4c5nc(c(-c6cccc(S(=O)(=O)[O-])c6F)c6ccc([nH]6)c(-c6cccc(S(=O)(=O)[O-])c6F)c6nc(c(-c7cccc(S(=O)(=O)[O-])c7F)c7ccc4[nH]7)C=C6)C=C5)cc3)cc2-c2ccc(C(F)(F)F)cc2)CC1
REMARK SMILES IDX 25 1 24 2 23 3 22 4 20 5 21 6 18 7 19 8 17 9 14 10 15 11
REMARK SMILES IDX 95 12 16 13 94 14 6 15 5 16 1 17 2 18 3 19 107 20 4 21
REMARK SMILES IDX 106 22 7 24 8 25 13 26 9 27 12 28 10 29 11 30 96 31 97 32
REMARK SMILES IDX 105 33 98 34 104 35 99 36 100 37 101 38 102 39 103 40 26 41
REMARK SMILES IDX 27 42 28 43 29 44 30 45 31 46 32 47 93 48 33 49 92 50 34 51
REMARK SMILES IDX 35 52 36 53 86 54 37 55 91 56 85 57 87 58 38 59 90 60 84 61
REMARK SMILES IDX 83 62 39 64 71 65 51 66 70 67 52 68 55 69 69 70 88 71 53 72
REMARK SMILES IDX 54 73 68 75 89 76 56 77 40 78 41 79 49 80 42 81 44 82 50 83
REMARK SMILES IDX 43 84 45 85 46 86 47 87 48 88 72 89 73 90 81 91 74 92 76 93
REMARK SMILES IDX 82 94 75 95 77 96 78 97 79 98 80 99 57 100 58 101 66 102
REMARK SMILES IDX 59 103 61 104 67 105 60 106 62 107 63 108 64 109 65 110
REMARK H PARENT 5 23 87 63 55 74
REMARK Flexibility Score: inf
ROOT
ATOM      1  O   UNL A   1      42.968  23.044  27.969  1.00  0.00    -0.374 OA
ENDROOT
BRANCH   1   2
ATOM      2  C   UNL A   1      44.071  23.381  27.125  1.00  0.00     0.202 C 
BRANCH   2   3
ATOM      3  C   UNL A   1      44.999  24.473  27.662  1.00  0.00     0.261 C 
BRANCH   3   4
ATOM      4  O   UNL A   1      44.718  25.736  27.032  1.00  0.00    -0.463 OA
BRANCH   4   5
ATOM      5  C   UNL A   1      45.674  26.696  27.129  1.00  0.00     0.313 C 
ATOM      6  O   UNL A   1      46.583  26.691  27.953  1.00  0.00    -0.252 OA
BRANCH   5   7
ATOM      7  C   UNL A   1      45.497  27.829  26.125  1.00  0.00     0.126 C 
ATOM      8  C   UNL A   1      45.909  27.346  24.737  1.00  0.00     0.025 C 
BRANCH   7   9
ATOM      9  C   UNL A   1      46.120  29.178  26.474  1.00  0.00    -0.033 A 
ATOM     10  C   UNL A   1      47.213  31.793  26.991  1.00  0.00     0.022 A 
ATOM     11  C   UNL A   1      48.024  30.671  26.724  1.00  0.00     0.011 A 
ATOM     12  C   UNL A   1      45.807  31.570  27.044  1.00  0.00    -0.009 A 
ATOM     13  C   UNL A   1      47.495  29.403  26.447  1.00  0.00     0.005 A 
ATOM     14  C   UNL A   1      45.297  30.270  26.793  1.00  0.00     0.013 A 
BRANCH  10  15
ATOM     15  C   UNL A   1      47.816  33.222  27.176  1.00  0.00     0.247 C 
BRANCH  15  16
ATOM     16  N   UNL A   1      48.738  33.771  26.130  1.00  0.00    -0.325 N 
ATOM     17  C   UNL A   1      51.823  36.487  24.543  1.00  0.00     0.008 C 
ATOM     18  C   UNL A   1      50.802  35.713  25.369  1.00  0.00    -0.003 C 
ATOM     19  C   UNL A   1      51.157  34.230  25.481  1.00  0.00     0.065 C 
ATOM     20  C   UNL A   1      49.415  35.787  24.746  1.00  0.00     0.065 C 
ATOM     21  C   UNL A   1      50.157  33.485  26.375  1.00  0.00     0.263 C 
ATOM     22  C   UNL A   1      48.389  35.103  25.645  1.00  0.00     0.263 C 
ATOM     23  H   UNL A   1      48.562  33.217  25.292  1.00  0.00     0.348 HD
ENDBRANCH  15  16
BRANCH  15  24
ATOM     24  C   UNL A   1      48.374  33.470  28.591  1.00  0.00     0.014 A 
ATOM     25  C   UNL A   1      49.296  32.589  29.190  1.00  0.00     0.013 A 
ATOM     26  C   UNL A   1      47.982  34.617  29.308  1.00  0.00     0.013 A 
ATOM     27  C   UNL A   1      49.796  32.838  30.469  1.00  0.00     0.040 A 
ATOM     28  C   UNL A   1      48.467  34.854  30.596  1.00  0.00     0.040 A 
ATOM     29  C   UNL A   1      49.369  33.964  31.163  1.00  0.00     0.123 A 
ATOM     30  F   UNL A   1      49.838  34.195  32.396  1.00  0.00    -0.207 F 
ENDBRANCH  15  24
ENDBRANCH  10  15
BRANCH  12  31
ATOM     31  C   UNL A   1      44.825  32.625  27.366  1.00  0.00    -0.018 A 
ATOM     32  C   UNL A   1      44.460  32.865  28.701  1.00  0.00     0.009 A 
ATOM     33  C   UNL A   1      44.230  33.407  26.365  1.00  0.00     0.009 A 
ATOM     34  C   UNL A   1      43.563  33.886  29.030  1.00  0.00     0.014 A 
ATOM     35  C   UNL A   1      43.342  34.437  26.693  1.00  0.00     0.014 A 
ATOM     36  C   UNL A   1      43.010  34.696  28.031  1.00  0.00     0.056 A 
BRANCH  36  37
ATOM     37  C   UNL A   1      42.064  35.811  28.400  1.00  0.00     0.416 C 
ATOM     38  F   UNL A   1      42.673  36.790  29.127  1.00  0.00    -0.166 F 
ATOM     39  F   UNL A   1      41.529  36.435  27.313  1.00  0.00    -0.166 F 
ATOM     40  F   UNL A   1      41.002  35.400  29.151  1.00  0.00    -0.166 F 
ENDBRANCH  36  37
ENDBRANCH  12  31
ENDBRANCH   7   9
ENDBRANCH   5   7
ENDBRANCH   4   5
ENDBRANCH   3   4
ENDBRANCH   2   3
ENDBRANCH   1   2
BRANCH   1  41
ATOM     41  C   UNL A   1      42.343  21.786  27.725  1.00  0.00     0.202 C 
BRANCH  41  42
ATOM     42  C   UNL A   1      40.843  21.827  27.415  1.00  0.00     0.261 C 
BRANCH  42  43
ATOM     43  O   UNL A   1      40.527  22.737  26.347  1.00  0.00    -0.460 OA
BRANCH  43  44
ATOM     44  C   UNL A   1      39.324  23.352  26.452  1.00  0.00     0.338 C 
ATOM     45  O   UNL A   1      38.234  22.890  26.141  1.00  0.00    -0.246 OA
BRANCH  44  46
ATOM     46  C   UNL A   1      39.475  24.645  27.147  1.00  0.00     0.060 A 
ATOM     47  C   UNL A   1      40.140  25.683  26.488  1.00  0.00     0.016 A 
ATOM     48  C   UNL A   1      39.023  24.824  28.454  1.00  0.00     0.016 A 
ATOM     49  C   UNL A   1      40.398  26.883  27.155  1.00  0.00     0.010 A 
ATOM     50  C   UNL A   1      39.267  26.029  29.117  1.00  0.00     0.010 A 
ATOM     51  C   UNL A   1      39.996  27.050  28.487  1.00  0.00    -0.014 A 
BRANCH  51  52
ATOM     52  C   UNL A   1      40.450  28.227  29.269  1.00  0.00     0.031 A 
ATOM     53  C   UNL A   1      39.455  29.303  29.619  1.00  0.00     0.074 A 
ATOM     54  C   UNL A   1      41.734  28.343  29.656  1.00  0.00     0.049 A 
ATOM     55  N   UNL A   1      39.641  30.413  30.285  1.00  0.00    -0.248 NA
ATOM     56  C   UNL A   1      38.071  29.109  29.152  1.00  0.00     0.031 C 
ATOM     57  C   UNL A   1      42.795  27.382  29.359  1.00  0.00     0.029 A 
ATOM     58  N   UNL A   1      42.366  29.333  30.368  1.00  0.00    -0.354 N 
ATOM     59  C   UNL A   1      38.408  31.056  30.303  1.00  0.00     0.074 A 
ATOM     60  C   UNL A   1      37.487  30.228  29.558  1.00  0.00     0.031 C 
ATOM     61  C   UNL A   1      43.950  27.834  29.877  1.00  0.00     0.029 A 
ATOM     62  C   UNL A   1      43.716  29.124  30.526  1.00  0.00     0.049 A 
ATOM     63  H   UNL A   1      41.897  30.117  30.732  1.00  0.00     0.167 HD
ATOM     64  C   UNL A   1      38.067  32.216  30.911  1.00  0.00     0.034 A 
ATOM     65  C   UNL A   1      44.656  29.887  31.120  1.00  0.00     0.034 A 
ATOM     66  C   UNL A   1      38.972  33.019  31.685  1.00  0.00     0.049 A 
ATOM     67  C   UNL A   1      44.248  31.176  31.787  1.00  0.00     0.074 A 
ATOM     68  C   UNL A   1      38.701  34.181  32.385  1.00  0.00     0.029 A 
ATOM     69  N   UNL A   1      40.319  32.747  31.863  1.00  0.00    -0.354 N 
ATOM     70  N   UNL A   1      43.052  31.703  31.901  1.00  0.00    -0.248 NA
ATOM     71  C   UNL A   1      45.310  31.960  32.436  1.00  0.00     0.031 C 
ATOM     72  C   UNL A   1      39.889  34.623  32.972  1.00  0.00     0.029 A 
ATOM     73  C   UNL A   1      40.894  33.724  32.656  1.00  0.00     0.049 A 
ATOM     74  H   UNL A   1      40.796  31.975  31.481  1.00  0.00     0.167 HD
ATOM     75  C   UNL A   1      43.213  32.855  32.663  1.00  0.00     0.074 A 
ATOM     76  C   UNL A   1      44.619  32.943  32.998  1.00  0.00     0.031 C 
ATOM     77  C   UNL A   1      42.282  33.766  33.038  1.00  0.00     0.034 A 
BRANCH  64  78
ATOM     78  C   UNL A   1      36.634  32.669  30.824  1.00  0.00     0.023 A 
ATOM     79  C   UNL A   1      35.798  32.524  31.949  1.00  0.00     0.012 A 
ATOM     80  C   UNL A   1      36.152  33.341  29.684  1.00  0.00     0.148 A 
ATOM     81  C   UNL A   1      34.499  33.030  31.937  1.00  0.00     0.002 A 
ATOM     82  C   UNL A   1      34.872  33.880  29.695  1.00  0.00     0.091 A 
ATOM     83  F   UNL A   1      36.961  33.453  28.619  1.00  0.00    -0.205 F 
ATOM     84  C   UNL A   1      34.042  33.718  30.817  1.00  0.00     0.022 A 
BRANCH  82  85
ATOM     85  S   UNL A   1      34.215  34.856  28.337  1.00  0.00     0.127 S 
ATOM     86  O   UNL A   1      34.830  34.205  27.181  1.00  0.00    -0.237 OA
ATOM     87  O   UNL A   1      32.775  34.633  28.468  1.00  0.00    -0.237 OA
ATOM     88  O   UNL A   1      34.646  36.226  28.579  1.00  0.00    -0.744 OA
ENDBRANCH  82  85
ENDBRANCH  64  78
BRANCH  65  89
ATOM     89  C   UNL A   1      46.070  29.416  31.168  1.00  0.00     0.023 A 
ATOM     90  C   UNL A   1      46.948  29.757  30.120  1.00  0.00     0.012 A 
ATOM     91  C   UNL A   1      46.558  28.667  32.255  1.00  0.00     0.148 A 
ATOM     92  C   UNL A   1      48.280  29.341  30.144  1.00  0.00     0.002 A 
ATOM     93  C   UNL A   1      47.900  28.304  32.300  1.00  0.00     0.091 A 
ATOM     94  F   UNL A   1      45.703  28.333  33.232  1.00  0.00    -0.205 F 
ATOM     95  C   UNL A   1      48.759  28.625  31.239  1.00  0.00     0.022 A 
BRANCH  93  96
ATOM     96  S   UNL A   1      48.630  27.508  33.735  1.00  0.00     0.127 S 
ATOM     97  O   UNL A   1      49.608  26.615  33.118  1.00  0.00    -0.237 OA
ATOM     98  O   UNL A   1      49.203  28.645  34.456  1.00  0.00    -0.237 OA
ATOM     99  O   UNL A   1      47.525  26.858  34.427  1.00  0.00    -0.744 OA
ENDBRANCH  93  96
ENDBRANCH  65  89
BRANCH  77 100
ATOM    100  C   UNL A   1      42.723  34.934  33.880  1.00  0.00     0.023 A 
ATOM    101  C   UNL A   1      42.893  34.767  35.269  1.00  0.00     0.012 A 
ATOM    102  C   UNL A   1      43.096  36.155  33.280  1.00  0.00     0.148 A 
ATOM    103  C   UNL A   1      43.409  35.801  36.049  1.00  0.00     0.002 A 
ATOM    104  C   UNL A   1      43.654  37.163  34.056  1.00  0.00     0.091 A 
ATOM    105  F   UNL A   1      42.913  36.298  31.959  1.00  0.00    -0.205 F 
ATOM    106  C   UNL A   1      43.803  36.991  35.441  1.00  0.00     0.022 A 
BRANCH 104 107
ATOM    107  S   UNL A   1      44.285  38.689  33.348  1.00  0.00     0.127 S 
ATOM    108  O   UNL A   1      45.082  39.222  34.452  1.00  0.00    -0.237 OA
ATOM    109  O   UNL A   1      45.068  38.203  32.210  1.00  0.00    -0.237 OA
ATOM    110  O   UNL A   1      43.116  39.478  32.984  1.00  0.00    -0.744 OA
ENDBRANCH 104 107
ENDBRANCH  77 100
ENDBRANCH  51  52
ENDBRANCH  44  46
ENDBRANCH  43  44
ENDBRANCH  42  43
ENDBRANCH  41  42
ENDBRANCH   1  41
TORSDOF 23
ENDMDL
MODEL 2
REMARK VINA RESULT:      -7.9      5.289     12.332
REMARK SMILES CC1CC[NH+]([C@H](c2ccc(F)cc2)c2ccc([C@@H](C)C(=O)OCCOCCOC(=O)c3ccc(-c4c5nc(c(-c6cccc(S(=O)(=O)[O-])c6F)c6ccc([nH]6)c(-c6cccc(S(=O)(=O)[O-])c6F)c6nc(c(-c7cccc(S(=O)(=O)[O-])c7F)c7ccc4[nH]7)C=C6)C=C5)cc3)cc2-c2ccc(C(F)(F)F)cc2)CC1
REMARK SMILES IDX 25 1 24 2 23 3 22 4 20 5 21 6 18 7 19 8 17 9 14 10 15 11
REMARK SMILES IDX 95 12 16 13 94 14 6 15 5 16 1 17 2 18 3 19 107 20 4 21
REMARK SMILES IDX 106 22 7 24 8 25 13 26 9 27 12 28 10 29 11 30 96 31 97 32
REMARK SMILES IDX 105 33 98 34 104 35 99 36 100 37 101 38 102 39 103 40 26 41
REMARK SMILES IDX 27 42 28 43 29 44 30 45 31 46 32 47 93 48 33 49 92 50 34 51
REMARK SMILES IDX 35 52 36 53 86 54 37 55 91 56 85 57 87 58 38 59 90 60 84 61
REMARK SMILES IDX 83 62 39 64 71 65 51 66 70 67 52 68 55 69 69 70 88 71 53 72
REMARK SMILES IDX 54 73 68 75 89 76 56 77 40 78 41 79 49 80 42 81 44 82 50 83
REMARK SMILES IDX 43 84 45 85 46 86 47 87 48 88 72 89 73 90 81 91 74 92 76 93
REMARK SMILES IDX 82 94 75 95 77 96 78 97 79 98 80 99 57 100 58 101 66 102
REMARK SMILES IDX 59 103 61 104 67 105 60 106 62 107 63 108 64 109 65 110
REMARK H PARENT 5 23 87 63 55 74
REMARK Flexibility Score: inf
ROOT
ATOM      1  O   UNL A   1      44.116  23.316  25.597  1.00  0.00    -0.374 OA
ENDROOT
BRANCH   1   2
ATOM      2  C   UNL A   1      43.228  22.696  26.530  1.00  0.00     0.202 C 
BRANCH   2   3
ATOM      3  C   UNL A   1      42.671  21.337  26.101  1.00  0.00     0.261 C 
BRANCH   3   4
ATOM      4  O   UNL A   1      41.306  21.461  25.662  1.00  0.00    -0.463 OA
BRANCH   4   5
ATOM      5  C   UNL A   1      40.403  21.888  26.581  1.00  0.00     0.313 C 
ATOM      6  O   UNL A   1      40.240  21.378  27.685  1.00  0.00    -0.252 OA
BRANCH   5   7
ATOM      7  C   UNL A   1      39.560  23.064  26.099  1.00  0.00     0.126 C 
ATOM      8  C   UNL A   1      39.556  24.156  27.166  1.00  0.00     0.025 C 
BRANCH   7   9
ATOM      9  C   UNL A   1      38.156  22.755  25.585  1.00  0.00    -0.033 A 
ATOM     10  C   UNL A   1      35.442  22.232  24.771  1.00  0.00     0.022 A 
ATOM     11  C   UNL A   1      36.413  21.214  24.875  1.00  0.00     0.011 A 
ATOM     12  C   UNL A   1      35.876  23.562  25.042  1.00  0.00    -0.009 A 
ATOM     13  C   UNL A   1      37.727  21.461  25.296  1.00  0.00     0.005 A 
ATOM     14  C   UNL A   1      37.221  23.791  25.434  1.00  0.00     0.013 A 
BRANCH  10  15
ATOM     15  C   UNL A   1      33.953  21.919  24.420  1.00  0.00     0.247 C 
BRANCH  15  16
ATOM     16  N   UNL A   1      32.860  22.574  25.207  1.00  0.00    -0.325 N 
ATOM     17  C   UNL A   1      28.985  22.745  27.297  1.00  0.00     0.008 C 
ATOM     18  C   UNL A   1      30.246  22.374  26.524  1.00  0.00    -0.003 C 
ATOM     19  C   UNL A   1      31.509  22.551  27.365  1.00  0.00     0.065 C 
ATOM     20  C   UNL A   1      30.414  23.247  25.288  1.00  0.00     0.065 C 
ATOM     21  C   UNL A   1      32.758  22.104  26.594  1.00  0.00     0.263 C 
ATOM     22  C   UNL A   1      31.617  22.785  24.470  1.00  0.00     0.263 C 
ATOM     23  H   UNL A   1      33.160  23.540  25.343  1.00  0.00     0.348 HD
ENDBRANCH  15  16
BRANCH  15  24
ATOM     24  C   UNL A   1      33.674  20.415  24.230  1.00  0.00     0.014 A 
ATOM     25  C   UNL A   1      34.473  19.429  24.843  1.00  0.00     0.013 A 
ATOM     26  C   UNL A   1      32.580  19.998  23.448  1.00  0.00     0.013 A 
ATOM     27  C   UNL A   1      34.196  18.073  24.666  1.00  0.00     0.040 A 
ATOM     28  C   UNL A   1      32.317  18.640  23.254  1.00  0.00     0.040 A 
ATOM     29  C   UNL A   1      33.126  17.692  23.866  1.00  0.00     0.123 A 
ATOM     30  F   UNL A   1      32.870  16.390  23.684  1.00  0.00    -0.207 F 
ENDBRANCH  15  24
ENDBRANCH  10  15
BRANCH  12  31
ATOM     31  C   UNL A   1      35.002  24.746  24.925  1.00  0.00    -0.018 A 
ATOM     32  C   UNL A   1      34.586  25.193  23.659  1.00  0.00     0.009 A 
ATOM     33  C   UNL A   1      34.565  25.454  26.054  1.00  0.00     0.009 A 
ATOM     34  C   UNL A   1      33.725  26.286  23.529  1.00  0.00     0.014 A 
ATOM     35  C   UNL A   1      33.694  26.541  25.927  1.00  0.00     0.014 A 
ATOM     36  C   UNL A   1      33.254  26.960  24.663  1.00  0.00     0.056 A 
BRANCH  36  37
ATOM     37  C   UNL A   1      32.304  28.122  24.511  1.00  0.00     0.416 C 
ATOM     38  F   UNL A   1      32.702  29.215  25.220  1.00  0.00    -0.166 F 
ATOM     39  F   UNL A   1      32.182  28.541  23.220  1.00  0.00    -0.166 F 
ATOM     40  F   UNL A   1      31.036  27.849  24.932  1.00  0.00    -0.166 F 
ENDBRANCH  36  37
ENDBRANCH  12  31
ENDBRANCH   7   9
ENDBRANCH   5   7
ENDBRANCH   4   5
ENDBRANCH   3   4
ENDBRANCH   2   3
ENDBRANCH   1   2
BRANCH   1  41
ATOM     41  C   UNL A   1      45.246  22.547  25.189  1.00  0.00     0.202 C 
BRANCH  41  42
ATOM     42  C   UNL A   1      46.370  23.319  24.490  1.00  0.00     0.261 C 
BRANCH  42  43
ATOM     43  O   UNL A   1      47.034  24.241  25.371  1.00  0.00    -0.460 OA
BRANCH  43  44
ATOM     44  C   UNL A   1      47.084  25.522  24.932  1.00  0.00     0.338 C 
ATOM     45  O   UNL A   1      47.465  25.908  23.835  1.00  0.00    -0.246 OA
BRANCH  44  46
ATOM     46  C   UNL A   1      46.464  26.423  25.925  1.00  0.00     0.060 A 
ATOM     47  C   UNL A   1      47.294  27.094  26.827  1.00  0.00     0.016 A 
ATOM     48  C   UNL A   1      45.080  26.564  26.012  1.00  0.00     0.016 A 
ATOM     49  C   UNL A   1      46.737  27.867  27.848  1.00  0.00     0.010 A 
ATOM     50  C   UNL A   1      44.521  27.349  27.023  1.00  0.00     0.010 A 
ATOM     51  C   UNL A   1      45.345  27.969  27.975  1.00  0.00    -0.014 A 
BRANCH  51  52
ATOM     52  C   UNL A   1      44.743  28.605  29.174  1.00  0.00     0.031 A 
ATOM     53  C   UNL A   1      44.565  27.787  30.427  1.00  0.00     0.074 A 
ATOM     54  C   UNL A   1      44.351  29.892  29.147  1.00  0.00     0.049 A 
ATOM     55  N   UNL A   1      44.058  28.142  31.579  1.00  0.00    -0.248 NA
ATOM     56  C   UNL A   1      45.010  26.383  30.376  1.00  0.00     0.031 C 
ATOM     57  C   UNL A   1      44.448  30.779  27.989  1.00  0.00     0.029 A 
ATOM     58  N   UNL A   1      43.774  30.670  30.120  1.00  0.00    -0.354 N 
ATOM     59  C   UNL A   1      44.105  27.008  32.380  1.00  0.00     0.074 A 
ATOM     60  C   UNL A   1      44.665  25.944  31.578  1.00  0.00     0.031 C 
ATOM     61  C   UNL A   1      43.938  31.980  28.316  1.00  0.00     0.029 A 
ATOM     62  C   UNL A   1      43.462  31.941  29.698  1.00  0.00     0.049 A 
ATOM     63  H   UNL A   1      43.600  30.349  31.033  1.00  0.00     0.167 HD
ATOM     64  C   UNL A   1      43.743  26.872  33.677  1.00  0.00     0.034 A 
ATOM     65  C   UNL A   1      42.857  32.956  30.349  1.00  0.00     0.034 A 
ATOM     66  C   UNL A   1      43.224  27.939  34.487  1.00  0.00     0.049 A 
ATOM     67  C   UNL A   1      42.462  32.776  31.793  1.00  0.00     0.074 A 
ATOM     68  C   UNL A   1      42.883  27.908  35.828  1.00  0.00     0.029 A 
ATOM     69  N   UNL A   1      42.970  29.224  34.037  1.00  0.00    -0.354 N 
ATOM     70  N   UNL A   1      42.632  31.733  32.570  1.00  0.00    -0.248 NA
ATOM     71  C   UNL A   1      41.822  33.920  32.460  1.00  0.00     0.031 C 
ATOM     72  C   UNL A   1      42.406  29.171  36.185  1.00  0.00     0.029 A 
ATOM     73  C   UNL A   1      42.470  29.994  35.073  1.00  0.00     0.049 A 
ATOM     74  H   UNL A   1      43.122  29.542  33.118  1.00  0.00     0.167 HD
ATOM     75  C   UNL A   1      42.157  32.108  33.823  1.00  0.00     0.074 A 
ATOM     76  C   UNL A   1      41.706  33.479  33.706  1.00  0.00     0.031 C 
ATOM     77  C   UNL A   1      42.086  31.377  34.962  1.00  0.00     0.034 A 
BRANCH  64  78
ATOM     78  C   UNL A   1      43.952  25.534  34.337  1.00  0.00     0.023 A 
ATOM     79  C   UNL A   1      42.893  24.604  34.356  1.00  0.00     0.012 A 
ATOM     80  C   UNL A   1      45.216  25.156  34.826  1.00  0.00     0.148 A 
ATOM     81  C   UNL A   1      43.086  23.321  34.863  1.00  0.00     0.002 A 
ATOM     82  C   UNL A   1      45.413  23.861  35.291  1.00  0.00     0.091 A 
ATOM     83  F   UNL A   1      46.204  26.063  34.813  1.00  0.00    -0.205 F 
ATOM     84  C   UNL A   1      44.347  22.945  35.317  1.00  0.00     0.022 A 
BRANCH  82  85
ATOM     85  S   UNL A   1      47.017  23.250  35.821  1.00  0.00     0.127 S 
ATOM     86  O   UNL A   1      47.825  23.463  34.620  1.00  0.00    -0.237 OA
ATOM     87  O   UNL A   1      47.333  24.143  36.936  1.00  0.00    -0.237 OA
ATOM     88  O   UNL A   1      46.816  21.856  36.192  1.00  0.00    -0.744 OA
ENDBRANCH  82  85
ENDBRANCH  64  78
BRANCH  65  89
ATOM     89  C   UNL A   1      42.647  34.259  29.657  1.00  0.00     0.023 A 
ATOM     90  C   UNL A   1      41.404  34.530  29.052  1.00  0.00     0.012 A 
ATOM     91  C   UNL A   1      43.654  35.243  29.622  1.00  0.00     0.148 A 
ATOM     92  C   UNL A   1      41.175  35.746  28.407  1.00  0.00     0.002 A 
ATOM     93  C   UNL A   1      43.400  36.474  29.029  1.00  0.00     0.091 A 
ATOM     94  F   UNL A   1      44.838  34.960  30.184  1.00  0.00    -0.205 F 
ATOM     95  C   UNL A   1      42.168  36.722  28.406  1.00  0.00     0.022 A 
BRANCH  93  96
ATOM     96  S   UNL A   1      44.569  37.836  29.106  1.00  0.00     0.127 S 
ATOM     97  O   UNL A   1      43.715  38.982  28.803  1.00  0.00    -0.237 OA
ATOM     98  O   UNL A   1      45.031  37.761  30.493  1.00  0.00    -0.237 OA
ATOM     99  O   UNL A   1      45.595  37.529  28.118  1.00  0.00    -0.744 OA
ENDBRANCH  93  96
ENDBRANCH  65  89
BRANCH  77 100
ATOM    100  C   UNL A   1      41.530  32.033  36.198  1.00  0.00     0.023 A 
ATOM    101  C   UNL A   1      42.368  32.831  37.000  1.00  0.00     0.012 A 
ATOM    102  C   UNL A   1      40.152  31.965  36.491  1.00  0.00     0.148 A 
ATOM    103  C   UNL A   1      41.848  33.539  38.084  1.00  0.00     0.002 A 
ATOM    104  C   UNL A   1      39.633  32.709  37.543  1.00  0.00     0.091 A 
ATOM    105  F   UNL A   1      39.374  31.187  35.724  1.00  0.00    -0.205 F 
ATOM    106  C   UNL A   1      40.481  33.489  38.345  1.00  0.00     0.022 A 
BRANCH 104 107
ATOM    107  S   UNL A   1      37.873  32.791  37.892  1.00  0.00     0.127 S 
ATOM    108  O   UNL A   1      37.522  31.374  37.985  1.00  0.00    -0.237 OA
ATOM    109  O   UNL A   1      37.841  33.511  39.166  1.00  0.00    -0.237 OA
ATOM    110  O   UNL A   1      37.273  33.510  36.776  1.00  0.00    -0.744 OA
ENDBRANCH 104 107
ENDBRANCH  77 100
ENDBRANCH  51  52
ENDBRANCH  44  46
ENDBRANCH  43  44
ENDBRANCH  42  43
ENDBRANCH  41  42
ENDBRANCH   1  41
TORSDOF 23
ENDMDL
MODEL 3
REMARK VINA RESULT:      -7.8      5.590     13.337
REMARK SMILES CC1CC[NH+]([C@H](c2ccc(F)cc2)c2ccc([C@@H](C)C(=O)OCCOCCOC(=O)c3ccc(-c4c5nc(c(-c6cccc(S(=O)(=O)[O-])c6F)c6ccc([nH]6)c(-c6cccc(S(=O)(=O)[O-])c6F)c6nc(c(-c7cccc(S(=O)(=O)[O-])c7F)c7ccc4[nH]7)C=C6)C=C5)cc3)cc2-c2ccc(C(F)(F)F)cc2)CC1
REMARK SMILES IDX 25 1 24 2 23 3 22 4 20 5 21 6 18 7 19 8 17 9 14 10 15 11
REMARK SMILES IDX 95 12 16 13 94 14 6 15 5 16 1 17 2 18 3 19 107 20 4 21
REMARK SMILES IDX 106 22 7 24 8 25 13 26 9 27 12 28 10 29 11 30 96 31 97 32
REMARK SMILES IDX 105 33 98 34 104 35 99 36 100 37 101 38 102 39 103 40 26 41
REMARK SMILES IDX 27 42 28 43 29 44 30 45 31 46 32 47 93 48 33 49 92 50 34 51
REMARK SMILES IDX 35 52 36 53 86 54 37 55 91 56 85 57 87 58 38 59 90 60 84 61
REMARK SMILES IDX 83 62 39 64 71 65 51 66 70 67 52 68 55 69 69 70 88 71 53 72
REMARK SMILES IDX 54 73 68 75 89 76 56 77 40 78 41 79 49 80 42 81 44 82 50 83
REMARK SMILES IDX 43 84 45 85 46 86 47 87 48 88 72 89 73 90 81 91 74 92 76 93
REMARK SMILES IDX 82 94 75 95 77 96 78 97 79 98 80 99 57 100 58 101 66 102
REMARK SMILES IDX 59 103 61 104 67 105 60 106 62 107 63 108 64 109 65 110
REMARK H PARENT 5 23 87 63 55 74
REMARK Flexibility Score: inf
ROOT
ATOM      1  O   UNL A   1      44.017  22.759  27.446  1.00  0.00    -0.374 OA
ENDROOT
BRANCH   1   2
ATOM      2  C   UNL A   1      43.647  22.074  26.247  1.00  0.00     0.202 C 
BRANCH   2   3
ATOM      3  C   UNL A   1      42.384  22.596  25.556  1.00  0.00     0.261 C 
BRANCH   3   4
ATOM      4  O   UNL A   1      41.245  21.785  25.897  1.00  0.00    -0.463 OA
BRANCH   4   5
ATOM      5  C   UNL A   1      40.476  22.212  26.932  1.00  0.00     0.313 C 
ATOM      6  O   UNL A   1      40.526  21.756  28.070  1.00  0.00    -0.252 OA
BRANCH   5   7
ATOM      7  C   UNL A   1      39.495  23.311  26.542  1.00  0.00     0.126 C 
ATOM      8  C   UNL A   1      39.351  24.297  27.699  1.00  0.00     0.025 C 
BRANCH   7   9
ATOM      9  C   UNL A   1      38.142  22.876  25.984  1.00  0.00    -0.033 A 
ATOM     10  C   UNL A   1      35.523  22.067  25.096  1.00  0.00     0.022 A 
ATOM     11  C   UNL A   1      36.659  21.242  24.961  1.00  0.00     0.011 A 
ATOM     12  C   UNL A   1      35.733  23.360  25.656  1.00  0.00    -0.009 A 
ATOM     13  C   UNL A   1      37.929  21.622  25.415  1.00  0.00     0.005 A 
ATOM     14  C   UNL A   1      37.035  23.735  26.077  1.00  0.00     0.013 A 
BRANCH  10  15
ATOM     15  C   UNL A   1      34.094  21.577  24.697  1.00  0.00     0.247 C 
BRANCH  15  16
ATOM     16  N   UNL A   1      33.907  20.168  24.224  1.00  0.00    -0.325 N 
ATOM     17  C   UNL A   1      32.923  15.897  24.664  1.00  0.00     0.008 C 
ATOM     18  C   UNL A   1      33.187  17.389  24.828  1.00  0.00    -0.003 C 
ATOM     19  C   UNL A   1      32.272  18.236  23.945  1.00  0.00     0.065 C 
ATOM     20  C   UNL A   1      34.618  17.743  24.446  1.00  0.00     0.065 C 
ATOM     21  C   UNL A   1      32.505  19.735  24.179  1.00  0.00     0.263 C 
ATOM     22  C   UNL A   1      34.894  19.217  24.725  1.00  0.00     0.263 C 
ATOM     23  H   UNL A   1      34.146  20.178  23.232  1.00  0.00     0.348 HD
ENDBRANCH  15  16
BRANCH  15  24
ATOM     24  C   UNL A   1      33.340  22.571  23.792  1.00  0.00     0.014 A 
ATOM     25  C   UNL A   1      33.927  23.107  22.629  1.00  0.00     0.013 A 
ATOM     26  C   UNL A   1      32.019  22.943  24.107  1.00  0.00     0.013 A 
ATOM     27  C   UNL A   1      33.221  23.998  21.818  1.00  0.00     0.040 A 
ATOM     28  C   UNL A   1      31.323  23.851  23.307  1.00  0.00     0.040 A 
ATOM     29  C   UNL A   1      31.930  24.368  22.171  1.00  0.00     0.123 A 
ATOM     30  F   UNL A   1      31.259  25.234  21.400  1.00  0.00    -0.207 F 
ENDBRANCH  15  24
ENDBRANCH  10  15
BRANCH  12  31
ATOM     31  C   UNL A   1      34.662  24.365  25.815  1.00  0.00    -0.018 A 
ATOM     32  C   UNL A   1      34.673  25.536  25.038  1.00  0.00     0.009 A 
ATOM     33  C   UNL A   1      33.618  24.188  26.733  1.00  0.00     0.009 A 
ATOM     34  C   UNL A   1      33.646  26.479  25.144  1.00  0.00     0.014 A 
ATOM     35  C   UNL A   1      32.583  25.125  26.832  1.00  0.00     0.014 A 
ATOM     36  C   UNL A   1      32.580  26.274  26.028  1.00  0.00     0.056 A 
BRANCH  36  37
ATOM     37  C   UNL A   1      31.465  27.286  26.114  1.00  0.00     0.416 C 
ATOM     38  F   UNL A   1      30.332  26.866  25.484  1.00  0.00    -0.166 F 
ATOM     39  F   UNL A   1      31.097  27.561  27.397  1.00  0.00    -0.166 F 
ATOM     40  F   UNL A   1      31.776  28.489  25.553  1.00  0.00    -0.166 F 
ENDBRANCH  36  37
ENDBRANCH  12  31
ENDBRANCH   7   9
ENDBRANCH   5   7
ENDBRANCH   4   5
ENDBRANCH   3   4
ENDBRANCH   2   3
ENDBRANCH   1   2
BRANCH   1  41
ATOM     41  C   UNL A   1      45.274  23.433  27.429  1.00  0.00     0.202 C 
BRANCH  41  42
ATOM     42  C   UNL A   1      45.338  24.758  28.196  1.00  0.00     0.261 C 
BRANCH  42  43
ATOM     43  O   UNL A   1      45.914  25.819  27.414  1.00  0.00    -0.460 OA
BRANCH  43  44
ATOM     44  C   UNL A   1      47.082  26.315  27.888  1.00  0.00     0.338 C 
ATOM     45  O   UNL A   1      48.051  25.672  28.271  1.00  0.00    -0.246 OA
BRANCH  44  46
ATOM     46  C   UNL A   1      47.104  27.784  27.749  1.00  0.00     0.060 A 
ATOM     47  C   UNL A   1      47.675  28.543  28.775  1.00  0.00     0.016 A 
ATOM     48  C   UNL A   1      46.518  28.419  26.655  1.00  0.00     0.016 A 
ATOM     49  C   UNL A   1      47.615  29.937  28.730  1.00  0.00     0.010 A 
ATOM     50  C   UNL A   1      46.470  29.814  26.600  1.00  0.00     0.010 A 
ATOM     51  C   UNL A   1      46.979  30.581  27.659  1.00  0.00    -0.014 A 
BRANCH  51  52
ATOM     52  C   UNL A   1      46.720  32.042  27.706  1.00  0.00     0.031 A 
ATOM     53  C   UNL A   1      47.790  32.992  27.232  1.00  0.00     0.074 A 
ATOM     54  C   UNL A   1      45.552  32.521  28.173  1.00  0.00     0.049 A 
ATOM     55  N   UNL A   1      47.774  34.299  27.193  1.00  0.00    -0.248 NA
ATOM     56  C   UNL A   1      49.045  32.393  26.744  1.00  0.00     0.031 C 
ATOM     57  C   UNL A   1      44.450  31.705  28.681  1.00  0.00     0.029 A 
ATOM     58  N   UNL A   1      45.107  33.812  28.311  1.00  0.00    -0.354 N 
ATOM     59  C   UNL A   1      49.015  34.679  26.696  1.00  0.00     0.074 A 
ATOM     60  C   UNL A   1      49.772  33.468  26.473  1.00  0.00     0.031 C 
ATOM     61  C   UNL A   1      43.458  32.518  29.086  1.00  0.00     0.029 A 
ATOM     62  C   UNL A   1      43.860  33.909  28.883  1.00  0.00     0.049 A 
ATOM     63  H   UNL A   1      45.631  34.595  28.027  1.00  0.00     0.167 HD
ATOM     64  C   UNL A   1      49.473  35.923  26.422  1.00  0.00     0.034 A 
ATOM     65  C   UNL A   1      43.129  34.994  29.210  1.00  0.00     0.034 A 
ATOM     66  C   UNL A   1      48.707  37.124  26.606  1.00  0.00     0.049 A 
ATOM     67  C   UNL A   1      43.665  36.368  28.896  1.00  0.00     0.074 A 
ATOM     68  C   UNL A   1      49.068  38.425  26.302  1.00  0.00     0.029 A 
ATOM     69  N   UNL A   1      47.430  37.176  27.140  1.00  0.00    -0.354 N 
ATOM     70  N   UNL A   1      44.790  36.700  28.308  1.00  0.00    -0.248 NA
ATOM     71  C   UNL A   1      42.819  37.516  29.258  1.00  0.00     0.031 C 
ATOM     72  C   UNL A   1      48.016  39.266  26.669  1.00  0.00     0.029 A 
ATOM     73  C   UNL A   1      46.991  38.487  27.181  1.00  0.00     0.049 A 
ATOM     74  H   UNL A   1      46.912  36.396  27.446  1.00  0.00     0.167 HD
ATOM     75  C   UNL A   1      44.769  38.086  28.197  1.00  0.00     0.074 A 
ATOM     76  C   UNL A   1      43.513  38.532  28.763  1.00  0.00     0.031 C 
ATOM     77  C   UNL A   1      45.712  38.915  27.686  1.00  0.00     0.034 A 
BRANCH  64  78
ATOM     78  C   UNL A   1      50.851  36.059  25.829  1.00  0.00     0.023 A 
ATOM     79  C   UNL A   1      50.995  36.094  24.428  1.00  0.00     0.012 A 
ATOM     80  C   UNL A   1      51.976  36.271  26.648  1.00  0.00     0.148 A 
ATOM     81  C   UNL A   1      52.242  36.325  23.850  1.00  0.00     0.002 A 
ATOM     82  C   UNL A   1      53.207  36.544  26.066  1.00  0.00     0.091 A 
ATOM     83  F   UNL A   1      51.816  36.217  27.979  1.00  0.00    -0.205 F 
ATOM     84  C   UNL A   1      53.343  36.564  24.667  1.00  0.00     0.022 A 
BRANCH  82  85
ATOM     85  S   UNL A   1      54.671  36.947  27.026  1.00  0.00     0.127 S 
ATOM     86  O   UNL A   1      55.676  37.110  25.976  1.00  0.00    -0.237 OA
ATOM     87  O   UNL A   1      54.272  38.190  27.687  1.00  0.00    -0.237 OA
ATOM     88  O   UNL A   1      54.889  35.820  27.923  1.00  0.00    -0.744 OA
ENDBRANCH  82  85
ENDBRANCH  64  78
BRANCH  65  89
ATOM     89  C   UNL A   1      41.778  34.821  29.816  1.00  0.00     0.023 A 
ATOM     90  C   UNL A   1      40.637  34.879  28.991  1.00  0.00     0.012 A 
ATOM     91  C   UNL A   1      41.617  34.567  31.191  1.00  0.00     0.148 A 
ATOM     92  C   UNL A   1      39.360  34.710  29.528  1.00  0.00     0.002 A 
ATOM     93  C   UNL A   1      40.346  34.342  31.710  1.00  0.00     0.091 A 
ATOM     94  F   UNL A   1      42.711  34.537  31.965  1.00  0.00    -0.205 F 
ATOM     95  C   UNL A   1      39.216  34.429  30.885  1.00  0.00     0.022 A 
BRANCH  93  96
ATOM     96  S   UNL A   1      40.082  33.834  33.413  1.00  0.00     0.127 S 
ATOM     97  O   UNL A   1      38.647  33.563  33.427  1.00  0.00    -0.237 OA
ATOM     98  O   UNL A   1      40.935  32.650  33.514  1.00  0.00    -0.237 OA
ATOM     99  O   UNL A   1      40.524  34.958  34.230  1.00  0.00    -0.744 OA
ENDBRANCH  93  96
ENDBRANCH  65  89
BRANCH  77 100
ATOM    100  C   UNL A   1      45.433  40.395  27.676  1.00  0.00     0.023 A 
ATOM    101  C   UNL A   1      45.684  41.158  28.833  1.00  0.00     0.012 A 
ATOM    102  C   UNL A   1      45.051  41.047  26.486  1.00  0.00     0.148 A 
ATOM    103  C   UNL A   1      45.543  42.545  28.811  1.00  0.00     0.002 A 
ATOM    104  C   UNL A   1      44.957  42.433  26.458  1.00  0.00     0.091 A 
ATOM    105  F   UNL A   1      44.803  40.300  25.401  1.00  0.00    -0.205 F 
ATOM    106  C   UNL A   1      45.194  43.182  27.622  1.00  0.00     0.022 A 
BRANCH 104 107
ATOM    107  S   UNL A   1      44.616  43.348  24.950  1.00  0.00     0.127 S 
ATOM    108  O   UNL A   1      44.743  44.731  25.406  1.00  0.00    -0.237 OA
ATOM    109  O   UNL A   1      45.691  42.898  24.064  1.00  0.00    -0.237 OA
ATOM    110  O   UNL A   1      43.279  42.949  24.531  1.00  0.00    -0.744 OA
ENDBRANCH 104 107
ENDBRANCH  77 100
ENDBRANCH  51  52
ENDBRANCH  44  46
ENDBRANCH  43  44
ENDBRANCH  42  43
ENDBRANCH  41  42
ENDBRANCH   1  41
TORSDOF 23
ENDMDL
