MODEL 1
REMARK VINA RESULT:     -12.4      0.000      0.000
REMARK SMILES O=C(OCCOCCOC(=O)c1cc(-c2ccccc2)nc(Nc2nc3ccccc3s2)n1)c1ccc(-c2c3nc(c(-c4cccc(S(=O)(=O)[O-])c4F)c4ccc([nH]4)c(-c4cccc(S(=O)(=O)[O-])c4F)c4nc(c(-c5cccc(S(=O)(=O)[O-])c5F)c5ccc2[nH]5)C=C4)C=C3)cc1
REMARK SMILES IDX 5 1 4 2 3 3 2 4 1 5 34 6 35 7 96 8 36 9 95 10 37 11 38 12
REMARK SMILES IDX 39 13 89 14 40 15 94 16 88 17 90 18 41 19 93 20 87 21 86 22
REMARK SMILES IDX 42 24 74 25 54 26 73 27 55 28 58 29 72 30 91 31 56 32 57 33
REMARK SMILES IDX 71 35 92 36 59 37 43 38 44 39 52 40 45 41 47 42 53 43 46 44
REMARK SMILES IDX 48 45 49 46 50 47 51 48 75 49 76 50 84 51 77 52 79 53 85 54
REMARK SMILES IDX 78 55 80 56 81 57 82 58 83 59 60 60 61 61 69 62 62 63 64 64
REMARK SMILES IDX 70 65 63 66 65 67 66 68 67 69 68 70 6 71 7 72 8 73 9 74
REMARK SMILES IDX 10 75 11 76 12 77 13 78 33 79 14 80 22 81 21 82 15 83 16 84
REMARK SMILES IDX 20 85 17 86 19 87 18 88 23 89 24 91 25 92 32 93 26 94 31 95
REMARK SMILES IDX 27 96 30 97 28 98 29 99
REMARK H PARENT 90 23 58 34 23 90
REMARK Flexibility Score: inf
ROOT
ATOM      1  C   UNL A   1      42.745  20.101  26.076  1.00  0.00     0.202 C 
ENDROOT
BRANCH   1   2
ATOM      2  C   UNL A   1      43.776  21.075  25.510  1.00  0.00     0.261 C 
BRANCH   2   3
ATOM      3  O   UNL A   1      43.133  22.262  25.025  1.00  0.00    -0.460 OA
BRANCH   3   4
ATOM      4  C   UNL A   1      43.555  23.544  25.151  1.00  0.00     0.338 C 
ATOM      5  O   UNL A   1      44.396  23.942  24.343  1.00  0.00    -0.246 OA
BRANCH   4   6
ATOM      6  C   UNL A   1      43.053  24.526  26.175  1.00  0.00     0.060 A 
ATOM      7  C   UNL A   1      43.342  25.892  26.232  1.00  0.00     0.016 A 
ATOM      8  C   UNL A   1      42.144  24.023  27.126  1.00  0.00     0.016 A 
ATOM      9  C   UNL A   1      42.781  26.727  27.193  1.00  0.00     0.010 A 
ATOM     10  C   UNL A   1      41.560  24.856  28.088  1.00  0.00     0.010 A 
ATOM     11  C   UNL A   1      41.893  26.212  28.130  1.00  0.00    -0.014 A 
BRANCH  11  12
ATOM     12  C   UNL A   1      41.425  27.104  29.203  1.00  0.00     0.031 A 
ATOM     13  C   UNL A   1      42.297  27.285  30.406  1.00  0.00     0.074 A 
ATOM     14  C   UNL A   1      40.290  27.808  29.040  1.00  0.00     0.049 A 
ATOM     15  N   UNL A   1      42.121  28.055  31.443  1.00  0.00    -0.248 NA
ATOM     16  C   UNL A   1      43.548  26.505  30.434  1.00  0.00     0.031 C 
ATOM     17  C   UNL A   1      39.420  27.743  27.864  1.00  0.00     0.029 A 
ATOM     18  N   UNL A   1      39.684  28.725  29.856  1.00  0.00    -0.354 N 
ATOM     19  C   UNL A   1      43.214  27.824  32.269  1.00  0.00     0.074 A 
ATOM     20  C   UNL A   1      44.056  26.853  31.607  1.00  0.00     0.031 C 
ATOM     21  C   UNL A   1      38.391  28.589  28.034  1.00  0.00     0.029 A 
ATOM     22  C   UNL A   1      38.512  29.228  29.340  1.00  0.00     0.049 A 
ATOM     23  H   UNL A   1      40.051  28.998  30.727  1.00  0.00     0.167 HD
ATOM     24  C   UNL A   1      43.485  28.374  33.473  1.00  0.00     0.034 A 
ATOM     25  C   UNL A   1      37.639  30.103  29.877  1.00  0.00     0.034 A 
ATOM     26  C   UNL A   1      42.637  29.342  34.109  1.00  0.00     0.049 A 
ATOM     27  C   UNL A   1      37.958  30.683  31.230  1.00  0.00     0.074 A 
ATOM     28  C   UNL A   1      42.791  29.948  35.341  1.00  0.00     0.029 A 
ATOM     29  N   UNL A   1      41.463  29.838  33.558  1.00  0.00    -0.354 N 
ATOM     30  N   UNL A   1      39.021  30.498  31.978  1.00  0.00    -0.248 NA
ATOM     31  C   UNL A   1      36.973  31.609  31.805  1.00  0.00     0.031 C 
ATOM     32  C   UNL A   1      41.699  30.800  35.542  1.00  0.00     0.029 A 
ATOM     33  C   UNL A   1      40.878  30.742  34.425  1.00  0.00     0.049 A 
ATOM     34  H   UNL A   1      41.099  29.582  32.679  1.00  0.00     0.167 HD
ATOM     35  C   UNL A   1      38.851  31.308  33.094  1.00  0.00     0.074 A 
ATOM     36  C   UNL A   1      37.590  32.001  32.912  1.00  0.00     0.031 C 
ATOM     37  C   UNL A   1      39.651  31.456  34.179  1.00  0.00     0.034 A 
BRANCH  24  38
ATOM     38  C   UNL A   1      44.736  27.915  34.168  1.00  0.00     0.023 A 
ATOM     39  C   UNL A   1      45.945  28.613  33.976  1.00  0.00     0.012 A 
ATOM     40  C   UNL A   1      44.716  26.776  34.995  1.00  0.00     0.148 A 
ATOM     41  C   UNL A   1      47.125  28.163  34.569  1.00  0.00     0.002 A 
ATOM     42  C   UNL A   1      45.889  26.354  35.612  1.00  0.00     0.091 A 
ATOM     43  F   UNL A   1      43.563  26.108  35.137  1.00  0.00    -0.205 F 
ATOM     44  C   UNL A   1      47.095  27.039  35.391  1.00  0.00     0.022 A 
BRANCH  42  45
ATOM     45  S   UNL A   1      45.940  24.948  36.727  1.00  0.00     0.127 S 
ATOM     46  O   UNL A   1      47.378  24.703  36.827  1.00  0.00    -0.237 OA
ATOM     47  O   UNL A   1      45.329  25.494  37.939  1.00  0.00    -0.237 OA
ATOM     48  O   UNL A   1      45.167  23.897  36.081  1.00  0.00    -0.744 OA
ENDBRANCH  42  45
ENDBRANCH  24  38
BRANCH  25  49
ATOM     49  C   UNL A   1      36.418  30.511  29.125  1.00  0.00     0.023 A 
ATOM     50  C   UNL A   1      35.591  29.525  28.553  1.00  0.00     0.012 A 
ATOM     51  C   UNL A   1      36.058  31.867  28.986  1.00  0.00     0.148 A 
ATOM     52  C   UNL A   1      34.449  29.881  27.832  1.00  0.00     0.002 A 
ATOM     53  C   UNL A   1      34.890  32.213  28.313  1.00  0.00     0.091 A 
ATOM     54  F   UNL A   1      36.865  32.796  29.515  1.00  0.00    -0.205 F 
ATOM     55  C   UNL A   1      34.093  31.222  27.721  1.00  0.00     0.022 A 
BRANCH  53  56
ATOM     56  S   UNL A   1      34.298  33.907  28.229  1.00  0.00     0.127 S 
ATOM     57  O   UNL A   1      34.491  34.361  29.604  1.00  0.00    -0.237 OA
ATOM     58  O   UNL A   1      35.208  34.503  27.251  1.00  0.00    -0.237 OA
ATOM     59  O   UNL A   1      32.916  33.814  27.778  1.00  0.00    -0.744 OA
ENDBRANCH  53  56
ENDBRANCH  25  49
BRANCH  37  60
ATOM     60  C   UNL A   1      39.207  32.429  35.236  1.00  0.00     0.023 A 
ATOM     61  C   UNL A   1      38.284  32.023  36.219  1.00  0.00     0.012 A 
ATOM     62  C   UNL A   1      39.777  33.716  35.306  1.00  0.00     0.148 A 
ATOM     63  C   UNL A   1      37.914  32.893  37.242  1.00  0.00     0.002 A 
ATOM     64  C   UNL A   1      39.440  34.559  36.357  1.00  0.00     0.091 A 
ATOM     65  F   UNL A   1      40.635  34.091  34.347  1.00  0.00    -0.205 F 
ATOM     66  C   UNL A   1      38.501  34.154  37.320  1.00  0.00     0.022 A 
BRANCH  64  67
ATOM     67  S   UNL A   1      40.233  36.154  36.583  1.00  0.00     0.127 S 
ATOM     68  O   UNL A   1      41.642  35.779  36.674  1.00  0.00    -0.237 OA
ATOM     69  O   UNL A   1      39.868  36.866  35.357  1.00  0.00    -0.237 OA
ATOM     70  O   UNL A   1      39.649  36.716  37.795  1.00  0.00    -0.744 OA
ENDBRANCH  64  67
ENDBRANCH  37  60
ENDBRANCH  11  12
ENDBRANCH   4   6
ENDBRANCH   3   4
ENDBRANCH   2   3
ENDBRANCH   1   2
BRANCH   1  71
ATOM     71  O   UNL A   1      41.459  20.226  25.468  1.00  0.00    -0.374 OA
BRANCH  71  72
ATOM     72  C   UNL A   1      40.349  20.278  26.361  1.00  0.00     0.202 C 
BRANCH  72  73
ATOM     73  C   UNL A   1      39.695  21.659  26.287  1.00  0.00     0.261 C 
BRANCH  73  74
ATOM     74  O   UNL A   1      38.331  21.500  25.854  1.00  0.00    -0.459 OA
BRANCH  74  75
ATOM     75  C   UNL A   1      37.612  22.653  25.781  1.00  0.00     0.357 C 
ATOM     76  O   UNL A   1      38.036  23.789  25.676  1.00  0.00    -0.244 OA
BRANCH  75  77
ATOM     77  C   UNL A   1      36.181  22.263  25.724  1.00  0.00     0.154 A 
ATOM     78  C   UNL A   1      35.833  21.071  25.159  1.00  0.00     0.065 A 
ATOM     79  N   UNL A   1      35.287  23.165  26.171  1.00  0.00    -0.206 NA
ATOM     80  C   UNL A   1      34.483  20.823  25.088  1.00  0.00     0.077 A 
ATOM     81  C   UNL A   1      33.992  22.890  26.008  1.00  0.00     0.230 A 
ATOM     82  N   UNL A   1      33.553  21.721  25.498  1.00  0.00    -0.213 NA
BRANCH  80  83
ATOM     83  C   UNL A   1      34.034  19.531  24.553  1.00  0.00     0.000 A 
ATOM     84  C   UNL A   1      32.831  19.394  23.848  1.00  0.00     0.010 A 
ATOM     85  C   UNL A   1      34.888  18.411  24.630  1.00  0.00     0.010 A 
ATOM     86  C   UNL A   1      32.518  18.192  23.201  1.00  0.00     0.001 A 
ATOM     87  C   UNL A   1      34.579  17.215  23.985  1.00  0.00     0.001 A 
ATOM     88  C   UNL A   1      33.397  17.110  23.261  1.00  0.00     0.000 A 
ENDBRANCH  80  83
BRANCH  81  89
ATOM     89  N   UNL A   1      33.029  23.800  26.433  1.00  0.00    -0.300 N 
ATOM     90  H   UNL A   1      32.456  23.524  27.184  1.00  0.00     0.172 HD
BRANCH  89  91
ATOM     91  C   UNL A   1      32.806  25.028  25.913  1.00  0.00     0.190 A 
ATOM     92  N   UNL A   1      32.292  26.063  26.545  1.00  0.00    -0.220 NA
ATOM     93  S   UNL A   1      33.288  25.368  24.288  1.00  0.00    -0.097 S 
ATOM     94  C   UNL A   1      32.152  27.150  25.694  1.00  0.00     0.084 A 
ATOM     95  C   UNL A   1      32.611  26.949  24.395  1.00  0.00     0.056 A 
ATOM     96  C   UNL A   1      31.595  28.404  26.024  1.00  0.00     0.030 A 
ATOM     97  C   UNL A   1      32.498  27.944  23.406  1.00  0.00     0.021 A 
ATOM     98  C   UNL A   1      31.478  29.403  25.053  1.00  0.00     0.002 A 
ATOM     99  C   UNL A   1      31.917  29.169  23.755  1.00  0.00     0.002 A 
ENDBRANCH  89  91
ENDBRANCH  81  89
ENDBRANCH  75  77
ENDBRANCH  74  75
ENDBRANCH  73  74
ENDBRANCH  72  73
ENDBRANCH  71  72
ENDBRANCH   1  71
TORSDOF 20
ENDMDL
MODEL 2
REMARK VINA RESULT:     -11.7      1.891      7.743
REMARK SMILES O=C(OCCOCCOC(=O)c1cc(-c2ccccc2)nc(Nc2nc3ccccc3s2)n1)c1ccc(-c2c3nc(c(-c4cccc(S(=O)(=O)[O-])c4F)c4ccc([nH]4)c(-c4cccc(S(=O)(=O)[O-])c4F)c4nc(c(-c5cccc(S(=O)(=O)[O-])c5F)c5ccc2[nH]5)C=C4)C=C3)cc1
REMARK SMILES IDX 5 1 4 2 3 3 2 4 1 5 34 6 35 7 96 8 36 9 95 10 37 11 38 12
REMARK SMILES IDX 39 13 89 14 40 15 94 16 88 17 90 18 41 19 93 20 87 21 86 22
REMARK SMILES IDX 42 24 74 25 54 26 73 27 55 28 58 29 72 30 91 31 56 32 57 33
REMARK SMILES IDX 71 35 92 36 59 37 43 38 44 39 52 40 45 41 47 42 53 43 46 44
REMARK SMILES IDX 48 45 49 46 50 47 51 48 75 49 76 50 84 51 77 52 79 53 85 54
REMARK SMILES IDX 78 55 80 56 81 57 82 58 83 59 60 60 61 61 69 62 62 63 64 64
REMARK SMILES IDX 70 65 63 66 65 67 66 68 67 69 68 70 6 71 7 72 8 73 9 74
REMARK SMILES IDX 10 75 11 76 12 77 13 78 33 79 14 80 22 81 21 82 15 83 16 84
REMARK SMILES IDX 20 85 17 86 19 87 18 88 23 89 24 91 25 92 32 93 26 94 31 95
REMARK SMILES IDX 27 96 30 97 28 98 29 99
REMARK H PARENT 90 23 58 34 23 90
REMARK Flexibility Score: inf
ROOT
ATOM      1  C   UNL A   1      41.468  21.360  26.788  1.00  0.00     0.202 C 
ENDROOT
BRANCH   1   2
ATOM      2  C   UNL A   1      42.670  21.547  25.866  1.00  0.00     0.261 C 
BRANCH   2   3
ATOM      3  O   UNL A   1      42.515  22.730  25.070  1.00  0.00    -0.460 OA
BRANCH   3   4
ATOM      4  C   UNL A   1      43.079  23.946  25.273  1.00  0.00     0.338 C 
ATOM      5  O   UNL A   1      43.968  24.291  24.493  1.00  0.00    -0.246 OA
BRANCH   4   6
ATOM      6  C   UNL A   1      42.682  24.919  26.350  1.00  0.00     0.060 A 
ATOM      7  C   UNL A   1      43.135  26.233  26.495  1.00  0.00     0.016 A 
ATOM      8  C   UNL A   1      41.702  24.475  27.259  1.00  0.00     0.016 A 
ATOM      9  C   UNL A   1      42.663  27.071  27.500  1.00  0.00     0.010 A 
ATOM     10  C   UNL A   1      41.207  25.313  28.264  1.00  0.00     0.010 A 
ATOM     11  C   UNL A   1      41.702  26.613  28.393  1.00  0.00    -0.014 A 
BRANCH  11  12
ATOM     12  C   UNL A   1      41.327  27.490  29.515  1.00  0.00     0.031 A 
ATOM     13  C   UNL A   1      40.025  28.225  29.436  1.00  0.00     0.074 A 
ATOM     14  C   UNL A   1      42.098  27.535  30.615  1.00  0.00     0.049 A 
ATOM     15  N   UNL A   1      39.463  29.004  30.318  1.00  0.00    -0.248 NA
ATOM     16  C   UNL A   1      39.239  28.040  28.202  1.00  0.00     0.031 C 
ATOM     17  C   UNL A   1      43.347  26.793  30.800  1.00  0.00     0.029 A 
ATOM     18  N   UNL A   1      41.940  28.221  31.790  1.00  0.00    -0.354 N 
ATOM     19  C   UNL A   1      38.281  29.438  29.733  1.00  0.00     0.074 A 
ATOM     20  C   UNL A   1      38.197  28.825  28.427  1.00  0.00     0.031 C 
ATOM     21  C   UNL A   1      43.840  27.061  32.020  1.00  0.00     0.029 A 
ATOM     22  C   UNL A   1      42.962  28.017  32.687  1.00  0.00     0.049 A 
ATOM     23  H   UNL A   1      41.169  28.804  31.974  1.00  0.00     0.167 HD
ATOM     24  C   UNL A   1      37.351  30.276  30.245  1.00  0.00     0.034 A 
ATOM     25  C   UNL A   1      43.158  28.555  33.907  1.00  0.00     0.034 A 
ATOM     26  C   UNL A   1      37.454  30.868  31.548  1.00  0.00     0.049 A 
ATOM     27  C   UNL A   1      42.116  29.501  34.441  1.00  0.00     0.074 A 
ATOM     28  C   UNL A   1      36.591  31.755  32.164  1.00  0.00     0.029 A 
ATOM     29  N   UNL A   1      38.496  30.635  32.436  1.00  0.00    -0.354 N 
ATOM     30  N   UNL A   1      40.975  29.863  33.902  1.00  0.00    -0.248 NA
ATOM     31  C   UNL A   1      42.372  30.097  35.759  1.00  0.00     0.031 C 
ATOM     32  C   UNL A   1      37.121  32.071  33.420  1.00  0.00     0.029 A 
ATOM     33  C   UNL A   1      38.301  31.363  33.595  1.00  0.00     0.049 A 
ATOM     34  H   UNL A   1      39.261  30.040  32.265  1.00  0.00     0.167 HD
ATOM     35  C   UNL A   1      40.362  30.700  34.826  1.00  0.00     0.074 A 
ATOM     36  C   UNL A   1      41.251  30.774  35.969  1.00  0.00     0.031 C 
ATOM     37  C   UNL A   1      39.182  31.362  34.736  1.00  0.00     0.034 A 
BRANCH  24  38
ATOM     38  C   UNL A   1      36.172  30.602  29.372  1.00  0.00     0.023 A 
ATOM     39  C   UNL A   1      35.525  29.578  28.652  1.00  0.00     0.012 A 
ATOM     40  C   UNL A   1      35.718  31.929  29.252  1.00  0.00     0.148 A 
ATOM     41  C   UNL A   1      34.466  29.875  27.794  1.00  0.00     0.002 A 
ATOM     42  C   UNL A   1      34.638  32.213  28.422  1.00  0.00     0.091 A 
ATOM     43  F   UNL A   1      36.368  32.891  29.920  1.00  0.00    -0.205 F 
ATOM     44  C   UNL A   1      34.019  31.191  27.685  1.00  0.00     0.022 A 
BRANCH  42  45
ATOM     45  S   UNL A   1      33.960  33.867  28.255  1.00  0.00     0.127 S 
ATOM     46  O   UNL A   1      34.926  34.492  27.354  1.00  0.00    -0.237 OA
ATOM     47  O   UNL A   1      32.651  33.603  27.657  1.00  0.00    -0.237 OA
ATOM     48  O   UNL A   1      33.910  34.417  29.602  1.00  0.00    -0.744 OA
ENDBRANCH  42  45
ENDBRANCH  24  38
BRANCH  25  49
ATOM     49  C   UNL A   1      44.356  28.181  34.714  1.00  0.00     0.023 A 
ATOM     50  C   UNL A   1      45.606  28.757  34.412  1.00  0.00     0.012 A 
ATOM     51  C   UNL A   1      44.265  27.274  35.789  1.00  0.00     0.148 A 
ATOM     52  C   UNL A   1      46.745  28.414  35.144  1.00  0.00     0.002 A 
ATOM     53  C   UNL A   1      45.392  26.978  36.548  1.00  0.00     0.091 A 
ATOM     54  F   UNL A   1      43.075  26.716  36.051  1.00  0.00    -0.205 F 
ATOM     55  C   UNL A   1      46.637  27.534  36.217  1.00  0.00     0.022 A 
BRANCH  53  56
ATOM     56  S   UNL A   1      45.315  25.948  38.019  1.00  0.00     0.127 S 
ATOM     57  O   UNL A   1      45.145  24.616  37.444  1.00  0.00    -0.237 OA
ATOM     58  O   UNL A   1      46.620  26.191  38.633  1.00  0.00    -0.237 OA
ATOM     59  O   UNL A   1      44.189  26.456  38.790  1.00  0.00    -0.744 OA
ENDBRANCH  53  56
ENDBRANCH  25  49
BRANCH  37  60
ATOM     60  C   UNL A   1      38.765  32.194  35.917  1.00  0.00     0.023 A 
ATOM     61  C   UNL A   1      39.043  33.574  35.935  1.00  0.00     0.012 A 
ATOM     62  C   UNL A   1      38.018  31.621  36.965  1.00  0.00     0.148 A 
ATOM     63  C   UNL A   1      38.606  34.369  36.992  1.00  0.00     0.002 A 
ATOM     64  C   UNL A   1      37.543  32.429  37.991  1.00  0.00     0.091 A 
ATOM     65  F   UNL A   1      37.786  30.301  36.941  1.00  0.00    -0.205 F 
ATOM     66  C   UNL A   1      37.844  33.800  38.012  1.00  0.00     0.022 A 
BRANCH  64  67
ATOM     67  S   UNL A   1      36.469  31.790  39.280  1.00  0.00     0.127 S 
ATOM     68  O   UNL A   1      35.308  32.670  39.167  1.00  0.00    -0.237 OA
ATOM     69  O   UNL A   1      36.236  30.412  38.843  1.00  0.00    -0.237 OA
ATOM     70  O   UNL A   1      37.229  31.903  40.518  1.00  0.00    -0.744 OA
ENDBRANCH  64  67
ENDBRANCH  37  60
ENDBRANCH  11  12
ENDBRANCH   4   6
ENDBRANCH   3   4
ENDBRANCH   2   3
ENDBRANCH   1   2
BRANCH   1  71
ATOM     71  O   UNL A   1      40.302  20.897  26.105  1.00  0.00    -0.374 OA
BRANCH  71  72
ATOM     72  C   UNL A   1      39.219  21.820  26.021  1.00  0.00     0.202 C 
BRANCH  72  73
ATOM     73  C   UNL A   1      38.085  21.209  25.197  1.00  0.00     0.261 C 
BRANCH  73  74
ATOM     74  O   UNL A   1      37.256  22.272  24.693  1.00  0.00    -0.459 OA
BRANCH  74  75
ATOM     75  C   UNL A   1      36.196  22.600  25.481  1.00  0.00     0.357 C 
ATOM     76  O   UNL A   1      36.165  23.417  26.384  1.00  0.00    -0.244 OA
BRANCH  75  77
ATOM     77  C   UNL A   1      35.024  21.860  24.954  1.00  0.00     0.154 A 
ATOM     78  C   UNL A   1      34.974  20.502  25.083  1.00  0.00     0.065 A 
ATOM     79  N   UNL A   1      34.097  22.579  24.293  1.00  0.00    -0.206 NA
ATOM     80  C   UNL A   1      33.886  19.893  24.506  1.00  0.00     0.077 A 
ATOM     81  C   UNL A   1      33.104  21.917  23.698  1.00  0.00     0.230 A 
ATOM     82  N   UNL A   1      32.950  20.581  23.806  1.00  0.00    -0.213 NA
BRANCH  80  83
ATOM     83  C   UNL A   1      33.730  18.441  24.662  1.00  0.00     0.000 A 
ATOM     84  C   UNL A   1      34.749  17.541  24.321  1.00  0.00     0.010 A 
ATOM     85  C   UNL A   1      32.577  17.928  25.292  1.00  0.00     0.010 A 
ATOM     86  C   UNL A   1      34.637  16.183  24.645  1.00  0.00     0.001 A 
ATOM     87  C   UNL A   1      32.465  16.578  25.616  1.00  0.00     0.001 A 
ATOM     88  C   UNL A   1      33.502  15.706  25.302  1.00  0.00     0.000 A 
ENDBRANCH  80  83
BRANCH  81  89
ATOM     89  N   UNL A   1      32.133  22.613  22.984  1.00  0.00    -0.300 N 
ATOM     90  H   UNL A   1      31.577  22.090  22.363  1.00  0.00     0.172 HD
BRANCH  89  91
ATOM     91  C   UNL A   1      31.880  23.939  23.065  1.00  0.00     0.190 A 
ATOM     92  N   UNL A   1      30.921  24.510  23.763  1.00  0.00    -0.220 NA
ATOM     93  S   UNL A   1      32.924  25.058  22.261  1.00  0.00    -0.097 S 
ATOM     94  C   UNL A   1      30.915  25.884  23.575  1.00  0.00     0.084 A 
ATOM     95  C   UNL A   1      31.923  26.373  22.746  1.00  0.00     0.056 A 
ATOM     96  C   UNL A   1      29.998  26.802  24.132  1.00  0.00     0.030 A 
ATOM     97  C   UNL A   1      32.021  27.741  22.427  1.00  0.00     0.021 A 
ATOM     98  C   UNL A   1      30.085  28.164  23.824  1.00  0.00     0.002 A 
ATOM     99  C   UNL A   1      31.082  28.624  22.972  1.00  0.00     0.002 A 
ENDBRANCH  89  91
ENDBRANCH  81  89
ENDBRANCH  75  77
ENDBRANCH  74  75
ENDBRANCH  73  74
ENDBRANCH  72  73
ENDBRANCH  71  72
ENDBRANCH   1  71
TORSDOF 20
ENDMDL
MODEL 3
REMARK VINA RESULT:     -11.5      5.426      7.817
REMARK SMILES O=C(OCCOCCOC(=O)c1cc(-c2ccccc2)nc(Nc2nc3ccccc3s2)n1)c1ccc(-c2c3nc(c(-c4cccc(S(=O)(=O)[O-])c4F)c4ccc([nH]4)c(-c4cccc(S(=O)(=O)[O-])c4F)c4nc(c(-c5cccc(S(=O)(=O)[O-])c5F)c5ccc2[nH]5)C=C4)C=C3)cc1
REMARK SMILES IDX 5 1 4 2 3 3 2 4 1 5 34 6 35 7 96 8 36 9 95 10 37 11 38 12
REMARK SMILES IDX 39 13 89 14 40 15 94 16 88 17 90 18 41 19 93 20 87 21 86 22
REMARK SMILES IDX 42 24 74 25 54 26 73 27 55 28 58 29 72 30 91 31 56 32 57 33
REMARK SMILES IDX 71 35 92 36 59 37 43 38 44 39 52 40 45 41 47 42 53 43 46 44
REMARK SMILES IDX 48 45 49 46 50 47 51 48 75 49 76 50 84 51 77 52 79 53 85 54
REMARK SMILES IDX 78 55 80 56 81 57 82 58 83 59 60 60 61 61 69 62 62 63 64 64
REMARK SMILES IDX 70 65 63 66 65 67 66 68 67 69 68 70 6 71 7 72 8 73 9 74
REMARK SMILES IDX 10 75 11 76 12 77 13 78 33 79 14 80 22 81 21 82 15 83 16 84
REMARK SMILES IDX 20 85 17 86 19 87 18 88 23 89 24 91 25 92 32 93 26 94 31 95
REMARK SMILES IDX 27 96 30 97 28 98 29 99
REMARK H PARENT 90 23 58 34 23 90
REMARK Flexibility Score: inf
ROOT
ATOM      1  C   UNL A   1      41.101  20.086  26.797  1.00  0.00     0.202 C 
ENDROOT
BRANCH   1   2
ATOM      2  C   UNL A   1      42.102  19.022  26.354  1.00  0.00     0.261 C 
BRANCH   2   3
ATOM      3  O   UNL A   1      42.647  19.349  25.068  1.00  0.00    -0.460 OA
BRANCH   3   4
ATOM      4  C   UNL A   1      43.756  20.079  24.798  1.00  0.00     0.338 C 
ATOM      5  O   UNL A   1      44.580  19.587  24.024  1.00  0.00    -0.246 OA
BRANCH   4   6
ATOM      6  C   UNL A   1      44.045  21.453  25.341  1.00  0.00     0.060 A 
ATOM      7  C   UNL A   1      44.583  21.758  26.595  1.00  0.00     0.016 A 
ATOM      8  C   UNL A   1      43.813  22.529  24.463  1.00  0.00     0.016 A 
ATOM      9  C   UNL A   1      44.862  23.065  26.980  1.00  0.00     0.010 A 
ATOM     10  C   UNL A   1      44.106  23.847  24.833  1.00  0.00     0.010 A 
ATOM     11  C   UNL A   1      44.619  24.116  26.104  1.00  0.00    -0.014 A 
BRANCH  11  12
ATOM     12  C   UNL A   1      44.810  25.488  26.601  1.00  0.00     0.031 A 
ATOM     13  C   UNL A   1      46.153  26.126  26.426  1.00  0.00     0.074 A 
ATOM     14  C   UNL A   1      43.765  26.170  27.103  1.00  0.00     0.049 A 
ATOM     15  N   UNL A   1      46.539  27.333  26.733  1.00  0.00    -0.248 NA
ATOM     16  C   UNL A   1      47.200  25.294  25.803  1.00  0.00     0.031 C 
ATOM     17  C   UNL A   1      42.405  25.645  27.241  1.00  0.00     0.029 A 
ATOM     18  N   UNL A   1      43.678  27.453  27.573  1.00  0.00    -0.354 N 
ATOM     19  C   UNL A   1      47.881  27.396  26.381  1.00  0.00     0.074 A 
ATOM     20  C   UNL A   1      48.241  26.111  25.824  1.00  0.00     0.031 C 
ATOM     21  C   UNL A   1      41.616  26.601  27.759  1.00  0.00     0.029 A 
ATOM     22  C   UNL A   1      42.420  27.790  28.019  1.00  0.00     0.049 A 
ATOM     23  H   UNL A   1      44.441  28.073  27.591  1.00  0.00     0.167 HD
ATOM     24  C   UNL A   1      48.734  28.436  26.514  1.00  0.00     0.034 A 
ATOM     25  C   UNL A   1      41.983  28.934  28.580  1.00  0.00     0.034 A 
ATOM     26  C   UNL A   1      48.353  29.706  27.064  1.00  0.00     0.049 A 
ATOM     27  C   UNL A   1      42.963  30.068  28.735  1.00  0.00     0.074 A 
ATOM     28  C   UNL A   1      49.134  30.825  27.278  1.00  0.00     0.029 A 
ATOM     29  N   UNL A   1      47.071  30.019  27.498  1.00  0.00    -0.354 N 
ATOM     30  N   UNL A   1      44.216  30.135  28.350  1.00  0.00    -0.248 NA
ATOM     31  C   UNL A   1      42.466  31.291  29.379  1.00  0.00     0.031 C 
ATOM     32  C   UNL A   1      48.328  31.811  27.857  1.00  0.00     0.029 A 
ATOM     33  C   UNL A   1      47.039  31.313  27.982  1.00  0.00     0.049 A 
ATOM     34  H   UNL A   1      46.300  29.408  27.467  1.00  0.00     0.167 HD
ATOM     35  C   UNL A   1      44.648  31.415  28.672  1.00  0.00     0.074 A 
ATOM     36  C   UNL A   1      43.514  32.097  29.266  1.00  0.00     0.031 C 
ATOM     37  C   UNL A   1      45.873  31.975  28.511  1.00  0.00     0.034 A 
BRANCH  24  38
ATOM     38  C   UNL A   1      50.154  28.215  26.074  1.00  0.00     0.023 A 
ATOM     39  C   UNL A   1      50.486  28.282  24.706  1.00  0.00     0.012 A 
ATOM     40  C   UNL A   1      51.157  27.920  27.018  1.00  0.00     0.148 A 
ATOM     41  C   UNL A   1      51.788  28.022  24.279  1.00  0.00     0.002 A 
ATOM     42  C   UNL A   1      52.461  27.699  26.588  1.00  0.00     0.091 A 
ATOM     43  F   UNL A   1      50.813  27.830  28.310  1.00  0.00    -0.205 F 
ATOM     44  C   UNL A   1      52.776  27.737  25.220  1.00  0.00     0.022 A 
BRANCH  42  45
ATOM     45  S   UNL A   1      53.809  27.374  27.729  1.00  0.00     0.127 S 
ATOM     46  O   UNL A   1      53.768  28.562  28.579  1.00  0.00    -0.237 OA
ATOM     47  O   UNL A   1      53.368  26.141  28.383  1.00  0.00    -0.237 OA
ATOM     48  O   UNL A   1      55.002  27.229  26.907  1.00  0.00    -0.744 OA
ENDBRANCH  42  45
ENDBRANCH  24  38
BRANCH  25  49
ATOM     49  C   UNL A   1      40.557  29.077  28.992  1.00  0.00     0.023 A 
ATOM     50  C   UNL A   1      39.572  29.320  28.015  1.00  0.00     0.012 A 
ATOM     51  C   UNL A   1      40.164  28.958  30.341  1.00  0.00     0.148 A 
ATOM     52  C   UNL A   1      38.231  29.471  28.375  1.00  0.00     0.002 A 
ATOM     53  C   UNL A   1      38.821  29.057  30.687  1.00  0.00     0.091 A 
ATOM     54  F   UNL A   1      41.114  28.750  31.263  1.00  0.00    -0.205 F 
ATOM     55  C   UNL A   1      37.854  29.330  29.708  1.00  0.00     0.022 A 
BRANCH  53  56
ATOM     56  S   UNL A   1      38.238  28.767  32.362  1.00  0.00     0.127 S 
ATOM     57  O   UNL A   1      39.004  29.754  33.120  1.00  0.00    -0.237 OA
ATOM     58  O   UNL A   1      36.809  29.057  32.244  1.00  0.00    -0.237 OA
ATOM     59  O   UNL A   1      38.543  27.371  32.644  1.00  0.00    -0.744 OA
ENDBRANCH  53  56
ENDBRANCH  25  49
BRANCH  37  60
ATOM     60  C   UNL A   1      46.042  33.404  28.947  1.00  0.00     0.023 A 
ATOM     61  C   UNL A   1      46.584  33.690  30.214  1.00  0.00     0.012 A 
ATOM     62  C   UNL A   1      45.747  34.460  28.063  1.00  0.00     0.148 A 
ATOM     63  C   UNL A   1      46.807  35.008  30.606  1.00  0.00     0.002 A 
ATOM     64  C   UNL A   1      46.017  35.769  28.441  1.00  0.00     0.091 A 
ATOM     65  F   UNL A   1      45.208  34.167  26.870  1.00  0.00    -0.205 F 
ATOM     66  C   UNL A   1      46.538  36.046  29.716  1.00  0.00     0.022 A 
BRANCH  64  67
ATOM     67  S   UNL A   1      45.797  37.147  27.312  1.00  0.00     0.127 S 
ATOM     68  O   UNL A   1      44.351  37.140  27.108  1.00  0.00    -0.237 OA
ATOM     69  O   UNL A   1      46.298  38.279  28.093  1.00  0.00    -0.237 OA
ATOM     70  O   UNL A   1      46.602  36.828  26.140  1.00  0.00    -0.744 OA
ENDBRANCH  64  67
ENDBRANCH  37  60
ENDBRANCH  11  12
ENDBRANCH   4   6
ENDBRANCH   3   4
ENDBRANCH   2   3
ENDBRANCH   1   2
BRANCH   1  71
ATOM     71  O   UNL A   1      40.009  20.243  25.890  1.00  0.00    -0.374 OA
BRANCH  71  72
ATOM     72  C   UNL A   1      39.213  21.413  26.067  1.00  0.00     0.202 C 
BRANCH  72  73
ATOM     73  C   UNL A   1      37.948  21.308  25.215  1.00  0.00     0.261 C 
BRANCH  73  74
ATOM     74  O   UNL A   1      36.871  21.967  25.906  1.00  0.00    -0.459 OA
BRANCH  74  75
ATOM     75  C   UNL A   1      36.803  23.313  25.715  1.00  0.00     0.357 C 
ATOM     76  O   UNL A   1      37.728  24.093  25.579  1.00  0.00    -0.244 OA
BRANCH  75  77
ATOM     77  C   UNL A   1      35.366  23.654  25.574  1.00  0.00     0.154 A 
ATOM     78  C   UNL A   1      34.988  24.965  25.543  1.00  0.00     0.065 A 
ATOM     79  N   UNL A   1      34.495  22.627  25.565  1.00  0.00    -0.206 NA
ATOM     80  C   UNL A   1      33.633  25.188  25.478  1.00  0.00     0.077 A 
ATOM     81  C   UNL A   1      33.193  22.917  25.572  1.00  0.00     0.230 A 
ATOM     82  N   UNL A   1      32.726  24.181  25.500  1.00  0.00    -0.213 NA
BRANCH  80  83
ATOM     83  C   UNL A   1      33.154  26.572  25.374  1.00  0.00     0.000 A 
ATOM     84  C   UNL A   1      32.329  27.150  26.348  1.00  0.00     0.010 A 
ATOM     85  C   UNL A   1      33.633  27.399  24.337  1.00  0.00     0.010 A 
ATOM     86  C   UNL A   1      32.035  28.519  26.311  1.00  0.00     0.001 A 
ATOM     87  C   UNL A   1      33.343  28.762  24.300  1.00  0.00     0.001 A 
ATOM     88  C   UNL A   1      32.552  29.324  25.295  1.00  0.00     0.000 A 
ENDBRANCH  80  83
BRANCH  81  89
ATOM     89  N   UNL A   1      32.252  21.891  25.585  1.00  0.00    -0.300 N 
ATOM     90  H   UNL A   1      31.352  22.117  25.912  1.00  0.00     0.172 HD
BRANCH  89  91
ATOM     91  C   UNL A   1      32.458  20.614  25.191  1.00  0.00     0.190 A 
ATOM     92  N   UNL A   1      32.509  19.554  25.970  1.00  0.00    -0.220 NA
ATOM     93  S   UNL A   1      32.598  20.253  23.506  1.00  0.00    -0.097 S 
ATOM     94  C   UNL A   1      32.791  18.409  25.239  1.00  0.00     0.084 A 
ATOM     95  C   UNL A   1      32.914  18.598  23.865  1.00  0.00     0.056 A 
ATOM     96  C   UNL A   1      32.964  17.107  25.758  1.00  0.00     0.030 A 
ATOM     97  C   UNL A   1      33.241  17.539  22.997  1.00  0.00     0.021 A 
ATOM     98  C   UNL A   1      33.286  16.045  24.907  1.00  0.00     0.002 A 
ATOM     99  C   UNL A   1      33.432  16.264  23.542  1.00  0.00     0.002 A 
ENDBRANCH  89  91
ENDBRANCH  81  89
ENDBRANCH  75  77
ENDBRANCH  74  75
ENDBRANCH  73  74
ENDBRANCH  72  73
ENDBRANCH  71  72
ENDBRANCH   1  71
TORSDOF 20
ENDMDL
