MODEL 1
REMARK VINA RESULT:     -10.5      0.000      0.000
REMARK SMILES COc1ccc(-c2noc(CC(=O)OCCOCCOC(=O)c3ccc(-c4c5nc(c(-c6cccc(S(=O)(=O)[O-])c6F)c6ccc([nH]6)c(-c6cccc(S(=O)(=O)[O-])c6F)c6nc(c(-c7cccc(S(=O)(=O)[O-])c7F)c7ccc4[nH]7)C=C6)C=C5)cc3)c2-c2ccc(OC)cc2)cc1
REMARK SMILES IDX 17 1 16 2 15 3 14 4 12 5 13 6 11 7 10 8 7 9 8 10 86 11 9 12
REMARK SMILES IDX 6 13 3 14 4 15 96 16 5 17 95 18 2 19 1 20 87 21 88 22 94 23
REMARK SMILES IDX 89 24 93 25 90 26 91 27 92 28 18 29 19 30 20 31 21 32 22 33
REMARK SMILES IDX 23 34 24 35 85 36 25 37 84 38 26 39 27 40 28 41 78 42 29 43
REMARK SMILES IDX 83 44 77 45 79 46 30 47 82 48 76 49 75 50 31 52 63 53 43 54
REMARK SMILES IDX 62 55 44 56 47 57 61 58 80 59 45 60 46 61 60 63 81 64 48 65
REMARK SMILES IDX 32 66 33 67 41 68 34 69 36 70 42 71 35 72 37 73 38 74 39 75
REMARK SMILES IDX 40 76 64 77 65 78 73 79 66 80 68 81 74 82 67 83 69 84 70 85
REMARK SMILES IDX 71 86 72 87 49 88 50 89 58 90 51 91 53 92 59 93 52 94 54 95
REMARK SMILES IDX 55 96 56 97 57 98
REMARK H PARENT 79 51 47 62
REMARK Flexibility Score: inf
ROOT
ATOM      1  O   UNL A   1      31.863  29.388  25.032  1.00  0.00    -0.374 OA
ENDROOT
BRANCH   1   2
ATOM      2  C   UNL A   1      30.932  29.265  23.955  1.00  0.00     0.202 C 
BRANCH   2   3
ATOM      3  C   UNL A   1      31.344  28.367  22.784  1.00  0.00     0.261 C 
BRANCH   3   4
ATOM      4  O   UNL A   1      32.773  28.241  22.675  1.00  0.00    -0.463 OA
BRANCH   4   5
ATOM      5  C   UNL A   1      33.236  26.981  22.488  1.00  0.00     0.313 C 
ATOM      6  O   UNL A   1      33.700  26.560  21.430  1.00  0.00    -0.252 OA
BRANCH   5   7
ATOM      7  C   UNL A   1      33.214  26.101  23.708  1.00  0.00     0.201 C 
BRANCH   7   8
ATOM      8  C   UNL A   1      32.850  24.675  23.513  1.00  0.00     0.156 A 
ATOM      9  C   UNL A   1      32.462  22.487  23.542  1.00  0.00     0.122 A 
ATOM     10  N   UNL A   1      31.351  23.064  23.059  1.00  0.00    -0.079 NA
ATOM     11  C   UNL A   1      33.459  23.474  23.806  1.00  0.00     0.053 A 
ATOM     12  O   UNL A   1      31.590  24.423  23.066  1.00  0.00    -0.359 OA
BRANCH   9  13
ATOM     13  C   UNL A   1      32.526  21.055  23.812  1.00  0.00     0.005 A 
ATOM     14  C   UNL A   1      32.582  18.284  24.311  1.00  0.00     0.118 A 
ATOM     15  C   UNL A   1      32.899  19.198  25.321  1.00  0.00     0.047 A 
ATOM     16  C   UNL A   1      32.239  18.759  23.047  1.00  0.00     0.047 A 
ATOM     17  C   UNL A   1      32.886  20.576  25.074  1.00  0.00     0.014 A 
ATOM     18  C   UNL A   1      32.212  20.137  22.799  1.00  0.00     0.014 A 
BRANCH  14  19
ATOM     19  O   UNL A   1      32.619  16.970  24.687  1.00  0.00    -0.497 OA
ATOM     20  C   UNL A   1      33.763  16.225  24.295  1.00  0.00     0.278 C 
ENDBRANCH  14  19
ENDBRANCH   9  13
BRANCH  11  21
ATOM     21  C   UNL A   1      34.793  23.346  24.345  1.00  0.00    -0.012 A 
ATOM     22  C   UNL A   1      35.078  23.808  25.631  1.00  0.00     0.013 A 
ATOM     23  C   UNL A   1      35.810  22.764  23.578  1.00  0.00     0.013 A 
ATOM     24  C   UNL A   1      36.364  23.655  26.155  1.00  0.00     0.047 A 
ATOM     25  C   UNL A   1      37.090  22.603  24.110  1.00  0.00     0.047 A 
ATOM     26  C   UNL A   1      37.367  23.037  25.406  1.00  0.00     0.118 A 
BRANCH  26  27
ATOM     27  O   UNL A   1      38.580  22.936  26.028  1.00  0.00    -0.497 OA
ATOM     28  C   UNL A   1      39.173  21.644  26.043  1.00  0.00     0.278 C 
ENDBRANCH  26  27
ENDBRANCH  11  21
ENDBRANCH   7   8
ENDBRANCH   5   7
ENDBRANCH   4   5
ENDBRANCH   3   4
ENDBRANCH   2   3
ENDBRANCH   1   2
BRANCH   1  29
ATOM     29  C   UNL A   1      31.748  30.545  25.863  1.00  0.00     0.202 C 
BRANCH  29  30
ATOM     30  C   UNL A   1      32.558  30.553  27.167  1.00  0.00     0.261 C 
BRANCH  30  31
ATOM     31  O   UNL A   1      33.978  30.568  26.933  1.00  0.00    -0.460 OA
BRANCH  31  32
ATOM     32  C   UNL A   1      34.594  29.374  27.086  1.00  0.00     0.338 C 
ATOM     33  O   UNL A   1      34.269  28.304  26.582  1.00  0.00    -0.246 OA
BRANCH  32  34
ATOM     34  C   UNL A   1      35.867  29.544  27.806  1.00  0.00     0.060 A 
ATOM     35  C   UNL A   1      37.018  29.758  27.037  1.00  0.00     0.016 A 
ATOM     36  C   UNL A   1      35.955  29.420  29.194  1.00  0.00     0.016 A 
ATOM     37  C   UNL A   1      38.269  29.800  27.648  1.00  0.00     0.010 A 
ATOM     38  C   UNL A   1      37.216  29.453  29.806  1.00  0.00     0.010 A 
ATOM     39  C   UNL A   1      38.381  29.612  29.032  1.00  0.00    -0.014 A 
BRANCH  39  40
ATOM     40  C   UNL A   1      39.726  29.477  29.643  1.00  0.00     0.031 A 
ATOM     41  C   UNL A   1      40.558  28.260  29.344  1.00  0.00     0.074 A 
ATOM     42  C   UNL A   1      40.211  30.443  30.444  1.00  0.00     0.049 A 
ATOM     43  N   UNL A   1      41.761  27.958  29.761  1.00  0.00    -0.248 NA
ATOM     44  C   UNL A   1      39.959  27.251  28.456  1.00  0.00     0.031 C 
ATOM     45  C   UNL A   1      39.504  31.669  30.808  1.00  0.00     0.029 A 
ATOM     46  N   UNL A   1      41.407  30.531  31.112  1.00  0.00    -0.354 N 
ATOM     47  C   UNL A   1      42.056  26.719  29.205  1.00  0.00     0.074 A 
ATOM     48  C   UNL A   1      40.900  26.318  28.431  1.00  0.00     0.031 C 
ATOM     49  C   UNL A   1      40.269  32.377  31.656  1.00  0.00     0.029 A 
ATOM     50  C   UNL A   1      41.510  31.646  31.909  1.00  0.00     0.049 A 
ATOM     51  H   UNL A   1      42.123  29.862  31.027  1.00  0.00     0.167 HD
ATOM     52  C   UNL A   1      43.192  25.990  29.314  1.00  0.00     0.034 A 
ATOM     53  C   UNL A   1      42.485  32.025  32.759  1.00  0.00     0.034 A 
ATOM     54  C   UNL A   1      44.348  26.396  30.066  1.00  0.00     0.049 A 
ATOM     55  C   UNL A   1      43.723  31.178  32.888  1.00  0.00     0.074 A 
ATOM     56  C   UNL A   1      45.568  25.752  30.184  1.00  0.00     0.029 A 
ATOM     57  N   UNL A   1      44.425  27.541  30.842  1.00  0.00    -0.354 N 
ATOM     58  N   UNL A   1      44.044  30.080  32.247  1.00  0.00    -0.248 NA
ATOM     59  C   UNL A   1      44.748  31.637  33.838  1.00  0.00     0.031 C 
ATOM     60  C   UNL A   1      46.374  26.496  31.053  1.00  0.00     0.029 A 
ATOM     61  C   UNL A   1      45.663  27.613  31.461  1.00  0.00     0.049 A 
ATOM     62  H   UNL A   1      43.706  28.207  30.940  1.00  0.00     0.167 HD
ATOM     63  C   UNL A   1      45.313  29.731  32.696  1.00  0.00     0.074 A 
ATOM     64  C   UNL A   1      45.716  30.751  33.644  1.00  0.00     0.031 C 
ATOM     65  C   UNL A   1      46.070  28.654  32.369  1.00  0.00     0.034 A 
BRANCH  52  66
ATOM     66  C   UNL A   1      43.256  24.683  28.568  1.00  0.00     0.023 A 
ATOM     67  C   UNL A   1      42.608  23.550  29.097  1.00  0.00     0.012 A 
ATOM     68  C   UNL A   1      43.898  24.592  27.318  1.00  0.00     0.148 A 
ATOM     69  C   UNL A   1      42.621  22.337  28.409  1.00  0.00     0.002 A 
ATOM     70  C   UNL A   1      43.874  23.391  26.618  1.00  0.00     0.091 A 
ATOM     71  F   UNL A   1      44.528  25.676  26.841  1.00  0.00    -0.205 F 
ATOM     72  C   UNL A   1      43.244  22.261  27.165  1.00  0.00     0.022 A 
BRANCH  70  73
ATOM     73  S   UNL A   1      44.588  23.212  24.979  1.00  0.00     0.127 S 
ATOM     74  O   UNL A   1      45.684  22.279  25.235  1.00  0.00    -0.237 OA
ATOM     75  O   UNL A   1      43.473  22.648  24.216  1.00  0.00    -0.237 OA
ATOM     76  O   UNL A   1      44.986  24.551  24.569  1.00  0.00    -0.744 OA
ENDBRANCH  70  73
ENDBRANCH  52  66
BRANCH  53  77
ATOM     77  C   UNL A   1      42.341  33.289  33.536  1.00  0.00     0.023 A 
ATOM     78  C   UNL A   1      41.681  33.269  34.779  1.00  0.00     0.012 A 
ATOM     79  C   UNL A   1      42.872  34.503  33.059  1.00  0.00     0.148 A 
ATOM     80  C   UNL A   1      41.533  34.440  35.524  1.00  0.00     0.002 A 
ATOM     81  C   UNL A   1      42.771  35.655  33.832  1.00  0.00     0.091 A 
ATOM     82  F   UNL A   1      43.476  34.507  31.862  1.00  0.00    -0.205 F 
ATOM     83  C   UNL A   1      42.088  35.628  35.056  1.00  0.00     0.022 A 
BRANCH  81  84
ATOM     84  S   UNL A   1      43.571  37.194  33.366  1.00  0.00     0.127 S 
ATOM     85  O   UNL A   1      42.681  38.186  33.964  1.00  0.00    -0.237 OA
ATOM     86  O   UNL A   1      44.876  37.065  34.015  1.00  0.00    -0.237 OA
ATOM     87  O   UNL A   1      43.623  37.182  31.910  1.00  0.00    -0.744 OA
ENDBRANCH  81  84
ENDBRANCH  53  77
BRANCH  65  88
ATOM     88  C   UNL A   1      47.418  28.519  33.031  1.00  0.00     0.023 A 
ATOM     89  C   UNL A   1      48.546  29.113  32.434  1.00  0.00     0.012 A 
ATOM     90  C   UNL A   1      47.555  27.871  34.275  1.00  0.00     0.148 A 
ATOM     91  C   UNL A   1      49.796  29.041  33.048  1.00  0.00     0.002 A 
ATOM     92  C   UNL A   1      48.795  27.841  34.903  1.00  0.00     0.091 A 
ATOM     93  F   UNL A   1      46.473  27.295  34.820  1.00  0.00    -0.205 F 
ATOM     94  C   UNL A   1      49.918  28.416  34.287  1.00  0.00     0.022 A 
BRANCH  92  95
ATOM     95  S   UNL A   1      49.029  27.136  36.540  1.00  0.00     0.127 S 
ATOM     96  O   UNL A   1      48.235  28.040  37.371  1.00  0.00    -0.237 OA
ATOM     97  O   UNL A   1      48.464  25.795  36.386  1.00  0.00    -0.237 OA
ATOM     98  O   UNL A   1      50.465  27.161  36.784  1.00  0.00    -0.744 OA
ENDBRANCH  92  95
ENDBRANCH  65  88
ENDBRANCH  39  40
ENDBRANCH  32  34
ENDBRANCH  31  32
ENDBRANCH  30  31
ENDBRANCH  29  30
ENDBRANCH   1  29
TORSDOF 22
ENDMDL
MODEL 2
REMARK VINA RESULT:     -10.4      2.025      7.639
REMARK SMILES COc1ccc(-c2noc(CC(=O)OCCOCCOC(=O)c3ccc(-c4c5nc(c(-c6cccc(S(=O)(=O)[O-])c6F)c6ccc([nH]6)c(-c6cccc(S(=O)(=O)[O-])c6F)c6nc(c(-c7cccc(S(=O)(=O)[O-])c7F)c7ccc4[nH]7)C=C6)C=C5)cc3)c2-c2ccc(OC)cc2)cc1
REMARK SMILES IDX 17 1 16 2 15 3 14 4 12 5 13 6 11 7 10 8 7 9 8 10 86 11 9 12
REMARK SMILES IDX 6 13 3 14 4 15 96 16 5 17 95 18 2 19 1 20 87 21 88 22 94 23
REMARK SMILES IDX 89 24 93 25 90 26 91 27 92 28 18 29 19 30 20 31 21 32 22 33
REMARK SMILES IDX 23 34 24 35 85 36 25 37 84 38 26 39 27 40 28 41 78 42 29 43
REMARK SMILES IDX 83 44 77 45 79 46 30 47 82 48 76 49 75 50 31 52 63 53 43 54
REMARK SMILES IDX 62 55 44 56 47 57 61 58 80 59 45 60 46 61 60 63 81 64 48 65
REMARK SMILES IDX 32 66 33 67 41 68 34 69 36 70 42 71 35 72 37 73 38 74 39 75
REMARK SMILES IDX 40 76 64 77 65 78 73 79 66 80 68 81 74 82 67 83 69 84 70 85
REMARK SMILES IDX 71 86 72 87 49 88 50 89 58 90 51 91 53 92 59 93 52 94 54 95
REMARK SMILES IDX 55 96 56 97 57 98
REMARK H PARENT 79 51 47 62
REMARK Flexibility Score: inf
ROOT
ATOM      1  O   UNL A   1      31.945  29.556  25.206  1.00  0.00    -0.374 OA
ENDROOT
BRANCH   1   2
ATOM      2  C   UNL A   1      31.007  29.301  24.160  1.00  0.00     0.202 C 
BRANCH   2   3
ATOM      3  C   UNL A   1      31.463  28.368  23.033  1.00  0.00     0.261 C 
BRANCH   3   4
ATOM      4  O   UNL A   1      32.896  28.267  22.963  1.00  0.00    -0.463 OA
BRANCH   4   5
ATOM      5  C   UNL A   1      33.381  27.038  22.655  1.00  0.00     0.313 C 
ATOM      6  O   UNL A   1      33.791  26.710  21.543  1.00  0.00    -0.252 OA
BRANCH   5   7
ATOM      7  C   UNL A   1      33.457  26.072  23.806  1.00  0.00     0.201 C 
BRANCH   7   8
ATOM      8  C   UNL A   1      33.106  24.657  23.531  1.00  0.00     0.156 A 
ATOM      9  C   UNL A   1      32.714  22.470  23.448  1.00  0.00     0.122 A 
ATOM     10  N   UNL A   1      31.639  23.070  22.915  1.00  0.00    -0.079 NA
ATOM     11  C   UNL A   1      33.692  23.442  23.816  1.00  0.00     0.053 A 
ATOM     12  O   UNL A   1      31.878  24.427  22.991  1.00  0.00    -0.359 OA
BRANCH   9  13
ATOM     13  C   UNL A   1      32.759  21.029  23.665  1.00  0.00     0.005 A 
ATOM     14  C   UNL A   1      32.773  18.242  24.071  1.00  0.00     0.118 A 
ATOM     15  C   UNL A   1      33.255  19.109  25.057  1.00  0.00     0.047 A 
ATOM     16  C   UNL A   1      32.285  18.772  22.878  1.00  0.00     0.047 A 
ATOM     17  C   UNL A   1      33.262  20.495  24.854  1.00  0.00     0.014 A 
ATOM     18  C   UNL A   1      32.278  20.157  22.677  1.00  0.00     0.014 A 
BRANCH  14  19
ATOM     19  O   UNL A   1      32.810  16.916  24.400  1.00  0.00    -0.497 OA
ATOM     20  C   UNL A   1      32.501  16.582  25.746  1.00  0.00     0.278 C 
ENDBRANCH  14  19
ENDBRANCH   9  13
BRANCH  11  21
ATOM     21  C   UNL A   1      34.987  23.289  24.438  1.00  0.00    -0.012 A 
ATOM     22  C   UNL A   1      35.991  22.557  23.800  1.00  0.00     0.013 A 
ATOM     23  C   UNL A   1      35.241  23.867  25.687  1.00  0.00     0.013 A 
ATOM     24  C   UNL A   1      37.249  22.437  24.395  1.00  0.00     0.047 A 
ATOM     25  C   UNL A   1      36.503  23.755  26.273  1.00  0.00     0.047 A 
ATOM     26  C   UNL A   1      37.515  23.049  25.622  1.00  0.00     0.118 A 
BRANCH  26  27
ATOM     27  O   UNL A   1      38.782  22.870  26.099  1.00  0.00    -0.497 OA
ATOM     28  C   UNL A   1      39.326  21.564  25.966  1.00  0.00     0.278 C 
ENDBRANCH  26  27
ENDBRANCH  11  21
ENDBRANCH   7   8
ENDBRANCH   5   7
ENDBRANCH   4   5
ENDBRANCH   3   4
ENDBRANCH   2   3
ENDBRANCH   1   2
BRANCH   1  29
ATOM     29  C   UNL A   1      31.853  30.818  25.871  1.00  0.00     0.202 C 
BRANCH  29  30
ATOM     30  C   UNL A   1      32.646  30.982  27.175  1.00  0.00     0.261 C 
BRANCH  30  31
ATOM     31  O   UNL A   1      34.037  30.647  27.020  1.00  0.00    -0.460 OA
BRANCH  31  32
ATOM     32  C   UNL A   1      34.398  29.454  27.544  1.00  0.00     0.338 C 
ATOM     33  O   UNL A   1      33.773  28.401  27.488  1.00  0.00    -0.246 OA
BRANCH  32  34
ATOM     34  C   UNL A   1      35.780  29.516  28.051  1.00  0.00     0.060 A 
ATOM     35  C   UNL A   1      36.803  29.695  27.111  1.00  0.00     0.016 A 
ATOM     36  C   UNL A   1      36.082  29.326  29.401  1.00  0.00     0.016 A 
ATOM     37  C   UNL A   1      38.136  29.637  27.510  1.00  0.00     0.010 A 
ATOM     38  C   UNL A   1      37.425  29.258  29.798  1.00  0.00     0.010 A 
ATOM     39  C   UNL A   1      38.457  29.381  28.850  1.00  0.00    -0.014 A 
BRANCH  39  40
ATOM     40  C   UNL A   1      39.872  29.140  29.227  1.00  0.00     0.031 A 
ATOM     41  C   UNL A   1      40.660  30.237  29.889  1.00  0.00     0.074 A 
ATOM     42  C   UNL A   1      40.445  27.944  28.997  1.00  0.00     0.049 A 
ATOM     43  N   UNL A   1      41.899  30.226  30.311  1.00  0.00    -0.248 NA
ATOM     44  C   UNL A   1      39.962  31.514  30.109  1.00  0.00     0.031 C 
ATOM     45  C   UNL A   1      39.787  26.803  28.365  1.00  0.00     0.029 A 
ATOM     46  N   UNL A   1      41.718  27.502  29.253  1.00  0.00    -0.354 N 
ATOM     47  C   UNL A   1      42.135  31.495  30.826  1.00  0.00     0.074 A 
ATOM     48  C   UNL A   1      40.916  32.255  30.653  1.00  0.00     0.031 C 
ATOM     49  C   UNL A   1      40.670  25.796  28.258  1.00  0.00     0.029 A 
ATOM     50  C   UNL A   1      41.960  26.228  28.796  1.00  0.00     0.049 A 
ATOM     51  H   UNL A   1      42.394  28.043  29.721  1.00  0.00     0.167 HD
ATOM     52  C   UNL A   1      43.259  31.977  31.408  1.00  0.00     0.034 A 
ATOM     53  C   UNL A   1      43.094  25.501  28.794  1.00  0.00     0.034 A 
ATOM     54  C   UNL A   1      44.465  31.216  31.599  1.00  0.00     0.049 A 
ATOM     55  C   UNL A   1      44.341  26.074  29.415  1.00  0.00     0.074 A 
ATOM     56  C   UNL A   1      45.633  31.601  32.234  1.00  0.00     0.029 A 
ATOM     57  N   UNL A   1      44.666  29.923  31.143  1.00  0.00    -0.354 N 
ATOM     58  N   UNL A   1      44.507  27.224  30.024  1.00  0.00    -0.248 NA
ATOM     59  C   UNL A   1      45.550  25.238  29.375  1.00  0.00     0.031 C 
ATOM     60  C   UNL A   1      46.550  30.548  32.139  1.00  0.00     0.029 A 
ATOM     61  C   UNL A   1      45.946  29.501  31.462  1.00  0.00     0.049 A 
ATOM     62  H   UNL A   1      43.996  29.383  30.663  1.00  0.00     0.167 HD
ATOM     63  C   UNL A   1      45.827  27.239  30.460  1.00  0.00     0.074 A 
ATOM     64  C   UNL A   1      46.410  25.971  30.070  1.00  0.00     0.031 C 
ATOM     65  C   UNL A   1      46.503  28.221  31.107  1.00  0.00     0.034 A 
BRANCH  52  66
ATOM     66  C   UNL A   1      43.228  33.394  31.917  1.00  0.00     0.023 A 
ATOM     67  C   UNL A   1      43.703  34.436  31.097  1.00  0.00     0.012 A 
ATOM     68  C   UNL A   1      42.672  33.701  33.174  1.00  0.00     0.148 A 
ATOM     69  C   UNL A   1      43.651  35.761  31.530  1.00  0.00     0.002 A 
ATOM     70  C   UNL A   1      42.588  35.027  33.584  1.00  0.00     0.091 A 
ATOM     71  F   UNL A   1      42.246  32.693  33.949  1.00  0.00    -0.205 F 
ATOM     72  C   UNL A   1      43.084  36.057  32.767  1.00  0.00     0.022 A 
BRANCH  70  73
ATOM     73  S   UNL A   1      41.812  35.515  35.129  1.00  0.00     0.127 S 
ATOM     74  O   UNL A   1      42.298  34.481  36.042  1.00  0.00    -0.237 OA
ATOM     75  O   UNL A   1      42.382  36.844  35.355  1.00  0.00    -0.237 OA
ATOM     76  O   UNL A   1      40.378  35.505  34.876  1.00  0.00    -0.744 OA
ENDBRANCH  70  73
ENDBRANCH  52  66
BRANCH  53  77
ATOM     77  C   UNL A   1      43.096  24.132  28.206  1.00  0.00     0.023 A 
ATOM     78  C   UNL A   1      42.466  23.078  28.894  1.00  0.00     0.012 A 
ATOM     79  C   UNL A   1      43.700  23.874  26.959  1.00  0.00     0.148 A 
ATOM     80  C   UNL A   1      42.455  21.788  28.363  1.00  0.00     0.002 A 
ATOM     81  C   UNL A   1      43.637  22.599  26.409  1.00  0.00     0.091 A 
ATOM     82  F   UNL A   1      44.316  24.885  26.330  1.00  0.00    -0.205 F 
ATOM     83  C   UNL A   1      43.030  21.552  27.116  1.00  0.00     0.022 A 
BRANCH  81  84
ATOM     84  S   UNL A   1      44.233  22.239  24.753  1.00  0.00     0.127 S 
ATOM     85  O   UNL A   1      44.015  20.799  24.662  1.00  0.00    -0.237 OA
ATOM     86  O   UNL A   1      43.340  23.052  23.927  1.00  0.00    -0.237 OA
ATOM     87  O   UNL A   1      45.624  22.674  24.736  1.00  0.00    -0.744 OA
ENDBRANCH  81  84
ENDBRANCH  53  77
BRANCH  65  88
ATOM     88  C   UNL A   1      47.950  27.969  31.446  1.00  0.00     0.023 A 
ATOM     89  C   UNL A   1      48.278  27.344  32.665  1.00  0.00     0.012 A 
ATOM     90  C   UNL A   1      48.976  28.279  30.531  1.00  0.00     0.148 A 
ATOM     91  C   UNL A   1      49.605  27.059  32.983  1.00  0.00     0.002 A 
ATOM     92  C   UNL A   1      50.293  27.952  30.835  1.00  0.00     0.091 A 
ATOM     93  F   UNL A   1      48.647  28.890  29.383  1.00  0.00    -0.205 F 
ATOM     94  C   UNL A   1      50.610  27.352  32.064  1.00  0.00     0.022 A 
BRANCH  92  95
ATOM     95  S   UNL A   1      51.642  28.210  29.677  1.00  0.00     0.127 S 
ATOM     96  O   UNL A   1      52.774  27.640  30.405  1.00  0.00    -0.237 OA
ATOM     97  O   UNL A   1      51.210  27.432  28.515  1.00  0.00    -0.237 OA
ATOM     98  O   UNL A   1      51.705  29.647  29.450  1.00  0.00    -0.744 OA
ENDBRANCH  92  95
ENDBRANCH  65  88
ENDBRANCH  39  40
ENDBRANCH  32  34
ENDBRANCH  31  32
ENDBRANCH  30  31
ENDBRANCH  29  30
ENDBRANCH   1  29
TORSDOF 22
ENDMDL
MODEL 3
REMARK VINA RESULT:     -10.3      3.263      4.392
REMARK SMILES COc1ccc(-c2noc(CC(=O)OCCOCCOC(=O)c3ccc(-c4c5nc(c(-c6cccc(S(=O)(=O)[O-])c6F)c6ccc([nH]6)c(-c6cccc(S(=O)(=O)[O-])c6F)c6nc(c(-c7cccc(S(=O)(=O)[O-])c7F)c7ccc4[nH]7)C=C6)C=C5)cc3)c2-c2ccc(OC)cc2)cc1
REMARK SMILES IDX 17 1 16 2 15 3 14 4 12 5 13 6 11 7 10 8 7 9 8 10 86 11 9 12
REMARK SMILES IDX 6 13 3 14 4 15 96 16 5 17 95 18 2 19 1 20 87 21 88 22 94 23
REMARK SMILES IDX 89 24 93 25 90 26 91 27 92 28 18 29 19 30 20 31 21 32 22 33
REMARK SMILES IDX 23 34 24 35 85 36 25 37 84 38 26 39 27 40 28 41 78 42 29 43
REMARK SMILES IDX 83 44 77 45 79 46 30 47 82 48 76 49 75 50 31 52 63 53 43 54
REMARK SMILES IDX 62 55 44 56 47 57 61 58 80 59 45 60 46 61 60 63 81 64 48 65
REMARK SMILES IDX 32 66 33 67 41 68 34 69 36 70 42 71 35 72 37 73 38 74 39 75
REMARK SMILES IDX 40 76 64 77 65 78 73 79 66 80 68 81 74 82 67 83 69 84 70 85
REMARK SMILES IDX 71 86 72 87 49 88 50 89 58 90 51 91 53 92 59 93 52 94 54 95
REMARK SMILES IDX 55 96 56 97 57 98
REMARK H PARENT 79 51 47 62
REMARK Flexibility Score: inf
ROOT
ATOM      1  O   UNL A   1      33.087  27.115  24.875  1.00  0.00    -0.374 OA
ENDROOT
BRANCH   1   2
ATOM      2  C   UNL A   1      33.603  26.026  25.642  1.00  0.00     0.202 C 
BRANCH   2   3
ATOM      3  C   UNL A   1      34.735  25.210  25.010  1.00  0.00     0.261 C 
BRANCH   3   4
ATOM      4  O   UNL A   1      35.460  24.443  25.988  1.00  0.00    -0.463 OA
BRANCH   4   5
ATOM      5  C   UNL A   1      36.712  24.069  25.627  1.00  0.00     0.313 C 
ATOM      6  O   UNL A   1      37.737  24.412  26.212  1.00  0.00    -0.252 OA
BRANCH   5   7
ATOM      7  C   UNL A   1      36.787  23.120  24.461  1.00  0.00     0.201 C 
BRANCH   7   8
ATOM      8  C   UNL A   1      36.431  21.702  24.714  1.00  0.00     0.156 A 
ATOM      9  C   UNL A   1      35.620  19.638  24.870  1.00  0.00     0.122 A 
ATOM     10  N   UNL A   1      36.953  19.517  24.781  1.00  0.00    -0.079 NA
ATOM     11  C   UNL A   1      35.246  21.016  24.873  1.00  0.00     0.053 A 
ATOM     12  O   UNL A   1      37.449  20.800  24.660  1.00  0.00    -0.359 OA
BRANCH   9  13
ATOM     13  C   UNL A   1      34.743  18.473  24.871  1.00  0.00     0.005 A 
ATOM     14  C   UNL A   1      33.059  16.217  24.945  1.00  0.00     0.118 A 
ATOM     15  C   UNL A   1      34.195  16.233  24.129  1.00  0.00     0.047 A 
ATOM     16  C   UNL A   1      32.765  17.334  25.724  1.00  0.00     0.047 A 
ATOM     17  C   UNL A   1      35.028  17.357  24.079  1.00  0.00     0.014 A 
ATOM     18  C   UNL A   1      33.602  18.455  25.687  1.00  0.00     0.014 A 
BRANCH  14  19
ATOM     19  O   UNL A   1      32.340  15.055  24.911  1.00  0.00    -0.497 OA
ATOM     20  C   UNL A   1      31.620  14.713  26.087  1.00  0.00     0.278 C 
ENDBRANCH  14  19
ENDBRANCH   9  13
BRANCH  11  21
ATOM     21  C   UNL A   1      33.945  21.640  24.931  1.00  0.00    -0.012 A 
ATOM     22  C   UNL A   1      33.356  21.924  26.164  1.00  0.00     0.013 A 
ATOM     23  C   UNL A   1      33.263  21.957  23.750  1.00  0.00     0.013 A 
ATOM     24  C   UNL A   1      32.109  22.553  26.211  1.00  0.00     0.047 A 
ATOM     25  C   UNL A   1      32.024  22.596  23.801  1.00  0.00     0.047 A 
ATOM     26  C   UNL A   1      31.449  22.907  25.033  1.00  0.00     0.118 A 
BRANCH  26  27
ATOM     27  O   UNL A   1      30.243  23.526  25.205  1.00  0.00    -0.497 OA
ATOM     28  C   UNL A   1      30.192  24.541  26.198  1.00  0.00     0.278 C 
ENDBRANCH  26  27
ENDBRANCH  11  21
ENDBRANCH   7   8
ENDBRANCH   5   7
ENDBRANCH   4   5
ENDBRANCH   3   4
ENDBRANCH   2   3
ENDBRANCH   1   2
BRANCH   1  29
ATOM     29  C   UNL A   1      31.873  27.716  25.331  1.00  0.00     0.202 C 
BRANCH  29  30
ATOM     30  C   UNL A   1      31.997  28.856  26.352  1.00  0.00     0.261 C 
BRANCH  30  31
ATOM     31  O   UNL A   1      32.799  29.947  25.865  1.00  0.00    -0.460 OA
BRANCH  31  32
ATOM     32  C   UNL A   1      33.057  30.915  26.774  1.00  0.00     0.338 C 
ATOM     33  O   UNL A   1      32.273  31.755  27.202  1.00  0.00    -0.246 OA
BRANCH  32  34
ATOM     34  C   UNL A   1      34.394  30.723  27.361  1.00  0.00     0.060 A 
ATOM     35  C   UNL A   1      34.832  29.405  27.544  1.00  0.00     0.016 A 
ATOM     36  C   UNL A   1      35.173  31.796  27.796  1.00  0.00     0.016 A 
ATOM     37  C   UNL A   1      36.031  29.153  28.207  1.00  0.00     0.010 A 
ATOM     38  C   UNL A   1      36.374  31.540  28.472  1.00  0.00     0.010 A 
ATOM     39  C   UNL A   1      36.792  30.217  28.709  1.00  0.00    -0.014 A 
BRANCH  39  40
ATOM     40  C   UNL A   1      37.967  29.931  29.569  1.00  0.00     0.031 A 
ATOM     41  C   UNL A   1      39.029  28.983  29.083  1.00  0.00     0.074 A 
ATOM     42  C   UNL A   1      38.095  30.527  30.768  1.00  0.00     0.049 A 
ATOM     43  N   UNL A   1      40.138  28.612  29.670  1.00  0.00    -0.248 NA
ATOM     44  C   UNL A   1      38.817  28.375  27.759  1.00  0.00     0.031 C 
ATOM     45  C   UNL A   1      37.137  31.465  31.350  1.00  0.00     0.029 A 
ATOM     46  N   UNL A   1      39.078  30.414  31.720  1.00  0.00    -0.354 N 
ATOM     47  C   UNL A   1      40.745  27.714  28.801  1.00  0.00     0.074 A 
ATOM     48  C   UNL A   1      39.876  27.586  27.651  1.00  0.00     0.031 C 
ATOM     49  C   UNL A   1      37.565  31.822  32.572  1.00  0.00     0.029 A 
ATOM     50  C   UNL A   1      38.817  31.125  32.866  1.00  0.00     0.049 A 
ATOM     51  H   UNL A   1      39.892  29.876  31.594  1.00  0.00     0.167 HD
ATOM     52  C   UNL A   1      41.928  27.069  28.939  1.00  0.00     0.034 A 
ATOM     53  C   UNL A   1      39.498  31.193  34.027  1.00  0.00     0.034 A 
ATOM     54  C   UNL A   1      42.802  27.212  30.072  1.00  0.00     0.049 A 
ATOM     55  C   UNL A   1      40.794  30.438  34.168  1.00  0.00     0.074 A 
ATOM     56  C   UNL A   1      44.050  26.647  30.273  1.00  0.00     0.029 A 
ATOM     57  N   UNL A   1      42.516  27.958  31.204  1.00  0.00    -0.354 N 
ATOM     58  N   UNL A   1      41.424  29.705  33.282  1.00  0.00    -0.248 NA
ATOM     59  C   UNL A   1      41.488  30.543  35.461  1.00  0.00     0.031 C 
ATOM     60  C   UNL A   1      44.507  27.032  31.538  1.00  0.00     0.029 A 
ATOM     61  C   UNL A   1      43.553  27.851  32.118  1.00  0.00     0.049 A 
ATOM     62  H   UNL A   1      41.697  28.487  31.340  1.00  0.00     0.167 HD
ATOM     63  C   UNL A   1      42.596  29.282  33.899  1.00  0.00     0.074 A 
ATOM     64  C   UNL A   1      42.604  29.864  35.225  1.00  0.00     0.031 C 
ATOM     65  C   UNL A   1      43.570  28.469  33.418  1.00  0.00     0.034 A 
BRANCH  52  66
ATOM     66  C   UNL A   1      42.369  26.172  27.813  1.00  0.00     0.023 A 
ATOM     67  C   UNL A   1      43.324  26.638  26.888  1.00  0.00     0.012 A 
ATOM     68  C   UNL A   1      41.892  24.851  27.709  1.00  0.00     0.148 A 
ATOM     69  C   UNL A   1      43.777  25.814  25.858  1.00  0.00     0.002 A 
ATOM     70  C   UNL A   1      42.376  24.022  26.703  1.00  0.00     0.091 A 
ATOM     71  F   UNL A   1      40.967  24.433  28.586  1.00  0.00    -0.205 F 
ATOM     72  C   UNL A   1      43.312  24.504  25.772  1.00  0.00     0.022 A 
BRANCH  70  73
ATOM     73  S   UNL A   1      41.891  22.299  26.552  1.00  0.00     0.127 S 
ATOM     74  O   UNL A   1      40.441  22.413  26.401  1.00  0.00    -0.237 OA
ATOM     75  O   UNL A   1      42.599  21.882  25.341  1.00  0.00    -0.237 OA
ATOM     76  O   UNL A   1      42.344  21.648  27.773  1.00  0.00    -0.744 OA
ENDBRANCH  70  73
ENDBRANCH  52  66
BRANCH  53  77
ATOM     77  C   UNL A   1      38.980  32.034  35.143  1.00  0.00     0.023 A 
ATOM     78  C   UNL A   1      38.978  33.436  35.015  1.00  0.00     0.012 A 
ATOM     79  C   UNL A   1      38.470  31.450  36.320  1.00  0.00     0.148 A 
ATOM     80  C   UNL A   1      38.498  34.243  36.047  1.00  0.00     0.002 A 
ATOM     81  C   UNL A   1      37.943  32.258  37.321  1.00  0.00     0.091 A 
ATOM     82  F   UNL A   1      38.503  30.115  36.434  1.00  0.00    -0.205 F 
ATOM     83  C   UNL A   1      37.970  33.654  37.193  1.00  0.00     0.022 A 
BRANCH  81  84
ATOM     84  S   UNL A   1      37.124  31.578  38.768  1.00  0.00     0.127 S 
ATOM     85  O   UNL A   1      35.999  32.494  38.934  1.00  0.00    -0.237 OA
ATOM     86  O   UNL A   1      36.764  30.236  38.309  1.00  0.00    -0.237 OA
ATOM     87  O   UNL A   1      38.124  31.599  39.828  1.00  0.00    -0.744 OA
ENDBRANCH  81  84
ENDBRANCH  53  77
BRANCH  65  88
ATOM     88  C   UNL A   1      44.735  28.162  34.324  1.00  0.00     0.023 A 
ATOM     89  C   UNL A   1      45.846  29.028  34.343  1.00  0.00     0.012 A 
ATOM     90  C   UNL A   1      44.700  27.064  35.207  1.00  0.00     0.148 A 
ATOM     91  C   UNL A   1      46.917  28.791  35.204  1.00  0.00     0.002 A 
ATOM     92  C   UNL A   1      45.751  26.859  36.094  1.00  0.00     0.091 A 
ATOM     93  F   UNL A   1      43.642  26.240  35.163  1.00  0.00    -0.205 F 
ATOM     94  C   UNL A   1      46.865  27.715  36.087  1.00  0.00     0.022 A 
BRANCH  92  95
ATOM     95  S   UNL A   1      45.730  25.552  37.327  1.00  0.00     0.127 S 
ATOM     96  O   UNL A   1      46.318  24.435  36.588  1.00  0.00    -0.237 OA
ATOM     97  O   UNL A   1      46.585  26.102  38.381  1.00  0.00    -0.237 OA
ATOM     98  O   UNL A   1      44.335  25.384  37.709  1.00  0.00    -0.744 OA
ENDBRANCH  92  95
ENDBRANCH  65  88
ENDBRANCH  39  40
ENDBRANCH  32  34
ENDBRANCH  31  32
ENDBRANCH  30  31
ENDBRANCH  29  30
ENDBRANCH   1  29
TORSDOF 22
ENDMDL
