MODEL 1
REMARK VINA RESULT:     -10.4      0.000      0.000
REMARK SMILES CCNS(=O)(=O)c1ccc(CC(=O)OCCOCCOC(=O)c2ccc(-c3c4nc(c(-c5cccc(S(=O)(=O)[O-])c5F)c5ccc([nH]5)c(-c5cccc(S(=O)(=O)[O-])c5F)c5nc(c(-c6cccc(S(=O)(=O)[O-])c6F)c6ccc3[nH]6)C=C5)C=C4)cc2)cc1
REMARK SMILES IDX 16 1 15 2 14 3 12 4 13 5 11 6 10 7 7 8 8 9 87 10 9 11 86 12
REMARK SMILES IDX 4 13 5 14 6 15 3 16 2 18 1 19 17 20 18 21 19 22 20 23 21 24
REMARK SMILES IDX 22 25 23 26 24 27 85 28 25 29 84 30 26 31 27 32 28 33 78 34
REMARK SMILES IDX 29 35 83 36 77 37 79 38 30 39 82 40 76 41 75 42 31 44 63 45
REMARK SMILES IDX 43 46 62 47 44 48 47 49 61 50 80 51 45 52 46 53 60 55 81 56
REMARK SMILES IDX 48 57 32 58 33 59 41 60 34 61 36 62 42 63 35 64 37 65 38 66
REMARK SMILES IDX 39 67 40 68 64 69 65 70 73 71 66 72 68 73 74 74 67 75 69 76
REMARK SMILES IDX 70 77 71 78 72 79 49 80 50 81 58 82 51 83 53 84 59 85 52 86
REMARK SMILES IDX 54 87 55 88 56 89 57 90
REMARK H PARENT 3 17 79 43 47 54
REMARK Flexibility Score: inf
ROOT
ATOM      1  C   UNL A   1      33.100  29.005  26.156  1.00  0.00     0.202 C 
ENDROOT
BRANCH   1   2
ATOM      2  C   UNL A   1      33.130  27.556  26.656  1.00  0.00     0.261 C 
BRANCH   2   3
ATOM      3  O   UNL A   1      33.766  26.657  25.725  1.00  0.00    -0.463 OA
BRANCH   3   4
ATOM      4  C   UNL A   1      32.955  25.737  25.142  1.00  0.00     0.310 C 
ATOM      5  O   UNL A   1      32.527  24.731  25.700  1.00  0.00    -0.252 OA
BRANCH   4   6
ATOM      6  C   UNL A   1      32.642  26.018  23.693  1.00  0.00     0.158 C 
BRANCH   6   7
ATOM      7  C   UNL A   1      31.435  26.866  23.353  1.00  0.00    -0.037 A 
ATOM      8  C   UNL A   1      29.229  28.553  22.943  1.00  0.00     0.082 A 
ATOM      9  C   UNL A   1      30.467  28.891  22.398  1.00  0.00     0.022 A 
ATOM     10  C   UNL A   1      29.076  27.360  23.655  1.00  0.00     0.022 A 
ATOM     11  C   UNL A   1      31.569  28.058  22.622  1.00  0.00     0.006 A 
ATOM     12  C   UNL A   1      30.171  26.515  23.846  1.00  0.00     0.006 A 
BRANCH   8  13
ATOM     13  S   UNL A   1      27.824  29.628  22.834  1.00  0.00     0.240 S 
ATOM     14  O   UNL A   1      28.041  30.729  23.754  1.00  0.00    -0.207 OA
ATOM     15  O   UNL A   1      26.649  28.798  22.892  1.00  0.00    -0.207 OA
BRANCH  13  16
ATOM     16  N   UNL A   1      27.848  30.263  21.270  1.00  0.00    -0.211 NA
ATOM     17  H   UNL A   1      28.246  29.549  20.660  1.00  0.00     0.141 HD
BRANCH  16  18
ATOM     18  C   UNL A   1      28.597  31.501  21.035  1.00  0.00     0.095 C 
ATOM     19  C   UNL A   1      27.807  32.382  20.081  1.00  0.00     0.022 C 
ENDBRANCH  16  18
ENDBRANCH  13  16
ENDBRANCH   8  13
ENDBRANCH   6   7
ENDBRANCH   4   6
ENDBRANCH   3   4
ENDBRANCH   2   3
ENDBRANCH   1   2
BRANCH   1  20
ATOM     20  O   UNL A   1      32.407  29.952  26.970  1.00  0.00    -0.374 OA
BRANCH  20  21
ATOM     21  C   UNL A   1      31.557  30.880  26.300  1.00  0.00     0.202 C 
BRANCH  21  22
ATOM     22  C   UNL A   1      31.449  32.285  26.903  1.00  0.00     0.261 C 
BRANCH  22  23
ATOM     23  O   UNL A   1      32.674  33.027  26.799  1.00  0.00    -0.460 OA
BRANCH  23  24
ATOM     24  C   UNL A   1      33.202  33.394  27.992  1.00  0.00     0.338 C 
ATOM     25  O   UNL A   1      32.645  34.034  28.871  1.00  0.00    -0.246 OA
BRANCH  24  26
ATOM     26  C   UNL A   1      34.522  32.770  28.203  1.00  0.00     0.060 A 
ATOM     27  C   UNL A   1      34.524  31.491  28.774  1.00  0.00     0.016 A 
ATOM     28  C   UNL A   1      35.723  33.438  27.956  1.00  0.00     0.016 A 
ATOM     29  C   UNL A   1      35.721  30.913  29.181  1.00  0.00     0.010 A 
ATOM     30  C   UNL A   1      36.929  32.852  28.365  1.00  0.00     0.010 A 
ATOM     31  C   UNL A   1      36.927  31.610  29.026  1.00  0.00    -0.014 A 
BRANCH  31  32
ATOM     32  C   UNL A   1      38.139  31.075  29.698  1.00  0.00     0.031 A 
ATOM     33  C   UNL A   1      38.445  31.491  31.112  1.00  0.00     0.074 A 
ATOM     34  C   UNL A   1      38.909  30.160  29.082  1.00  0.00     0.049 A 
ATOM     35  N   UNL A   1      39.366  31.041  31.926  1.00  0.00    -0.248 NA
ATOM     36  C   UNL A   1      37.600  32.549  31.691  1.00  0.00     0.031 C 
ATOM     37  C   UNL A   1      38.721  29.685  27.712  1.00  0.00     0.029 A 
ATOM     38  N   UNL A   1      40.005  29.466  29.533  1.00  0.00    -0.354 N 
ATOM     39  C   UNL A   1      39.222  31.766  33.102  1.00  0.00     0.074 A 
ATOM     40  C   UNL A   1      38.140  32.703  32.891  1.00  0.00     0.031 C 
ATOM     41  C   UNL A   1      39.674  28.778  27.431  1.00  0.00     0.029 A 
ATOM     42  C   UNL A   1      40.541  28.615  28.596  1.00  0.00     0.049 A 
ATOM     43  H   UNL A   1      40.371  29.569  30.440  1.00  0.00     0.167 HD
ATOM     44  C   UNL A   1      39.910  31.648  34.263  1.00  0.00     0.034 A 
ATOM     45  C   UNL A   1      41.607  27.794  28.672  1.00  0.00     0.034 A 
ATOM     46  C   UNL A   1      40.973  30.703  34.479  1.00  0.00     0.049 A 
ATOM     47  C   UNL A   1      42.353  27.678  29.975  1.00  0.00     0.074 A 
ATOM     48  C   UNL A   1      41.704  30.475  35.632  1.00  0.00     0.029 A 
ATOM     49  N   UNL A   1      41.467  29.835  33.517  1.00  0.00    -0.354 N 
ATOM     50  N   UNL A   1      42.115  28.273  31.120  1.00  0.00    -0.248 NA
ATOM     51  C   UNL A   1      43.486  26.742  30.010  1.00  0.00     0.031 C 
ATOM     52  C   UNL A   1      42.654  29.485  35.361  1.00  0.00     0.029 A 
ATOM     53  C   UNL A   1      42.498  29.077  34.046  1.00  0.00     0.049 A 
ATOM     54  H   UNL A   1      41.134  29.768  32.593  1.00  0.00     0.167 HD
ATOM     55  C   UNL A   1      43.046  27.761  32.018  1.00  0.00     0.074 A 
ATOM     56  C   UNL A   1      43.833  26.786  31.290  1.00  0.00     0.031 C 
ATOM     57  C   UNL A   1      43.242  28.077  33.322  1.00  0.00     0.034 A 
BRANCH  44  58
ATOM     58  C   UNL A   1      39.509  32.544  35.408  1.00  0.00     0.023 A 
ATOM     59  C   UNL A   1      38.629  32.057  36.396  1.00  0.00     0.012 A 
ATOM     60  C   UNL A   1      40.042  33.841  35.537  1.00  0.00     0.148 A 
ATOM     61  C   UNL A   1      38.260  32.858  37.477  1.00  0.00     0.002 A 
ATOM     62  C   UNL A   1      39.702  34.619  36.638  1.00  0.00     0.091 A 
ATOM     63  F   UNL A   1      40.860  34.295  34.576  1.00  0.00    -0.205 F 
ATOM     64  C   UNL A   1      38.805  34.133  37.603  1.00  0.00     0.022 A 
BRANCH  62  65
ATOM     65  S   UNL A   1      40.408  36.244  36.931  1.00  0.00     0.127 S 
ATOM     66  O   UNL A   1      40.022  36.958  35.714  1.00  0.00    -0.237 OA
ATOM     67  O   UNL A   1      39.703  36.674  38.139  1.00  0.00    -0.237 OA
ATOM     68  O   UNL A   1      41.838  36.035  37.107  1.00  0.00    -0.744 OA
ENDBRANCH  62  65
ENDBRANCH  44  58
BRANCH  45  69
ATOM     69  C   UNL A   1      41.995  26.972  27.491  1.00  0.00     0.023 A 
ATOM     70  C   UNL A   1      42.670  27.573  26.412  1.00  0.00     0.012 A 
ATOM     71  C   UNL A   1      41.719  25.591  27.444  1.00  0.00     0.148 A 
ATOM     72  C   UNL A   1      43.037  26.822  25.293  1.00  0.00     0.002 A 
ATOM     73  C   UNL A   1      42.138  24.838  26.354  1.00  0.00     0.091 A 
ATOM     74  F   UNL A   1      41.057  25.041  28.472  1.00  0.00    -0.205 F 
ATOM     75  C   UNL A   1      42.782  25.453  25.270  1.00  0.00     0.022 A 
BRANCH  73  76
ATOM     76  S   UNL A   1      41.971  23.049  26.304  1.00  0.00     0.127 S 
ATOM     77  O   UNL A   1      42.609  22.725  25.031  1.00  0.00    -0.237 OA
ATOM     78  O   UNL A   1      42.722  22.642  27.493  1.00  0.00    -0.237 OA
ATOM     79  O   UNL A   1      40.540  22.788  26.383  1.00  0.00    -0.744 OA
ENDBRANCH  73  76
ENDBRANCH  45  69
BRANCH  57  80
ATOM     80  C   UNL A   1      44.336  27.346  34.058  1.00  0.00     0.023 A 
ATOM     81  C   UNL A   1      45.650  27.856  34.046  1.00  0.00     0.012 A 
ATOM     82  C   UNL A   1      44.055  26.185  34.805  1.00  0.00     0.148 A 
ATOM     83  C   UNL A   1      46.674  27.198  34.727  1.00  0.00     0.002 A 
ATOM     84  C   UNL A   1      45.070  25.562  35.521  1.00  0.00     0.091 A 
ATOM     85  F   UNL A   1      42.804  25.701  34.791  1.00  0.00    -0.205 F 
ATOM     86  C   UNL A   1      46.382  26.059  35.472  1.00  0.00     0.022 A 
BRANCH  84  87
ATOM     87  S   UNL A   1      44.760  24.146  36.582  1.00  0.00     0.127 S 
ATOM     88  O   UNL A   1      43.993  23.270  35.696  1.00  0.00    -0.237 OA
ATOM     89  O   UNL A   1      46.113  23.675  36.882  1.00  0.00    -0.237 OA
ATOM     90  O   UNL A   1      44.038  24.666  37.736  1.00  0.00    -0.744 OA
ENDBRANCH  84  87
ENDBRANCH  57  80
ENDBRANCH  31  32
ENDBRANCH  24  26
ENDBRANCH  23  24
ENDBRANCH  22  23
ENDBRANCH  21  22
ENDBRANCH  20  21
ENDBRANCH   1  20
TORSDOF 21
ENDMDL
MODEL 2
REMARK VINA RESULT:      -9.6      3.176      4.591
REMARK SMILES CCNS(=O)(=O)c1ccc(CC(=O)OCCOCCOC(=O)c2ccc(-c3c4nc(c(-c5cccc(S(=O)(=O)[O-])c5F)c5ccc([nH]5)c(-c5cccc(S(=O)(=O)[O-])c5F)c5nc(c(-c6cccc(S(=O)(=O)[O-])c6F)c6ccc3[nH]6)C=C5)C=C4)cc2)cc1
REMARK SMILES IDX 16 1 15 2 14 3 12 4 13 5 11 6 10 7 7 8 8 9 87 10 9 11 86 12
REMARK SMILES IDX 4 13 5 14 6 15 3 16 2 18 1 19 17 20 18 21 19 22 20 23 21 24
REMARK SMILES IDX 22 25 23 26 24 27 85 28 25 29 84 30 26 31 27 32 28 33 78 34
REMARK SMILES IDX 29 35 83 36 77 37 79 38 30 39 82 40 76 41 75 42 31 44 63 45
REMARK SMILES IDX 43 46 62 47 44 48 47 49 61 50 80 51 45 52 46 53 60 55 81 56
REMARK SMILES IDX 48 57 32 58 33 59 41 60 34 61 36 62 42 63 35 64 37 65 38 66
REMARK SMILES IDX 39 67 40 68 64 69 65 70 73 71 66 72 68 73 74 74 67 75 69 76
REMARK SMILES IDX 70 77 71 78 72 79 49 80 50 81 58 82 51 83 53 84 59 85 52 86
REMARK SMILES IDX 54 87 55 88 56 89 57 90
REMARK H PARENT 3 17 79 43 47 54
REMARK Flexibility Score: inf
ROOT
ATOM      1  C   UNL A   1      32.836  29.433  26.445  1.00  0.00     0.202 C 
ENDROOT
BRANCH   1   2
ATOM      2  C   UNL A   1      32.700  28.097  27.184  1.00  0.00     0.261 C 
BRANCH   2   3
ATOM      3  O   UNL A   1      33.367  27.013  26.506  1.00  0.00    -0.463 OA
BRANCH   3   4
ATOM      4  C   UNL A   1      32.586  26.249  25.699  1.00  0.00     0.310 C 
ATOM      5  O   UNL A   1      32.472  26.407  24.486  1.00  0.00    -0.252 OA
BRANCH   4   6
ATOM      6  C   UNL A   1      31.799  25.185  26.424  1.00  0.00     0.158 C 
BRANCH   6   7
ATOM      7  C   UNL A   1      32.018  23.733  26.061  1.00  0.00    -0.037 A 
ATOM      8  C   UNL A   1      32.603  21.117  25.226  1.00  0.00     0.082 A 
ATOM      9  C   UNL A   1      33.195  21.620  26.384  1.00  0.00     0.022 A 
ATOM     10  C   UNL A   1      31.691  21.895  24.506  1.00  0.00     0.022 A 
ATOM     11  C   UNL A   1      32.917  22.932  26.784  1.00  0.00     0.006 A 
ATOM     12  C   UNL A   1      31.392  23.191  24.930  1.00  0.00     0.006 A 
BRANCH   8  13
ATOM     13  S   UNL A   1      33.019  19.524  24.568  1.00  0.00     0.240 S 
ATOM     14  O   UNL A   1      34.456  19.363  24.684  1.00  0.00    -0.207 OA
ATOM     15  O   UNL A   1      32.328  19.390  23.312  1.00  0.00    -0.207 OA
BRANCH  13  16
ATOM     16  N   UNL A   1      32.298  18.397  25.598  1.00  0.00    -0.211 NA
ATOM     17  H   UNL A   1      32.156  18.857  26.497  1.00  0.00     0.141 HD
BRANCH  16  18
ATOM     18  C   UNL A   1      33.010  17.142  25.860  1.00  0.00     0.095 C 
ATOM     19  C   UNL A   1      32.934  16.264  24.622  1.00  0.00     0.022 C 
ENDBRANCH  16  18
ENDBRANCH  13  16
ENDBRANCH   8  13
ENDBRANCH   6   7
ENDBRANCH   4   6
ENDBRANCH   3   4
ENDBRANCH   2   3
ENDBRANCH   1   2
BRANCH   1  20
ATOM     20  O   UNL A   1      32.588  30.617  27.204  1.00  0.00    -0.374 OA
BRANCH  20  21
ATOM     21  C   UNL A   1      31.774  31.616  26.595  1.00  0.00     0.202 C 
BRANCH  21  22
ATOM     22  C   UNL A   1      31.887  33.040  27.152  1.00  0.00     0.261 C 
BRANCH  22  23
ATOM     23  O   UNL A   1      33.245  33.508  27.198  1.00  0.00    -0.460 OA
BRANCH  23  24
ATOM     24  C   UNL A   1      33.734  33.663  28.453  1.00  0.00     0.338 C 
ATOM     25  O   UNL A   1      33.169  34.196  29.395  1.00  0.00    -0.246 OA
BRANCH  24  26
ATOM     26  C   UNL A   1      35.009  32.940  28.619  1.00  0.00     0.060 A 
ATOM     27  C   UNL A   1      34.936  31.675  29.215  1.00  0.00     0.016 A 
ATOM     28  C   UNL A   1      36.247  33.507  28.306  1.00  0.00     0.016 A 
ATOM     29  C   UNL A   1      36.102  31.011  29.580  1.00  0.00     0.010 A 
ATOM     30  C   UNL A   1      37.420  32.834  28.674  1.00  0.00     0.010 A 
ATOM     31  C   UNL A   1      37.350  31.607  29.360  1.00  0.00    -0.014 A 
BRANCH  31  32
ATOM     32  C   UNL A   1      38.546  30.990  29.988  1.00  0.00     0.031 A 
ATOM     33  C   UNL A   1      38.913  31.359  31.401  1.00  0.00     0.074 A 
ATOM     34  C   UNL A   1      39.244  30.044  29.335  1.00  0.00     0.049 A 
ATOM     35  N   UNL A   1      39.826  30.840  32.181  1.00  0.00    -0.248 NA
ATOM     36  C   UNL A   1      38.146  32.453  32.021  1.00  0.00     0.031 C 
ATOM     37  C   UNL A   1      38.993  29.607  27.963  1.00  0.00     0.029 A 
ATOM     38  N   UNL A   1      40.308  29.278  29.744  1.00  0.00    -0.354 N 
ATOM     39  C   UNL A   1      39.756  31.550  33.374  1.00  0.00     0.074 A 
ATOM     40  C   UNL A   1      38.726  32.552  33.209  1.00  0.00     0.031 C 
ATOM     41  C   UNL A   1      39.883  28.652  27.640  1.00  0.00     0.029 A 
ATOM     42  C   UNL A   1      40.769  28.415  28.778  1.00  0.00     0.049 A 
ATOM     43  H   UNL A   1      40.704  29.341  30.643  1.00  0.00     0.167 HD
ATOM     44  C   UNL A   1      40.466  31.369  34.513  1.00  0.00     0.034 A 
ATOM     45  C   UNL A   1      41.787  27.533  28.810  1.00  0.00     0.034 A 
ATOM     46  C   UNL A   1      41.476  30.359  34.683  1.00  0.00     0.049 A 
ATOM     47  C   UNL A   1      42.558  27.348  30.090  1.00  0.00     0.074 A 
ATOM     48  C   UNL A   1      42.222  30.067  35.812  1.00  0.00     0.029 A 
ATOM     49  N   UNL A   1      41.893  29.483  33.693  1.00  0.00    -0.354 N 
ATOM     50  N   UNL A   1      42.385  27.933  31.251  1.00  0.00    -0.248 NA
ATOM     51  C   UNL A   1      43.635  26.347  30.078  1.00  0.00     0.031 C 
ATOM     52  C   UNL A   1      43.105  29.029  35.497  1.00  0.00     0.029 A 
ATOM     53  C   UNL A   1      42.891  28.656  34.180  1.00  0.00     0.049 A 
ATOM     54  H   UNL A   1      41.533  29.454  32.777  1.00  0.00     0.167 HD
ATOM     55  C   UNL A   1      43.307  27.350  32.114  1.00  0.00     0.074 A 
ATOM     56  C   UNL A   1      44.017  26.345  31.348  1.00  0.00     0.031 C 
ATOM     57  C   UNL A   1      43.556  27.629  33.418  1.00  0.00     0.034 A 
BRANCH  44  58
ATOM     58  C   UNL A   1      40.149  32.265  35.684  1.00  0.00     0.023 A 
ATOM     59  C   UNL A   1      40.871  33.463  35.857  1.00  0.00     0.012 A 
ATOM     60  C   UNL A   1      39.106  31.952  36.578  1.00  0.00     0.148 A 
ATOM     61  C   UNL A   1      40.583  34.321  36.920  1.00  0.00     0.002 A 
ATOM     62  C   UNL A   1      38.797  32.831  37.610  1.00  0.00     0.091 A 
ATOM     63  F   UNL A   1      38.445  30.798  36.410  1.00  0.00    -0.205 F 
ATOM     64  C   UNL A   1      39.540  34.009  37.788  1.00  0.00     0.022 A 
BRANCH  62  65
ATOM     65  S   UNL A   1      37.424  32.558  38.736  1.00  0.00     0.127 S 
ATOM     66  O   UNL A   1      37.691  33.552  39.775  1.00  0.00    -0.237 OA
ATOM     67  O   UNL A   1      36.267  32.857  37.891  1.00  0.00    -0.237 OA
ATOM     68  O   UNL A   1      37.522  31.169  39.159  1.00  0.00    -0.744 OA
ENDBRANCH  62  65
ENDBRANCH  44  58
BRANCH  45  69
ATOM     69  C   UNL A   1      42.095  26.712  27.604  1.00  0.00     0.023 A 
ATOM     70  C   UNL A   1      42.767  27.297  26.514  1.00  0.00     0.012 A 
ATOM     71  C   UNL A   1      41.745  25.349  27.545  1.00  0.00     0.148 A 
ATOM     72  C   UNL A   1      43.059  26.547  25.373  1.00  0.00     0.002 A 
ATOM     73  C   UNL A   1      42.091  24.594  26.430  1.00  0.00     0.091 A 
ATOM     74  F   UNL A   1      41.088  24.815  28.584  1.00  0.00    -0.205 F 
ATOM     75  C   UNL A   1      42.732  25.194  25.336  1.00  0.00     0.022 A 
BRANCH  73  76
ATOM     76  S   UNL A   1      41.830  22.817  26.357  1.00  0.00     0.127 S 
ATOM     77  O   UNL A   1      42.491  22.367  27.578  1.00  0.00    -0.237 OA
ATOM     78  O   UNL A   1      40.369  22.725  26.376  1.00  0.00    -0.237 OA
ATOM     79  O   UNL A   1      42.440  22.384  25.107  1.00  0.00    -0.744 OA
ENDBRANCH  73  76
ENDBRANCH  45  69
BRANCH  57  80
ATOM     80  C   UNL A   1      44.624  26.821  34.111  1.00  0.00     0.023 A 
ATOM     81  C   UNL A   1      44.289  25.592  34.715  1.00  0.00     0.012 A 
ATOM     82  C   UNL A   1      45.966  27.250  34.119  1.00  0.00     0.148 A 
ATOM     83  C   UNL A   1      45.265  24.826  35.353  1.00  0.00     0.002 A 
ATOM     84  C   UNL A   1      46.941  26.458  34.715  1.00  0.00     0.091 A 
ATOM     85  F   UNL A   1      46.264  28.430  33.557  1.00  0.00    -0.205 F 
ATOM     86  C   UNL A   1      46.590  25.253  35.345  1.00  0.00     0.022 A 
BRANCH  84  87
ATOM     87  S   UNL A   1      48.684  26.888  34.663  1.00  0.00     0.127 S 
ATOM     88  O   UNL A   1      48.863  27.242  33.255  1.00  0.00    -0.237 OA
ATOM     89  O   UNL A   1      48.756  28.019  35.589  1.00  0.00    -0.237 OA
ATOM     90  O   UNL A   1      49.399  25.700  35.111  1.00  0.00    -0.744 OA
ENDBRANCH  84  87
ENDBRANCH  57  80
ENDBRANCH  31  32
ENDBRANCH  24  26
ENDBRANCH  23  24
ENDBRANCH  22  23
ENDBRANCH  21  22
ENDBRANCH  20  21
ENDBRANCH   1  20
TORSDOF 21
ENDMDL
MODEL 3
REMARK VINA RESULT:      -9.4      2.671      4.047
REMARK SMILES CCNS(=O)(=O)c1ccc(CC(=O)OCCOCCOC(=O)c2ccc(-c3c4nc(c(-c5cccc(S(=O)(=O)[O-])c5F)c5ccc([nH]5)c(-c5cccc(S(=O)(=O)[O-])c5F)c5nc(c(-c6cccc(S(=O)(=O)[O-])c6F)c6ccc3[nH]6)C=C5)C=C4)cc2)cc1
REMARK SMILES IDX 16 1 15 2 14 3 12 4 13 5 11 6 10 7 7 8 8 9 87 10 9 11 86 12
REMARK SMILES IDX 4 13 5 14 6 15 3 16 2 18 1 19 17 20 18 21 19 22 20 23 21 24
REMARK SMILES IDX 22 25 23 26 24 27 85 28 25 29 84 30 26 31 27 32 28 33 78 34
REMARK SMILES IDX 29 35 83 36 77 37 79 38 30 39 82 40 76 41 75 42 31 44 63 45
REMARK SMILES IDX 43 46 62 47 44 48 47 49 61 50 80 51 45 52 46 53 60 55 81 56
REMARK SMILES IDX 48 57 32 58 33 59 41 60 34 61 36 62 42 63 35 64 37 65 38 66
REMARK SMILES IDX 39 67 40 68 64 69 65 70 73 71 66 72 68 73 74 74 67 75 69 76
REMARK SMILES IDX 70 77 71 78 72 79 49 80 50 81 58 82 51 83 53 84 59 85 52 86
REMARK SMILES IDX 54 87 55 88 56 89 57 90
REMARK H PARENT 3 17 79 43 47 54
REMARK Flexibility Score: inf
ROOT
ATOM      1  C   UNL A   1      31.425  28.987  24.331  1.00  0.00     0.202 C 
ENDROOT
BRANCH   1   2
ATOM      2  C   UNL A   1      32.179  27.678  24.072  1.00  0.00     0.261 C 
BRANCH   2   3
ATOM      3  O   UNL A   1      32.735  27.607  22.744  1.00  0.00    -0.463 OA
BRANCH   3   4
ATOM      4  C   UNL A   1      32.581  26.421  22.100  1.00  0.00     0.310 C 
ATOM      5  O   UNL A   1      33.275  26.043  21.159  1.00  0.00    -0.252 OA
BRANCH   4   6
ATOM      6  C   UNL A   1      31.428  25.589  22.603  1.00  0.00     0.158 C 
BRANCH   6   7
ATOM      7  C   UNL A   1      31.711  24.234  23.216  1.00  0.00    -0.037 A 
ATOM      8  C   UNL A   1      32.460  21.813  24.423  1.00  0.00     0.082 A 
ATOM      9  C   UNL A   1      31.677  22.723  25.131  1.00  0.00     0.022 A 
ATOM     10  C   UNL A   1      32.837  22.084  23.104  1.00  0.00     0.022 A 
ATOM     11  C   UNL A   1      31.323  23.938  24.533  1.00  0.00     0.006 A 
ATOM     12  C   UNL A   1      32.452  23.284  22.501  1.00  0.00     0.006 A 
BRANCH   8  13
ATOM     13  S   UNL A   1      33.077  20.324  25.160  1.00  0.00     0.240 S 
ATOM     14  O   UNL A   1      34.454  20.160  24.735  1.00  0.00    -0.207 OA
ATOM     15  O   UNL A   1      32.081  19.304  24.954  1.00  0.00    -0.207 OA
BRANCH  13  16
ATOM     16  N   UNL A   1      33.091  20.605  26.825  1.00  0.00    -0.211 NA
ATOM     17  H   UNL A   1      32.190  21.015  27.070  1.00  0.00     0.141 HD
BRANCH  16  18
ATOM     18  C   UNL A   1      34.132  21.482  27.372  1.00  0.00     0.095 C 
ATOM     19  C   UNL A   1      33.469  22.661  28.065  1.00  0.00     0.022 C 
ENDBRANCH  16  18
ENDBRANCH  13  16
ENDBRANCH   8  13
ENDBRANCH   6   7
ENDBRANCH   4   6
ENDBRANCH   3   4
ENDBRANCH   2   3
ENDBRANCH   1   2
BRANCH   1  20
ATOM     20  O   UNL A   1      31.968  29.857  25.326  1.00  0.00    -0.374 OA
BRANCH  20  21
ATOM     21  C   UNL A   1      33.161  29.428  25.978  1.00  0.00     0.202 C 
BRANCH  21  22
ATOM     22  C   UNL A   1      33.849  30.437  26.904  1.00  0.00     0.261 C 
BRANCH  22  23
ATOM     23  O   UNL A   1      32.947  31.440  27.397  1.00  0.00    -0.460 OA
BRANCH  23  24
ATOM     24  C   UNL A   1      33.547  32.607  27.733  1.00  0.00     0.338 C 
ATOM     25  O   UNL A   1      33.128  33.733  27.513  1.00  0.00    -0.246 OA
BRANCH  24  26
ATOM     26  C   UNL A   1      34.732  32.371  28.581  1.00  0.00     0.060 A 
ATOM     27  C   UNL A   1      35.966  32.771  28.054  1.00  0.00     0.016 A 
ATOM     28  C   UNL A   1      34.667  31.691  29.799  1.00  0.00     0.016 A 
ATOM     29  C   UNL A   1      37.145  32.416  28.699  1.00  0.00     0.010 A 
ATOM     30  C   UNL A   1      35.858  31.335  30.447  1.00  0.00     0.010 A 
ATOM     31  C   UNL A   1      37.102  31.651  29.872  1.00  0.00    -0.014 A 
BRANCH  31  32
ATOM     32  C   UNL A   1      38.373  31.079  30.386  1.00  0.00     0.031 A 
ATOM     33  C   UNL A   1      38.878  31.497  31.741  1.00  0.00     0.074 A 
ATOM     34  C   UNL A   1      39.023  30.131  29.687  1.00  0.00     0.049 A 
ATOM     35  N   UNL A   1      39.882  31.022  32.433  1.00  0.00    -0.248 NA
ATOM     36  C   UNL A   1      38.153  32.590  32.411  1.00  0.00     0.031 C 
ATOM     37  C   UNL A   1      38.640  29.650  28.361  1.00  0.00     0.029 A 
ATOM     38  N   UNL A   1      40.144  29.403  29.999  1.00  0.00    -0.354 N 
ATOM     39  C   UNL A   1      39.919  31.763  33.608  1.00  0.00     0.074 A 
ATOM     40  C   UNL A   1      38.852  32.736  33.528  1.00  0.00     0.031 C 
ATOM     41  C   UNL A   1      39.515  28.707  27.969  1.00  0.00     0.029 A 
ATOM     42  C   UNL A   1      40.522  28.523  29.013  1.00  0.00     0.049 A 
ATOM     43  H   UNL A   1      40.631  29.501  30.849  1.00  0.00     0.167 HD
ATOM     44  C   UNL A   1      40.750  31.631  34.670  1.00  0.00     0.034 A 
ATOM     45  C   UNL A   1      41.560  27.666  28.959  1.00  0.00     0.034 A 
ATOM     46  C   UNL A   1      41.799  30.650  34.757  1.00  0.00     0.049 A 
ATOM     47  C   UNL A   1      42.467  27.535  30.154  1.00  0.00     0.074 A 
ATOM     48  C   UNL A   1      42.667  30.408  35.808  1.00  0.00     0.029 A 
ATOM     49  N   UNL A   1      42.132  29.757  33.751  1.00  0.00    -0.354 N 
ATOM     50  N   UNL A   1      42.403  28.149  31.312  1.00  0.00    -0.248 NA
ATOM     51  C   UNL A   1      43.562  26.560  30.053  1.00  0.00     0.031 C 
ATOM     52  C   UNL A   1      43.539  29.381  35.427  1.00  0.00     0.029 A 
ATOM     53  C   UNL A   1      43.197  28.966  34.150  1.00  0.00     0.049 A 
ATOM     54  H   UNL A   1      41.677  29.693  32.880  1.00  0.00     0.167 HD
ATOM     55  C   UNL A   1      43.426  27.612  32.087  1.00  0.00     0.074 A 
ATOM     56  C   UNL A   1      44.076  26.602  31.276  1.00  0.00     0.031 C 
ATOM     57  C   UNL A   1      43.804  27.934  33.349  1.00  0.00     0.034 A 
BRANCH  44  58
ATOM     58  C   UNL A   1      40.535  32.552  35.844  1.00  0.00     0.023 A 
ATOM     59  C   UNL A   1      41.337  33.704  35.979  1.00  0.00     0.012 A 
ATOM     60  C   UNL A   1      39.512  32.310  36.780  1.00  0.00     0.148 A 
ATOM     61  C   UNL A   1      41.144  34.585  37.044  1.00  0.00     0.002 A 
ATOM     62  C   UNL A   1      39.298  33.213  37.816  1.00  0.00     0.091 A 
ATOM     63  F   UNL A   1      38.775  31.198  36.649  1.00  0.00    -0.205 F 
ATOM     64  C   UNL A   1      40.119  34.344  37.955  1.00  0.00     0.022 A 
BRANCH  62  65
ATOM     65  S   UNL A   1      37.957  33.033  38.997  1.00  0.00     0.127 S 
ATOM     66  O   UNL A   1      36.786  33.052  38.121  1.00  0.00    -0.237 OA
ATOM     67  O   UNL A   1      38.247  31.731  39.599  1.00  0.00    -0.237 OA
ATOM     68  O   UNL A   1      38.072  34.161  39.910  1.00  0.00    -0.744 OA
ENDBRANCH  62  65
ENDBRANCH  44  58
BRANCH  45  69
ATOM     69  C   UNL A   1      41.761  26.818  27.749  1.00  0.00     0.023 A 
ATOM     70  C   UNL A   1      42.418  27.352  26.623  1.00  0.00     0.012 A 
ATOM     71  C   UNL A   1      41.323  25.480  27.719  1.00  0.00     0.148 A 
ATOM     72  C   UNL A   1      42.609  26.576  25.478  1.00  0.00     0.002 A 
ATOM     73  C   UNL A   1      41.569  24.697  26.597  1.00  0.00     0.091 A 
ATOM     74  F   UNL A   1      40.681  24.997  28.792  1.00  0.00    -0.205 F 
ATOM     75  C   UNL A   1      42.196  25.247  25.470  1.00  0.00     0.022 A 
BRANCH  73  76
ATOM     76  S   UNL A   1      41.193  22.940  26.554  1.00  0.00     0.127 S 
ATOM     77  O   UNL A   1      39.737  22.949  26.437  1.00  0.00    -0.237 OA
ATOM     78  O   UNL A   1      41.906  22.507  25.352  1.00  0.00    -0.237 OA
ATOM     79  O   UNL A   1      41.728  22.396  27.795  1.00  0.00    -0.744 OA
ENDBRANCH  73  76
ENDBRANCH  45  69
BRANCH  57  80
ATOM     80  C   UNL A   1      44.960  27.171  33.945  1.00  0.00     0.023 A 
ATOM     81  C   UNL A   1      46.263  27.701  33.866  1.00  0.00     0.012 A 
ATOM     82  C   UNL A   1      44.749  25.957  34.629  1.00  0.00     0.148 A 
ATOM     83  C   UNL A   1      47.344  27.013  34.418  1.00  0.00     0.002 A 
ATOM     84  C   UNL A   1      45.824  25.302  35.219  1.00  0.00     0.091 A 
ATOM     85  F   UNL A   1      43.506  25.456  34.679  1.00  0.00    -0.205 F 
ATOM     86  C   UNL A   1      47.123  25.821  35.102  1.00  0.00     0.022 A 
BRANCH  84  87
ATOM     87  S   UNL A   1      45.613  23.812  36.200  1.00  0.00     0.127 S 
ATOM     88  O   UNL A   1      44.668  24.259  37.223  1.00  0.00    -0.237 OA
ATOM     89  O   UNL A   1      45.057  22.871  35.227  1.00  0.00    -0.237 OA
ATOM     90  O   UNL A   1      46.943  23.461  36.680  1.00  0.00    -0.744 OA
ENDBRANCH  84  87
ENDBRANCH  57  80
ENDBRANCH  31  32
ENDBRANCH  24  26
ENDBRANCH  23  24
ENDBRANCH  22  23
ENDBRANCH  21  22
ENDBRANCH  20  21
ENDBRANCH   1  20
TORSDOF 21
ENDMDL
