MODEL 1
REMARK VINA RESULT:     -11.1      0.000      0.000
REMARK SMILES O=C(CC[C@@H]1CN(c2ccncc2)CC[C@@H]1[NH+]1CCOCC1)OCCOCCOC(=O)c1ccc(-c2c3nc(c(-c4cccc(S(=O)(=O)[O-])c4F)c4ccc([nH]4)c(-c4cccc(S(=O)(=O)[O-])c4F)c4nc(c(-c5cccc(S(=O)(=O)[O-])c5F)c5ccc2[nH]5)C=C4)C=C3)cc1
REMARK SMILES IDX 26 1 25 2 24 3 23 4 2 5 1 6 3 7 4 8 5 9 6 10 16 11 7 12
REMARK SMILES IDX 15 13 14 14 17 15 18 16 22 17 19 19 21 20 20 21 8 22 9 23
REMARK SMILES IDX 13 24 10 25 12 26 11 27 27 28 28 29 29 30 30 31 31 32 32 33
REMARK SMILES IDX 33 34 94 35 34 36 93 37 35 38 36 39 37 40 87 41 38 42 92 43
REMARK SMILES IDX 86 44 88 45 39 46 91 47 85 48 84 49 40 51 72 52 52 53 71 54
REMARK SMILES IDX 53 55 56 56 70 57 89 58 54 59 55 60 69 62 90 63 57 64 41 65
REMARK SMILES IDX 42 66 50 67 43 68 45 69 51 70 44 71 46 72 47 73 48 74 49 75
REMARK SMILES IDX 73 76 74 77 82 78 75 79 77 80 83 81 76 82 78 83 79 84 80 85
REMARK SMILES IDX 81 86 58 87 59 88 67 89 60 90 62 91 68 92 61 93 63 94 64 95
REMARK SMILES IDX 65 96 66 97
REMARK H PARENT 17 18 88 50 56 61
REMARK Flexibility Score: inf
ROOT
ATOM      1  O   UNL A   1      32.931  33.965  28.749  1.00  0.00    -0.374 OA
ENDROOT
BRANCH   1   2
ATOM      2  C   UNL A   1      33.762  33.135  27.954  1.00  0.00     0.202 C 
BRANCH   2   3
ATOM      3  C   UNL A   1      33.381  31.671  27.808  1.00  0.00     0.261 C 
BRANCH   3   4
ATOM      4  O   UNL A   1      34.420  30.726  28.108  1.00  0.00    -0.463 OA
BRANCH   4   5
ATOM      5  C   UNL A   1      34.654  29.574  27.454  1.00  0.00     0.305 C 
ATOM      6  O   UNL A   1      35.804  29.204  27.230  1.00  0.00    -0.252 OA
BRANCH   5   7
ATOM      7  C   UNL A   1      33.472  28.819  26.926  1.00  0.00     0.123 C 
BRANCH   7   8
ATOM      8  C   UNL A   1      33.826  27.709  25.936  1.00  0.00     0.023 C 
BRANCH   8   9
ATOM      9  C   UNL A   1      33.139  27.647  24.540  1.00  0.00     0.067 C 
ATOM     10  C   UNL A   1      31.885  28.557  24.386  1.00  0.00     0.126 C 
ATOM     11  C   UNL A   1      33.241  26.308  23.701  1.00  0.00     0.190 C 
ATOM     12  N   UNL A   1      30.800  28.047  23.552  1.00  0.00    -0.371 N 
ATOM     13  C   UNL A   1      32.215  26.330  22.566  1.00  0.00     0.087 C 
ATOM     14  C   UNL A   1      30.822  26.688  23.030  1.00  0.00     0.122 C 
BRANCH  11  15
ATOM     15  N   UNL A   1      33.520  25.029  24.398  1.00  0.00    -0.328 N 
ATOM     16  C   UNL A   1      34.008  23.937  23.500  1.00  0.00     0.291 C 
ATOM     17  C   UNL A   1      32.512  24.412  25.270  1.00  0.00     0.291 C 
ATOM     18  H   UNL A   1      34.236  25.404  25.020  1.00  0.00     0.348 HD
ATOM     19  C   UNL A   1      32.919  23.062  22.839  1.00  0.00     0.221 C 
ATOM     20  C   UNL A   1      31.437  23.549  24.603  1.00  0.00     0.221 C 
ATOM     21  O   UNL A   1      32.013  22.525  23.805  1.00  0.00    -0.370 OA
ENDBRANCH  11  15
BRANCH  12  22
ATOM     22  C   UNL A   1      29.648  28.815  23.378  1.00  0.00     0.040 A 
ATOM     23  C   UNL A   1      29.653  30.202  23.546  1.00  0.00     0.046 A 
ATOM     24  C   UNL A   1      28.415  28.243  23.068  1.00  0.00     0.046 A 
ATOM     25  C   UNL A   1      28.483  30.937  23.419  1.00  0.00     0.113 A 
ATOM     26  C   UNL A   1      27.284  29.049  22.979  1.00  0.00     0.113 A 
ATOM     27  N   UNL A   1      27.290  30.387  23.139  1.00  0.00    -0.265 NA
ENDBRANCH  12  22
ENDBRANCH   8   9
ENDBRANCH   7   8
ENDBRANCH   5   7
ENDBRANCH   4   5
ENDBRANCH   3   4
ENDBRANCH   2   3
ENDBRANCH   1   2
BRANCH   1  28
ATOM     28  C   UNL A   1      33.509  35.019  29.514  1.00  0.00     0.202 C 
BRANCH  28  29
ATOM     29  C   UNL A   1      34.097  34.667  30.884  1.00  0.00     0.261 C 
BRANCH  29  30
ATOM     30  O   UNL A   1      35.299  33.870  30.843  1.00  0.00    -0.460 OA
BRANCH  30  31
ATOM     31  C   UNL A   1      35.222  32.676  31.481  1.00  0.00     0.338 C 
ATOM     32  O   UNL A   1      34.404  32.350  32.323  1.00  0.00    -0.246 OA
BRANCH  31  33
ATOM     33  C   UNL A   1      36.209  31.716  30.946  1.00  0.00     0.060 A 
ATOM     34  C   UNL A   1      36.784  30.815  31.847  1.00  0.00     0.016 A 
ATOM     35  C   UNL A   1      36.702  31.809  29.647  1.00  0.00     0.016 A 
ATOM     36  C   UNL A   1      37.880  30.029  31.488  1.00  0.00     0.010 A 
ATOM     37  C   UNL A   1      37.809  31.032  29.284  1.00  0.00     0.010 A 
ATOM     38  C   UNL A   1      38.428  30.170  30.211  1.00  0.00    -0.014 A 
BRANCH  38  39
ATOM     39  C   UNL A   1      39.752  29.586  29.880  1.00  0.00     0.031 A 
ATOM     40  C   UNL A   1      40.944  30.499  29.854  1.00  0.00     0.074 A 
ATOM     41  C   UNL A   1      39.886  28.294  29.534  1.00  0.00     0.049 A 
ATOM     42  N   UNL A   1      42.129  30.304  29.343  1.00  0.00    -0.248 NA
ATOM     43  C   UNL A   1      40.762  31.820  30.479  1.00  0.00     0.031 C 
ATOM     44  C   UNL A   1      38.823  27.299  29.577  1.00  0.00     0.029 A 
ATOM     45  N   UNL A   1      40.964  27.618  29.016  1.00  0.00    -0.354 N 
ATOM     46  C   UNL A   1      42.812  31.501  29.515  1.00  0.00     0.074 A 
ATOM     47  C   UNL A   1      41.917  32.406  30.204  1.00  0.00     0.031 C 
ATOM     48  C   UNL A   1      39.272  26.155  29.036  1.00  0.00     0.029 A 
ATOM     49  C   UNL A   1      40.638  26.360  28.562  1.00  0.00     0.049 A 
ATOM     50  H   UNL A   1      41.873  27.994  28.973  1.00  0.00     0.167 HD
ATOM     51  C   UNL A   1      44.067  31.821  29.121  1.00  0.00     0.034 A 
ATOM     52  C   UNL A   1      41.335  25.502  27.790  1.00  0.00     0.034 A 
ATOM     53  C   UNL A   1      44.952  30.907  28.452  1.00  0.00     0.049 A 
ATOM     54  C   UNL A   1      42.718  25.881  27.333  1.00  0.00     0.074 A 
ATOM     55  C   UNL A   1      46.257  31.113  28.044  1.00  0.00     0.029 A 
ATOM     56  N   UNL A   1      44.614  29.615  28.079  1.00  0.00    -0.354 N 
ATOM     57  N   UNL A   1      43.386  26.988  27.558  1.00  0.00    -0.248 NA
ATOM     58  C   UNL A   1      43.455  24.890  26.535  1.00  0.00     0.031 C 
ATOM     59  C   UNL A   1      46.697  29.955  27.396  1.00  0.00     0.029 A 
ATOM     60  C   UNL A   1      45.679  29.014  27.434  1.00  0.00     0.049 A 
ATOM     61  H   UNL A   1      43.743  29.188  28.249  1.00  0.00     0.167 HD
ATOM     62  C   UNL A   1      44.631  26.813  26.963  1.00  0.00     0.074 A 
ATOM     63  C   UNL A   1      44.628  25.489  26.373  1.00  0.00     0.031 C 
ATOM     64  C   UNL A   1      45.679  27.673  26.904  1.00  0.00     0.034 A 
BRANCH  51  65
ATOM     65  C   UNL A   1      44.536  33.228  29.383  1.00  0.00     0.023 A 
ATOM     66  C   UNL A   1      45.120  33.561  30.622  1.00  0.00     0.012 A 
ATOM     67  C   UNL A   1      44.392  34.224  28.397  1.00  0.00     0.148 A 
ATOM     68  C   UNL A   1      45.508  34.873  30.895  1.00  0.00     0.002 A 
ATOM     69  C   UNL A   1      44.825  35.519  28.659  1.00  0.00     0.091 A 
ATOM     70  F   UNL A   1      43.810  33.898  27.235  1.00  0.00    -0.205 F 
ATOM     71  C   UNL A   1      45.367  35.849  29.912  1.00  0.00     0.022 A 
BRANCH  69  72
ATOM     72  S   UNL A   1      44.751  36.821  27.425  1.00  0.00     0.127 S 
ATOM     73  O   UNL A   1      45.250  37.971  28.178  1.00  0.00    -0.237 OA
ATOM     74  O   UNL A   1      45.664  36.325  26.394  1.00  0.00    -0.237 OA
ATOM     75  O   UNL A   1      43.358  36.896  27.009  1.00  0.00    -0.744 OA
ENDBRANCH  69  72
ENDBRANCH  51  65
BRANCH  52  76
ATOM     76  C   UNL A   1      40.718  24.201  27.402  1.00  0.00     0.023 A 
ATOM     77  C   UNL A   1      41.272  23.000  27.883  1.00  0.00     0.012 A 
ATOM     78  C   UNL A   1      39.550  24.155  26.613  1.00  0.00     0.148 A 
ATOM     79  C   UNL A   1      40.683  21.773  27.573  1.00  0.00     0.002 A 
ATOM     80  C   UNL A   1      38.937  22.934  26.358  1.00  0.00     0.091 A 
ATOM     81  F   UNL A   1      39.046  25.309  26.159  1.00  0.00    -0.205 F 
ATOM     82  C   UNL A   1      39.511  21.741  26.822  1.00  0.00     0.022 A 
BRANCH  80  83
ATOM     83  S   UNL A   1      37.354  22.795  25.518  1.00  0.00     0.127 S 
ATOM     84  O   UNL A   1      36.448  23.417  26.481  1.00  0.00    -0.237 OA
ATOM     85  O   UNL A   1      37.596  23.579  24.306  1.00  0.00    -0.237 OA
ATOM     86  O   UNL A   1      37.144  21.373  25.294  1.00  0.00    -0.744 OA
ENDBRANCH  80  83
ENDBRANCH  52  76
BRANCH  64  87
ATOM     87  C   UNL A   1      46.943  27.205  26.232  1.00  0.00     0.023 A 
ATOM     88  C   UNL A   1      47.129  27.417  24.852  1.00  0.00     0.012 A 
ATOM     89  C   UNL A   1      47.994  26.663  26.998  1.00  0.00     0.148 A 
ATOM     90  C   UNL A   1      48.338  27.080  24.242  1.00  0.00     0.002 A 
ATOM     91  C   UNL A   1      49.211  26.375  26.393  1.00  0.00     0.091 A 
ATOM     92  F   UNL A   1      47.787  26.451  28.306  1.00  0.00    -0.205 F 
ATOM     93  C   UNL A   1      49.382  26.574  25.014  1.00  0.00     0.022 A 
BRANCH  91  94
ATOM     94  S   UNL A   1      50.643  25.820  27.326  1.00  0.00     0.127 S 
ATOM     95  O   UNL A   1      50.308  24.421  27.581  1.00  0.00    -0.237 OA
ATOM     96  O   UNL A   1      51.732  26.022  26.371  1.00  0.00    -0.237 OA
ATOM     97  O   UNL A   1      50.709  26.671  28.507  1.00  0.00    -0.744 OA
ENDBRANCH  91  94
ENDBRANCH  64  87
ENDBRANCH  38  39
ENDBRANCH  31  33
ENDBRANCH  30  31
ENDBRANCH  29  30
ENDBRANCH  28  29
ENDBRANCH   1  28
TORSDOF 21
ENDMDL
MODEL 2
REMARK VINA RESULT:     -11.1      5.939      7.916
REMARK SMILES O=C(CC[C@@H]1CN(c2ccncc2)CC[C@@H]1[NH+]1CCOCC1)OCCOCCOC(=O)c1ccc(-c2c3nc(c(-c4cccc(S(=O)(=O)[O-])c4F)c4ccc([nH]4)c(-c4cccc(S(=O)(=O)[O-])c4F)c4nc(c(-c5cccc(S(=O)(=O)[O-])c5F)c5ccc2[nH]5)C=C4)C=C3)cc1
REMARK SMILES IDX 26 1 25 2 24 3 23 4 2 5 1 6 3 7 4 8 5 9 6 10 16 11 7 12
REMARK SMILES IDX 15 13 14 14 17 15 18 16 22 17 19 19 21 20 20 21 8 22 9 23
REMARK SMILES IDX 13 24 10 25 12 26 11 27 27 28 28 29 29 30 30 31 31 32 32 33
REMARK SMILES IDX 33 34 94 35 34 36 93 37 35 38 36 39 37 40 87 41 38 42 92 43
REMARK SMILES IDX 86 44 88 45 39 46 91 47 85 48 84 49 40 51 72 52 52 53 71 54
REMARK SMILES IDX 53 55 56 56 70 57 89 58 54 59 55 60 69 62 90 63 57 64 41 65
REMARK SMILES IDX 42 66 50 67 43 68 45 69 51 70 44 71 46 72 47 73 48 74 49 75
REMARK SMILES IDX 73 76 74 77 82 78 75 79 77 80 83 81 76 82 78 83 79 84 80 85
REMARK SMILES IDX 81 86 58 87 59 88 67 89 60 90 62 91 68 92 61 93 63 94 64 95
REMARK SMILES IDX 65 96 66 97
REMARK H PARENT 17 18 88 50 56 61
REMARK Flexibility Score: inf
ROOT
ATOM      1  O   UNL A   1      33.563  34.869  28.119  1.00  0.00    -0.374 OA
ENDROOT
BRANCH   1   2
ATOM      2  C   UNL A   1      34.007  33.675  28.743  1.00  0.00     0.202 C 
BRANCH   2   3
ATOM      3  C   UNL A   1      34.863  32.718  27.932  1.00  0.00     0.261 C 
BRANCH   3   4
ATOM      4  O   UNL A   1      34.630  31.321  28.171  1.00  0.00    -0.463 OA
BRANCH   4   5
ATOM      5  C   UNL A   1      35.443  30.311  27.813  1.00  0.00     0.305 C 
ATOM      6  O   UNL A   1      36.660  30.471  27.772  1.00  0.00    -0.252 OA
BRANCH   5   7
ATOM      7  C   UNL A   1      34.808  29.027  27.371  1.00  0.00     0.123 C 
BRANCH   7   8
ATOM      8  C   UNL A   1      33.337  29.155  26.976  1.00  0.00     0.023 C 
BRANCH   8   9
ATOM      9  C   UNL A   1      32.874  28.812  25.530  1.00  0.00     0.067 C 
ATOM     10  C   UNL A   1      31.742  29.722  24.971  1.00  0.00     0.126 C 
ATOM     11  C   UNL A   1      32.993  27.315  25.028  1.00  0.00     0.190 C 
ATOM     12  N   UNL A   1      30.761  29.090  24.093  1.00  0.00    -0.371 N 
ATOM     13  C   UNL A   1      32.163  27.128  23.757  1.00  0.00     0.087 C 
ATOM     14  C   UNL A   1      30.749  27.649  23.888  1.00  0.00     0.122 C 
BRANCH  11  15
ATOM     15  N   UNL A   1      33.050  26.215  26.022  1.00  0.00    -0.328 N 
ATOM     16  C   UNL A   1      34.057  25.155  25.704  1.00  0.00     0.291 C 
ATOM     17  C   UNL A   1      31.831  25.502  26.426  1.00  0.00     0.291 C 
ATOM     18  H   UNL A   1      33.305  26.803  26.815  1.00  0.00     0.348 HD
ATOM     19  C   UNL A   1      33.566  23.997  24.806  1.00  0.00     0.221 C 
ATOM     20  C   UNL A   1      31.353  24.357  25.527  1.00  0.00     0.221 C 
ATOM     21  O   UNL A   1      32.377  23.395  25.322  1.00  0.00    -0.370 OA
ENDBRANCH  11  15
BRANCH  12  22
ATOM     22  C   UNL A   1      29.720  29.853  23.564  1.00  0.00     0.040 A 
ATOM     23  C   UNL A   1      28.857  29.349  22.588  1.00  0.00     0.046 A 
ATOM     24  C   UNL A   1      29.502  31.176  23.945  1.00  0.00     0.046 A 
ATOM     25  C   UNL A   1      27.862  30.145  22.039  1.00  0.00     0.113 A 
ATOM     26  C   UNL A   1      28.494  31.914  23.331  1.00  0.00     0.113 A 
ATOM     27  N   UNL A   1      27.661  31.426  22.390  1.00  0.00    -0.265 NA
ENDBRANCH  12  22
ENDBRANCH   8   9
ENDBRANCH   7   8
ENDBRANCH   5   7
ENDBRANCH   4   5
ENDBRANCH   3   4
ENDBRANCH   2   3
ENDBRANCH   1   2
BRANCH   1  28
ATOM     28  C   UNL A   1      33.635  36.105  28.823  1.00  0.00     0.202 C 
BRANCH  28  29
ATOM     29  C   UNL A   1      32.470  36.470  29.747  1.00  0.00     0.261 C 
BRANCH  29  30
ATOM     30  O   UNL A   1      32.848  37.121  30.977  1.00  0.00    -0.460 OA
BRANCH  30  31
ATOM     31  C   UNL A   1      32.673  36.381  32.099  1.00  0.00     0.338 C 
ATOM     32  O   UNL A   1      31.766  36.484  32.906  1.00  0.00    -0.246 OA
BRANCH  31  33
ATOM     33  C   UNL A   1      33.680  35.304  32.197  1.00  0.00     0.060 A 
ATOM     34  C   UNL A   1      33.302  34.126  32.847  1.00  0.00     0.016 A 
ATOM     35  C   UNL A   1      35.009  35.500  31.833  1.00  0.00     0.016 A 
ATOM     36  C   UNL A   1      34.241  33.150  33.186  1.00  0.00     0.010 A 
ATOM     37  C   UNL A   1      35.959  34.531  32.181  1.00  0.00     0.010 A 
ATOM     38  C   UNL A   1      35.587  33.373  32.893  1.00  0.00    -0.014 A 
BRANCH  38  39
ATOM     39  C   UNL A   1      36.648  32.519  33.484  1.00  0.00     0.031 A 
ATOM     40  C   UNL A   1      37.269  32.955  34.780  1.00  0.00     0.074 A 
ATOM     41  C   UNL A   1      37.108  31.426  32.851  1.00  0.00     0.049 A 
ATOM     42  N   UNL A   1      38.371  32.550  35.351  1.00  0.00    -0.248 NA
ATOM     43  C   UNL A   1      36.551  34.004  35.522  1.00  0.00     0.031 C 
ATOM     44  C   UNL A   1      36.552  30.870  31.624  1.00  0.00     0.029 A 
ATOM     45  N   UNL A   1      38.192  30.628  33.125  1.00  0.00    -0.354 N 
ATOM     46  C   UNL A   1      38.521  33.344  36.480  1.00  0.00     0.074 A 
ATOM     47  C   UNL A   1      37.381  34.236  36.527  1.00  0.00     0.031 C 
ATOM     48  C   UNL A   1      37.336  29.866  31.204  1.00  0.00     0.029 A 
ATOM     49  C   UNL A   1      38.479  29.748  32.107  1.00  0.00     0.049 A 
ATOM     50  H   UNL A   1      38.708  30.680  33.962  1.00  0.00     0.167 HD
ATOM     51  C   UNL A   1      39.526  33.341  37.387  1.00  0.00     0.034 A 
ATOM     52  C   UNL A   1      39.572  28.988  31.889  1.00  0.00     0.034 A 
ATOM     53  C   UNL A   1      40.644  32.439  37.338  1.00  0.00     0.049 A 
ATOM     54  C   UNL A   1      40.696  29.015  32.890  1.00  0.00     0.074 A 
ATOM     55  C   UNL A   1      41.697  32.322  38.226  1.00  0.00     0.029 A 
ATOM     56  N   UNL A   1      40.860  31.508  36.333  1.00  0.00    -0.354 N 
ATOM     57  N   UNL A   1      40.801  29.719  33.993  1.00  0.00    -0.248 NA
ATOM     58  C   UNL A   1      41.843  28.132  32.632  1.00  0.00     0.031 C 
ATOM     59  C   UNL A   1      42.566  31.340  37.741  1.00  0.00     0.029 A 
ATOM     60  C   UNL A   1      42.036  30.820  36.570  1.00  0.00     0.049 A 
ATOM     61  H   UNL A   1      40.264  31.358  35.564  1.00  0.00     0.167 HD
ATOM     62  C   UNL A   1      42.004  29.337  34.579  1.00  0.00     0.074 A 
ATOM     63  C   UNL A   1      42.589  28.335  33.711  1.00  0.00     0.031 C 
ATOM     64  C   UNL A   1      42.575  29.782  35.726  1.00  0.00     0.034 A 
BRANCH  51  65
ATOM     65  C   UNL A   1      39.466  34.366  38.489  1.00  0.00     0.023 A 
ATOM     66  C   UNL A   1      39.970  35.665  38.275  1.00  0.00     0.012 A 
ATOM     67  C   UNL A   1      38.912  34.037  39.742  1.00  0.00     0.148 A 
ATOM     68  C   UNL A   1      39.968  36.606  39.306  1.00  0.00     0.002 A 
ATOM     69  C   UNL A   1      38.871  34.995  40.749  1.00  0.00     0.091 A 
ATOM     70  F   UNL A   1      38.463  32.790  39.937  1.00  0.00    -0.205 F 
ATOM     71  C   UNL A   1      39.412  36.273  40.538  1.00  0.00     0.022 A 
BRANCH  69  72
ATOM     72  S   UNL A   1      38.106  34.676  42.342  1.00  0.00     0.127 S 
ATOM     73  O   UNL A   1      38.738  33.415  42.726  1.00  0.00    -0.237 OA
ATOM     74  O   UNL A   1      38.530  35.835  43.128  1.00  0.00    -0.237 OA
ATOM     75  O   UNL A   1      36.673  34.612  42.089  1.00  0.00    -0.744 OA
ENDBRANCH  69  72
ENDBRANCH  51  65
BRANCH  52  76
ATOM     76  C   UNL A   1      39.645  28.146  30.662  1.00  0.00     0.023 A 
ATOM     77  C   UNL A   1      38.999  26.896  30.640  1.00  0.00     0.012 A 
ATOM     78  C   UNL A   1      40.296  28.606  29.499  1.00  0.00     0.148 A 
ATOM     79  C   UNL A   1      39.012  26.110  29.485  1.00  0.00     0.002 A 
ATOM     80  C   UNL A   1      40.255  27.845  28.337  1.00  0.00     0.091 A 
ATOM     81  F   UNL A   1      40.912  29.794  29.546  1.00  0.00    -0.205 F 
ATOM     82  C   UNL A   1      39.628  26.589  28.333  1.00  0.00     0.022 A 
BRANCH  80  83
ATOM     83  S   UNL A   1      40.899  28.431  26.764  1.00  0.00     0.127 S 
ATOM     84  O   UNL A   1      41.049  27.184  26.018  1.00  0.00    -0.237 OA
ATOM     85  O   UNL A   1      39.811  29.295  26.307  1.00  0.00    -0.237 OA
ATOM     86  O   UNL A   1      42.140  29.124  27.075  1.00  0.00    -0.744 OA
ENDBRANCH  80  83
ENDBRANCH  52  76
BRANCH  64  87
ATOM     87  C   UNL A   1      43.874  29.157  36.160  1.00  0.00     0.023 A 
ATOM     88  C   UNL A   1      45.092  29.822  35.923  1.00  0.00     0.012 A 
ATOM     89  C   UNL A   1      43.871  27.963  36.909  1.00  0.00     0.148 A 
ATOM     90  C   UNL A   1      46.290  29.299  36.412  1.00  0.00     0.002 A 
ATOM     91  C   UNL A   1      45.061  27.474  37.434  1.00  0.00     0.091 A 
ATOM     92  F   UNL A   1      42.702  27.336  37.105  1.00  0.00    -0.205 F 
ATOM     93  C   UNL A   1      46.273  28.136  37.179  1.00  0.00     0.022 A 
BRANCH  91  94
ATOM     94  S   UNL A   1      45.120  26.043  38.519  1.00  0.00     0.127 S 
ATOM     95  O   UNL A   1      44.626  24.984  37.642  1.00  0.00    -0.237 OA
ATOM     96  O   UNL A   1      46.544  25.956  38.840  1.00  0.00    -0.237 OA
ATOM     97  O   UNL A   1      44.263  26.363  39.654  1.00  0.00    -0.744 OA
ENDBRANCH  91  94
ENDBRANCH  64  87
ENDBRANCH  38  39
ENDBRANCH  31  33
ENDBRANCH  30  31
ENDBRANCH  29  30
ENDBRANCH  28  29
ENDBRANCH   1  28
TORSDOF 21
ENDMDL
MODEL 3
REMARK VINA RESULT:     -10.3      5.668      9.160
REMARK SMILES O=C(CC[C@@H]1CN(c2ccncc2)CC[C@@H]1[NH+]1CCOCC1)OCCOCCOC(=O)c1ccc(-c2c3nc(c(-c4cccc(S(=O)(=O)[O-])c4F)c4ccc([nH]4)c(-c4cccc(S(=O)(=O)[O-])c4F)c4nc(c(-c5cccc(S(=O)(=O)[O-])c5F)c5ccc2[nH]5)C=C4)C=C3)cc1
REMARK SMILES IDX 26 1 25 2 24 3 23 4 2 5 1 6 3 7 4 8 5 9 6 10 16 11 7 12
REMARK SMILES IDX 15 13 14 14 17 15 18 16 22 17 19 19 21 20 20 21 8 22 9 23
REMARK SMILES IDX 13 24 10 25 12 26 11 27 27 28 28 29 29 30 30 31 31 32 32 33
REMARK SMILES IDX 33 34 94 35 34 36 93 37 35 38 36 39 37 40 87 41 38 42 92 43
REMARK SMILES IDX 86 44 88 45 39 46 91 47 85 48 84 49 40 51 72 52 52 53 71 54
REMARK SMILES IDX 53 55 56 56 70 57 89 58 54 59 55 60 69 62 90 63 57 64 41 65
REMARK SMILES IDX 42 66 50 67 43 68 45 69 51 70 44 71 46 72 47 73 48 74 49 75
REMARK SMILES IDX 73 76 74 77 82 78 75 79 77 80 83 81 76 82 78 83 79 84 80 85
REMARK SMILES IDX 81 86 58 87 59 88 67 89 60 90 62 91 68 92 61 93 63 94 64 95
REMARK SMILES IDX 65 96 66 97
REMARK H PARENT 17 18 88 50 56 61
REMARK Flexibility Score: inf
ROOT
ATOM      1  O   UNL A   1      33.374  34.325  28.723  1.00  0.00    -0.374 OA
ENDROOT
BRANCH   1   2
ATOM      2  C   UNL A   1      34.575  33.863  28.127  1.00  0.00     0.202 C 
BRANCH   2   3
ATOM      3  C   UNL A   1      34.796  32.363  28.028  1.00  0.00     0.261 C 
BRANCH   3   4
ATOM      4  O   UNL A   1      33.753  31.624  27.372  1.00  0.00    -0.463 OA
BRANCH   4   5
ATOM      5  C   UNL A   1      33.798  30.323  27.035  1.00  0.00     0.305 C 
ATOM      6  O   UNL A   1      34.337  29.503  27.773  1.00  0.00    -0.252 OA
BRANCH   5   7
ATOM      7  C   UNL A   1      33.263  29.931  25.691  1.00  0.00     0.123 C 
BRANCH   7   8
ATOM      8  C   UNL A   1      31.754  29.686  25.661  1.00  0.00     0.023 C 
BRANCH   8   9
ATOM      9  C   UNL A   1      31.161  28.505  24.837  1.00  0.00     0.067 C 
ATOM     10  C   UNL A   1      32.106  27.279  24.676  1.00  0.00     0.126 C 
ATOM     11  C   UNL A   1      30.095  28.824  23.710  1.00  0.00     0.190 C 
ATOM     12  N   UNL A   1      32.035  26.554  23.410  1.00  0.00    -0.371 N 
ATOM     13  C   UNL A   1      29.927  27.607  22.798  1.00  0.00     0.087 C 
ATOM     14  C   UNL A   1      31.242  27.054  22.296  1.00  0.00     0.122 C 
BRANCH  11  15
ATOM     15  N   UNL A   1      30.042  30.183  23.119  1.00  0.00    -0.328 N 
ATOM     16  C   UNL A   1      29.223  31.160  23.901  1.00  0.00     0.291 C 
ATOM     17  C   UNL A   1      29.664  30.377  21.712  1.00  0.00     0.291 C 
ATOM     18  H   UNL A   1      31.046  30.356  23.164  1.00  0.00     0.348 HD
ATOM     19  C   UNL A   1      27.717  31.213  23.558  1.00  0.00     0.221 C 
ATOM     20  C   UNL A   1      28.169  30.426  21.385  1.00  0.00     0.221 C 
ATOM     21  O   UNL A   1      27.499  31.409  22.159  1.00  0.00    -0.370 OA
ENDBRANCH  11  15
BRANCH  12  22
ATOM     22  C   UNL A   1      32.860  25.448  23.204  1.00  0.00     0.040 A 
ATOM     23  C   UNL A   1      32.547  24.456  22.271  1.00  0.00     0.046 A 
ATOM     24  C   UNL A   1      34.024  25.243  23.944  1.00  0.00     0.046 A 
ATOM     25  C   UNL A   1      33.356  23.340  22.123  1.00  0.00     0.113 A 
ATOM     26  C   UNL A   1      34.771  24.085  23.748  1.00  0.00     0.113 A 
ATOM     27  N   UNL A   1      34.468  23.129  22.847  1.00  0.00    -0.265 NA
ENDBRANCH  12  22
ENDBRANCH   8   9
ENDBRANCH   7   8
ENDBRANCH   5   7
ENDBRANCH   4   5
ENDBRANCH   3   4
ENDBRANCH   2   3
ENDBRANCH   1   2
BRANCH   1  28
ATOM     28  C   UNL A   1      33.212  35.711  29.007  1.00  0.00     0.202 C 
BRANCH  28  29
ATOM     29  C   UNL A   1      32.559  36.096  30.338  1.00  0.00     0.261 C 
BRANCH  29  30
ATOM     30  O   UNL A   1      33.444  36.082  31.477  1.00  0.00    -0.460 OA
BRANCH  30  31
ATOM     31  C   UNL A   1      33.431  34.940  32.206  1.00  0.00     0.338 C 
ATOM     32  O   UNL A   1      32.491  34.488  32.836  1.00  0.00    -0.246 OA
BRANCH  31  33
ATOM     33  C   UNL A   1      34.699  34.196  32.065  1.00  0.00     0.060 A 
ATOM     34  C   UNL A   1      34.824  32.995  32.769  1.00  0.00     0.016 A 
ATOM     35  C   UNL A   1      35.806  34.739  31.417  1.00  0.00     0.016 A 
ATOM     36  C   UNL A   1      36.052  32.342  32.879  1.00  0.00     0.010 A 
ATOM     37  C   UNL A   1      37.044  34.095  31.533  1.00  0.00     0.010 A 
ATOM     38  C   UNL A   1      37.183  32.918  32.296  1.00  0.00    -0.014 A 
BRANCH  38  39
ATOM     39  C   UNL A   1      38.545  32.429  32.627  1.00  0.00     0.031 A 
ATOM     40  C   UNL A   1      39.141  31.352  31.767  1.00  0.00     0.074 A 
ATOM     41  C   UNL A   1      39.208  32.870  33.710  1.00  0.00     0.049 A 
ATOM     42  N   UNL A   1      40.168  30.580  31.995  1.00  0.00    -0.248 NA
ATOM     43  C   UNL A   1      38.471  31.107  30.479  1.00  0.00     0.031 C 
ATOM     44  C   UNL A   1      38.764  33.947  34.585  1.00  0.00     0.029 A 
ATOM     45  N   UNL A   1      40.367  32.417  34.290  1.00  0.00    -0.354 N 
ATOM     46  C   UNL A   1      40.226  29.706  30.917  1.00  0.00     0.074 A 
ATOM     47  C   UNL A   1      39.146  30.064  30.022  1.00  0.00     0.031 C 
ATOM     48  C   UNL A   1      39.596  34.029  35.635  1.00  0.00     0.029 A 
ATOM     49  C   UNL A   1      40.598  32.972  35.528  1.00  0.00     0.049 A 
ATOM     50  H   UNL A   1      40.969  31.764  33.865  1.00  0.00     0.167 HD
ATOM     51  C   UNL A   1      41.092  28.688  30.701  1.00  0.00     0.034 A 
ATOM     52  C   UNL A   1      41.470  32.620  36.495  1.00  0.00     0.034 A 
ATOM     53  C   UNL A   1      42.170  28.354  31.591  1.00  0.00     0.049 A 
ATOM     54  C   UNL A   1      42.408  31.467  36.255  1.00  0.00     0.074 A 
ATOM     55  C   UNL A   1      43.131  27.369  31.450  1.00  0.00     0.029 A 
ATOM     56  N   UNL A   1      42.420  28.990  32.797  1.00  0.00    -0.354 N 
ATOM     57  N   UNL A   1      42.504  30.688  35.204  1.00  0.00    -0.248 NA
ATOM     58  C   UNL A   1      43.372  31.155  37.321  1.00  0.00     0.031 C 
ATOM     59  C   UNL A   1      43.943  27.390  32.588  1.00  0.00     0.029 A 
ATOM     60  C   UNL A   1      43.512  28.412  33.420  1.00  0.00     0.049 A 
ATOM     61  H   UNL A   1      41.898  29.742  33.158  1.00  0.00     0.167 HD
ATOM     62  C   UNL A   1      43.559  29.819  35.465  1.00  0.00     0.074 A 
ATOM     63  C   UNL A   1      44.076  30.174  36.771  1.00  0.00     0.031 C 
ATOM     64  C   UNL A   1      44.050  28.816  34.696  1.00  0.00     0.034 A 
BRANCH  51  65
ATOM     65  C   UNL A   1      40.881  27.852  29.467  1.00  0.00     0.023 A 
ATOM     66  C   UNL A   1      39.874  26.866  29.443  1.00  0.00     0.012 A 
ATOM     67  C   UNL A   1      41.688  28.042  28.328  1.00  0.00     0.148 A 
ATOM     68  C   UNL A   1      39.706  26.050  28.324  1.00  0.00     0.002 A 
ATOM     69  C   UNL A   1      41.484  27.256  27.200  1.00  0.00     0.091 A 
ATOM     70  F   UNL A   1      42.660  28.965  28.377  1.00  0.00    -0.205 F 
ATOM     71  C   UNL A   1      40.505  26.250  27.202  1.00  0.00     0.022 A 
BRANCH  69  72
ATOM     72  S   UNL A   1      42.417  27.496  25.684  1.00  0.00     0.127 S 
ATOM     73  O   UNL A   1      41.928  26.393  24.858  1.00  0.00    -0.237 OA
ATOM     74  O   UNL A   1      41.974  28.823  25.253  1.00  0.00    -0.237 OA
ATOM     75  O   UNL A   1      43.820  27.425  26.066  1.00  0.00    -0.744 OA
ENDBRANCH  69  72
ENDBRANCH  51  65
BRANCH  52  76
ATOM     76  C   UNL A   1      41.481  33.375  37.780  1.00  0.00     0.023 A 
ATOM     77  C   UNL A   1      42.435  34.388  37.982  1.00  0.00     0.012 A 
ATOM     78  C   UNL A   1      40.509  33.136  38.775  1.00  0.00     0.148 A 
ATOM     79  C   UNL A   1      42.435  35.143  39.157  1.00  0.00     0.002 A 
ATOM     80  C   UNL A   1      40.479  33.930  39.916  1.00  0.00     0.091 A 
ATOM     81  F   UNL A   1      39.615  32.161  38.566  1.00  0.00    -0.205 F 
ATOM     82  C   UNL A   1      41.451  34.921  40.116  1.00  0.00     0.022 A 
BRANCH  80  83
ATOM     83  S   UNL A   1      39.173  33.817  41.146  1.00  0.00     0.127 S 
ATOM     84  O   UNL A   1      37.974  33.968  40.325  1.00  0.00    -0.237 OA
ATOM     85  O   UNL A   1      39.389  32.472  41.679  1.00  0.00    -0.237 OA
ATOM     86  O   UNL A   1      39.421  34.896  42.091  1.00  0.00    -0.744 OA
ENDBRANCH  80  83
ENDBRANCH  52  76
BRANCH  64  87
ATOM     87  C   UNL A   1      45.245  28.054  35.203  1.00  0.00     0.023 A 
ATOM     88  C   UNL A   1      46.546  28.529  34.951  1.00  0.00     0.012 A 
ATOM     89  C   UNL A   1      45.068  26.929  36.034  1.00  0.00     0.148 A 
ATOM     90  C   UNL A   1      47.654  27.886  35.504  1.00  0.00     0.002 A 
ATOM     91  C   UNL A   1      46.172  26.323  36.621  1.00  0.00     0.091 A 
ATOM     92  F   UNL A   1      43.821  26.482  36.245  1.00  0.00    -0.205 F 
ATOM     93  C   UNL A   1      47.466  26.794  36.350  1.00  0.00     0.022 A 
BRANCH  91  94
ATOM     94  S   UNL A   1      46.018  24.980  37.804  1.00  0.00     0.127 S 
ATOM     95  O   UNL A   1      44.775  24.344  37.374  1.00  0.00    -0.237 OA
ATOM     96  O   UNL A   1      47.226  24.197  37.543  1.00  0.00    -0.237 OA
ATOM     97  O   UNL A   1      45.977  25.605  39.120  1.00  0.00    -0.744 OA
ENDBRANCH  91  94
ENDBRANCH  64  87
ENDBRANCH  38  39
ENDBRANCH  31  33
ENDBRANCH  30  31
ENDBRANCH  29  30
ENDBRANCH  28  29
ENDBRANCH   1  28
TORSDOF 21
ENDMDL
