MODEL 1
REMARK VINA RESULT:     -11.5      0.000      0.000
REMARK SMILES O=C(OCCOCCOC(=O)c1cc(NC(=O)c2ccccc2Cl)ccc1N1CCC[C@H](C[NH+]2CCCC2)C1)c1ccc(-c2c3nc(c(-c4cccc(S(=O)(=O)[O-])c4F)c4ccc([nH]4)c(-c4cccc(S(=O)(=O)[O-])c4F)c4nc(c(-c5cccc(S(=O)(=O)[O-])c5F)c5ccc2[nH]5)C=C4)C=C3)cc1
REMARK SMILES IDX 6 1 5 2 4 3 3 4 2 5 1 6 40 7 41 8 102 9 42 10 101 11 43 12
REMARK SMILES IDX 44 13 45 14 95 15 46 16 100 17 94 18 96 19 47 20 99 21 93 22
REMARK SMILES IDX 92 23 48 25 80 26 60 27 79 28 61 29 64 30 78 31 97 32 62 33
REMARK SMILES IDX 63 34 77 36 98 37 65 38 49 39 50 40 58 41 51 42 53 43 59 44
REMARK SMILES IDX 52 45 54 46 55 47 56 48 57 49 81 50 82 51 90 52 83 53 85 54
REMARK SMILES IDX 91 55 84 56 86 57 87 58 88 59 89 60 66 61 67 62 75 63 68 64
REMARK SMILES IDX 70 65 76 66 69 67 71 68 72 69 73 70 74 71 7 72 8 73 9 74
REMARK SMILES IDX 10 75 11 76 12 77 13 78 27 79 14 80 26 81 25 82 28 83 29 84
REMARK SMILES IDX 39 85 30 86 32 87 31 88 33 89 34 90 35 91 38 92 36 94 37 95
REMARK SMILES IDX 15 96 16 97 17 99 18 100 19 101 23 102 20 103 22 104 24 105
REMARK SMILES IDX 21 106
REMARK H PARENT 96 24 64 35 34 93 15 98
REMARK Flexibility Score: inf
ROOT
ATOM      1  O   UNL A   1      32.758  30.042  26.738  1.00  0.00    -0.374 OA
ENDROOT
BRANCH   1   2
ATOM      2  C   UNL A   1      33.301  31.200  27.359  1.00  0.00     0.202 C 
BRANCH   2   3
ATOM      3  C   UNL A   1      32.335  32.377  27.251  1.00  0.00     0.261 C 
BRANCH   3   4
ATOM      4  O   UNL A   1      33.023  33.610  27.502  1.00  0.00    -0.460 OA
BRANCH   4   5
ATOM      5  C   UNL A   1      33.318  34.173  28.698  1.00  0.00     0.338 C 
ATOM      6  O   UNL A   1      32.550  35.037  29.123  1.00  0.00    -0.246 OA
BRANCH   5   7
ATOM      7  C   UNL A   1      34.526  33.847  29.530  1.00  0.00     0.060 A 
ATOM      8  C   UNL A   1      34.544  33.010  30.648  1.00  0.00     0.016 A 
ATOM      9  C   UNL A   1      35.763  34.309  29.051  1.00  0.00     0.016 A 
ATOM     10  C   UNL A   1      35.718  32.520  31.184  1.00  0.00     0.010 A 
ATOM     11  C   UNL A   1      36.961  33.864  29.618  1.00  0.00     0.010 A 
ATOM     12  C   UNL A   1      36.929  32.928  30.654  1.00  0.00    -0.014 A 
BRANCH  12  13
ATOM     13  C   UNL A   1      38.132  32.400  31.298  1.00  0.00     0.031 A 
ATOM     14  C   UNL A   1      38.849  31.288  30.618  1.00  0.00     0.074 A 
ATOM     15  C   UNL A   1      38.616  33.020  32.388  1.00  0.00     0.049 A 
ATOM     16  N   UNL A   1      39.882  30.612  31.025  1.00  0.00    -0.248 NA
ATOM     17  C   UNL A   1      38.348  30.897  29.285  1.00  0.00     0.031 C 
ATOM     18  C   UNL A   1      38.040  34.222  33.002  1.00  0.00     0.029 A 
ATOM     19  N   UNL A   1      39.699  32.734  33.171  1.00  0.00    -0.354 N 
ATOM     20  C   UNL A   1      40.109  29.664  30.039  1.00  0.00     0.074 A 
ATOM     21  C   UNL A   1      39.148  29.887  28.984  1.00  0.00     0.031 C 
ATOM     22  C   UNL A   1      38.760  34.546  34.089  1.00  0.00     0.029 A 
ATOM     23  C   UNL A   1      39.790  33.536  34.285  1.00  0.00     0.049 A 
ATOM     24  H   UNL A   1      40.349  32.024  32.958  1.00  0.00     0.167 HD
ATOM     25  C   UNL A   1      41.026  28.675  30.053  1.00  0.00     0.034 A 
ATOM     26  C   UNL A   1      40.577  33.405  35.368  1.00  0.00     0.034 A 
ATOM     27  C   UNL A   1      41.958  28.495  31.126  1.00  0.00     0.049 A 
ATOM     28  C   UNL A   1      41.534  32.241  35.386  1.00  0.00     0.074 A 
ATOM     29  C   UNL A   1      42.921  27.518  31.276  1.00  0.00     0.029 A 
ATOM     30  N   UNL A   1      42.019  29.305  32.253  1.00  0.00    -0.354 N 
ATOM     31  N   UNL A   1      41.768  31.354  34.446  1.00  0.00    -0.248 NA
ATOM     32  C   UNL A   1      42.332  32.054  36.603  1.00  0.00     0.031 C 
ATOM     33  C   UNL A   1      43.534  27.710  32.518  1.00  0.00     0.029 A 
ATOM     34  C   UNL A   1      42.985  28.835  33.119  1.00  0.00     0.049 A 
ATOM     35  H   UNL A   1      41.456  30.097  32.410  1.00  0.00     0.167 HD
ATOM     36  C   UNL A   1      42.755  30.517  34.949  1.00  0.00     0.074 A 
ATOM     37  C   UNL A   1      43.098  31.027  36.262  1.00  0.00     0.031 C 
ATOM     38  C   UNL A   1      43.315  29.413  34.397  1.00  0.00     0.034 A 
BRANCH  25  39
ATOM     39  C   UNL A   1      40.990  27.682  28.931  1.00  0.00     0.023 A 
ATOM     40  C   UNL A   1      40.060  26.624  28.931  1.00  0.00     0.012 A 
ATOM     41  C   UNL A   1      41.892  27.817  27.859  1.00  0.00     0.148 A 
ATOM     42  C   UNL A   1      40.044  25.703  27.884  1.00  0.00     0.002 A 
ATOM     43  C   UNL A   1      41.839  26.926  26.798  1.00  0.00     0.091 A 
ATOM     44  F   UNL A   1      42.792  28.810  27.906  1.00  0.00    -0.205 F 
ATOM     45  C   UNL A   1      40.923  25.860  26.815  1.00  0.00     0.022 A 
BRANCH  43  46
ATOM     46  S   UNL A   1      42.885  27.083  25.349  1.00  0.00     0.127 S 
ATOM     47  O   UNL A   1      44.212  27.207  25.954  1.00  0.00    -0.237 OA
ATOM     48  O   UNL A   1      42.642  25.814  24.664  1.00  0.00    -0.237 OA
ATOM     49  O   UNL A   1      42.421  28.266  24.639  1.00  0.00    -0.744 OA
ENDBRANCH  43  46
ENDBRANCH  25  39
BRANCH  26  50
ATOM     50  C   UNL A   1      40.448  34.326  36.536  1.00  0.00     0.023 A 
ATOM     51  C   UNL A   1      41.013  35.614  36.481  1.00  0.00     0.012 A 
ATOM     52  C   UNL A   1      39.801  33.916  37.722  1.00  0.00     0.148 A 
ATOM     53  C   UNL A   1      40.984  36.453  37.598  1.00  0.00     0.002 A 
ATOM     54  C   UNL A   1      39.723  34.779  38.809  1.00  0.00     0.091 A 
ATOM     55  F   UNL A   1      39.286  32.680  37.773  1.00  0.00    -0.205 F 
ATOM     56  C   UNL A   1      40.335  36.039  38.757  1.00  0.00     0.022 A 
BRANCH  54  57
ATOM     57  S   UNL A   1      38.801  34.369  40.295  1.00  0.00     0.127 S 
ATOM     58  O   UNL A   1      38.589  35.686  40.890  1.00  0.00    -0.237 OA
ATOM     59  O   UNL A   1      37.600  33.740  39.744  1.00  0.00    -0.237 OA
ATOM     60  O   UNL A   1      39.657  33.461  41.047  1.00  0.00    -0.744 OA
ENDBRANCH  54  57
ENDBRANCH  26  50
BRANCH  38  61
ATOM     61  C   UNL A   1      44.372  28.710  35.199  1.00  0.00     0.023 A 
ATOM     62  C   UNL A   1      45.702  29.170  35.162  1.00  0.00     0.012 A 
ATOM     63  C   UNL A   1      44.018  27.658  36.065  1.00  0.00     0.148 A 
ATOM     64  C   UNL A   1      46.674  28.571  35.959  1.00  0.00     0.002 A 
ATOM     65  C   UNL A   1      44.979  27.109  36.900  1.00  0.00     0.091 A 
ATOM     66  F   UNL A   1      42.746  27.232  36.067  1.00  0.00    -0.205 F 
ATOM     67  C   UNL A   1      46.310  27.554  36.839  1.00  0.00     0.022 A 
BRANCH  65  68
ATOM     68  S   UNL A   1      44.577  25.879  38.144  1.00  0.00     0.127 S 
ATOM     69  O   UNL A   1      43.538  26.563  38.912  1.00  0.00    -0.237 OA
ATOM     70  O   UNL A   1      44.099  24.763  37.328  1.00  0.00    -0.237 OA
ATOM     71  O   UNL A   1      45.814  25.616  38.867  1.00  0.00    -0.744 OA
ENDBRANCH  65  68
ENDBRANCH  38  61
ENDBRANCH  12  13
ENDBRANCH   5   7
ENDBRANCH   4   5
ENDBRANCH   3   4
ENDBRANCH   2   3
ENDBRANCH   1   2
BRANCH   1  72
ATOM     72  C   UNL A   1      33.335  28.787  27.104  1.00  0.00     0.202 C 
BRANCH  72  73
ATOM     73  C   UNL A   1      32.169  27.923  27.516  1.00  0.00     0.261 C 
BRANCH  73  74
ATOM     74  O   UNL A   1      32.160  26.903  26.512  1.00  0.00    -0.460 OA
BRANCH  74  75
ATOM     75  C   UNL A   1      31.030  26.226  26.241  1.00  0.00     0.340 C 
ATOM     76  O   UNL A   1      29.918  26.448  26.660  1.00  0.00    -0.246 OA
BRANCH  75  77
ATOM     77  C   UNL A   1      31.369  25.211  25.204  1.00  0.00     0.085 A 
ATOM     78  C   UNL A   1      31.287  23.879  25.678  1.00  0.00     0.044 A 
ATOM     79  C   UNL A   1      31.682  25.493  23.850  1.00  0.00     0.051 A 
ATOM     80  C   UNL A   1      31.545  22.800  24.842  1.00  0.00     0.042 A 
ATOM     81  C   UNL A   1      31.986  24.372  23.049  1.00  0.00     0.029 A 
ATOM     82  C   UNL A   1      31.937  23.059  23.533  1.00  0.00     0.028 A 
BRANCH  79  83
ATOM     83  N   UNL A   1      31.766  26.746  23.238  1.00  0.00    -0.370 N 
ATOM     84  C   UNL A   1      33.064  27.432  23.232  1.00  0.00     0.116 C 
ATOM     85  C   UNL A   1      30.894  27.128  22.124  1.00  0.00     0.126 C 
ATOM     86  C   UNL A   1      32.842  28.948  23.236  1.00  0.00     0.022 C 
ATOM     87  C   UNL A   1      30.534  28.597  22.188  1.00  0.00     0.064 C 
ATOM     88  C   UNL A   1      31.847  29.398  22.164  1.00  0.00     0.013 C 
BRANCH  87  89
ATOM     89  C   UNL A   1      29.572  28.796  23.373  1.00  0.00     0.267 C 
BRANCH  89  90
ATOM     90  N   UNL A   1      28.432  29.697  23.197  1.00  0.00    -0.335 N 
ATOM     91  C   UNL A   1      28.004  29.857  21.804  1.00  0.00     0.262 C 
ATOM     92  C   UNL A   1      28.616  31.025  23.762  1.00  0.00     0.262 C 
ATOM     93  H   UNL A   1      27.704  29.213  23.721  1.00  0.00     0.348 HD
ATOM     94  C   UNL A   1      28.597  31.171  21.334  1.00  0.00     0.067 C 
ATOM     95  C   UNL A   1      28.731  32.000  22.598  1.00  0.00     0.067 C 
ENDBRANCH  89  90
ENDBRANCH  87  89
ENDBRANCH  79  83
BRANCH  80  96
ATOM     96  N   UNL A   1      31.506  21.458  25.248  1.00  0.00    -0.322 N 
ATOM     97  C   UNL A   1      32.495  20.512  25.386  1.00  0.00     0.257 C 
ATOM     98  H   UNL A   1      30.605  21.133  25.476  1.00  0.00     0.170 HD
ATOM     99  O   UNL A   1      32.203  19.324  25.514  1.00  0.00    -0.269 OA
BRANCH  97 100
ATOM    100  C   UNL A   1      33.911  20.894  25.519  1.00  0.00     0.058 A 
ATOM    101  C   UNL A   1      34.821  20.407  24.573  1.00  0.00     0.015 A 
ATOM    102  C   UNL A   1      34.371  21.607  26.632  1.00  0.00     0.053 A 
ATOM    103  C   UNL A   1      36.183  20.685  24.708  1.00  0.00     0.001 A 
ATOM    104  C   UNL A   1      35.741  21.847  26.781  1.00  0.00     0.021 A 
ATOM    105  Cl  UNL A   1      33.317  22.203  27.865  1.00  0.00    -0.083 Cl
ATOM    106  C   UNL A   1      36.643  21.402  25.812  1.00  0.00     0.002 A 
ENDBRANCH  97 100
ENDBRANCH  80  96
ENDBRANCH  75  77
ENDBRANCH  74  75
ENDBRANCH  73  74
ENDBRANCH  72  73
ENDBRANCH   1  72
TORSDOF 22
ENDMDL
MODEL 2
REMARK VINA RESULT:     -11.2      0.749      7.329
REMARK SMILES O=C(OCCOCCOC(=O)c1cc(NC(=O)c2ccccc2Cl)ccc1N1CCC[C@H](C[NH+]2CCCC2)C1)c1ccc(-c2c3nc(c(-c4cccc(S(=O)(=O)[O-])c4F)c4ccc([nH]4)c(-c4cccc(S(=O)(=O)[O-])c4F)c4nc(c(-c5cccc(S(=O)(=O)[O-])c5F)c5ccc2[nH]5)C=C4)C=C3)cc1
REMARK SMILES IDX 6 1 5 2 4 3 3 4 2 5 1 6 40 7 41 8 102 9 42 10 101 11 43 12
REMARK SMILES IDX 44 13 45 14 95 15 46 16 100 17 94 18 96 19 47 20 99 21 93 22
REMARK SMILES IDX 92 23 48 25 80 26 60 27 79 28 61 29 64 30 78 31 97 32 62 33
REMARK SMILES IDX 63 34 77 36 98 37 65 38 49 39 50 40 58 41 51 42 53 43 59 44
REMARK SMILES IDX 52 45 54 46 55 47 56 48 57 49 81 50 82 51 90 52 83 53 85 54
REMARK SMILES IDX 91 55 84 56 86 57 87 58 88 59 89 60 66 61 67 62 75 63 68 64
REMARK SMILES IDX 70 65 76 66 69 67 71 68 72 69 73 70 74 71 7 72 8 73 9 74
REMARK SMILES IDX 10 75 11 76 12 77 13 78 27 79 14 80 26 81 25 82 28 83 29 84
REMARK SMILES IDX 39 85 30 86 32 87 31 88 33 89 34 90 35 91 38 92 36 94 37 95
REMARK SMILES IDX 15 96 16 97 17 99 18 100 19 101 23 102 20 103 22 104 24 105
REMARK SMILES IDX 21 106
REMARK H PARENT 96 24 64 35 34 93 15 98
REMARK Flexibility Score: inf
ROOT
ATOM      1  O   UNL A   1      32.028  30.443  26.278  1.00  0.00    -0.374 OA
ENDROOT
BRANCH   1   2
ATOM      2  C   UNL A   1      31.676  31.750  26.709  1.00  0.00     0.202 C 
BRANCH   2   3
ATOM      3  C   UNL A   1      32.916  32.538  27.125  1.00  0.00     0.261 C 
BRANCH   3   4
ATOM      4  O   UNL A   1      32.537  33.781  27.731  1.00  0.00    -0.460 OA
BRANCH   4   5
ATOM      5  C   UNL A   1      33.188  34.473  28.695  1.00  0.00     0.338 C 
ATOM      6  O   UNL A   1      32.846  35.641  28.884  1.00  0.00    -0.246 OA
BRANCH   5   7
ATOM      7  C   UNL A   1      34.316  33.937  29.530  1.00  0.00     0.060 A 
ATOM      8  C   UNL A   1      34.183  33.096  30.637  1.00  0.00     0.016 A 
ATOM      9  C   UNL A   1      35.617  34.187  29.064  1.00  0.00     0.016 A 
ATOM     10  C   UNL A   1      35.251  32.407  31.174  1.00  0.00     0.010 A 
ATOM     11  C   UNL A   1      36.718  33.538  29.632  1.00  0.00     0.010 A 
ATOM     12  C   UNL A   1      36.518  32.609  30.656  1.00  0.00    -0.014 A 
BRANCH  12  13
ATOM     13  C   UNL A   1      37.608  31.876  31.300  1.00  0.00     0.031 A 
ATOM     14  C   UNL A   1      38.003  32.291  32.674  1.00  0.00     0.074 A 
ATOM     15  C   UNL A   1      38.111  30.786  30.696  1.00  0.00     0.049 A 
ATOM     16  N   UNL A   1      38.978  31.849  33.412  1.00  0.00    -0.248 NA
ATOM     17  C   UNL A   1      37.173  33.329  33.314  1.00  0.00     0.031 C 
ATOM     18  C   UNL A   1      37.643  30.237  29.418  1.00  0.00     0.029 A 
ATOM     19  N   UNL A   1      39.117  29.941  31.072  1.00  0.00    -0.354 N 
ATOM     20  C   UNL A   1      38.930  32.608  34.572  1.00  0.00     0.074 A 
ATOM     21  C   UNL A   1      37.796  33.496  34.470  1.00  0.00     0.031 C 
ATOM     22  C   UNL A   1      38.390  29.166  29.101  1.00  0.00     0.029 A 
ATOM     23  C   UNL A   1      39.427  29.006  30.110  1.00  0.00     0.049 A 
ATOM     24  H   UNL A   1      39.575  29.996  31.942  1.00  0.00     0.167 HD
ATOM     25  C   UNL A   1      39.795  32.574  35.605  1.00  0.00     0.034 A 
ATOM     26  C   UNL A   1      40.481  28.174  30.039  1.00  0.00     0.034 A 
ATOM     27  C   UNL A   1      40.909  31.673  35.658  1.00  0.00     0.049 A 
ATOM     28  C   UNL A   1      41.472  28.220  31.173  1.00  0.00     0.074 A 
ATOM     29  C   UNL A   1      41.875  31.555  36.636  1.00  0.00     0.029 A 
ATOM     30  N   UNL A   1      41.215  30.751  34.666  1.00  0.00    -0.354 N 
ATOM     31  N   UNL A   1      41.420  28.920  32.283  1.00  0.00    -0.248 NA
ATOM     32  C   UNL A   1      42.662  27.370  31.053  1.00  0.00     0.031 C 
ATOM     33  C   UNL A   1      42.794  30.591  36.212  1.00  0.00     0.029 A 
ATOM     34  C   UNL A   1      42.374  30.076  34.993  1.00  0.00     0.049 A 
ATOM     35  H   UNL A   1      40.684  30.601  33.851  1.00  0.00     0.167 HD
ATOM     36  C   UNL A   1      42.557  28.581  33.003  1.00  0.00     0.074 A 
ATOM     37  C   UNL A   1      43.260  27.584  32.217  1.00  0.00     0.031 C 
ATOM     38  C   UNL A   1      43.003  29.058  34.190  1.00  0.00     0.034 A 
BRANCH  25  39
ATOM     39  C   UNL A   1      39.617  33.592  36.691  1.00  0.00     0.023 A 
ATOM     40  C   UNL A   1      40.025  34.927  36.504  1.00  0.00     0.012 A 
ATOM     41  C   UNL A   1      39.023  33.208  37.908  1.00  0.00     0.148 A 
ATOM     42  C   UNL A   1      39.859  35.862  37.526  1.00  0.00     0.002 A 
ATOM     43  C   UNL A   1      38.819  34.153  38.902  1.00  0.00     0.091 A 
ATOM     44  F   UNL A   1      38.681  31.922  38.071  1.00  0.00    -0.205 F 
ATOM     45  C   UNL A   1      39.247  35.478  38.718  1.00  0.00     0.022 A 
BRANCH  43  46
ATOM     46  S   UNL A   1      37.982  33.770  40.443  1.00  0.00     0.127 S 
ATOM     47  O   UNL A   1      38.939  32.866  41.082  1.00  0.00    -0.237 OA
ATOM     48  O   UNL A   1      37.880  35.090  41.065  1.00  0.00    -0.237 OA
ATOM     49  O   UNL A   1      36.712  33.160  40.075  1.00  0.00    -0.744 OA
ENDBRANCH  43  46
ENDBRANCH  25  39
BRANCH  26  50
ATOM     50  C   UNL A   1      40.702  27.302  28.846  1.00  0.00     0.023 A 
ATOM     51  C   UNL A   1      39.996  26.090  28.722  1.00  0.00     0.012 A 
ATOM     52  C   UNL A   1      41.640  27.648  27.852  1.00  0.00     0.148 A 
ATOM     53  C   UNL A   1      40.259  25.218  27.662  1.00  0.00     0.002 A 
ATOM     54  C   UNL A   1      41.854  26.804  26.768  1.00  0.00     0.091 A 
ATOM     55  F   UNL A   1      42.324  28.793  27.991  1.00  0.00    -0.205 F 
ATOM     56  C   UNL A   1      41.181  25.577  26.684  1.00  0.00     0.022 A 
BRANCH  54  57
ATOM     57  S   UNL A   1      42.934  27.248  25.404  1.00  0.00     0.127 S 
ATOM     58  O   UNL A   1      44.175  27.580  26.098  1.00  0.00    -0.237 OA
ATOM     59  O   UNL A   1      42.973  26.006  24.629  1.00  0.00    -0.237 OA
ATOM     60  O   UNL A   1      42.270  28.353  24.723  1.00  0.00    -0.744 OA
ENDBRANCH  54  57
ENDBRANCH  26  50
BRANCH  38  61
ATOM     61  C   UNL A   1      44.287  28.486  34.718  1.00  0.00     0.023 A 
ATOM     62  C   UNL A   1      45.506  29.140  34.456  1.00  0.00     0.012 A 
ATOM     63  C   UNL A   1      44.265  27.358  35.558  1.00  0.00     0.148 A 
ATOM     64  C   UNL A   1      46.692  28.659  35.003  1.00  0.00     0.002 A 
ATOM     65  C   UNL A   1      45.441  26.922  36.149  1.00  0.00     0.091 A 
ATOM     66  F   UNL A   1      43.090  26.748  35.778  1.00  0.00    -0.205 F 
ATOM     67  C   UNL A   1      46.658  27.562  35.861  1.00  0.00     0.022 A 
BRANCH  65  68
ATOM     68  S   UNL A   1      45.473  25.594  37.355  1.00  0.00     0.127 S 
ATOM     69  O   UNL A   1      45.054  24.450  36.548  1.00  0.00    -0.237 OA
ATOM     70  O   UNL A   1      46.880  25.577  37.756  1.00  0.00    -0.237 OA
ATOM     71  O   UNL A   1      44.547  25.983  38.411  1.00  0.00    -0.744 OA
ENDBRANCH  65  68
ENDBRANCH  38  61
ENDBRANCH  12  13
ENDBRANCH   5   7
ENDBRANCH   4   5
ENDBRANCH   3   4
ENDBRANCH   2   3
ENDBRANCH   1   2
BRANCH   1  72
ATOM     72  C   UNL A   1      31.682  29.365  27.149  1.00  0.00     0.202 C 
BRANCH  72  73
ATOM     73  C   UNL A   1      32.790  28.353  26.983  1.00  0.00     0.261 C 
BRANCH  73  74
ATOM     74  O   UNL A   1      32.302  27.518  25.929  1.00  0.00    -0.460 OA
BRANCH  74  75
ATOM     75  C   UNL A   1      31.372  26.579  26.181  1.00  0.00     0.340 C 
ATOM     76  O   UNL A   1      30.516  26.598  27.035  1.00  0.00    -0.246 OA
BRANCH  75  77
ATOM     77  C   UNL A   1      31.497  25.546  25.113  1.00  0.00     0.085 A 
ATOM     78  C   UNL A   1      31.425  24.221  25.607  1.00  0.00     0.044 A 
ATOM     79  C   UNL A   1      31.609  25.810  23.724  1.00  0.00     0.051 A 
ATOM     80  C   UNL A   1      31.498  23.130  24.751  1.00  0.00     0.042 A 
ATOM     81  C   UNL A   1      31.730  24.675  22.897  1.00  0.00     0.029 A 
ATOM     82  C   UNL A   1      31.694  23.366  23.395  1.00  0.00     0.028 A 
BRANCH  79  83
ATOM     83  N   UNL A   1      31.657  27.057  23.095  1.00  0.00    -0.370 N 
ATOM     84  C   UNL A   1      32.968  27.690  22.905  1.00  0.00     0.116 C 
ATOM     85  C   UNL A   1      30.656  27.469  22.108  1.00  0.00     0.126 C 
ATOM     86  C   UNL A   1      32.809  29.214  22.925  1.00  0.00     0.022 C 
ATOM     87  C   UNL A   1      30.367  28.951  22.206  1.00  0.00     0.064 C 
ATOM     88  C   UNL A   1      31.694  29.699  21.996  1.00  0.00     0.013 C 
BRANCH  87  89
ATOM     89  C   UNL A   1      29.585  29.194  23.511  1.00  0.00     0.267 C 
BRANCH  89  90
ATOM     90  N   UNL A   1      28.460  30.128  23.481  1.00  0.00    -0.335 N 
ATOM     91  C   UNL A   1      27.760  30.184  22.193  1.00  0.00     0.262 C 
ATOM     92  C   UNL A   1      28.792  31.492  23.867  1.00  0.00     0.262 C 
ATOM     93  H   UNL A   1      27.840  29.728  24.184  1.00  0.00     0.348 HD
ATOM     94  C   UNL A   1      28.282  31.422  21.489  1.00  0.00     0.067 C 
ATOM     95  C   UNL A   1      28.695  32.353  22.615  1.00  0.00     0.067 C 
ENDBRANCH  89  90
ENDBRANCH  87  89
ENDBRANCH  79  83
BRANCH  80  96
ATOM     96  N   UNL A   1      31.458  21.791  25.171  1.00  0.00    -0.322 N 
ATOM     97  C   UNL A   1      32.448  20.850  25.332  1.00  0.00     0.257 C 
ATOM     98  H   UNL A   1      30.555  21.466  25.392  1.00  0.00     0.170 HD
ATOM     99  O   UNL A   1      32.157  19.663  25.469  1.00  0.00    -0.269 OA
BRANCH  97 100
ATOM    100  C   UNL A   1      33.860  21.238  25.479  1.00  0.00     0.058 A 
ATOM    101  C   UNL A   1      34.751  20.898  24.453  1.00  0.00     0.015 A 
ATOM    102  C   UNL A   1      34.340  21.805  26.665  1.00  0.00     0.053 A 
ATOM    103  C   UNL A   1      36.112  21.182  24.589  1.00  0.00     0.001 A 
ATOM    104  C   UNL A   1      35.710  22.050  26.809  1.00  0.00     0.021 A 
ATOM    105  Cl  UNL A   1      33.312  22.212  27.992  1.00  0.00    -0.083 Cl
ATOM    106  C   UNL A   1      36.591  21.755  25.767  1.00  0.00     0.002 A 
ENDBRANCH  97 100
ENDBRANCH  80  96
ENDBRANCH  75  77
ENDBRANCH  74  75
ENDBRANCH  73  74
ENDBRANCH  72  73
ENDBRANCH   1  72
TORSDOF 22
ENDMDL
MODEL 3
REMARK VINA RESULT:     -11.1      2.057      7.488
REMARK SMILES O=C(OCCOCCOC(=O)c1cc(NC(=O)c2ccccc2Cl)ccc1N1CCC[C@H](C[NH+]2CCCC2)C1)c1ccc(-c2c3nc(c(-c4cccc(S(=O)(=O)[O-])c4F)c4ccc([nH]4)c(-c4cccc(S(=O)(=O)[O-])c4F)c4nc(c(-c5cccc(S(=O)(=O)[O-])c5F)c5ccc2[nH]5)C=C4)C=C3)cc1
REMARK SMILES IDX 6 1 5 2 4 3 3 4 2 5 1 6 40 7 41 8 102 9 42 10 101 11 43 12
REMARK SMILES IDX 44 13 45 14 95 15 46 16 100 17 94 18 96 19 47 20 99 21 93 22
REMARK SMILES IDX 92 23 48 25 80 26 60 27 79 28 61 29 64 30 78 31 97 32 62 33
REMARK SMILES IDX 63 34 77 36 98 37 65 38 49 39 50 40 58 41 51 42 53 43 59 44
REMARK SMILES IDX 52 45 54 46 55 47 56 48 57 49 81 50 82 51 90 52 83 53 85 54
REMARK SMILES IDX 91 55 84 56 86 57 87 58 88 59 89 60 66 61 67 62 75 63 68 64
REMARK SMILES IDX 70 65 76 66 69 67 71 68 72 69 73 70 74 71 7 72 8 73 9 74
REMARK SMILES IDX 10 75 11 76 12 77 13 78 27 79 14 80 26 81 25 82 28 83 29 84
REMARK SMILES IDX 39 85 30 86 32 87 31 88 33 89 34 90 35 91 38 92 36 94 37 95
REMARK SMILES IDX 15 96 16 97 17 99 18 100 19 101 23 102 20 103 22 104 24 105
REMARK SMILES IDX 21 106
REMARK H PARENT 96 24 64 35 34 93 15 98
REMARK Flexibility Score: inf
ROOT
ATOM      1  O   UNL A   1      32.118  29.897  26.812  1.00  0.00    -0.374 OA
ENDROOT
BRANCH   1   2
ATOM      2  C   UNL A   1      32.846  31.057  27.190  1.00  0.00     0.202 C 
BRANCH   2   3
ATOM      3  C   UNL A   1      31.927  32.274  27.264  1.00  0.00     0.261 C 
BRANCH   3   4
ATOM      4  O   UNL A   1      32.699  33.482  27.255  1.00  0.00    -0.460 OA
BRANCH   4   5
ATOM      5  C   UNL A   1      33.278  34.111  28.305  1.00  0.00     0.338 C 
ATOM      6  O   UNL A   1      32.863  35.236  28.591  1.00  0.00    -0.246 OA
BRANCH   5   7
ATOM      7  C   UNL A   1      34.406  33.558  29.128  1.00  0.00     0.060 A 
ATOM      8  C   UNL A   1      34.273  32.701  30.222  1.00  0.00     0.016 A 
ATOM      9  C   UNL A   1      35.707  33.810  28.662  1.00  0.00     0.016 A 
ATOM     10  C   UNL A   1      35.341  31.999  30.744  1.00  0.00     0.010 A 
ATOM     11  C   UNL A   1      36.807  33.148  29.216  1.00  0.00     0.010 A 
ATOM     12  C   UNL A   1      36.606  32.204  30.226  1.00  0.00    -0.014 A 
BRANCH  12  13
ATOM     13  C   UNL A   1      37.696  31.457  30.855  1.00  0.00     0.031 A 
ATOM     14  C   UNL A   1      37.968  31.713  32.295  1.00  0.00     0.074 A 
ATOM     15  C   UNL A   1      38.309  30.484  30.159  1.00  0.00     0.049 A 
ATOM     16  N   UNL A   1      38.917  31.235  33.045  1.00  0.00    -0.248 NA
ATOM     17  C   UNL A   1      37.030  32.611  32.995  1.00  0.00     0.031 C 
ATOM     18  C   UNL A   1      37.967  30.079  28.791  1.00  0.00     0.029 A 
ATOM     19  N   UNL A   1      39.341  29.655  30.502  1.00  0.00    -0.354 N 
ATOM     20  C   UNL A   1      38.740  31.834  34.283  1.00  0.00     0.074 A 
ATOM     21  C   UNL A   1      37.560  32.663  34.207  1.00  0.00     0.031 C 
ATOM     22  C   UNL A   1      38.803  29.102  28.401  1.00  0.00     0.029 A 
ATOM     23  C   UNL A   1      39.776  28.872  29.458  1.00  0.00     0.049 A 
ATOM     24  H   UNL A   1      39.733  29.623  31.405  1.00  0.00     0.167 HD
ATOM     25  C   UNL A   1      39.533  31.716  35.367  1.00  0.00     0.034 A 
ATOM     26  C   UNL A   1      40.886  28.117  29.364  1.00  0.00     0.034 A 
ATOM     27  C   UNL A   1      40.697  30.880  35.392  1.00  0.00     0.049 A 
ATOM     28  C   UNL A   1      41.791  28.072  30.568  1.00  0.00     0.074 A 
ATOM     29  C   UNL A   1      41.599  30.692  36.418  1.00  0.00     0.029 A 
ATOM     30  N   UNL A   1      41.130  30.113  34.319  1.00  0.00    -0.354 N 
ATOM     31  N   UNL A   1      41.617  28.619  31.749  1.00  0.00    -0.248 NA
ATOM     32  C   UNL A   1      43.040  27.314  30.434  1.00  0.00     0.031 C 
ATOM     33  C   UNL A   1      42.607  29.844  35.949  1.00  0.00     0.029 A 
ATOM     34  C   UNL A   1      42.305  29.468  34.647  1.00  0.00     0.049 A 
ATOM     35  H   UNL A   1      40.667  30.040  33.453  1.00  0.00     0.167 HD
ATOM     36  C   UNL A   1      42.723  28.255  32.506  1.00  0.00     0.074 A 
ATOM     37  C   UNL A   1      43.541  27.409  31.658  1.00  0.00     0.031 C 
ATOM     38  C   UNL A   1      43.054  28.599  33.774  1.00  0.00     0.034 A 
BRANCH  25  39
ATOM     39  C   UNL A   1      39.214  32.574  36.554  1.00  0.00     0.023 A 
ATOM     40  C   UNL A   1      39.809  33.840  36.712  1.00  0.00     0.012 A 
ATOM     41  C   UNL A   1      38.299  32.108  37.518  1.00  0.00     0.148 A 
ATOM     42  C   UNL A   1      39.507  34.624  37.825  1.00  0.00     0.002 A 
ATOM     43  C   UNL A   1      37.969  32.912  38.598  1.00  0.00     0.091 A 
ATOM     44  F   UNL A   1      37.780  30.882  37.362  1.00  0.00    -0.205 F 
ATOM     45  C   UNL A   1      38.581  34.166  38.761  1.00  0.00     0.022 A 
BRANCH  43  46
ATOM     46  S   UNL A   1      36.741  32.437  39.818  1.00  0.00     0.127 S 
ATOM     47  O   UNL A   1      35.529  32.361  39.003  1.00  0.00    -0.237 OA
ATOM     48  O   UNL A   1      37.254  31.146  40.273  1.00  0.00    -0.237 OA
ATOM     49  O   UNL A   1      36.739  33.491  40.823  1.00  0.00    -0.744 OA
ENDBRANCH  43  46
ENDBRANCH  25  39
BRANCH  26  50
ATOM     50  C   UNL A   1      41.244  27.420  28.093  1.00  0.00     0.023 A 
ATOM     51  C   UNL A   1      41.627  28.170  26.965  1.00  0.00     0.012 A 
ATOM     52  C   UNL A   1      41.168  26.016  27.983  1.00  0.00     0.148 A 
ATOM     53  C   UNL A   1      41.873  27.541  25.741  1.00  0.00     0.002 A 
ATOM     54  C   UNL A   1      41.474  25.391  26.779  1.00  0.00     0.091 A 
ATOM     55  F   UNL A   1      40.782  25.312  29.057  1.00  0.00    -0.205 F 
ATOM     56  C   UNL A   1      41.803  26.155  25.650  1.00  0.00     0.022 A 
BRANCH  54  57
ATOM     57  S   UNL A   1      41.525  23.604  26.611  1.00  0.00     0.127 S 
ATOM     58  O   UNL A   1      40.108  23.270  26.507  1.00  0.00    -0.237 OA
ATOM     59  O   UNL A   1      42.291  23.436  25.374  1.00  0.00    -0.237 OA
ATOM     60  O   UNL A   1      42.208  23.119  27.803  1.00  0.00    -0.744 OA
ENDBRANCH  54  57
ENDBRANCH  26  50
BRANCH  38  61
ATOM     61  C   UNL A   1      44.334  28.037  34.322  1.00  0.00     0.023 A 
ATOM     62  C   UNL A   1      44.331  26.785  34.966  1.00  0.00     0.012 A 
ATOM     63  C   UNL A   1      45.551  28.710  34.105  1.00  0.00     0.148 A 
ATOM     64  C   UNL A   1      45.523  26.222  35.411  1.00  0.00     0.002 A 
ATOM     65  C   UNL A   1      46.740  28.114  34.496  1.00  0.00     0.091 A 
ATOM     66  F   UNL A   1      45.520  29.908  33.502  1.00  0.00    -0.205 F 
ATOM     67  C   UNL A   1      46.728  26.878  35.162  1.00  0.00     0.022 A 
BRANCH  65  68
ATOM     68  S   UNL A   1      48.341  28.828  34.112  1.00  0.00     0.127 S 
ATOM     69  O   UNL A   1      48.436  29.894  35.109  1.00  0.00    -0.237 OA
ATOM     70  O   UNL A   1      49.243  27.698  34.337  1.00  0.00    -0.237 OA
ATOM     71  O   UNL A   1      48.264  29.276  32.728  1.00  0.00    -0.744 OA
ENDBRANCH  65  68
ENDBRANCH  38  61
ENDBRANCH  12  13
ENDBRANCH   5   7
ENDBRANCH   4   5
ENDBRANCH   3   4
ENDBRANCH   2   3
ENDBRANCH   1   2
BRANCH   1  72
ATOM     72  C   UNL A   1      32.644  28.640  27.243  1.00  0.00     0.202 C 
BRANCH  72  73
ATOM     73  C   UNL A   1      31.436  27.769  27.487  1.00  0.00     0.261 C 
BRANCH  73  74
ATOM     74  O   UNL A   1      31.721  26.605  26.705  1.00  0.00    -0.460 OA
BRANCH  74  75
ATOM     75  C   UNL A   1      30.720  25.833  26.245  1.00  0.00     0.340 C 
ATOM     76  O   UNL A   1      29.537  25.948  26.468  1.00  0.00    -0.246 OA
BRANCH  75  77
ATOM     77  C   UNL A   1      31.323  24.866  25.284  1.00  0.00     0.085 A 
ATOM     78  C   UNL A   1      31.253  23.522  25.727  1.00  0.00     0.044 A 
ATOM     79  C   UNL A   1      31.861  25.198  24.015  1.00  0.00     0.051 A 
ATOM     80  C   UNL A   1      31.744  22.483  24.947  1.00  0.00     0.042 A 
ATOM     81  C   UNL A   1      32.393  24.119  23.278  1.00  0.00     0.029 A 
ATOM     82  C   UNL A   1      32.354  22.795  23.737  1.00  0.00     0.028 A 
BRANCH  79  83
ATOM     83  N   UNL A   1      31.964  26.465  23.438  1.00  0.00    -0.370 N 
ATOM     84  C   UNL A   1      33.133  27.289  23.771  1.00  0.00     0.116 C 
ATOM     85  C   UNL A   1      31.380  26.775  22.130  1.00  0.00     0.126 C 
ATOM     86  C   UNL A   1      32.751  28.771  23.705  1.00  0.00     0.022 C 
ATOM     87  C   UNL A   1      30.856  28.194  22.086  1.00  0.00     0.064 C 
ATOM     88  C   UNL A   1      32.030  29.134  22.404  1.00  0.00     0.013 C 
BRANCH  87  89
ATOM     89  C   UNL A   1      29.599  28.260  22.972  1.00  0.00     0.267 C 
BRANCH  89  90
ATOM     90  N   UNL A   1      28.436  28.994  22.472  1.00  0.00    -0.335 N 
ATOM     91  C   UNL A   1      28.759  30.035  21.492  1.00  0.00     0.262 C 
ATOM     92  C   UNL A   1      27.608  29.597  23.506  1.00  0.00     0.262 C 
ATOM     93  H   UNL A   1      27.905  28.253  22.015  1.00  0.00     0.348 HD
ATOM     94  C   UNL A   1      28.748  31.345  22.257  1.00  0.00     0.067 C 
ATOM     95  C   UNL A   1      27.785  31.106  23.405  1.00  0.00     0.067 C 
ENDBRANCH  89  90
ENDBRANCH  87  89
ENDBRANCH  79  83
BRANCH  80  96
ATOM     96  N   UNL A   1      31.730  21.133  25.330  1.00  0.00    -0.322 N 
ATOM     97  C   UNL A   1      32.733  20.197  25.427  1.00  0.00     0.257 C 
ATOM     98  H   UNL A   1      30.839  20.793  25.574  1.00  0.00     0.170 HD
ATOM     99  O   UNL A   1      32.458  19.003  25.541  1.00  0.00    -0.269 OA
BRANCH  97 100
ATOM    100  C   UNL A   1      34.147  20.593  25.533  1.00  0.00     0.058 A 
ATOM    101  C   UNL A   1      34.445  21.847  26.080  1.00  0.00     0.015 A 
ATOM    102  C   UNL A   1      35.167  19.810  24.980  1.00  0.00     0.053 A 
ATOM    103  C   UNL A   1      35.768  22.291  26.129  1.00  0.00     0.001 A 
ATOM    104  C   UNL A   1      36.485  20.279  24.997  1.00  0.00     0.021 A 
ATOM    105  Cl  UNL A   1      34.875  18.272  24.248  1.00  0.00    -0.083 Cl
ATOM    106  C   UNL A   1      36.787  21.508  25.585  1.00  0.00     0.002 A 
ENDBRANCH  97 100
ENDBRANCH  80  96
ENDBRANCH  75  77
ENDBRANCH  74  75
ENDBRANCH  73  74
ENDBRANCH  72  73
ENDBRANCH   1  72
TORSDOF 22
ENDMDL
