MODEL 1
REMARK VINA RESULT:     -11.2      0.000      0.000
REMARK SMILES CC(C)(CNC(=O)[C@H]1CCC[C@H](C(=O)OCCOCCOC(=O)c2ccc(-c3c4nc(c(-c5cccc(S(=O)(=O)[O-])c5F)c5ccc([nH]5)c(-c5cccc(S(=O)(=O)[O-])c5F)c5nc(c(-c6cccc(S(=O)(=O)[O-])c6F)c6ccc3[nH]6)C=C5)C=C4)cc2)C1)S(C)(=O)=O
REMARK SMILES IDX 17 1 16 2 15 3 13 4 14 5 12 6 8 7 9 8 87 9 10 10 11 11 6 12
REMARK SMILES IDX 5 13 7 15 4 16 2 17 1 18 3 19 88 20 89 21 90 22 91 23 18 24
REMARK SMILES IDX 19 25 20 26 21 27 22 28 23 29 24 30 25 31 86 32 26 33 85 34
REMARK SMILES IDX 27 35 28 36 29 37 79 38 30 39 84 40 78 41 80 42 31 43 83 44
REMARK SMILES IDX 77 45 76 46 32 48 64 49 44 50 63 51 45 52 48 53 62 54 81 55
REMARK SMILES IDX 46 56 47 57 61 59 82 60 49 61 33 62 34 63 42 64 35 65 37 66
REMARK SMILES IDX 43 67 36 68 38 69 39 70 40 71 41 72 65 73 66 74 74 75 67 76
REMARK SMILES IDX 69 77 75 78 68 79 70 80 71 81 72 82 73 83 50 84 51 85 59 86
REMARK SMILES IDX 52 87 54 88 60 89 53 90 55 91 56 92 57 93 58 94
REMARK H PARENT 5 14 80 47 48 58
REMARK Flexibility Score: inf
ROOT
ATOM      1  C   UNL A   1      34.780  21.607  27.254  1.00  0.00     0.202 C 
ENDROOT
BRANCH   1   2
ATOM      2  C   UNL A   1      33.909  22.784  27.711  1.00  0.00     0.261 C 
BRANCH   2   3
ATOM      3  O   UNL A   1      32.520  22.437  27.856  1.00  0.00    -0.463 OA
BRANCH   3   4
ATOM      4  C   UNL A   1      31.693  23.023  26.953  1.00  0.00     0.309 C 
ATOM      5  O   UNL A   1      30.841  23.862  27.235  1.00  0.00    -0.252 OA
BRANCH   4   6
ATOM      6  C   UNL A   1      32.060  22.719  25.508  1.00  0.00     0.100 C 
ATOM      7  C   UNL A   1      31.793  23.638  23.135  1.00  0.00     0.079 C 
ATOM      8  C   UNL A   1      31.802  22.185  22.622  1.00  0.00     0.013 C 
ATOM      9  C   UNL A   1      31.323  23.697  24.580  1.00  0.00     0.028 C 
ATOM     10  C   UNL A   1      32.491  21.202  23.566  1.00  0.00     0.002 C 
ATOM     11  C   UNL A   1      31.952  21.285  25.002  1.00  0.00     0.015 C 
BRANCH   7  12
ATOM     12  C   UNL A   1      33.023  24.428  22.649  1.00  0.00     0.223 C 
ATOM     13  N   UNL A   1      33.693  25.421  23.283  1.00  0.00    -0.354 N 
ATOM     14  H   UNL A   1      34.472  25.734  22.769  1.00  0.00     0.163 HD
ATOM     15  O   UNL A   1      33.502  24.151  21.538  1.00  0.00    -0.275 OA
BRANCH  13  16
ATOM     16  C   UNL A   1      33.542  26.136  24.536  1.00  0.00     0.138 C 
BRANCH  16  17
ATOM     17  C   UNL A   1      33.125  27.625  24.449  1.00  0.00     0.084 C 
ATOM     18  C   UNL A   1      33.860  28.458  25.510  1.00  0.00     0.030 C 
ATOM     19  C   UNL A   1      33.559  28.139  23.053  1.00  0.00     0.030 C 
BRANCH  17  20
ATOM     20  S   UNL A   1      31.318  27.939  24.595  1.00  0.00     0.154 S 
ATOM     21  C   UNL A   1      30.491  27.171  23.221  1.00  0.00     0.158 C 
ATOM     22  O   UNL A   1      30.853  27.234  25.778  1.00  0.00    -0.229 OA
ATOM     23  O   UNL A   1      31.061  29.360  24.487  1.00  0.00    -0.229 OA
ENDBRANCH  17  20
ENDBRANCH  16  17
ENDBRANCH  13  16
ENDBRANCH   7  12
ENDBRANCH   4   6
ENDBRANCH   3   4
ENDBRANCH   2   3
ENDBRANCH   1   2
BRANCH   1  24
ATOM     24  O   UNL A   1      35.653  21.822  26.149  1.00  0.00    -0.374 OA
BRANCH  24  25
ATOM     25  C   UNL A   1      35.858  20.730  25.251  1.00  0.00     0.202 C 
BRANCH  25  26
ATOM     26  C   UNL A   1      37.299  20.317  24.926  1.00  0.00     0.261 C 
BRANCH  26  27
ATOM     27  O   UNL A   1      38.221  21.407  25.107  1.00  0.00    -0.460 OA
BRANCH  27  28
ATOM     28  C   UNL A   1      39.240  21.159  25.965  1.00  0.00     0.338 C 
ATOM     29  O   UNL A   1      39.880  20.127  26.078  1.00  0.00    -0.246 OA
BRANCH  28  30
ATOM     30  C   UNL A   1      39.642  22.419  26.614  1.00  0.00     0.060 A 
ATOM     31  C   UNL A   1      38.994  23.592  26.202  1.00  0.00     0.016 A 
ATOM     32  C   UNL A   1      40.672  22.463  27.552  1.00  0.00     0.016 A 
ATOM     33  C   UNL A   1      39.405  24.824  26.699  1.00  0.00     0.010 A 
ATOM     34  C   UNL A   1      41.098  23.702  28.036  1.00  0.00     0.010 A 
ATOM     35  C   UNL A   1      40.490  24.888  27.582  1.00  0.00    -0.014 A 
BRANCH  35  36
ATOM     36  C   UNL A   1      41.094  26.206  27.879  1.00  0.00     0.031 A 
ATOM     37  C   UNL A   1      42.496  26.474  27.404  1.00  0.00     0.074 A 
ATOM     38  C   UNL A   1      40.391  27.153  28.524  1.00  0.00     0.049 A 
ATOM     39  N   UNL A   1      43.222  27.551  27.539  1.00  0.00    -0.248 NA
ATOM     40  C   UNL A   1      43.168  25.382  26.677  1.00  0.00     0.031 C 
ATOM     41  C   UNL A   1      39.020  27.005  29.011  1.00  0.00     0.029 A 
ATOM     42  N   UNL A   1      40.744  28.426  28.893  1.00  0.00    -0.354 N 
ATOM     43  C   UNL A   1      44.438  27.265  26.930  1.00  0.00     0.074 A 
ATOM     44  C   UNL A   1      44.360  25.908  26.437  1.00  0.00     0.031 C 
ATOM     45  C   UNL A   1      38.657  28.136  29.639  1.00  0.00     0.029 A 
ATOM     46  C   UNL A   1      39.773  29.078  29.615  1.00  0.00     0.049 A 
ATOM     47  H   UNL A   1      41.611  28.832  28.664  1.00  0.00     0.167 HD
ATOM     48  C   UNL A   1      45.515  28.070  26.774  1.00  0.00     0.034 A 
ATOM     49  C   UNL A   1      39.795  30.293  30.199  1.00  0.00     0.034 A 
ATOM     50  C   UNL A   1      45.581  29.422  27.255  1.00  0.00     0.049 A 
ATOM     51  C   UNL A   1      41.024  31.153  30.041  1.00  0.00     0.074 A 
ATOM     52  C   UNL A   1      46.619  30.328  27.139  1.00  0.00     0.029 A 
ATOM     53  N   UNL A   1      44.566  30.061  27.949  1.00  0.00    -0.354 N 
ATOM     54  N   UNL A   1      42.125  30.907  29.371  1.00  0.00    -0.248 NA
ATOM     55  C   UNL A   1      41.000  32.472  30.688  1.00  0.00     0.031 C 
ATOM     56  C   UNL A   1      46.237  31.511  27.778  1.00  0.00     0.029 A 
ATOM     57  C   UNL A   1      44.952  31.349  28.272  1.00  0.00     0.049 A 
ATOM     58  H   UNL A   1      43.697  29.658  28.179  1.00  0.00     0.167 HD
ATOM     59  C   UNL A   1      42.905  32.053  29.483  1.00  0.00     0.074 A 
ATOM     60  C   UNL A   1      42.141  33.002  30.268  1.00  0.00     0.031 C 
ATOM     61  C   UNL A   1      44.148  32.297  28.999  1.00  0.00     0.034 A 
BRANCH  48  62
ATOM     62  C   UNL A   1      46.698  27.519  26.023  1.00  0.00     0.023 A 
ATOM     63  C   UNL A   1      46.769  27.687  24.626  1.00  0.00     0.012 A 
ATOM     64  C   UNL A   1      47.762  26.894  26.700  1.00  0.00     0.148 A 
ATOM     65  C   UNL A   1      47.872  27.221  23.909  1.00  0.00     0.002 A 
ATOM     66  C   UNL A   1      48.876  26.468  25.985  1.00  0.00     0.091 A 
ATOM     67  F   UNL A   1      47.664  26.724  28.026  1.00  0.00    -0.205 F 
ATOM     68  C   UNL A   1      48.928  26.622  24.590  1.00  0.00     0.022 A 
BRANCH  66  69
ATOM     69  S   UNL A   1      50.320  25.746  26.774  1.00  0.00     0.127 S 
ATOM     70  O   UNL A   1      50.591  26.714  27.836  1.00  0.00    -0.237 OA
ATOM     71  O   UNL A   1      49.804  24.459  27.239  1.00  0.00    -0.237 OA
ATOM     72  O   UNL A   1      51.341  25.656  25.739  1.00  0.00    -0.744 OA
ENDBRANCH  66  69
ENDBRANCH  48  62
BRANCH  49  73
ATOM     73  C   UNL A   1      38.611  30.787  30.957  1.00  0.00     0.023 A 
ATOM     74  C   UNL A   1      38.540  30.584  32.349  1.00  0.00     0.012 A 
ATOM     75  C   UNL A   1      37.552  31.451  30.307  1.00  0.00     0.148 A 
ATOM     76  C   UNL A   1      37.421  31.000  33.072  1.00  0.00     0.002 A 
ATOM     77  C   UNL A   1      36.467  31.913  31.043  1.00  0.00     0.091 A 
ATOM     78  F   UNL A   1      37.623  31.617  28.978  1.00  0.00    -0.205 F 
ATOM     79  C   UNL A   1      36.389  31.672  32.423  1.00  0.00     0.022 A 
BRANCH  77  80
ATOM     80  S   UNL A   1      35.161  32.899  30.300  1.00  0.00     0.127 S 
ATOM     81  O   UNL A   1      34.706  32.029  29.220  1.00  0.00    -0.237 OA
ATOM     82  O   UNL A   1      34.220  33.049  31.411  1.00  0.00    -0.237 OA
ATOM     83  O   UNL A   1      35.802  34.143  29.892  1.00  0.00    -0.744 OA
ENDBRANCH  77  80
ENDBRANCH  49  73
BRANCH  61  84
ATOM     84  C   UNL A   1      44.745  33.653  29.261  1.00  0.00     0.023 A 
ATOM     85  C   UNL A   1      45.417  33.899  30.474  1.00  0.00     0.012 A 
ATOM     86  C   UNL A   1      44.709  34.658  28.273  1.00  0.00     0.148 A 
ATOM     87  C   UNL A   1      46.016  35.135  30.715  1.00  0.00     0.002 A 
ATOM     88  C   UNL A   1      45.349  35.870  28.500  1.00  0.00     0.091 A 
ATOM     89  F   UNL A   1      44.050  34.410  27.132  1.00  0.00    -0.205 F 
ATOM     90  C   UNL A   1      45.992  36.114  29.724  1.00  0.00     0.022 A 
BRANCH  88  91
ATOM     91  S   UNL A   1      45.452  37.151  27.245  1.00  0.00     0.127 S 
ATOM     92  O   UNL A   1      46.234  38.178  27.930  1.00  0.00    -0.237 OA
ATOM     93  O   UNL A   1      46.160  36.469  26.161  1.00  0.00    -0.237 OA
ATOM     94  O   UNL A   1      44.077  37.514  26.931  1.00  0.00    -0.744 OA
ENDBRANCH  88  91
ENDBRANCH  61  84
ENDBRANCH  35  36
ENDBRANCH  28  30
ENDBRANCH  27  28
ENDBRANCH  26  27
ENDBRANCH  25  26
ENDBRANCH  24  25
ENDBRANCH   1  24
TORSDOF 21
ENDMDL
MODEL 2
REMARK VINA RESULT:     -11.0      1.526      2.135
REMARK SMILES CC(C)(CNC(=O)[C@H]1CCC[C@H](C(=O)OCCOCCOC(=O)c2ccc(-c3c4nc(c(-c5cccc(S(=O)(=O)[O-])c5F)c5ccc([nH]5)c(-c5cccc(S(=O)(=O)[O-])c5F)c5nc(c(-c6cccc(S(=O)(=O)[O-])c6F)c6ccc3[nH]6)C=C5)C=C4)cc2)C1)S(C)(=O)=O
REMARK SMILES IDX 17 1 16 2 15 3 13 4 14 5 12 6 8 7 9 8 87 9 10 10 11 11 6 12
REMARK SMILES IDX 5 13 7 15 4 16 2 17 1 18 3 19 88 20 89 21 90 22 91 23 18 24
REMARK SMILES IDX 19 25 20 26 21 27 22 28 23 29 24 30 25 31 86 32 26 33 85 34
REMARK SMILES IDX 27 35 28 36 29 37 79 38 30 39 84 40 78 41 80 42 31 43 83 44
REMARK SMILES IDX 77 45 76 46 32 48 64 49 44 50 63 51 45 52 48 53 62 54 81 55
REMARK SMILES IDX 46 56 47 57 61 59 82 60 49 61 33 62 34 63 42 64 35 65 37 66
REMARK SMILES IDX 43 67 36 68 38 69 39 70 40 71 41 72 65 73 66 74 74 75 67 76
REMARK SMILES IDX 69 77 75 78 68 79 70 80 71 81 72 82 73 83 50 84 51 85 59 86
REMARK SMILES IDX 52 87 54 88 60 89 53 90 55 91 56 92 57 93 58 94
REMARK H PARENT 5 14 80 47 48 58
REMARK Flexibility Score: inf
ROOT
ATOM      1  C   UNL A   1      34.745  21.631  26.613  1.00  0.00     0.202 C 
ENDROOT
BRANCH   1   2
ATOM      2  C   UNL A   1      33.482  22.494  26.511  1.00  0.00     0.261 C 
BRANCH   2   3
ATOM      3  O   UNL A   1      32.388  21.822  25.862  1.00  0.00    -0.463 OA
BRANCH   3   4
ATOM      4  C   UNL A   1      32.376  21.937  24.509  1.00  0.00     0.309 C 
ATOM      5  O   UNL A   1      32.274  20.990  23.733  1.00  0.00    -0.252 OA
BRANCH   4   6
ATOM      6  C   UNL A   1      32.273  23.375  24.024  1.00  0.00     0.100 C 
ATOM      7  C   UNL A   1      30.622  25.022  22.971  1.00  0.00     0.079 C 
ATOM      8  C   UNL A   1      31.816  25.696  22.267  1.00  0.00     0.013 C 
ATOM      9  C   UNL A   1      30.935  23.569  23.294  1.00  0.00     0.028 C 
ATOM     10  C   UNL A   1      33.155  25.462  22.963  1.00  0.00     0.002 C 
ATOM     11  C   UNL A   1      33.430  23.975  23.233  1.00  0.00     0.015 C 
BRANCH   7  12
ATOM     12  C   UNL A   1      29.959  25.958  24.001  1.00  0.00     0.223 C 
ATOM     13  N   UNL A   1      30.512  26.533  25.097  1.00  0.00    -0.354 N 
ATOM     14  H   UNL A   1      29.879  27.121  25.569  1.00  0.00     0.163 HD
ATOM     15  O   UNL A   1      28.765  26.257  23.845  1.00  0.00    -0.275 OA
BRANCH  13  16
ATOM     16  C   UNL A   1      31.809  26.492  25.745  1.00  0.00     0.138 C 
BRANCH  16  17
ATOM     17  C   UNL A   1      32.370  27.834  26.279  1.00  0.00     0.084 C 
ATOM     18  C   UNL A   1      31.717  28.199  27.621  1.00  0.00     0.030 C 
ATOM     19  C   UNL A   1      33.886  27.629  26.525  1.00  0.00     0.030 C 
BRANCH  17  20
ATOM     20  S   UNL A   1      32.204  29.262  25.130  1.00  0.00     0.154 S 
ATOM     21  C   UNL A   1      33.235  28.976  23.710  1.00  0.00     0.158 C 
ATOM     22  O   UNL A   1      30.838  29.257  24.632  1.00  0.00    -0.229 OA
ATOM     23  O   UNL A   1      32.706  30.460  25.769  1.00  0.00    -0.229 OA
ENDBRANCH  17  20
ENDBRANCH  16  17
ENDBRANCH  13  16
ENDBRANCH   7  12
ENDBRANCH   4   6
ENDBRANCH   3   4
ENDBRANCH   2   3
ENDBRANCH   1   2
BRANCH   1  24
ATOM     24  O   UNL A   1      35.685  21.708  25.546  1.00  0.00    -0.374 OA
BRANCH  24  25
ATOM     25  C   UNL A   1      36.178  20.476  25.014  1.00  0.00     0.202 C 
BRANCH  25  26
ATOM     26  C   UNL A   1      37.696  20.277  24.929  1.00  0.00     0.261 C 
BRANCH  26  27
ATOM     27  O   UNL A   1      38.413  21.460  25.326  1.00  0.00    -0.460 OA
BRANCH  27  28
ATOM     28  C   UNL A   1      39.482  21.238  26.129  1.00  0.00     0.338 C 
ATOM     29  O   UNL A   1      40.176  20.237  26.182  1.00  0.00    -0.246 OA
BRANCH  28  30
ATOM     30  C   UNL A   1      39.853  22.499  26.796  1.00  0.00     0.060 A 
ATOM     31  C   UNL A   1      39.142  23.652  26.438  1.00  0.00     0.016 A 
ATOM     32  C   UNL A   1      40.915  22.563  27.698  1.00  0.00     0.016 A 
ATOM     33  C   UNL A   1      39.518  24.888  26.953  1.00  0.00     0.010 A 
ATOM     34  C   UNL A   1      41.305  23.808  28.199  1.00  0.00     0.010 A 
ATOM     35  C   UNL A   1      40.630  24.977  27.799  1.00  0.00    -0.014 A 
BRANCH  35  36
ATOM     36  C   UNL A   1      41.188  26.312  28.108  1.00  0.00     0.031 A 
ATOM     37  C   UNL A   1      42.609  26.605  27.709  1.00  0.00     0.074 A 
ATOM     38  C   UNL A   1      40.430  27.253  28.698  1.00  0.00     0.049 A 
ATOM     39  N   UNL A   1      43.303  27.700  27.868  1.00  0.00    -0.248 NA
ATOM     40  C   UNL A   1      43.344  25.519  27.038  1.00  0.00     0.031 C 
ATOM     41  C   UNL A   1      39.037  27.080  29.110  1.00  0.00     0.029 A 
ATOM     42  N   UNL A   1      40.734  28.538  29.068  1.00  0.00    -0.354 N 
ATOM     43  C   UNL A   1      44.557  27.433  27.332  1.00  0.00     0.074 A 
ATOM     44  C   UNL A   1      44.536  26.067  26.857  1.00  0.00     0.031 C 
ATOM     45  C   UNL A   1      38.614  28.212  29.699  1.00  0.00     0.029 A 
ATOM     46  C   UNL A   1      39.709  29.178  29.723  1.00  0.00     0.049 A 
ATOM     47  H   UNL A   1      41.603  28.960  28.881  1.00  0.00     0.167 HD
ATOM     48  C   UNL A   1      45.624  28.259  27.225  1.00  0.00     0.034 A 
ATOM     49  C   UNL A   1      39.673  30.401  30.289  1.00  0.00     0.034 A 
ATOM     50  C   UNL A   1      45.633  29.619  27.688  1.00  0.00     0.049 A 
ATOM     51  C   UNL A   1      40.889  31.286  30.187  1.00  0.00     0.074 A 
ATOM     52  C   UNL A   1      46.656  30.547  27.616  1.00  0.00     0.029 A 
ATOM     53  N   UNL A   1      44.566  30.245  28.314  1.00  0.00    -0.354 N 
ATOM     54  N   UNL A   1      42.032  31.056  29.584  1.00  0.00    -0.248 NA
ATOM     55  C   UNL A   1      40.800  32.614  30.812  1.00  0.00     0.031 C 
ATOM     56  C   UNL A   1      46.213  31.730  28.215  1.00  0.00     0.029 A 
ATOM     57  C   UNL A   1      44.906  31.546  28.639  1.00  0.00     0.049 A 
ATOM     58  H   UNL A   1      43.695  29.826  28.501  1.00  0.00     0.167 HD
ATOM     59  C   UNL A   1      42.778  32.221  29.722  1.00  0.00     0.074 A 
ATOM     60  C   UNL A   1      41.951  33.163  30.448  1.00  0.00     0.031 C 
ATOM     61  C   UNL A   1      44.041  32.486  29.304  1.00  0.00     0.034 A 
BRANCH  48  62
ATOM     62  C   UNL A   1      46.858  27.725  26.550  1.00  0.00     0.023 A 
ATOM     63  C   UNL A   1      47.786  26.974  27.300  1.00  0.00     0.012 A 
ATOM     64  C   UNL A   1      47.072  27.911  25.171  1.00  0.00     0.148 A 
ATOM     65  C   UNL A   1      48.919  26.434  26.692  1.00  0.00     0.002 A 
ATOM     66  C   UNL A   1      48.183  27.336  24.564  1.00  0.00     0.091 A 
ATOM     67  F   UNL A   1      46.189  28.647  24.482  1.00  0.00    -0.205 F 
ATOM     68  C   UNL A   1      49.111  26.606  25.325  1.00  0.00     0.022 A 
BRANCH  66  69
ATOM     69  S   UNL A   1      48.488  27.440  22.796  1.00  0.00     0.127 S 
ATOM     70  O   UNL A   1      47.381  28.287  22.355  1.00  0.00    -0.237 OA
ATOM     71  O   UNL A   1      49.802  28.080  22.749  1.00  0.00    -0.237 OA
ATOM     72  O   UNL A   1      48.458  26.070  22.302  1.00  0.00    -0.744 OA
ENDBRANCH  66  69
ENDBRANCH  48  62
BRANCH  49  73
ATOM     73  C   UNL A   1      38.437  30.880  30.972  1.00  0.00     0.023 A 
ATOM     74  C   UNL A   1      38.272  30.655  32.352  1.00  0.00     0.012 A 
ATOM     75  C   UNL A   1      37.422  31.550  30.261  1.00  0.00     0.148 A 
ATOM     76  C   UNL A   1      37.104  31.056  33.004  1.00  0.00     0.002 A 
ATOM     77  C   UNL A   1      36.287  31.996  30.928  1.00  0.00     0.091 A 
ATOM     78  F   UNL A   1      37.583  31.736  28.942  1.00  0.00    -0.205 F 
ATOM     79  C   UNL A   1      36.116  31.733  32.295  1.00  0.00     0.022 A 
BRANCH  77  80
ATOM     80  S   UNL A   1      35.030  32.988  30.112  1.00  0.00     0.127 S 
ATOM     81  O   UNL A   1      34.164  33.354  31.229  1.00  0.00    -0.237 OA
ATOM     82  O   UNL A   1      35.820  34.088  29.557  1.00  0.00    -0.237 OA
ATOM     83  O   UNL A   1      34.441  32.112  29.106  1.00  0.00    -0.744 OA
ENDBRANCH  77  80
ENDBRANCH  49  73
BRANCH  61  84
ATOM     84  C   UNL A   1      44.594  33.859  29.579  1.00  0.00     0.023 A 
ATOM     85  C   UNL A   1      45.310  34.100  30.767  1.00  0.00     0.012 A 
ATOM     86  C   UNL A   1      44.471  34.887  28.623  1.00  0.00     0.148 A 
ATOM     87  C   UNL A   1      45.867  35.353  31.016  1.00  0.00     0.002 A 
ATOM     88  C   UNL A   1      45.070  36.119  28.856  1.00  0.00     0.091 A 
ATOM     89  F   UNL A   1      43.770  34.642  27.506  1.00  0.00    -0.205 F 
ATOM     90  C   UNL A   1      45.758  36.357  30.057  1.00  0.00     0.022 A 
BRANCH  88  91
ATOM     91  S   UNL A   1      45.062  37.436  27.636  1.00  0.00     0.127 S 
ATOM     92  O   UNL A   1      43.648  37.497  27.272  1.00  0.00    -0.237 OA
ATOM     93  O   UNL A   1      45.541  38.582  28.410  1.00  0.00    -0.237 OA
ATOM     94  O   UNL A   1      45.964  37.005  26.577  1.00  0.00    -0.744 OA
ENDBRANCH  88  91
ENDBRANCH  61  84
ENDBRANCH  35  36
ENDBRANCH  28  30
ENDBRANCH  27  28
ENDBRANCH  26  27
ENDBRANCH  25  26
ENDBRANCH  24  25
ENDBRANCH   1  24
TORSDOF 21
ENDMDL
MODEL 3
REMARK VINA RESULT:     -10.7      1.730      7.790
REMARK SMILES CC(C)(CNC(=O)[C@H]1CCC[C@H](C(=O)OCCOCCOC(=O)c2ccc(-c3c4nc(c(-c5cccc(S(=O)(=O)[O-])c5F)c5ccc([nH]5)c(-c5cccc(S(=O)(=O)[O-])c5F)c5nc(c(-c6cccc(S(=O)(=O)[O-])c6F)c6ccc3[nH]6)C=C5)C=C4)cc2)C1)S(C)(=O)=O
REMARK SMILES IDX 17 1 16 2 15 3 13 4 14 5 12 6 8 7 9 8 87 9 10 10 11 11 6 12
REMARK SMILES IDX 5 13 7 15 4 16 2 17 1 18 3 19 88 20 89 21 90 22 91 23 18 24
REMARK SMILES IDX 19 25 20 26 21 27 22 28 23 29 24 30 25 31 86 32 26 33 85 34
REMARK SMILES IDX 27 35 28 36 29 37 79 38 30 39 84 40 78 41 80 42 31 43 83 44
REMARK SMILES IDX 77 45 76 46 32 48 64 49 44 50 63 51 45 52 48 53 62 54 81 55
REMARK SMILES IDX 46 56 47 57 61 59 82 60 49 61 33 62 34 63 42 64 35 65 37 66
REMARK SMILES IDX 43 67 36 68 38 69 39 70 40 71 41 72 65 73 66 74 74 75 67 76
REMARK SMILES IDX 69 77 75 78 68 79 70 80 71 81 72 82 73 83 50 84 51 85 59 86
REMARK SMILES IDX 52 87 54 88 60 89 53 90 55 91 56 92 57 93 58 94
REMARK H PARENT 5 14 80 47 48 58
REMARK Flexibility Score: inf
ROOT
ATOM      1  C   UNL A   1      33.663  19.867  25.573  1.00  0.00     0.202 C 
ENDROOT
BRANCH   1   2
ATOM      2  C   UNL A   1      32.391  20.236  24.800  1.00  0.00     0.261 C 
BRANCH   2   3
ATOM      3  O   UNL A   1      32.439  19.852  23.414  1.00  0.00    -0.463 OA
BRANCH   3   4
ATOM      4  C   UNL A   1      32.256  20.872  22.537  1.00  0.00     0.309 C 
ATOM      5  O   UNL A   1      31.689  20.762  21.453  1.00  0.00    -0.252 OA
BRANCH   4   6
ATOM      6  C   UNL A   1      32.617  22.235  23.109  1.00  0.00     0.100 C 
ATOM      7  C   UNL A   1      31.550  24.393  23.976  1.00  0.00     0.079 C 
ATOM      8  C   UNL A   1      32.782  25.156  23.453  1.00  0.00     0.013 C 
ATOM      9  C   UNL A   1      31.350  23.098  23.204  1.00  0.00     0.028 C 
ATOM     10  C   UNL A   1      34.031  24.289  23.310  1.00  0.00     0.002 C 
ATOM     11  C   UNL A   1      33.775  23.013  22.494  1.00  0.00     0.015 C 
BRANCH   7  12
ATOM     12  C   UNL A   1      31.450  24.445  25.513  1.00  0.00     0.223 C 
ATOM     13  N   UNL A   1      31.084  25.487  26.300  1.00  0.00    -0.354 N 
ATOM     14  H   UNL A   1      31.066  25.246  27.253  1.00  0.00     0.163 HD
ATOM     15  O   UNL A   1      31.726  23.422  26.159  1.00  0.00    -0.275 OA
BRANCH  13  16
ATOM     16  C   UNL A   1      30.714  26.871  26.078  1.00  0.00     0.138 C 
BRANCH  16  17
ATOM     17  C   UNL A   1      31.822  27.936  26.277  1.00  0.00     0.084 C 
ATOM     18  C   UNL A   1      31.651  28.650  27.627  1.00  0.00     0.030 C 
ATOM     19  C   UNL A   1      33.177  27.183  26.304  1.00  0.00     0.030 C 
BRANCH  17  20
ATOM     20  S   UNL A   1      31.939  29.199  24.946  1.00  0.00     0.154 S 
ATOM     21  C   UNL A   1      30.786  28.782  23.658  1.00  0.00     0.158 C 
ATOM     22  O   UNL A   1      31.469  30.457  25.504  1.00  0.00    -0.229 OA
ATOM     23  O   UNL A   1      33.257  29.154  24.347  1.00  0.00    -0.229 OA
ENDBRANCH  17  20
ENDBRANCH  16  17
ENDBRANCH  13  16
ENDBRANCH   7  12
ENDBRANCH   4   6
ENDBRANCH   3   4
ENDBRANCH   2   3
ENDBRANCH   1   2
BRANCH   1  24
ATOM     24  O   UNL A   1      34.873  20.518  25.201  1.00  0.00    -0.374 OA
BRANCH  24  25
ATOM     25  C   UNL A   1      36.027  19.698  24.999  1.00  0.00     0.202 C 
BRANCH  25  26
ATOM     26  C   UNL A   1      37.350  20.382  24.635  1.00  0.00     0.261 C 
BRANCH  26  27
ATOM     27  O   UNL A   1      37.794  21.275  25.673  1.00  0.00    -0.460 OA
BRANCH  27  28
ATOM     28  C   UNL A   1      39.063  21.068  26.102  1.00  0.00     0.338 C 
ATOM     29  O   UNL A   1      39.763  20.090  25.903  1.00  0.00    -0.246 OA
BRANCH  28  30
ATOM     30  C   UNL A   1      39.589  22.321  26.671  1.00  0.00     0.060 A 
ATOM     31  C   UNL A   1      39.046  23.523  26.197  1.00  0.00     0.016 A 
ATOM     32  C   UNL A   1      40.634  22.322  27.594  1.00  0.00     0.016 A 
ATOM     33  C   UNL A   1      39.578  24.738  26.617  1.00  0.00     0.010 A 
ATOM     34  C   UNL A   1      41.181  23.542  27.999  1.00  0.00     0.010 A 
ATOM     35  C   UNL A   1      40.677  24.751  27.483  1.00  0.00    -0.014 A 
BRANCH  35  36
ATOM     36  C   UNL A   1      41.406  26.022  27.695  1.00  0.00     0.031 A 
ATOM     37  C   UNL A   1      40.704  27.137  28.421  1.00  0.00     0.074 A 
ATOM     38  C   UNL A   1      42.677  26.161  27.281  1.00  0.00     0.049 A 
ATOM     39  N   UNL A   1      41.144  28.329  28.728  1.00  0.00    -0.248 NA
ATOM     40  C   UNL A   1      39.324  26.872  28.863  1.00  0.00     0.031 C 
ATOM     41  C   UNL A   1      43.457  25.138  26.585  1.00  0.00     0.029 A 
ATOM     42  N   UNL A   1      43.532  27.230  27.375  1.00  0.00    -0.354 N 
ATOM     43  C   UNL A   1      40.094  28.961  29.383  1.00  0.00     0.074 A 
ATOM     44  C   UNL A   1      38.989  28.028  29.418  1.00  0.00     0.031 C 
ATOM     45  C   UNL A   1      44.669  25.639  26.291  1.00  0.00     0.029 A 
ATOM     46  C   UNL A   1      44.743  27.020  26.761  1.00  0.00     0.049 A 
ATOM     47  H   UNL A   1      43.298  28.067  27.838  1.00  0.00     0.167 HD
ATOM     48  C   UNL A   1      40.061  30.199  29.929  1.00  0.00     0.034 A 
ATOM     49  C   UNL A   1      45.785  27.859  26.588  1.00  0.00     0.034 A 
ATOM     50  C   UNL A   1      41.167  31.115  29.902  1.00  0.00     0.049 A 
ATOM     51  C   UNL A   1      45.705  29.246  27.174  1.00  0.00     0.074 A 
ATOM     52  C   UNL A   1      41.244  32.389  30.436  1.00  0.00     0.029 A 
ATOM     53  N   UNL A   1      42.390  30.856  29.303  1.00  0.00    -0.354 N 
ATOM     54  N   UNL A   1      44.745  29.792  27.883  1.00  0.00    -0.248 NA
ATOM     55  C   UNL A   1      46.867  30.123  26.967  1.00  0.00     0.031 C 
ATOM     56  C   UNL A   1      42.510  32.906  30.145  1.00  0.00     0.029 A 
ATOM     57  C   UNL A   1      43.229  31.946  29.450  1.00  0.00     0.049 A 
ATOM     58  H   UNL A   1      42.627  30.019  28.840  1.00  0.00     0.167 HD
ATOM     59  C   UNL A   1      45.203  31.055  28.240  1.00  0.00     0.074 A 
ATOM     60  C   UNL A   1      46.536  31.187  27.686  1.00  0.00     0.031 C 
ATOM     61  C   UNL A   1      44.575  32.028  28.945  1.00  0.00     0.034 A 
BRANCH  48  62
ATOM     62  C   UNL A   1      38.799  30.621  30.632  1.00  0.00     0.023 A 
ATOM     63  C   UNL A   1      38.701  30.468  32.029  1.00  0.00     0.012 A 
ATOM     64  C   UNL A   1      37.739  31.222  29.925  1.00  0.00     0.148 A 
ATOM     65  C   UNL A   1      37.559  30.887  32.712  1.00  0.00     0.002 A 
ATOM     66  C   UNL A   1      36.621  31.673  30.617  1.00  0.00     0.091 A 
ATOM     67  F   UNL A   1      37.844  31.337  28.594  1.00  0.00    -0.205 F 
ATOM     68  C   UNL A   1      36.526  31.498  32.007  1.00  0.00     0.022 A 
BRANCH  66  69
ATOM     69  S   UNL A   1      35.264  32.535  29.815  1.00  0.00     0.127 S 
ATOM     70  O   UNL A   1      34.372  32.797  30.944  1.00  0.00    -0.237 OA
ATOM     71  O   UNL A   1      35.930  33.720  29.276  1.00  0.00    -0.237 OA
ATOM     72  O   UNL A   1      34.743  31.618  28.810  1.00  0.00    -0.744 OA
ENDBRANCH  66  69
ENDBRANCH  48  62
BRANCH  49  73
ATOM     73  C   UNL A   1      47.005  27.407  25.861  1.00  0.00     0.023 A 
ATOM     74  C   UNL A   1      47.989  26.667  26.544  1.00  0.00     0.012 A 
ATOM     75  C   UNL A   1      47.199  27.710  24.499  1.00  0.00     0.148 A 
ATOM     76  C   UNL A   1      49.159  26.270  25.896  1.00  0.00     0.002 A 
ATOM     77  C   UNL A   1      48.341  27.263  23.845  1.00  0.00     0.091 A 
ATOM     78  F   UNL A   1      46.264  28.435  23.867  1.00  0.00    -0.205 F 
ATOM     79  C   UNL A   1      49.332  26.560  24.545  1.00  0.00     0.022 A 
BRANCH  77  80
ATOM     80  S   UNL A   1      48.575  27.484  22.077  1.00  0.00     0.127 S 
ATOM     81  O   UNL A   1      47.389  28.251  21.710  1.00  0.00    -0.237 OA
ATOM     82  O   UNL A   1      49.834  28.230  22.025  1.00  0.00    -0.237 OA
ATOM     83  O   UNL A   1      48.660  26.136  21.528  1.00  0.00    -0.744 OA
ENDBRANCH  77  80
ENDBRANCH  49  73
BRANCH  61  84
ATOM     84  C   UNL A   1      45.331  33.304  29.200  1.00  0.00     0.023 A 
ATOM     85  C   UNL A   1      46.238  33.377  30.276  1.00  0.00     0.012 A 
ATOM     86  C   UNL A   1      45.203  34.403  28.326  1.00  0.00     0.148 A 
ATOM     87  C   UNL A   1      46.980  34.536  30.499  1.00  0.00     0.002 A 
ATOM     88  C   UNL A   1      45.981  35.536  28.527  1.00  0.00     0.091 A 
ATOM     89  F   UNL A   1      44.322  34.320  27.319  1.00  0.00    -0.205 F 
ATOM     90  C   UNL A   1      46.861  35.609  29.618  1.00  0.00     0.022 A 
BRANCH  88  91
ATOM     91  S   UNL A   1      45.963  36.926  27.389  1.00  0.00     0.127 S 
ATOM     92  O   UNL A   1      46.349  36.287  26.132  1.00  0.00    -0.237 OA
ATOM     93  O   UNL A   1      44.567  37.360  27.448  1.00  0.00    -0.237 OA
ATOM     94  O   UNL A   1      46.916  37.890  27.921  1.00  0.00    -0.744 OA
ENDBRANCH  88  91
ENDBRANCH  61  84
ENDBRANCH  35  36
ENDBRANCH  28  30
ENDBRANCH  27  28
ENDBRANCH  26  27
ENDBRANCH  25  26
ENDBRANCH  24  25
ENDBRANCH   1  24
TORSDOF 21
ENDMDL
