MODEL 1
REMARK VINA RESULT:      -9.6      0.000      0.000
REMARK SMILES O=C(OCCOCCOC(=O)[C@@H](F)Sc1ccccc1O)c1ccc(-c2c3nc(c(-c4cccc(S(=O)(=O)[O-])c4F)c4ccc([nH]4)c(-c4cccc(S(=O)(=O)[O-])c4F)c4nc(c(-c5cccc(S(=O)(=O)[O-])c5F)c5ccc2[nH]5)C=C4)C=C3)cc1
REMARK SMILES IDX 6 1 5 2 4 3 3 4 2 5 1 6 22 7 23 8 84 9 24 10 83 11 25 12
REMARK SMILES IDX 26 13 27 14 77 15 28 16 82 17 76 18 78 19 29 20 81 21 75 22
REMARK SMILES IDX 74 23 30 25 62 26 42 27 61 28 43 29 46 30 60 31 79 32 44 33
REMARK SMILES IDX 45 34 59 36 80 37 47 38 31 39 32 40 40 41 33 42 35 43 41 44
REMARK SMILES IDX 34 45 36 46 37 47 38 48 39 49 63 50 64 51 72 52 65 53 67 54
REMARK SMILES IDX 73 55 66 56 68 57 69 58 70 59 71 60 48 61 49 62 57 63 50 64
REMARK SMILES IDX 52 65 58 66 51 67 53 68 54 69 55 70 56 71 7 72 8 73 9 74
REMARK SMILES IDX 10 75 11 76 12 77 13 78 14 79 15 80 16 81 20 82 17 83 19 84
REMARK SMILES IDX 18 85 21 86
REMARK H PARENT 78 24 46 35 21 87
REMARK Flexibility Score: inf
ROOT
ATOM      1  O   UNL A   1      34.731  35.088  29.000  1.00  0.00    -0.374 OA
ENDROOT
BRANCH   1   2
ATOM      2  C   UNL A   1      34.741  34.219  27.865  1.00  0.00     0.202 C 
BRANCH   2   3
ATOM      3  C   UNL A   1      33.605  33.183  27.830  1.00  0.00     0.261 C 
BRANCH   3   4
ATOM      4  O   UNL A   1      34.004  31.921  28.393  1.00  0.00    -0.460 OA
BRANCH   4   5
ATOM      5  C   UNL A   1      34.607  30.859  27.803  1.00  0.00     0.338 C 
ATOM      6  O   UNL A   1      34.020  30.315  26.868  1.00  0.00    -0.246 OA
BRANCH   5   7
ATOM      7  C   UNL A   1      35.909  30.264  28.252  1.00  0.00     0.060 A 
ATOM      8  C   UNL A   1      36.104  29.544  29.431  1.00  0.00     0.016 A 
ATOM      9  C   UNL A   1      37.002  30.366  27.368  1.00  0.00     0.016 A 
ATOM     10  C   UNL A   1      37.302  28.922  29.724  1.00  0.00     0.010 A 
ATOM     11  C   UNL A   1      38.230  29.764  27.662  1.00  0.00     0.010 A 
ATOM     12  C   UNL A   1      38.371  29.043  28.849  1.00  0.00    -0.014 A 
BRANCH  12  13
ATOM     13  C   UNL A   1      39.657  28.545  29.347  1.00  0.00     0.031 A 
ATOM     14  C   UNL A   1      40.175  29.139  30.617  1.00  0.00     0.074 A 
ATOM     15  C   UNL A   1      40.206  27.458  28.780  1.00  0.00     0.049 A 
ATOM     16  N   UNL A   1      41.239  28.827  31.298  1.00  0.00    -0.248 NA
ATOM     17  C   UNL A   1      39.358  30.208  31.224  1.00  0.00     0.031 C 
ATOM     18  C   UNL A   1      39.655  26.741  27.627  1.00  0.00     0.029 A 
ATOM     19  N   UNL A   1      41.328  26.752  29.111  1.00  0.00    -0.354 N 
ATOM     20  C   UNL A   1      41.245  29.687  32.388  1.00  0.00     0.074 A 
ATOM     21  C   UNL A   1      40.067  30.516  32.296  1.00  0.00     0.031 C 
ATOM     22  C   UNL A   1      40.455  25.702  27.336  1.00  0.00     0.029 A 
ATOM     23  C   UNL A   1      41.593  25.716  28.248  1.00  0.00     0.049 A 
ATOM     24  H   UNL A   1      41.891  26.965  29.890  1.00  0.00     0.167 HD
ATOM     25  C   UNL A   1      42.170  29.778  33.367  1.00  0.00     0.034 A 
ATOM     26  C   UNL A   1      42.666  24.905  28.192  1.00  0.00     0.034 A 
ATOM     27  C   UNL A   1      43.338  28.945  33.410  1.00  0.00     0.049 A 
ATOM     28  C   UNL A   1      43.731  25.091  29.241  1.00  0.00     0.074 A 
ATOM     29  C   UNL A   1      44.388  28.975  34.305  1.00  0.00     0.029 A 
ATOM     30  N   UNL A   1      43.610  27.936  32.495  1.00  0.00    -0.354 N 
ATOM     31  N   UNL A   1      43.740  25.910  30.269  1.00  0.00    -0.248 NA
ATOM     32  C   UNL A   1      44.922  24.242  29.138  1.00  0.00     0.031 C 
ATOM     33  C   UNL A   1      45.316  28.008  33.905  1.00  0.00     0.029 A 
ATOM     34  C   UNL A   1      44.820  27.343  32.791  1.00  0.00     0.049 A 
ATOM     35  H   UNL A   1      43.024  27.681  31.745  1.00  0.00     0.167 HD
ATOM     36  C   UNL A   1      44.920  25.656  30.951  1.00  0.00     0.074 A 
ATOM     37  C   UNL A   1      45.591  24.590  30.230  1.00  0.00     0.031 C 
ATOM     38  C   UNL A   1      45.420  26.252  32.063  1.00  0.00     0.034 A 
BRANCH  25  39
ATOM     39  C   UNL A   1      41.976  30.856  34.395  1.00  0.00     0.023 A 
ATOM     40  C   UNL A   1      41.260  30.593  35.581  1.00  0.00     0.012 A 
ATOM     41  C   UNL A   1      42.475  32.152  34.161  1.00  0.00     0.148 A 
ATOM     42  C   UNL A   1      41.012  31.614  36.500  1.00  0.00     0.002 A 
ATOM     43  C   UNL A   1      42.261  33.152  35.100  1.00  0.00     0.091 A 
ATOM     44  F   UNL A   1      43.121  32.387  33.011  1.00  0.00    -0.205 F 
ATOM     45  C   UNL A   1      41.518  32.889  36.263  1.00  0.00     0.022 A 
BRANCH  43  46
ATOM     46  S   UNL A   1      42.919  34.811  34.912  1.00  0.00     0.127 S 
ATOM     47  O   UNL A   1      42.200  35.282  33.728  1.00  0.00    -0.237 OA
ATOM     48  O   UNL A   1      42.510  35.445  36.166  1.00  0.00    -0.237 OA
ATOM     49  O   UNL A   1      44.357  34.661  34.744  1.00  0.00    -0.744 OA
ENDBRANCH  43  46
ENDBRANCH  25  39
BRANCH  26  50
ATOM     50  C   UNL A   1      42.795  23.887  27.110  1.00  0.00     0.023 A 
ATOM     51  C   UNL A   1      43.511  24.188  25.937  1.00  0.00     0.012 A 
ATOM     52  C   UNL A   1      42.211  22.610  27.245  1.00  0.00     0.148 A 
ATOM     53  C   UNL A   1      43.615  23.251  24.905  1.00  0.00     0.002 A 
ATOM     54  C   UNL A   1      42.366  21.662  26.240  1.00  0.00     0.091 A 
ATOM     55  F   UNL A   1      41.515  22.343  28.359  1.00  0.00    -0.205 F 
ATOM     56  C   UNL A   1      43.052  21.986  25.061  1.00  0.00     0.022 A 
BRANCH  54  57
ATOM     57  S   UNL A   1      41.777  19.973  26.410  1.00  0.00     0.127 S 
ATOM     58  O   UNL A   1      42.423  19.315  25.277  1.00  0.00    -0.237 OA
ATOM     59  O   UNL A   1      42.304  19.599  27.723  1.00  0.00    -0.237 OA
ATOM     60  O   UNL A   1      40.324  20.055  26.349  1.00  0.00    -0.744 OA
ENDBRANCH  54  57
ENDBRANCH  26  50
BRANCH  38  61
ATOM     61  C   UNL A   1      46.728  25.733  32.589  1.00  0.00     0.023 A 
ATOM     62  C   UNL A   1      47.938  26.323  32.174  1.00  0.00     0.012 A 
ATOM     63  C   UNL A   1      46.742  24.727  33.572  1.00  0.00     0.148 A 
ATOM     64  C   UNL A   1      49.149  25.895  32.713  1.00  0.00     0.002 A 
ATOM     65  C   UNL A   1      47.946  24.348  34.148  1.00  0.00     0.091 A 
ATOM     66  F   UNL A   1      45.577  24.170  33.936  1.00  0.00    -0.205 F 
ATOM     67  C   UNL A   1      49.152  24.920  33.710  1.00  0.00     0.022 A 
BRANCH  65  68
ATOM     68  S   UNL A   1      48.030  23.188  35.514  1.00  0.00     0.127 S 
ATOM     69  O   UNL A   1      49.374  23.434  36.031  1.00  0.00    -0.237 OA
ATOM     70  O   UNL A   1      46.947  23.656  36.382  1.00  0.00    -0.237 OA
ATOM     71  O   UNL A   1      47.813  21.869  34.937  1.00  0.00    -0.744 OA
ENDBRANCH  65  68
ENDBRANCH  38  61
ENDBRANCH  12  13
ENDBRANCH   5   7
ENDBRANCH   4   5
ENDBRANCH   3   4
ENDBRANCH   2   3
ENDBRANCH   1   2
BRANCH   1  72
ATOM     72  C   UNL A   1      33.764  36.145  28.956  1.00  0.00     0.202 C 
BRANCH  72  73
ATOM     73  C   UNL A   1      32.634  35.840  29.919  1.00  0.00     0.261 C 
BRANCH  73  74
ATOM     74  O   UNL A   1      33.251  35.535  31.173  1.00  0.00    -0.460 OA
BRANCH  74  75
ATOM     75  C   UNL A   1      33.269  36.520  32.113  1.00  0.00     0.351 C 
ATOM     76  O   UNL A   1      32.538  37.506  32.127  1.00  0.00    -0.248 OA
BRANCH  75  77
ATOM     77  C   UNL A   1      34.317  36.217  33.167  1.00  0.00     0.338 C 
ATOM     78  F   UNL A   1      34.082  36.867  34.351  1.00  0.00    -0.222 F 
BRANCH  77  79
ATOM     79  S   UNL A   1      34.479  34.428  33.477  1.00  0.00    -0.073 SA
BRANCH  79  80
ATOM     80  C   UNL A   1      35.860  34.072  32.393  1.00  0.00     0.052 A 
ATOM     81  C   UNL A   1      37.091  34.687  32.647  1.00  0.00     0.019 A 
ATOM     82  C   UNL A   1      35.764  33.167  31.326  1.00  0.00     0.129 A 
ATOM     83  C   UNL A   1      38.211  34.374  31.873  1.00  0.00     0.001 A 
ATOM     84  C   UNL A   1      36.888  32.826  30.572  1.00  0.00     0.047 A 
ATOM     85  C   UNL A   1      38.113  33.432  30.850  1.00  0.00     0.004 A 
BRANCH  82  86
ATOM     86  O   UNL A   1      34.559  32.580  31.045  1.00  0.00    -0.507 OA
ATOM     87  H   UNL A   1      34.446  31.658  31.173  1.00  0.00     0.293 HD
ENDBRANCH  82  86
ENDBRANCH  79  80
ENDBRANCH  77  79
ENDBRANCH  75  77
ENDBRANCH  74  75
ENDBRANCH  73  74
ENDBRANCH  72  73
ENDBRANCH   1  72
TORSDOF 20
ENDMDL
MODEL 2
REMARK VINA RESULT:      -9.4      4.369      6.443
REMARK SMILES O=C(OCCOCCOC(=O)[C@@H](F)Sc1ccccc1O)c1ccc(-c2c3nc(c(-c4cccc(S(=O)(=O)[O-])c4F)c4ccc([nH]4)c(-c4cccc(S(=O)(=O)[O-])c4F)c4nc(c(-c5cccc(S(=O)(=O)[O-])c5F)c5ccc2[nH]5)C=C4)C=C3)cc1
REMARK SMILES IDX 6 1 5 2 4 3 3 4 2 5 1 6 22 7 23 8 84 9 24 10 83 11 25 12
REMARK SMILES IDX 26 13 27 14 77 15 28 16 82 17 76 18 78 19 29 20 81 21 75 22
REMARK SMILES IDX 74 23 30 25 62 26 42 27 61 28 43 29 46 30 60 31 79 32 44 33
REMARK SMILES IDX 45 34 59 36 80 37 47 38 31 39 32 40 40 41 33 42 35 43 41 44
REMARK SMILES IDX 34 45 36 46 37 47 38 48 39 49 63 50 64 51 72 52 65 53 67 54
REMARK SMILES IDX 73 55 66 56 68 57 69 58 70 59 71 60 48 61 49 62 57 63 50 64
REMARK SMILES IDX 52 65 58 66 51 67 53 68 54 69 55 70 56 71 7 72 8 73 9 74
REMARK SMILES IDX 10 75 11 76 12 77 13 78 14 79 15 80 16 81 20 82 17 83 19 84
REMARK SMILES IDX 18 85 21 86
REMARK H PARENT 78 24 46 35 21 87
REMARK Flexibility Score: inf
ROOT
ATOM      1  O   UNL A   1      31.908  29.862  26.191  1.00  0.00    -0.374 OA
ENDROOT
BRANCH   1   2
ATOM      2  C   UNL A   1      32.517  30.949  26.892  1.00  0.00     0.202 C 
BRANCH   2   3
ATOM      3  C   UNL A   1      31.699  32.251  26.907  1.00  0.00     0.261 C 
BRANCH   3   4
ATOM      4  O   UNL A   1      32.531  33.412  27.079  1.00  0.00    -0.460 OA
BRANCH   4   5
ATOM      5  C   UNL A   1      33.214  33.837  28.170  1.00  0.00     0.338 C 
ATOM      6  O   UNL A   1      32.848  34.885  28.702  1.00  0.00    -0.246 OA
BRANCH   5   7
ATOM      7  C   UNL A   1      34.424  33.153  28.735  1.00  0.00     0.060 A 
ATOM      8  C   UNL A   1      34.407  31.991  29.508  1.00  0.00     0.016 A 
ATOM      9  C   UNL A   1      35.683  33.678  28.384  1.00  0.00     0.016 A 
ATOM     10  C   UNL A   1      35.566  31.349  29.896  1.00  0.00     0.010 A 
ATOM     11  C   UNL A   1      36.867  33.053  28.792  1.00  0.00     0.010 A 
ATOM     12  C   UNL A   1      36.797  31.885  29.553  1.00  0.00    -0.014 A 
BRANCH  12  13
ATOM     13  C   UNL A   1      37.960  31.265  30.195  1.00  0.00     0.031 A 
ATOM     14  C   UNL A   1      38.168  31.546  31.649  1.00  0.00     0.074 A 
ATOM     15  C   UNL A   1      38.657  30.328  29.532  1.00  0.00     0.049 A 
ATOM     16  N   UNL A   1      39.069  31.069  32.458  1.00  0.00    -0.248 NA
ATOM     17  C   UNL A   1      37.203  32.461  32.287  1.00  0.00     0.031 C 
ATOM     18  C   UNL A   1      38.395  29.902  28.155  1.00  0.00     0.029 A 
ATOM     19  N   UNL A   1      39.704  29.547  29.933  1.00  0.00    -0.354 N 
ATOM     20  C   UNL A   1      38.808  31.658  33.688  1.00  0.00     0.074 A 
ATOM     21  C   UNL A   1      37.650  32.505  33.530  1.00  0.00     0.031 C 
ATOM     22  C   UNL A   1      39.275  28.943  27.820  1.00  0.00     0.029 A 
ATOM     23  C   UNL A   1      40.186  28.730  28.938  1.00  0.00     0.049 A 
ATOM     24  H   UNL A   1      40.076  29.567  30.844  1.00  0.00     0.167 HD
ATOM     25  C   UNL A   1      39.494  31.507  34.841  1.00  0.00     0.034 A 
ATOM     26  C   UNL A   1      41.272  27.935  28.938  1.00  0.00     0.034 A 
ATOM     27  C   UNL A   1      40.652  30.668  34.951  1.00  0.00     0.049 A 
ATOM     28  C   UNL A   1      42.076  27.860  30.210  1.00  0.00     0.074 A 
ATOM     29  C   UNL A   1      41.481  30.476  36.037  1.00  0.00     0.029 A 
ATOM     30  N   UNL A   1      41.152  29.889  33.914  1.00  0.00    -0.354 N 
ATOM     31  N   UNL A   1      41.833  28.423  31.372  1.00  0.00    -0.248 NA
ATOM     32  C   UNL A   1      43.290  27.037  30.181  1.00  0.00     0.031 C 
ATOM     33  C   UNL A   1      42.507  29.609  35.643  1.00  0.00     0.029 A 
ATOM     34  C   UNL A   1      42.288  29.225  34.327  1.00  0.00     0.049 A 
ATOM     35  H   UNL A   1      40.753  29.822  33.015  1.00  0.00     0.167 HD
ATOM     36  C   UNL A   1      42.845  28.000  32.221  1.00  0.00     0.074 A 
ATOM     37  C   UNL A   1      43.692  27.116  31.443  1.00  0.00     0.031 C 
ATOM     38  C   UNL A   1      43.070  28.318  33.521  1.00  0.00     0.034 A 
BRANCH  25  39
ATOM     39  C   UNL A   1      39.044  32.326  36.018  1.00  0.00     0.023 A 
ATOM     40  C   UNL A   1      39.370  33.695  36.103  1.00  0.00     0.012 A 
ATOM     41  C   UNL A   1      38.324  31.719  37.065  1.00  0.00     0.148 A 
ATOM     42  C   UNL A   1      39.019  34.437  37.232  1.00  0.00     0.002 A 
ATOM     43  C   UNL A   1      37.941  32.475  38.165  1.00  0.00     0.091 A 
ATOM     44  F   UNL A   1      38.056  30.409  36.978  1.00  0.00    -0.205 F 
ATOM     45  C   UNL A   1      38.300  33.829  38.257  1.00  0.00     0.022 A 
BRANCH  43  46
ATOM     46  S   UNL A   1      36.966  31.797  39.511  1.00  0.00     0.127 S 
ATOM     47  O   UNL A   1      37.992  31.131  40.313  1.00  0.00    -0.237 OA
ATOM     48  O   UNL A   1      36.406  33.004  40.118  1.00  0.00    -0.237 OA
ATOM     49  O   UNL A   1      35.987  30.912  38.897  1.00  0.00    -0.744 OA
ENDBRANCH  43  46
ENDBRANCH  25  39
BRANCH  26  50
ATOM     50  C   UNL A   1      41.668  27.189  27.709  1.00  0.00     0.023 A 
ATOM     51  C   UNL A   1      42.176  27.881  26.593  1.00  0.00     0.012 A 
ATOM     52  C   UNL A   1      41.549  25.786  27.645  1.00  0.00     0.148 A 
ATOM     53  C   UNL A   1      42.526  27.195  25.428  1.00  0.00     0.002 A 
ATOM     54  C   UNL A   1      41.952  25.102  26.503  1.00  0.00     0.091 A 
ATOM     55  F   UNL A   1      41.046  25.141  28.707  1.00  0.00    -0.205 F 
ATOM     56  C   UNL A   1      42.423  25.806  25.386  1.00  0.00     0.022 A 
BRANCH  54  57
ATOM     57  S   UNL A   1      41.966  23.308  26.410  1.00  0.00     0.127 S 
ATOM     58  O   UNL A   1      42.627  23.080  25.128  1.00  0.00    -0.237 OA
ATOM     59  O   UNL A   1      42.759  22.949  27.586  1.00  0.00    -0.237 OA
ATOM     60  O   UNL A   1      40.569  22.898  26.482  1.00  0.00    -0.744 OA
ENDBRANCH  54  57
ENDBRANCH  26  50
BRANCH  38  61
ATOM     61  C   UNL A   1      44.249  27.672  34.190  1.00  0.00     0.023 A 
ATOM     62  C   UNL A   1      45.509  28.301  34.160  1.00  0.00     0.012 A 
ATOM     63  C   UNL A   1      44.076  26.490  34.934  1.00  0.00     0.148 A 
ATOM     64  C   UNL A   1      46.588  27.743  34.840  1.00  0.00     0.002 A 
ATOM     65  C   UNL A   1      45.141  25.973  35.657  1.00  0.00     0.091 A 
ATOM     66  F   UNL A   1      42.870  25.902  34.930  1.00  0.00    -0.205 F 
ATOM     67  C   UNL A   1      46.401  26.590  35.600  1.00  0.00     0.022 A 
BRANCH  65  68
ATOM     68  S   UNL A   1      44.959  24.563  36.751  1.00  0.00     0.127 S 
ATOM     69  O   UNL A   1      46.244  24.557  37.445  1.00  0.00    -0.237 OA
ATOM     70  O   UNL A   1      43.819  24.960  37.579  1.00  0.00    -0.237 OA
ATOM     71  O   UNL A   1      44.708  23.415  35.890  1.00  0.00    -0.744 OA
ENDBRANCH  65  68
ENDBRANCH  38  61
ENDBRANCH  12  13
ENDBRANCH   5   7
ENDBRANCH   4   5
ENDBRANCH   3   4
ENDBRANCH   2   3
ENDBRANCH   1   2
BRANCH   1  72
ATOM     72  C   UNL A   1      32.560  28.594  26.337  1.00  0.00     0.202 C 
BRANCH  72  73
ATOM     73  C   UNL A   1      31.532  27.483  26.260  1.00  0.00     0.261 C 
BRANCH  73  74
ATOM     74  O   UNL A   1      31.019  27.506  24.925  1.00  0.00    -0.460 OA
BRANCH  74  75
ATOM     75  C   UNL A   1      30.002  26.648  24.634  1.00  0.00     0.351 C 
ATOM     76  O   UNL A   1      29.727  25.629  25.261  1.00  0.00    -0.248 OA
BRANCH  75  77
ATOM     77  C   UNL A   1      29.229  27.143  23.426  1.00  0.00     0.338 C 
ATOM     78  F   UNL A   1      28.049  27.752  23.764  1.00  0.00    -0.222 F 
BRANCH  77  79
ATOM     79  S   UNL A   1      30.222  28.271  22.393  1.00  0.00    -0.073 SA
BRANCH  79  80
ATOM     80  C   UNL A   1      29.391  29.813  22.769  1.00  0.00     0.052 A 
ATOM     81  C   UNL A   1      29.796  30.538  23.895  1.00  0.00     0.019 A 
ATOM     82  C   UNL A   1      28.380  30.341  21.953  1.00  0.00     0.129 A 
ATOM     83  C   UNL A   1      29.228  31.783  24.176  1.00  0.00     0.001 A 
ATOM     84  C   UNL A   1      27.834  31.599  22.212  1.00  0.00     0.047 A 
ATOM     85  C   UNL A   1      28.262  32.319  23.326  1.00  0.00     0.004 A 
BRANCH  82  86
ATOM     86  O   UNL A   1      27.950  29.629  20.865  1.00  0.00    -0.507 OA
ATOM     87  H   UNL A   1      27.035  29.578  20.670  1.00  0.00     0.293 HD
ENDBRANCH  82  86
ENDBRANCH  79  80
ENDBRANCH  77  79
ENDBRANCH  75  77
ENDBRANCH  74  75
ENDBRANCH  73  74
ENDBRANCH  72  73
ENDBRANCH   1  72
TORSDOF 20
ENDMDL
MODEL 3
REMARK VINA RESULT:      -9.4      3.470      6.268
REMARK SMILES O=C(OCCOCCOC(=O)[C@@H](F)Sc1ccccc1O)c1ccc(-c2c3nc(c(-c4cccc(S(=O)(=O)[O-])c4F)c4ccc([nH]4)c(-c4cccc(S(=O)(=O)[O-])c4F)c4nc(c(-c5cccc(S(=O)(=O)[O-])c5F)c5ccc2[nH]5)C=C4)C=C3)cc1
REMARK SMILES IDX 6 1 5 2 4 3 3 4 2 5 1 6 22 7 23 8 84 9 24 10 83 11 25 12
REMARK SMILES IDX 26 13 27 14 77 15 28 16 82 17 76 18 78 19 29 20 81 21 75 22
REMARK SMILES IDX 74 23 30 25 62 26 42 27 61 28 43 29 46 30 60 31 79 32 44 33
REMARK SMILES IDX 45 34 59 36 80 37 47 38 31 39 32 40 40 41 33 42 35 43 41 44
REMARK SMILES IDX 34 45 36 46 37 47 38 48 39 49 63 50 64 51 72 52 65 53 67 54
REMARK SMILES IDX 73 55 66 56 68 57 69 58 70 59 71 60 48 61 49 62 57 63 50 64
REMARK SMILES IDX 52 65 58 66 51 67 53 68 54 69 55 70 56 71 7 72 8 73 9 74
REMARK SMILES IDX 10 75 11 76 12 77 13 78 14 79 15 80 16 81 20 82 17 83 19 84
REMARK SMILES IDX 18 85 21 86
REMARK H PARENT 78 24 46 35 21 87
REMARK Flexibility Score: inf
ROOT
ATOM      1  O   UNL A   1      33.113  29.178  26.214  1.00  0.00    -0.374 OA
ENDROOT
BRANCH   1   2
ATOM      2  C   UNL A   1      32.069  30.082  25.845  1.00  0.00     0.202 C 
BRANCH   2   3
ATOM      3  C   UNL A   1      31.785  31.196  26.867  1.00  0.00     0.261 C 
BRANCH   3   4
ATOM      4  O   UNL A   1      32.677  32.314  26.714  1.00  0.00    -0.460 OA
BRANCH   4   5
ATOM      5  C   UNL A   1      33.473  32.922  27.627  1.00  0.00     0.338 C 
ATOM      6  O   UNL A   1      33.198  34.079  27.945  1.00  0.00    -0.246 OA
BRANCH   5   7
ATOM      7  C   UNL A   1      34.701  32.305  28.230  1.00  0.00     0.060 A 
ATOM      8  C   UNL A   1      34.766  31.039  28.812  1.00  0.00     0.016 A 
ATOM      9  C   UNL A   1      35.904  33.030  28.121  1.00  0.00     0.016 A 
ATOM     10  C   UNL A   1      35.956  30.487  29.240  1.00  0.00     0.010 A 
ATOM     11  C   UNL A   1      37.115  32.495  28.575  1.00  0.00     0.010 A 
ATOM     12  C   UNL A   1      37.130  31.218  29.138  1.00  0.00    -0.014 A 
BRANCH  12  13
ATOM     13  C   UNL A   1      38.295  30.646  29.820  1.00  0.00     0.031 A 
ATOM     14  C   UNL A   1      38.485  30.999  31.260  1.00  0.00     0.074 A 
ATOM     15  C   UNL A   1      39.011  29.688  29.209  1.00  0.00     0.049 A 
ATOM     16  N   UNL A   1      39.384  30.575  32.100  1.00  0.00    -0.248 NA
ATOM     17  C   UNL A   1      37.500  31.930  31.844  1.00  0.00     0.031 C 
ATOM     18  C   UNL A   1      38.769  29.192  27.852  1.00  0.00     0.029 A 
ATOM     19  N   UNL A   1      40.065  28.942  29.657  1.00  0.00    -0.354 N 
ATOM     20  C   UNL A   1      39.103  31.218  33.297  1.00  0.00     0.074 A 
ATOM     21  C   UNL A   1      37.935  32.040  33.088  1.00  0.00     0.031 C 
ATOM     22  C   UNL A   1      39.665  28.231  27.572  1.00  0.00     0.029 A 
ATOM     23  C   UNL A   1      40.568  28.085  28.707  1.00  0.00     0.049 A 
ATOM     24  H   UNL A   1      40.427  29.011  30.569  1.00  0.00     0.167 HD
ATOM     25  C   UNL A   1      39.780  31.133  34.463  1.00  0.00     0.034 A 
ATOM     26  C   UNL A   1      41.665  27.307  28.755  1.00  0.00     0.034 A 
ATOM     27  C   UNL A   1      40.948  30.317  34.623  1.00  0.00     0.049 A 
ATOM     28  C   UNL A   1      42.457  27.305  30.036  1.00  0.00     0.074 A 
ATOM     29  C   UNL A   1      41.769  30.189  35.725  1.00  0.00     0.029 A 
ATOM     30  N   UNL A   1      41.468  29.496  33.630  1.00  0.00    -0.354 N 
ATOM     31  N   UNL A   1      42.195  27.919  31.168  1.00  0.00    -0.248 NA
ATOM     32  C   UNL A   1      43.682  26.499  30.059  1.00  0.00     0.031 C 
ATOM     33  C   UNL A   1      42.810  29.319  35.383  1.00  0.00     0.029 A 
ATOM     34  C   UNL A   1      42.610  28.869  34.085  1.00  0.00     0.049 A 
ATOM     35  H   UNL A   1      41.079  29.380  32.732  1.00  0.00     0.167 HD
ATOM     36  C   UNL A   1      43.204  27.552  32.046  1.00  0.00     0.074 A 
ATOM     37  C   UNL A   1      44.071  26.643  31.319  1.00  0.00     0.031 C 
ATOM     38  C   UNL A   1      43.412  27.936  33.331  1.00  0.00     0.034 A 
BRANCH  25  39
ATOM     39  C   UNL A   1      39.306  32.001  35.594  1.00  0.00     0.023 A 
ATOM     40  C   UNL A   1      38.307  31.543  36.477  1.00  0.00     0.012 A 
ATOM     41  C   UNL A   1      39.832  33.297  35.757  1.00  0.00     0.148 A 
ATOM     42  C   UNL A   1      37.812  32.377  37.480  1.00  0.00     0.002 A 
ATOM     43  C   UNL A   1      39.365  34.106  36.784  1.00  0.00     0.091 A 
ATOM     44  F   UNL A   1      40.755  33.724  34.884  1.00  0.00    -0.205 F 
ATOM     45  C   UNL A   1      38.345  33.654  37.637  1.00  0.00     0.022 A 
BRANCH  43  46
ATOM     46  S   UNL A   1      40.026  35.744  37.102  1.00  0.00     0.127 S 
ATOM     47  O   UNL A   1      39.654  36.455  35.878  1.00  0.00    -0.237 OA
ATOM     48  O   UNL A   1      39.279  36.148  38.293  1.00  0.00    -0.237 OA
ATOM     49  O   UNL A   1      41.457  35.571  37.307  1.00  0.00    -0.744 OA
ENDBRANCH  43  46
ENDBRANCH  25  39
BRANCH  26  50
ATOM     50  C   UNL A   1      42.083  26.509  27.567  1.00  0.00     0.023 A 
ATOM     51  C   UNL A   1      42.791  27.120  26.517  1.00  0.00     0.012 A 
ATOM     52  C   UNL A   1      41.785  25.133  27.479  1.00  0.00     0.148 A 
ATOM     53  C   UNL A   1      43.165  26.387  25.387  1.00  0.00     0.002 A 
ATOM     54  C   UNL A   1      42.210  24.395  26.379  1.00  0.00     0.091 A 
ATOM     55  F   UNL A   1      41.093  24.566  28.478  1.00  0.00    -0.205 F 
ATOM     56  C   UNL A   1      42.884  25.025  25.323  1.00  0.00     0.022 A 
BRANCH  54  57
ATOM     57  S   UNL A   1      41.994  22.615  26.272  1.00  0.00     0.127 S 
ATOM     58  O   UNL A   1      40.539  22.490  26.260  1.00  0.00    -0.237 OA
ATOM     59  O   UNL A   1      42.650  22.306  25.001  1.00  0.00    -0.237 OA
ATOM     60  O   UNL A   1      42.666  22.066  27.443  1.00  0.00    -0.744 OA
ENDBRANCH  54  57
ENDBRANCH  26  50
BRANCH  38  61
ATOM     61  C   UNL A   1      44.593  27.339  34.042  1.00  0.00     0.023 A 
ATOM     62  C   UNL A   1      45.851  27.970  33.970  1.00  0.00     0.012 A 
ATOM     63  C   UNL A   1      44.424  26.208  34.861  1.00  0.00     0.148 A 
ATOM     64  C   UNL A   1      46.932  27.462  34.685  1.00  0.00     0.002 A 
ATOM     65  C   UNL A   1      45.490  25.744  35.617  1.00  0.00     0.091 A 
ATOM     66  F   UNL A   1      43.220  25.617  34.896  1.00  0.00    -0.205 F 
ATOM     67  C   UNL A   1      46.749  26.360  35.520  1.00  0.00     0.022 A 
BRANCH  65  68
ATOM     68  S   UNL A   1      45.313  24.408  36.801  1.00  0.00     0.127 S 
ATOM     69  O   UNL A   1      45.006  23.276  35.929  1.00  0.00    -0.237 OA
ATOM     70  O   UNL A   1      46.641  24.363  37.416  1.00  0.00    -0.237 OA
ATOM     71  O   UNL A   1      44.244  24.810  37.704  1.00  0.00    -0.744 OA
ENDBRANCH  65  68
ENDBRANCH  38  61
ENDBRANCH  12  13
ENDBRANCH   5   7
ENDBRANCH   4   5
ENDBRANCH   3   4
ENDBRANCH   2   3
ENDBRANCH   1   2
BRANCH   1  72
ATOM     72  C   UNL A   1      33.057  27.889  25.590  1.00  0.00     0.202 C 
BRANCH  72  73
ATOM     73  C   UNL A   1      32.103  26.994  26.356  1.00  0.00     0.261 C 
BRANCH  73  74
ATOM     74  O   UNL A   1      32.608  25.663  26.219  1.00  0.00    -0.460 OA
BRANCH  74  75
ATOM     75  C   UNL A   1      31.749  24.641  26.493  1.00  0.00     0.351 C 
ATOM     76  O   UNL A   1      30.530  24.740  26.588  1.00  0.00    -0.248 OA
BRANCH  75  77
ATOM     77  C   UNL A   1      32.516  23.341  26.642  1.00  0.00     0.338 C 
ATOM     78  F   UNL A   1      32.016  22.541  27.636  1.00  0.00    -0.222 F 
BRANCH  77  79
ATOM     79  S   UNL A   1      32.581  22.401  25.080  1.00  0.00    -0.073 SA
BRANCH  79  80
ATOM     80  C   UNL A   1      34.357  22.230  24.922  1.00  0.00     0.052 A 
ATOM     81  C   UNL A   1      34.940  20.986  25.190  1.00  0.00     0.019 A 
ATOM     82  C   UNL A   1      35.180  23.284  24.498  1.00  0.00     0.129 A 
ATOM     83  C   UNL A   1      36.310  20.792  25.000  1.00  0.00     0.001 A 
ATOM     84  C   UNL A   1      36.543  23.084  24.276  1.00  0.00     0.047 A 
ATOM     85  C   UNL A   1      37.106  21.834  24.527  1.00  0.00     0.004 A 
BRANCH  82  86
ATOM     86  O   UNL A   1      34.630  24.516  24.262  1.00  0.00    -0.507 OA
ATOM     87  H   UNL A   1      34.765  24.939  23.437  1.00  0.00     0.293 HD
ENDBRANCH  82  86
ENDBRANCH  79  80
ENDBRANCH  77  79
ENDBRANCH  75  77
ENDBRANCH  74  75
ENDBRANCH  73  74
ENDBRANCH  72  73
ENDBRANCH   1  72
TORSDOF 20
ENDMDL
