MODEL 1
REMARK VINA RESULT:     -10.7      0.000      0.000
REMARK SMILES Cc1ccc(/C=C/C(=O)N[C@@H](CO)C(=O)OCCOCCOC(=O)c2ccc(-c3c4nc(c(-c5cccc(S(=O)(=O)[O-])c5F)c5ccc([nH]5)c(-c5cccc(S(=O)(=O)[O-])c5F)c5nc(c(-c6cccc(S(=O)(=O)[O-])c6F)c6ccc3[nH]6)C=C5)C=C4)cc2)o1
REMARK SMILES IDX 19 1 18 2 17 3 16 4 14 5 15 6 11 7 10 8 8 9 9 10 7 12 6 13
REMARK SMILES IDX 5 14 1 15 2 16 3 17 88 18 4 19 12 20 13 21 20 23 21 24 22 25
REMARK SMILES IDX 23 26 24 27 25 28 26 29 87 30 27 31 86 32 28 33 29 34 30 35
REMARK SMILES IDX 80 36 31 37 85 38 79 39 81 40 32 41 84 42 78 43 77 44 33 46
REMARK SMILES IDX 65 47 45 48 64 49 46 50 49 51 63 52 82 53 47 54 48 55 62 57
REMARK SMILES IDX 83 58 50 59 34 60 35 61 43 62 36 63 38 64 44 65 37 66 39 67
REMARK SMILES IDX 40 68 41 69 42 70 66 71 67 72 75 73 68 74 70 75 76 76 69 77
REMARK SMILES IDX 71 78 72 79 73 80 74 81 51 82 52 83 60 84 53 85 55 86 61 87
REMARK SMILES IDX 54 88 56 89 57 90 58 91 59 92
REMARK H PARENT 10 11 13 22 81 45 49 56
REMARK Flexibility Score: inf
ROOT
ATOM      1  O   UNL A   1      34.502  20.669  24.588  1.00  0.00    -0.374 OA
ENDROOT
BRANCH   1   2
ATOM      2  C   UNL A   1      33.297  20.431  25.316  1.00  0.00     0.202 C 
BRANCH   2   3
ATOM      3  C   UNL A   1      32.244  21.544  25.276  1.00  0.00     0.261 C 
BRANCH   3   4
ATOM      4  O   UNL A   1      32.508  22.490  24.227  1.00  0.00    -0.462 OA
BRANCH   4   5
ATOM      5  C   UNL A   1      31.886  23.697  24.336  1.00  0.00     0.331 C 
ATOM      6  O   UNL A   1      31.017  23.972  25.157  1.00  0.00    -0.250 OA
BRANCH   5   7
ATOM      7  C   UNL A   1      32.362  24.699  23.277  1.00  0.00     0.218 C 
BRANCH   7   8
ATOM      8  N   UNL A   1      33.286  25.726  23.790  1.00  0.00    -0.337 N 
ATOM      9  C   UNL A   1      33.095  27.048  24.044  1.00  0.00     0.244 C 
ATOM     10  O   UNL A   1      34.036  27.747  24.409  1.00  0.00    -0.270 OA
ATOM     11  H   UNL A   1      34.195  25.400  23.980  1.00  0.00     0.164 HD
BRANCH   9  12
ATOM     12  C   UNL A   1      31.769  27.676  23.853  1.00  0.00     0.075 C 
ATOM     13  C   UNL A   1      31.340  28.086  22.652  1.00  0.00     0.053 C 
BRANCH  13  14
ATOM     14  C   UNL A   1      30.054  28.656  22.472  1.00  0.00     0.127 A 
ATOM     15  C   UNL A   1      27.949  31.146  20.954  1.00  0.00     0.087 C 
ATOM     16  C   UNL A   1      28.446  30.008  21.752  1.00  0.00     0.101 A 
ATOM     17  C   UNL A   1      27.852  29.169  22.663  1.00  0.00     0.046 A 
ATOM     18  O   UNL A   1      29.761  29.688  21.607  1.00  0.00    -0.462 OA
ATOM     19  C   UNL A   1      28.878  28.317  23.132  1.00  0.00     0.050 A 
ENDBRANCH  13  14
ENDBRANCH   9  12
ENDBRANCH   7   8
BRANCH   7  20
ATOM     20  C   UNL A   1      32.998  23.916  22.127  1.00  0.00     0.193 C 
BRANCH  20  21
ATOM     21  O   UNL A   1      34.321  23.503  22.457  1.00  0.00    -0.394 OA
ATOM     22  H   UNL A   1      34.486  23.666  23.398  1.00  0.00     0.210 HD
ENDBRANCH  20  21
ENDBRANCH   7  20
ENDBRANCH   5   7
ENDBRANCH   4   5
ENDBRANCH   3   4
ENDBRANCH   2   3
ENDBRANCH   1   2
BRANCH   1  23
ATOM     23  C   UNL A   1      35.651  21.072  25.336  1.00  0.00     0.202 C 
BRANCH  23  24
ATOM     24  C   UNL A   1      36.980  20.365  25.042  1.00  0.00     0.261 C 
BRANCH  24  25
ATOM     25  O   UNL A   1      38.098  21.270  24.988  1.00  0.00    -0.460 OA
BRANCH  25  26
ATOM     26  C   UNL A   1      39.051  21.048  25.922  1.00  0.00     0.338 C 
ATOM     27  O   UNL A   1      39.628  19.988  26.152  1.00  0.00    -0.246 OA
BRANCH  26  28
ATOM     28  C   UNL A   1      39.471  22.311  26.550  1.00  0.00     0.060 A 
ATOM     29  C   UNL A   1      38.836  23.486  26.130  1.00  0.00     0.016 A 
ATOM     30  C   UNL A   1      40.539  22.363  27.449  1.00  0.00     0.016 A 
ATOM     31  C   UNL A   1      39.300  24.726  26.567  1.00  0.00     0.010 A 
ATOM     32  C   UNL A   1      41.008  23.610  27.880  1.00  0.00     0.010 A 
ATOM     33  C   UNL A   1      40.415  24.798  27.411  1.00  0.00    -0.014 A 
BRANCH  33  34
ATOM     34  C   UNL A   1      41.033  26.116  27.697  1.00  0.00     0.031 A 
ATOM     35  C   UNL A   1      42.434  26.394  27.218  1.00  0.00     0.074 A 
ATOM     36  C   UNL A   1      40.355  27.058  28.381  1.00  0.00     0.049 A 
ATOM     37  N   UNL A   1      43.163  27.468  27.373  1.00  0.00    -0.248 NA
ATOM     38  C   UNL A   1      43.103  25.318  26.466  1.00  0.00     0.031 C 
ATOM     39  C   UNL A   1      39.000  26.907  28.907  1.00  0.00     0.029 A 
ATOM     40  N   UNL A   1      40.732  28.318  28.776  1.00  0.00    -0.354 N 
ATOM     41  C   UNL A   1      44.386  27.187  26.775  1.00  0.00     0.074 A 
ATOM     42  C   UNL A   1      44.302  25.842  26.251  1.00  0.00     0.031 C 
ATOM     43  C   UNL A   1      38.671  28.017  29.590  1.00  0.00     0.029 A 
ATOM     44  C   UNL A   1      39.798  28.949  29.564  1.00  0.00     0.049 A 
ATOM     45  H   UNL A   1      41.587  28.731  28.518  1.00  0.00     0.167 HD
ATOM     46  C   UNL A   1      45.475  27.983  26.664  1.00  0.00     0.034 A 
ATOM     47  C   UNL A   1      39.856  30.130  30.212  1.00  0.00     0.034 A 
ATOM     48  C   UNL A   1      45.545  29.334  27.148  1.00  0.00     0.049 A 
ATOM     49  C   UNL A   1      41.081  30.996  30.059  1.00  0.00     0.074 A 
ATOM     50  C   UNL A   1      46.577  30.245  27.006  1.00  0.00     0.029 A 
ATOM     51  N   UNL A   1      44.553  29.965  27.880  1.00  0.00    -0.354 N 
ATOM     52  N   UNL A   1      42.163  30.778  29.353  1.00  0.00    -0.248 NA
ATOM     53  C   UNL A   1      41.077  32.286  30.765  1.00  0.00     0.031 C 
ATOM     54  C   UNL A   1      46.220  31.419  27.675  1.00  0.00     0.029 A 
ATOM     55  C   UNL A   1      44.955  31.247  28.213  1.00  0.00     0.049 A 
ATOM     56  H   UNL A   1      43.689  29.561  28.127  1.00  0.00     0.167 HD
ATOM     57  C   UNL A   1      42.949  31.917  29.499  1.00  0.00     0.074 A 
ATOM     58  C   UNL A   1      42.210  32.832  30.341  1.00  0.00     0.031 C 
ATOM     59  C   UNL A   1      44.181  32.175  28.995  1.00  0.00     0.034 A 
BRANCH  46  60
ATOM     60  C   UNL A   1      46.688  27.434  25.964  1.00  0.00     0.023 A 
ATOM     61  C   UNL A   1      46.871  27.680  24.589  1.00  0.00     0.012 A 
ATOM     62  C   UNL A   1      47.697  26.770  26.690  1.00  0.00     0.148 A 
ATOM     63  C   UNL A   1      48.035  27.263  23.944  1.00  0.00     0.002 A 
ATOM     64  C   UNL A   1      48.870  26.392  26.049  1.00  0.00     0.091 A 
ATOM     65  F   UNL A   1      47.491  26.530  27.992  1.00  0.00    -0.205 F 
ATOM     66  C   UNL A   1      49.038  26.632  24.675  1.00  0.00     0.022 A 
BRANCH  64  67
ATOM     67  S   UNL A   1      50.253  25.643  26.918  1.00  0.00     0.127 S 
ATOM     68  O   UNL A   1      51.216  25.455  25.832  1.00  0.00    -0.237 OA
ATOM     69  O   UNL A   1      50.613  26.687  27.877  1.00  0.00    -0.237 OA
ATOM     70  O   UNL A   1      49.742  24.417  27.512  1.00  0.00    -0.744 OA
ENDBRANCH  64  67
ENDBRANCH  46  60
BRANCH  47  71
ATOM     71  C   UNL A   1      38.710  30.582  31.051  1.00  0.00     0.023 A 
ATOM     72  C   UNL A   1      38.700  30.296  32.430  1.00  0.00     0.012 A 
ATOM     73  C   UNL A   1      37.626  31.281  30.488  1.00  0.00     0.148 A 
ATOM     74  C   UNL A   1      37.613  30.664  33.225  1.00  0.00     0.002 A 
ATOM     75  C   UNL A   1      36.571  31.695  31.295  1.00  0.00     0.091 A 
ATOM     76  F   UNL A   1      37.638  31.523  29.169  1.00  0.00    -0.205 F 
ATOM     77  C   UNL A   1      36.553  31.371  32.660  1.00  0.00     0.022 A 
BRANCH  75  78
ATOM     78  S   UNL A   1      35.239  32.719  30.664  1.00  0.00     0.127 S 
ATOM     79  O   UNL A   1      34.284  32.685  31.768  1.00  0.00    -0.237 OA
ATOM     80  O   UNL A   1      35.907  34.007  30.466  1.00  0.00    -0.237 OA
ATOM     81  O   UNL A   1      34.814  32.075  29.428  1.00  0.00    -0.744 OA
ENDBRANCH  75  78
ENDBRANCH  47  71
BRANCH  59  82
ATOM     82  C   UNL A   1      44.801  33.514  29.298  1.00  0.00     0.023 A 
ATOM     83  C   UNL A   1      45.676  33.648  30.393  1.00  0.00     0.012 A 
ATOM     84  C   UNL A   1      44.584  34.616  28.447  1.00  0.00     0.148 A 
ATOM     85  C   UNL A   1      46.302  34.866  30.656  1.00  0.00     0.002 A 
ATOM     86  C   UNL A   1      45.249  35.813  28.687  1.00  0.00     0.091 A 
ATOM     87  F   UNL A   1      43.734  34.474  27.419  1.00  0.00    -0.205 F 
ATOM     88  C   UNL A   1      46.098  35.944  29.796  1.00  0.00     0.022 A 
BRANCH  86  89
ATOM     89  S   UNL A   1      45.121  37.220  27.576  1.00  0.00     0.127 S 
ATOM     90  O   UNL A   1      46.275  37.016  26.703  1.00  0.00    -0.237 OA
ATOM     91  O   UNL A   1      43.824  36.997  26.935  1.00  0.00    -0.237 OA
ATOM     92  O   UNL A   1      45.177  38.403  28.424  1.00  0.00    -0.744 OA
ENDBRANCH  86  89
ENDBRANCH  59  82
ENDBRANCH  33  34
ENDBRANCH  26  28
ENDBRANCH  25  26
ENDBRANCH  24  25
ENDBRANCH  23  24
ENDBRANCH   1  23
TORSDOF 22
ENDMDL
MODEL 2
REMARK VINA RESULT:     -10.6      2.382      8.666
REMARK SMILES Cc1ccc(/C=C/C(=O)N[C@@H](CO)C(=O)OCCOCCOC(=O)c2ccc(-c3c4nc(c(-c5cccc(S(=O)(=O)[O-])c5F)c5ccc([nH]5)c(-c5cccc(S(=O)(=O)[O-])c5F)c5nc(c(-c6cccc(S(=O)(=O)[O-])c6F)c6ccc3[nH]6)C=C5)C=C4)cc2)o1
REMARK SMILES IDX 19 1 18 2 17 3 16 4 14 5 15 6 11 7 10 8 8 9 9 10 7 12 6 13
REMARK SMILES IDX 5 14 1 15 2 16 3 17 88 18 4 19 12 20 13 21 20 23 21 24 22 25
REMARK SMILES IDX 23 26 24 27 25 28 26 29 87 30 27 31 86 32 28 33 29 34 30 35
REMARK SMILES IDX 80 36 31 37 85 38 79 39 81 40 32 41 84 42 78 43 77 44 33 46
REMARK SMILES IDX 65 47 45 48 64 49 46 50 49 51 63 52 82 53 47 54 48 55 62 57
REMARK SMILES IDX 83 58 50 59 34 60 35 61 43 62 36 63 38 64 44 65 37 66 39 67
REMARK SMILES IDX 40 68 41 69 42 70 66 71 67 72 75 73 68 74 70 75 76 76 69 77
REMARK SMILES IDX 71 78 72 79 73 80 74 81 51 82 52 83 60 84 53 85 55 86 61 87
REMARK SMILES IDX 54 88 56 89 57 90 58 91 59 92
REMARK H PARENT 10 11 13 22 81 45 49 56
REMARK Flexibility Score: inf
ROOT
ATOM      1  O   UNL A   1      36.027  21.028  24.639  1.00  0.00    -0.374 OA
ENDROOT
BRANCH   1   2
ATOM      2  C   UNL A   1      36.890  22.011  24.067  1.00  0.00     0.202 C 
BRANCH   2   3
ATOM      3  C   UNL A   1      36.327  23.432  23.955  1.00  0.00     0.261 C 
BRANCH   3   4
ATOM      4  O   UNL A   1      34.924  23.475  24.262  1.00  0.00    -0.462 OA
BRANCH   4   5
ATOM      5  C   UNL A   1      34.075  23.439  23.198  1.00  0.00     0.331 C 
ATOM      6  O   UNL A   1      34.416  23.325  22.025  1.00  0.00    -0.250 OA
BRANCH   5   7
ATOM      7  C   UNL A   1      32.607  23.600  23.614  1.00  0.00     0.218 C 
BRANCH   7   8
ATOM      8  N   UNL A   1      32.364  23.412  25.056  1.00  0.00    -0.337 N 
ATOM      9  C   UNL A   1      32.206  22.280  25.791  1.00  0.00     0.244 C 
ATOM     10  O   UNL A   1      31.940  22.355  26.987  1.00  0.00    -0.270 OA
ATOM     11  H   UNL A   1      32.306  24.248  25.573  1.00  0.00     0.164 HD
BRANCH   9  12
ATOM     12  C   UNL A   1      32.313  20.943  25.164  1.00  0.00     0.075 C 
ATOM     13  C   UNL A   1      32.898  19.909  25.784  1.00  0.00     0.053 C 
BRANCH  13  14
ATOM     14  C   UNL A   1      32.966  18.624  25.188  1.00  0.00     0.127 A 
ATOM     15  C   UNL A   1      32.676  15.051  25.480  1.00  0.00     0.087 C 
ATOM     16  C   UNL A   1      32.892  16.416  24.962  1.00  0.00     0.101 A 
ATOM     17  C   UNL A   1      33.321  16.905  23.751  1.00  0.00     0.046 A 
ATOM     18  O   UNL A   1      32.647  17.442  25.821  1.00  0.00    -0.462 OA
ATOM     19  C   UNL A   1      33.381  18.309  23.900  1.00  0.00     0.050 A 
ENDBRANCH  13  14
ENDBRANCH   9  12
ENDBRANCH   7   8
BRANCH   7  20
ATOM     20  C   UNL A   1      32.125  24.976  23.154  1.00  0.00     0.193 C 
BRANCH  20  21
ATOM     21  O   UNL A   1      31.815  24.973  21.764  1.00  0.00    -0.394 OA
ATOM     22  H   UNL A   1      31.863  25.878  21.420  1.00  0.00     0.210 HD
ENDBRANCH  20  21
ENDBRANCH   7  20
ENDBRANCH   5   7
ENDBRANCH   4   5
ENDBRANCH   3   4
ENDBRANCH   2   3
ENDBRANCH   1   2
BRANCH   1  23
ATOM     23  C   UNL A   1      36.607  19.770  24.990  1.00  0.00     0.202 C 
BRANCH  23  24
ATOM     24  C   UNL A   1      38.135  19.650  24.943  1.00  0.00     0.261 C 
BRANCH  24  25
ATOM     25  O   UNL A   1      38.749  19.760  26.241  1.00  0.00    -0.460 OA
BRANCH  25  26
ATOM     26  C   UNL A   1      40.086  19.961  26.218  1.00  0.00     0.338 C 
ATOM     27  O   UNL A   1      40.933  19.240  25.696  1.00  0.00    -0.246 OA
BRANCH  26  28
ATOM     28  C   UNL A   1      40.424  21.287  26.759  1.00  0.00     0.060 A 
ATOM     29  C   UNL A   1      39.882  22.407  26.117  1.00  0.00     0.016 A 
ATOM     30  C   UNL A   1      41.340  21.441  27.803  1.00  0.00     0.016 A 
ATOM     31  C   UNL A   1      40.293  23.688  26.480  1.00  0.00     0.010 A 
ATOM     32  C   UNL A   1      41.756  22.729  28.160  1.00  0.00     0.010 A 
ATOM     33  C   UNL A   1      41.263  23.856  27.475  1.00  0.00    -0.014 A 
BRANCH  33  34
ATOM     34  C   UNL A   1      41.851  25.199  27.706  1.00  0.00     0.031 A 
ATOM     35  C   UNL A   1      41.027  26.256  28.393  1.00  0.00     0.074 A 
ATOM     36  C   UNL A   1      43.106  25.476  27.306  1.00  0.00     0.049 A 
ATOM     37  N   UNL A   1      41.341  27.493  28.679  1.00  0.00    -0.248 NA
ATOM     38  C   UNL A   1      39.668  25.870  28.812  1.00  0.00     0.031 C 
ATOM     39  C   UNL A   1      44.000  24.543  26.622  1.00  0.00     0.029 A 
ATOM     40  N   UNL A   1      43.834  26.638  27.391  1.00  0.00    -0.354 N 
ATOM     41  C   UNL A   1      40.212  28.044  29.273  1.00  0.00     0.074 A 
ATOM     42  C   UNL A   1      39.204  27.008  29.312  1.00  0.00     0.031 C 
ATOM     43  C   UNL A   1      45.143  25.180  26.314  1.00  0.00     0.029 A 
ATOM     44  C   UNL A   1      45.055  26.569  26.764  1.00  0.00     0.049 A 
ATOM     45  H   UNL A   1      43.512  27.442  27.859  1.00  0.00     0.167 HD
ATOM     46  C   UNL A   1      40.036  29.297  29.754  1.00  0.00     0.034 A 
ATOM     47  C   UNL A   1      45.985  27.523  26.553  1.00  0.00     0.034 A 
ATOM     48  C   UNL A   1      41.051  30.315  29.754  1.00  0.00     0.049 A 
ATOM     49  C   UNL A   1      45.761  28.907  27.109  1.00  0.00     0.074 A 
ATOM     50  C   UNL A   1      40.990  31.587  30.296  1.00  0.00     0.029 A 
ATOM     51  N   UNL A   1      42.301  30.187  29.173  1.00  0.00    -0.354 N 
ATOM     52  N   UNL A   1      44.752  29.361  27.812  1.00  0.00    -0.248 NA
ATOM     53  C   UNL A   1      46.821  29.899  26.874  1.00  0.00     0.031 C 
ATOM     54  C   UNL A   1      42.196  32.238  30.019  1.00  0.00     0.029 A 
ATOM     55  C   UNL A   1      43.016  31.363  29.326  1.00  0.00     0.049 A 
ATOM     56  H   UNL A   1      42.633  29.379  28.718  1.00  0.00     0.167 HD
ATOM     57  C   UNL A   1      45.073  30.676  28.133  1.00  0.00     0.074 A 
ATOM     58  C   UNL A   1      46.379  30.939  27.569  1.00  0.00     0.031 C 
ATOM     59  C   UNL A   1      44.343  31.590  28.820  1.00  0.00     0.034 A 
BRANCH  46  60
ATOM     60  C   UNL A   1      38.703  29.648  30.355  1.00  0.00     0.023 A 
ATOM     61  C   UNL A   1      38.436  29.320  31.699  1.00  0.00     0.012 A 
ATOM     62  C   UNL A   1      37.760  30.396  29.623  1.00  0.00     0.148 A 
ATOM     63  C   UNL A   1      37.244  29.721  32.302  1.00  0.00     0.002 A 
ATOM     64  C   UNL A   1      36.593  30.826  30.242  1.00  0.00     0.091 A 
ATOM     65  F   UNL A   1      38.028  30.679  28.341  1.00  0.00    -0.205 F 
ATOM     66  C   UNL A   1      36.330  30.483  31.579  1.00  0.00     0.022 A 
BRANCH  64  67
ATOM     67  S   UNL A   1      35.389  31.878  29.422  1.00  0.00     0.127 S 
ATOM     68  O   UNL A   1      34.741  30.931  28.513  1.00  0.00    -0.237 OA
ATOM     69  O   UNL A   1      34.555  32.318  30.540  1.00  0.00    -0.237 OA
ATOM     70  O   UNL A   1      36.151  32.936  28.775  1.00  0.00    -0.744 OA
ENDBRANCH  64  67
ENDBRANCH  46  60
BRANCH  47  71
ATOM     71  C   UNL A   1      47.228  27.204  25.796  1.00  0.00     0.023 A 
ATOM     72  C   UNL A   1      48.289  26.542  26.444  1.00  0.00     0.012 A 
ATOM     73  C   UNL A   1      47.369  27.563  24.442  1.00  0.00     0.148 A 
ATOM     74  C   UNL A   1      49.483  26.281  25.769  1.00  0.00     0.002 A 
ATOM     75  C   UNL A   1      48.539  27.249  23.759  1.00  0.00     0.091 A 
ATOM     76  F   UNL A   1      46.361  28.215  23.846  1.00  0.00    -0.205 F 
ATOM     77  C   UNL A   1      49.605  26.625  24.425  1.00  0.00     0.022 A 
BRANCH  75  78
ATOM     78  S   UNL A   1      48.716  27.545  21.997  1.00  0.00     0.127 S 
ATOM     79  O   UNL A   1      49.892  28.409  21.953  1.00  0.00    -0.237 OA
ATOM     80  O   UNL A   1      48.926  26.192  21.476  1.00  0.00    -0.237 OA
ATOM     81  O   UNL A   1      47.459  28.152  21.582  1.00  0.00    -0.744 OA
ENDBRANCH  75  78
ENDBRANCH  47  71
BRANCH  59  82
ATOM     82  C   UNL A   1      44.948  32.952  29.042  1.00  0.00     0.023 A 
ATOM     83  C   UNL A   1      45.630  33.227  30.243  1.00  0.00     0.012 A 
ATOM     84  C   UNL A   1      44.916  33.927  28.025  1.00  0.00     0.148 A 
ATOM     85  C   UNL A   1      46.244  34.464  30.442  1.00  0.00     0.002 A 
ATOM     86  C   UNL A   1      45.572  35.138  28.211  1.00  0.00     0.091 A 
ATOM     87  F   UNL A   1      44.248  33.653  26.895  1.00  0.00    -0.205 F 
ATOM     88  C   UNL A   1      46.225  35.413  29.422  1.00  0.00     0.022 A 
BRANCH  86  89
ATOM     89  S   UNL A   1      45.682  36.379  26.915  1.00  0.00     0.127 S 
ATOM     90  O   UNL A   1      45.915  35.554  25.732  1.00  0.00    -0.237 OA
ATOM     91  O   UNL A   1      44.362  37.008  26.971  1.00  0.00    -0.237 OA
ATOM     92  O   UNL A   1      46.782  37.255  27.295  1.00  0.00    -0.744 OA
ENDBRANCH  86  89
ENDBRANCH  59  82
ENDBRANCH  33  34
ENDBRANCH  26  28
ENDBRANCH  25  26
ENDBRANCH  24  25
ENDBRANCH  23  24
ENDBRANCH   1  23
TORSDOF 22
ENDMDL
MODEL 3
REMARK VINA RESULT:     -10.5      2.344      4.332
REMARK SMILES Cc1ccc(/C=C/C(=O)N[C@@H](CO)C(=O)OCCOCCOC(=O)c2ccc(-c3c4nc(c(-c5cccc(S(=O)(=O)[O-])c5F)c5ccc([nH]5)c(-c5cccc(S(=O)(=O)[O-])c5F)c5nc(c(-c6cccc(S(=O)(=O)[O-])c6F)c6ccc3[nH]6)C=C5)C=C4)cc2)o1
REMARK SMILES IDX 19 1 18 2 17 3 16 4 14 5 15 6 11 7 10 8 8 9 9 10 7 12 6 13
REMARK SMILES IDX 5 14 1 15 2 16 3 17 88 18 4 19 12 20 13 21 20 23 21 24 22 25
REMARK SMILES IDX 23 26 24 27 25 28 26 29 87 30 27 31 86 32 28 33 29 34 30 35
REMARK SMILES IDX 80 36 31 37 85 38 79 39 81 40 32 41 84 42 78 43 77 44 33 46
REMARK SMILES IDX 65 47 45 48 64 49 46 50 49 51 63 52 82 53 47 54 48 55 62 57
REMARK SMILES IDX 83 58 50 59 34 60 35 61 43 62 36 63 38 64 44 65 37 66 39 67
REMARK SMILES IDX 40 68 41 69 42 70 66 71 67 72 75 73 68 74 70 75 76 76 69 77
REMARK SMILES IDX 71 78 72 79 73 80 74 81 51 82 52 83 60 84 53 85 55 86 61 87
REMARK SMILES IDX 54 88 56 89 57 90 58 91 59 92
REMARK H PARENT 10 11 13 22 81 45 49 56
REMARK Flexibility Score: inf
ROOT
ATOM      1  O   UNL A   1      37.779  21.660  24.573  1.00  0.00    -0.374 OA
ENDROOT
BRANCH   1   2
ATOM      2  C   UNL A   1      36.944  22.615  25.230  1.00  0.00     0.202 C 
BRANCH   2   3
ATOM      3  C   UNL A   1      36.193  23.601  24.329  1.00  0.00     0.261 C 
BRANCH   3   4
ATOM      4  O   UNL A   1      35.190  22.942  23.539  1.00  0.00    -0.462 OA
BRANCH   4   5
ATOM      5  C   UNL A   1      34.091  23.684  23.224  1.00  0.00     0.331 C 
ATOM      6  O   UNL A   1      34.075  24.623  22.437  1.00  0.00    -0.250 OA
BRANCH   5   7
ATOM      7  C   UNL A   1      32.845  23.243  24.003  1.00  0.00     0.218 C 
BRANCH   7   8
ATOM      8  N   UNL A   1      33.003  23.282  25.468  1.00  0.00    -0.337 N 
ATOM      9  C   UNL A   1      33.319  22.303  26.355  1.00  0.00     0.244 C 
ATOM     10  O   UNL A   1      33.330  22.543  27.559  1.00  0.00    -0.270 OA
ATOM     11  H   UNL A   1      32.853  24.168  25.871  1.00  0.00     0.164 HD
BRANCH   9  12
ATOM     12  C   UNL A   1      33.619  20.928  25.897  1.00  0.00     0.075 C 
ATOM     13  C   UNL A   1      32.657  20.017  25.695  1.00  0.00     0.053 C 
BRANCH  13  14
ATOM     14  C   UNL A   1      32.951  18.712  25.224  1.00  0.00     0.127 A 
ATOM     15  C   UNL A   1      32.507  15.152  25.471  1.00  0.00     0.087 C 
ATOM     16  C   UNL A   1      32.945  16.499  25.053  1.00  0.00     0.101 A 
ATOM     17  C   UNL A   1      33.854  16.945  24.125  1.00  0.00     0.046 A 
ATOM     18  O   UNL A   1      32.374  17.553  25.696  1.00  0.00    -0.462 OA
ATOM     19  C   UNL A   1      33.868  18.353  24.243  1.00  0.00     0.050 A 
ENDBRANCH  13  14
ENDBRANCH   9  12
ENDBRANCH   7   8
BRANCH   7  20
ATOM     20  C   UNL A   1      31.668  24.111  23.556  1.00  0.00     0.193 C 
BRANCH  20  21
ATOM     21  O   UNL A   1      30.692  23.338  22.866  1.00  0.00    -0.394 OA
ATOM     22  H   UNL A   1      30.244  22.748  23.491  1.00  0.00     0.210 HD
ENDBRANCH  20  21
ENDBRANCH   7  20
ENDBRANCH   5   7
ENDBRANCH   4   5
ENDBRANCH   3   4
ENDBRANCH   2   3
ENDBRANCH   1   2
BRANCH   1  23
ATOM     23  C   UNL A   1      37.680  20.300  24.998  1.00  0.00     0.202 C 
BRANCH  23  24
ATOM     24  C   UNL A   1      38.973  19.581  25.402  1.00  0.00     0.261 C 
BRANCH  24  25
ATOM     25  O   UNL A   1      39.541  20.089  26.623  1.00  0.00    -0.460 OA
BRANCH  25  26
ATOM     26  C   UNL A   1      40.817  20.525  26.515  1.00  0.00     0.338 C 
ATOM     27  O   UNL A   1      41.745  19.960  25.941  1.00  0.00    -0.246 OA
BRANCH  26  28
ATOM     28  C   UNL A   1      40.945  21.898  27.031  1.00  0.00     0.060 A 
ATOM     29  C   UNL A   1      40.431  22.936  26.245  1.00  0.00     0.016 A 
ATOM     30  C   UNL A   1      41.652  22.177  28.203  1.00  0.00     0.016 A 
ATOM     31  C   UNL A   1      40.665  24.263  26.600  1.00  0.00     0.010 A 
ATOM     32  C   UNL A   1      41.892  23.511  28.553  1.00  0.00     0.010 A 
ATOM     33  C   UNL A   1      41.432  24.560  27.733  1.00  0.00    -0.014 A 
BRANCH  33  34
ATOM     34  C   UNL A   1      41.857  25.959  27.985  1.00  0.00     0.031 A 
ATOM     35  C   UNL A   1      43.248  26.388  27.598  1.00  0.00     0.074 A 
ATOM     36  C   UNL A   1      41.014  26.839  28.556  1.00  0.00     0.049 A 
ATOM     37  N   UNL A   1      43.824  27.553  27.742  1.00  0.00    -0.248 NA
ATOM     38  C   UNL A   1      44.105  25.369  26.966  1.00  0.00     0.031 C 
ATOM     39  C   UNL A   1      39.649  26.544  28.986  1.00  0.00     0.029 A 
ATOM     40  N   UNL A   1      41.198  28.156  28.901  1.00  0.00    -0.354 N 
ATOM     41  C   UNL A   1      45.117  27.400  27.257  1.00  0.00     0.074 A 
ATOM     42  C   UNL A   1      45.244  26.030  26.811  1.00  0.00     0.031 C 
ATOM     43  C   UNL A   1      39.130  27.636  29.573  1.00  0.00     0.029 A 
ATOM     44  C   UNL A   1      40.131  28.701  29.576  1.00  0.00     0.049 A 
ATOM     45  H   UNL A   1      42.015  28.661  28.684  1.00  0.00     0.167 HD
ATOM     46  C   UNL A   1      46.106  28.322  27.180  1.00  0.00     0.034 A 
ATOM     47  C   UNL A   1      39.990  29.912  30.153  1.00  0.00     0.034 A 
ATOM     48  C   UNL A   1      45.968  29.693  27.585  1.00  0.00     0.049 A 
ATOM     49  C   UNL A   1      41.107  30.918  30.042  1.00  0.00     0.074 A 
ATOM     50  C   UNL A   1      46.889  30.720  27.466  1.00  0.00     0.029 A 
ATOM     51  N   UNL A   1      44.849  30.230  28.200  1.00  0.00    -0.354 N 
ATOM     52  N   UNL A   1      42.263  30.805  29.435  1.00  0.00    -0.248 NA
ATOM     53  C   UNL A   1      40.886  32.232  30.665  1.00  0.00     0.031 C 
ATOM     54  C   UNL A   1      46.335  31.872  28.033  1.00  0.00     0.029 A 
ATOM     55  C   UNL A   1      45.061  31.567  28.484  1.00  0.00     0.049 A 
ATOM     56  H   UNL A   1      44.024  29.731  28.405  1.00  0.00     0.167 HD
ATOM     57  C   UNL A   1      42.888  32.040  29.570  1.00  0.00     0.074 A 
ATOM     58  C   UNL A   1      41.974  32.895  30.296  1.00  0.00     0.031 C 
ATOM     59  C   UNL A   1      44.117  32.428  29.146  1.00  0.00     0.034 A 
BRANCH  46  60
ATOM     60  C   UNL A   1      47.431  27.897  26.609  1.00  0.00     0.023 A 
ATOM     61  C   UNL A   1      48.450  27.448  27.472  1.00  0.00     0.012 A 
ATOM     62  C   UNL A   1      47.626  27.839  25.215  1.00  0.00     0.148 A 
ATOM     63  C   UNL A   1      49.650  26.959  26.955  1.00  0.00     0.002 A 
ATOM     64  C   UNL A   1      48.808  27.314  24.708  1.00  0.00     0.091 A 
ATOM     65  F   UNL A   1      46.649  28.290  24.416  1.00  0.00    -0.205 F 
ATOM     66  C   UNL A   1      49.824  26.880  25.576  1.00  0.00     0.022 A 
BRANCH  64  67
ATOM     67  S   UNL A   1      49.098  27.098  22.948  1.00  0.00     0.127 S 
ATOM     68  O   UNL A   1      48.344  25.874  22.673  1.00  0.00    -0.237 OA
ATOM     69  O   UNL A   1      48.509  28.314  22.389  1.00  0.00    -0.237 OA
ATOM     70  O   UNL A   1      50.540  26.987  22.785  1.00  0.00    -0.744 OA
ENDBRANCH  64  67
ENDBRANCH  46  60
BRANCH  47  71
ATOM     71  C   UNL A   1      38.731  30.256  30.874  1.00  0.00     0.023 A 
ATOM     72  C   UNL A   1      38.536  29.801  32.193  1.00  0.00     0.012 A 
ATOM     73  C   UNL A   1      37.723  31.021  30.256  1.00  0.00     0.148 A 
ATOM     74  C   UNL A   1      37.343  30.067  32.867  1.00  0.00     0.002 A 
ATOM     75  C   UNL A   1      36.561  31.330  30.953  1.00  0.00     0.091 A 
ATOM     76  F   UNL A   1      37.914  31.425  28.992  1.00  0.00    -0.205 F 
ATOM     77  C   UNL A   1      36.360  30.839  32.252  1.00  0.00     0.022 A 
BRANCH  75  78
ATOM     78  S   UNL A   1      35.311  32.426  30.273  1.00  0.00     0.127 S 
ATOM     79  O   UNL A   1      34.828  31.658  29.129  1.00  0.00    -0.237 OA
ATOM     80  O   UNL A   1      34.363  32.540  31.384  1.00  0.00    -0.237 OA
ATOM     81  O   UNL A   1      36.014  33.664  29.964  1.00  0.00    -0.744 OA
ENDBRANCH  75  78
ENDBRANCH  47  71
BRANCH  59  82
ATOM     82  C   UNL A   1      44.539  33.849  29.414  1.00  0.00     0.023 A 
ATOM     83  C   UNL A   1      45.156  34.177  30.637  1.00  0.00     0.012 A 
ATOM     84  C   UNL A   1      44.405  34.838  28.419  1.00  0.00     0.148 A 
ATOM     85  C   UNL A   1      45.603  35.475  30.879  1.00  0.00     0.002 A 
ATOM     86  C   UNL A   1      44.897  36.117  28.649  1.00  0.00     0.091 A 
ATOM     87  F   UNL A   1      43.800  34.511  27.268  1.00  0.00    -0.205 F 
ATOM     88  C   UNL A   1      45.485  36.441  29.881  1.00  0.00     0.022 A 
BRANCH  86  89
ATOM     89  S   UNL A   1      44.875  37.395  27.385  1.00  0.00     0.127 S 
ATOM     90  O   UNL A   1      45.367  38.555  28.126  1.00  0.00    -0.237 OA
ATOM     91  O   UNL A   1      45.809  36.866  26.390  1.00  0.00    -0.237 OA
ATOM     92  O   UNL A   1      43.494  37.482  26.929  1.00  0.00    -0.744 OA
ENDBRANCH  86  89
ENDBRANCH  59  82
ENDBRANCH  33  34
ENDBRANCH  26  28
ENDBRANCH  25  26
ENDBRANCH  24  25
ENDBRANCH  23  24
ENDBRANCH   1  23
TORSDOF 22
ENDMDL
