MODEL 1
REMARK VINA RESULT:     -11.2      0.000      0.000
REMARK SMILES Cc1cc(C(=O)OCCOCCOC(=O)c2ccc(-c3c4nc(c(-c5cccc(S(=O)(=O)[O-])c5F)c5ccc([nH]5)c(-c5cccc(S(=O)(=O)[O-])c5F)c5nc(c(-c6cccc(S(=O)(=O)[O-])c6F)c6ccc3[nH]6)C=C5)C=C4)cc2)ccc1NS(=O)(=O)c1ccc(C#N)cc1C
REMARK SMILES IDX 9 1 8 2 7 3 5 4 6 5 4 6 1 7 2 8 3 9 81 10 80 11 79 12 82 13
REMARK SMILES IDX 83 15 84 16 85 17 86 18 87 19 93 20 88 21 92 22 94 23 89 24
REMARK SMILES IDX 90 25 91 26 10 27 11 28 12 29 13 30 14 31 15 32 16 33 17 34
REMARK SMILES IDX 78 35 18 36 77 37 19 38 20 39 21 40 71 41 22 42 76 43 70 44
REMARK SMILES IDX 72 45 23 46 75 47 69 48 68 49 24 51 56 52 36 53 55 54 37 55
REMARK SMILES IDX 40 56 54 57 73 58 38 59 39 60 53 62 74 63 41 64 25 65 26 66
REMARK SMILES IDX 34 67 27 68 29 69 35 70 28 71 30 72 31 73 32 74 33 75 57 76
REMARK SMILES IDX 58 77 66 78 59 79 61 80 67 81 60 82 62 83 63 84 64 85 65 86
REMARK SMILES IDX 42 87 43 88 51 89 44 90 46 91 52 92 45 93 47 94 48 95 49 96
REMARK SMILES IDX 50 97
REMARK H PARENT 82 14 72 50 40 61
REMARK Flexibility Score: inf
ROOT
ATOM      1  C   UNL A   1      33.552  29.317  26.447  1.00  0.00     0.202 C 
ENDROOT
BRANCH   1   2
ATOM      2  C   UNL A   1      32.477  30.075  25.656  1.00  0.00     0.261 C 
BRANCH   2   3
ATOM      3  O   UNL A   1      31.573  29.258  24.983  1.00  0.00    -0.460 OA
BRANCH   3   4
ATOM      4  C   UNL A   1      31.978  28.795  23.794  1.00  0.00     0.338 C 
ATOM      5  O   UNL A   1      32.661  29.328  22.943  1.00  0.00    -0.246 OA
BRANCH   4   6
ATOM      6  C   UNL A   1      31.698  27.369  23.936  1.00  0.00     0.060 A 
ATOM      7  C   UNL A   1      29.441  25.394  26.119  1.00  0.00     0.046 C 
ATOM      8  C   UNL A   1      30.515  25.653  25.101  1.00  0.00    -0.026 A 
ATOM      9  C   UNL A   1      30.959  26.972  25.032  1.00  0.00     0.021 A 
ATOM     10  C   UNL A   1      30.921  24.741  24.101  1.00  0.00     0.052 A 
ATOM     11  C   UNL A   1      31.383  25.224  22.897  1.00  0.00     0.028 A 
ATOM     12  C   UNL A   1      31.894  26.496  22.855  1.00  0.00     0.018 A 
BRANCH  10  13
ATOM     13  N   UNL A   1      30.728  23.343  24.232  1.00  0.00    -0.279 N 
ATOM     14  H   UNL A   1      29.811  23.019  24.384  1.00  0.00     0.180 HD
BRANCH  13  15
ATOM     15  S   UNL A   1      31.979  22.184  24.143  1.00  0.00     0.262 S 
ATOM     16  O   UNL A   1      31.626  21.162  25.107  1.00  0.00    -0.201 OA
ATOM     17  O   UNL A   1      31.991  21.869  22.725  1.00  0.00    -0.201 OA
BRANCH  15  18
ATOM     18  C   UNL A   1      33.673  22.673  24.558  1.00  0.00     0.090 A 
ATOM     19  C   UNL A   1      34.715  22.680  23.627  1.00  0.00     0.024 A 
ATOM     20  C   UNL A   1      33.980  23.083  25.876  1.00  0.00    -0.029 A 
ATOM     21  C   UNL A   1      36.058  22.760  24.044  1.00  0.00     0.021 A 
ATOM     22  C   UNL A   1      35.331  23.201  26.278  1.00  0.00     0.024 A 
ATOM     23  C   UNL A   1      32.966  23.583  26.870  1.00  0.00     0.046 C 
ATOM     24  C   UNL A   1      36.372  22.981  25.382  1.00  0.00     0.052 A 
BRANCH  24  25
ATOM     25  C   UNL A   1      37.728  23.041  25.850  1.00  0.00     0.099 C 
ATOM     26  N   UNL A   1      38.830  23.040  26.211  1.00  0.00    -0.192 NA
ENDBRANCH  24  25
ENDBRANCH  15  18
ENDBRANCH  13  15
ENDBRANCH  10  13
ENDBRANCH   4   6
ENDBRANCH   3   4
ENDBRANCH   2   3
ENDBRANCH   1   2
BRANCH   1  27
ATOM     27  O   UNL A   1      33.974  29.917  27.644  1.00  0.00    -0.374 OA
BRANCH  27  28
ATOM     28  C   UNL A   1      34.118  31.309  27.528  1.00  0.00     0.202 C 
BRANCH  28  29
ATOM     29  C   UNL A   1      35.370  32.103  28.040  1.00  0.00     0.261 C 
BRANCH  29  30
ATOM     30  O   UNL A   1      36.600  31.636  28.824  1.00  0.00    -0.460 OA
BRANCH  30  31
ATOM     31  C   UNL A   1      37.691  31.149  29.448  1.00  0.00     0.338 C 
ATOM     32  O   UNL A   1      38.372  31.904  30.131  1.00  0.00    -0.246 OA
BRANCH  31  33
ATOM     33  C   UNL A   1      38.192  29.739  29.264  1.00  0.00     0.060 A 
ATOM     34  C   UNL A   1      38.848  29.067  30.296  1.00  0.00     0.016 A 
ATOM     35  C   UNL A   1      38.098  29.047  28.079  1.00  0.00     0.016 A 
ATOM     36  C   UNL A   1      39.878  28.155  30.010  1.00  0.00     0.010 A 
ATOM     37  C   UNL A   1      39.151  28.189  27.756  1.00  0.00     0.010 A 
ATOM     38  C   UNL A   1      40.171  27.905  28.691  1.00  0.00    -0.014 A 
BRANCH  38  39
ATOM     39  C   UNL A   1      41.514  27.568  28.154  1.00  0.00     0.031 A 
ATOM     40  C   UNL A   1      41.870  26.123  28.117  1.00  0.00     0.074 A 
ATOM     41  C   UNL A   1      42.292  28.460  27.454  1.00  0.00     0.049 A 
ATOM     42  N   UNL A   1      43.016  25.664  27.764  1.00  0.00    -0.248 NA
ATOM     43  C   UNL A   1      40.951  25.060  28.531  1.00  0.00     0.031 C 
ATOM     44  C   UNL A   1      43.272  28.096  26.410  1.00  0.00     0.029 A 
ATOM     45  N   UNL A   1      42.353  29.861  27.396  1.00  0.00    -0.354 N 
ATOM     46  C   UNL A   1      42.892  24.303  27.601  1.00  0.00     0.074 A 
ATOM     47  C   UNL A   1      41.635  23.962  28.205  1.00  0.00     0.031 C 
ATOM     48  C   UNL A   1      43.929  29.181  25.978  1.00  0.00     0.029 A 
ATOM     49  C   UNL A   1      43.588  30.269  26.864  1.00  0.00     0.049 A 
ATOM     50  H   UNL A   1      41.635  30.469  27.686  1.00  0.00     0.167 HD
ATOM     51  C   UNL A   1      43.829  23.641  26.876  1.00  0.00     0.034 A 
ATOM     52  C   UNL A   1      44.535  31.013  27.518  1.00  0.00     0.034 A 
ATOM     53  C   UNL A   1      44.968  24.529  26.584  1.00  0.00     0.049 A 
ATOM     54  C   UNL A   1      45.756  30.174  27.896  1.00  0.00     0.074 A 
ATOM     55  C   UNL A   1      45.400  25.193  25.451  1.00  0.00     0.029 A 
ATOM     56  N   UNL A   1      45.659  25.101  27.654  1.00  0.00    -0.354 N 
ATOM     57  N   UNL A   1      45.936  28.939  27.505  1.00  0.00    -0.248 NA
ATOM     58  C   UNL A   1      46.862  30.628  28.739  1.00  0.00     0.031 C 
ATOM     59  C   UNL A   1      46.257  26.256  25.873  1.00  0.00     0.029 A 
ATOM     60  C   UNL A   1      46.401  26.203  27.253  1.00  0.00     0.049 A 
ATOM     61  H   UNL A   1      45.623  24.764  28.579  1.00  0.00     0.167 HD
ATOM     62  C   UNL A   1      46.960  28.362  28.200  1.00  0.00     0.074 A 
ATOM     63  C   UNL A   1      47.583  29.496  28.865  1.00  0.00     0.031 C 
ATOM     64  C   UNL A   1      47.147  27.002  28.237  1.00  0.00     0.034 A 
BRANCH  51  65
ATOM     65  C   UNL A   1      43.691  22.230  26.329  1.00  0.00     0.023 A 
ATOM     66  C   UNL A   1      42.427  21.618  26.467  1.00  0.00     0.012 A 
ATOM     67  C   UNL A   1      44.714  21.421  25.760  1.00  0.00     0.148 A 
ATOM     68  C   UNL A   1      42.183  20.298  26.065  1.00  0.00     0.002 A 
ATOM     69  C   UNL A   1      44.452  20.128  25.292  1.00  0.00     0.091 A 
ATOM     70  F   UNL A   1      45.980  21.848  25.748  1.00  0.00    -0.205 F 
ATOM     71  C   UNL A   1      43.188  19.558  25.458  1.00  0.00     0.022 A 
BRANCH  69  72
ATOM     72  S   UNL A   1      45.686  19.119  24.441  1.00  0.00     0.127 S 
ATOM     73  O   UNL A   1      45.771  17.941  25.305  1.00  0.00    -0.237 OA
ATOM     74  O   UNL A   1      45.053  18.875  23.144  1.00  0.00    -0.237 OA
ATOM     75  O   UNL A   1      46.899  19.925  24.374  1.00  0.00    -0.744 OA
ENDBRANCH  69  72
ENDBRANCH  51  65
BRANCH  52  76
ATOM     76  C   UNL A   1      43.971  32.181  28.249  1.00  0.00     0.023 A 
ATOM     77  C   UNL A   1      44.027  32.096  29.661  1.00  0.00     0.012 A 
ATOM     78  C   UNL A   1      43.959  33.441  27.643  1.00  0.00     0.148 A 
ATOM     79  C   UNL A   1      44.298  33.217  30.443  1.00  0.00     0.002 A 
ATOM     80  C   UNL A   1      44.266  34.549  28.424  1.00  0.00     0.091 A 
ATOM     81  F   UNL A   1      43.815  33.510  26.314  1.00  0.00    -0.205 F 
ATOM     82  C   UNL A   1      44.470  34.435  29.813  1.00  0.00     0.022 A 
BRANCH  80  83
ATOM     83  S   UNL A   1      44.870  36.071  27.709  1.00  0.00     0.127 S 
ATOM     84  O   UNL A   1      43.680  36.645  27.094  1.00  0.00    -0.237 OA
ATOM     85  O   UNL A   1      45.302  36.739  28.933  1.00  0.00    -0.237 OA
ATOM     86  O   UNL A   1      45.934  35.687  26.797  1.00  0.00    -0.744 OA
ENDBRANCH  80  83
ENDBRANCH  52  76
BRANCH  64  87
ATOM     87  C   UNL A   1      48.058  26.306  29.243  1.00  0.00     0.023 A 
ATOM     88  C   UNL A   1      49.372  25.914  28.919  1.00  0.00     0.012 A 
ATOM     89  C   UNL A   1      47.671  26.137  30.597  1.00  0.00     0.148 A 
ATOM     90  C   UNL A   1      50.212  25.280  29.841  1.00  0.00     0.002 A 
ATOM     91  C   UNL A   1      48.562  25.644  31.545  1.00  0.00     0.091 A 
ATOM     92  F   UNL A   1      46.420  26.433  30.979  1.00  0.00    -0.205 F 
ATOM     93  C   UNL A   1      49.814  25.162  31.163  1.00  0.00     0.022 A 
BRANCH  91  94
ATOM     94  S   UNL A   1      48.215  25.767  33.306  1.00  0.00     0.127 S 
ATOM     95  O   UNL A   1      47.053  24.894  33.446  1.00  0.00    -0.237 OA
ATOM     96  O   UNL A   1      49.447  25.246  33.901  1.00  0.00    -0.237 OA
ATOM     97  O   UNL A   1      47.991  27.185  33.551  1.00  0.00    -0.744 OA
ENDBRANCH  91  94
ENDBRANCH  64  87
ENDBRANCH  38  39
ENDBRANCH  31  33
ENDBRANCH  30  31
ENDBRANCH  29  30
ENDBRANCH  28  29
ENDBRANCH  27  28
ENDBRANCH   1  27
TORSDOF 21
ENDMDL
MODEL 2
REMARK VINA RESULT:     -11.1      3.622      9.978
REMARK SMILES Cc1cc(C(=O)OCCOCCOC(=O)c2ccc(-c3c4nc(c(-c5cccc(S(=O)(=O)[O-])c5F)c5ccc([nH]5)c(-c5cccc(S(=O)(=O)[O-])c5F)c5nc(c(-c6cccc(S(=O)(=O)[O-])c6F)c6ccc3[nH]6)C=C5)C=C4)cc2)ccc1NS(=O)(=O)c1ccc(C#N)cc1C
REMARK SMILES IDX 9 1 8 2 7 3 5 4 6 5 4 6 1 7 2 8 3 9 81 10 80 11 79 12 82 13
REMARK SMILES IDX 83 15 84 16 85 17 86 18 87 19 93 20 88 21 92 22 94 23 89 24
REMARK SMILES IDX 90 25 91 26 10 27 11 28 12 29 13 30 14 31 15 32 16 33 17 34
REMARK SMILES IDX 78 35 18 36 77 37 19 38 20 39 21 40 71 41 22 42 76 43 70 44
REMARK SMILES IDX 72 45 23 46 75 47 69 48 68 49 24 51 56 52 36 53 55 54 37 55
REMARK SMILES IDX 40 56 54 57 73 58 38 59 39 60 53 62 74 63 41 64 25 65 26 66
REMARK SMILES IDX 34 67 27 68 29 69 35 70 28 71 30 72 31 73 32 74 33 75 57 76
REMARK SMILES IDX 58 77 66 78 59 79 61 80 67 81 60 82 62 83 63 84 64 85 65 86
REMARK SMILES IDX 42 87 43 88 51 89 44 90 46 91 52 92 45 93 47 94 48 95 49 96
REMARK SMILES IDX 50 97
REMARK H PARENT 82 14 72 50 40 61
REMARK Flexibility Score: inf
ROOT
ATOM      1  C   UNL A   1      38.654  19.240  25.580  1.00  0.00     0.202 C 
ENDROOT
BRANCH   1   2
ATOM      2  C   UNL A   1      37.763  20.067  24.644  1.00  0.00     0.261 C 
BRANCH   2   3
ATOM      3  O   UNL A   1      36.784  20.814  25.292  1.00  0.00    -0.460 OA
BRANCH   3   4
ATOM      4  C   UNL A   1      37.114  22.076  25.588  1.00  0.00     0.338 C 
ATOM      5  O   UNL A   1      38.164  22.532  25.993  1.00  0.00    -0.246 OA
BRANCH   4   6
ATOM      6  C   UNL A   1      36.016  22.809  24.963  1.00  0.00     0.060 A 
ATOM      7  C   UNL A   1      32.792  21.802  23.429  1.00  0.00     0.046 C 
ATOM      8  C   UNL A   1      33.914  22.716  23.835  1.00  0.00    -0.026 A 
ATOM      9  C   UNL A   1      35.068  22.073  24.282  1.00  0.00     0.021 A 
ATOM     10  C   UNL A   1      33.800  24.113  24.003  1.00  0.00     0.052 A 
ATOM     11  C   UNL A   1      34.594  24.747  24.932  1.00  0.00     0.028 A 
ATOM     12  C   UNL A   1      35.770  24.147  25.306  1.00  0.00     0.018 A 
BRANCH  10  13
ATOM     13  N   UNL A   1      32.789  24.870  23.358  1.00  0.00    -0.279 N 
ATOM     14  H   UNL A   1      33.011  25.295  22.498  1.00  0.00     0.180 HD
BRANCH  13  15
ATOM     15  S   UNL A   1      31.211  25.094  23.974  1.00  0.00     0.262 S 
ATOM     16  O   UNL A   1      30.357  24.260  23.155  1.00  0.00    -0.201 OA
ATOM     17  O   UNL A   1      31.396  24.781  25.380  1.00  0.00    -0.201 OA
BRANCH  15  18
ATOM     18  C   UNL A   1      30.466  26.744  23.925  1.00  0.00     0.090 A 
ATOM     19  C   UNL A   1      29.146  26.973  23.528  1.00  0.00     0.024 A 
ATOM     20  C   UNL A   1      31.230  27.869  24.312  1.00  0.00    -0.029 A 
ATOM     21  C   UNL A   1      28.702  28.270  23.204  1.00  0.00     0.021 A 
ATOM     22  C   UNL A   1      30.761  29.171  24.022  1.00  0.00     0.024 A 
ATOM     23  C   UNL A   1      32.457  27.806  25.184  1.00  0.00     0.046 C 
ATOM     24  C   UNL A   1      29.526  29.373  23.413  1.00  0.00     0.052 A 
BRANCH  24  25
ATOM     25  C   UNL A   1      29.121  30.707  23.070  1.00  0.00     0.099 C 
ATOM     26  N   UNL A   1      28.748  31.776  22.819  1.00  0.00    -0.192 NA
ENDBRANCH  24  25
ENDBRANCH  15  18
ENDBRANCH  13  15
ENDBRANCH  10  13
ENDBRANCH   4   6
ENDBRANCH   3   4
ENDBRANCH   2   3
ENDBRANCH   1   2
BRANCH   1  27
ATOM     27  O   UNL A   1      40.036  19.461  25.470  1.00  0.00    -0.374 OA
BRANCH  27  28
ATOM     28  C   UNL A   1      40.555  20.192  26.550  1.00  0.00     0.202 C 
BRANCH  28  29
ATOM     29  C   UNL A   1      41.870  21.043  26.477  1.00  0.00     0.261 C 
BRANCH  29  30
ATOM     30  O   UNL A   1      42.082  22.559  26.444  1.00  0.00    -0.460 OA
BRANCH  30  31
ATOM     31  C   UNL A   1      42.348  23.878  26.353  1.00  0.00     0.338 C 
ATOM     32  O   UNL A   1      43.496  24.238  26.120  1.00  0.00    -0.246 OA
BRANCH  31  33
ATOM     33  C   UNL A   1      41.328  24.952  26.635  1.00  0.00     0.060 A 
ATOM     34  C   UNL A   1      41.196  26.058  25.794  1.00  0.00     0.016 A 
ATOM     35  C   UNL A   1      40.513  24.956  27.743  1.00  0.00     0.016 A 
ATOM     36  C   UNL A   1      40.844  27.313  26.319  1.00  0.00     0.010 A 
ATOM     37  C   UNL A   1      40.214  26.196  28.310  1.00  0.00     0.010 A 
ATOM     38  C   UNL A   1      40.578  27.398  27.664  1.00  0.00    -0.014 A 
BRANCH  38  39
ATOM     39  C   UNL A   1      40.839  28.582  28.522  1.00  0.00     0.031 A 
ATOM     40  C   UNL A   1      39.742  29.585  28.619  1.00  0.00     0.074 A 
ATOM     41  C   UNL A   1      41.879  28.649  29.418  1.00  0.00     0.049 A 
ATOM     42  N   UNL A   1      39.831  30.703  29.246  1.00  0.00    -0.248 NA
ATOM     43  C   UNL A   1      38.445  29.422  27.959  1.00  0.00     0.031 C 
ATOM     44  C   UNL A   1      41.872  29.431  30.672  1.00  0.00     0.029 A 
ATOM     45  N   UNL A   1      43.119  28.000  29.520  1.00  0.00    -0.354 N 
ATOM     46  C   UNL A   1      38.565  31.232  29.342  1.00  0.00     0.074 A 
ATOM     47  C   UNL A   1      37.764  30.470  28.427  1.00  0.00     0.031 C 
ATOM     48  C   UNL A   1      43.063  29.359  31.282  1.00  0.00     0.029 A 
ATOM     49  C   UNL A   1      43.978  28.726  30.361  1.00  0.00     0.049 A 
ATOM     50  H   UNL A   1      43.352  27.157  29.068  1.00  0.00     0.167 HD
ATOM     51  C   UNL A   1      38.324  32.193  30.271  1.00  0.00     0.034 A 
ATOM     52  C   UNL A   1      45.166  29.300  29.990  1.00  0.00     0.034 A 
ATOM     53  C   UNL A   1      39.591  32.654  30.866  1.00  0.00     0.049 A 
ATOM     54  C   UNL A   1      45.065  30.824  29.923  1.00  0.00     0.074 A 
ATOM     55  C   UNL A   1      40.207  32.449  32.086  1.00  0.00     0.029 A 
ATOM     56  N   UNL A   1      40.569  33.185  30.023  1.00  0.00    -0.354 N 
ATOM     57  N   UNL A   1      44.018  31.499  30.321  1.00  0.00    -0.248 NA
ATOM     58  C   UNL A   1      46.103  31.714  29.404  1.00  0.00     0.031 C 
ATOM     59  C   UNL A   1      41.597  32.740  31.922  1.00  0.00     0.029 A 
ATOM     60  C   UNL A   1      41.819  33.184  30.626  1.00  0.00     0.049 A 
ATOM     61  H   UNL A   1      40.393  33.520  29.113  1.00  0.00     0.167 HD
ATOM     62  C   UNL A   1      44.099  32.797  29.902  1.00  0.00     0.074 A 
ATOM     63  C   UNL A   1      45.476  32.907  29.444  1.00  0.00     0.031 C 
ATOM     64  C   UNL A   1      43.009  33.631  29.885  1.00  0.00     0.034 A 
BRANCH  51  65
ATOM     65  C   UNL A   1      36.952  32.653  30.733  1.00  0.00     0.023 A 
ATOM     66  C   UNL A   1      36.490  32.136  31.962  1.00  0.00     0.012 A 
ATOM     67  C   UNL A   1      36.040  33.490  30.030  1.00  0.00     0.148 A 
ATOM     68  C   UNL A   1      35.218  32.428  32.470  1.00  0.00     0.002 A 
ATOM     69  C   UNL A   1      34.798  33.839  30.572  1.00  0.00     0.091 A 
ATOM     70  F   UNL A   1      36.315  33.884  28.783  1.00  0.00    -0.205 F 
ATOM     71  C   UNL A   1      34.378  33.296  31.787  1.00  0.00     0.022 A 
BRANCH  69  72
ATOM     72  S   UNL A   1      33.669  35.004  29.776  1.00  0.00     0.127 S 
ATOM     73  O   UNL A   1      33.261  35.853  30.896  1.00  0.00    -0.237 OA
ATOM     74  O   UNL A   1      34.535  35.664  28.799  1.00  0.00    -0.237 OA
ATOM     75  O   UNL A   1      32.601  34.203  29.188  1.00  0.00    -0.744 OA
ENDBRANCH  69  72
ENDBRANCH  51  65
BRANCH  52  76
ATOM     76  C   UNL A   1      46.023  28.406  29.164  1.00  0.00     0.023 A 
ATOM     77  C   UNL A   1      46.218  27.103  29.684  1.00  0.00     0.012 A 
ATOM     78  C   UNL A   1      46.113  28.608  27.784  1.00  0.00     0.148 A 
ATOM     79  C   UNL A   1      46.267  25.991  28.847  1.00  0.00     0.002 A 
ATOM     80  C   UNL A   1      46.125  27.492  26.955  1.00  0.00     0.091 A 
ATOM     81  F   UNL A   1      46.017  29.858  27.313  1.00  0.00    -0.205 F 
ATOM     82  C   UNL A   1      46.167  26.187  27.482  1.00  0.00     0.022 A 
BRANCH  80  83
ATOM     83  S   UNL A   1      45.635  27.583  25.240  1.00  0.00     0.127 S 
ATOM     84  O   UNL A   1      44.215  27.899  25.316  1.00  0.00    -0.237 OA
ATOM     85  O   UNL A   1      46.482  28.696  24.822  1.00  0.00    -0.237 OA
ATOM     86  O   UNL A   1      45.969  26.292  24.662  1.00  0.00    -0.744 OA
ENDBRANCH  80  83
ENDBRANCH  52  76
BRANCH  64  87
ATOM     87  C   UNL A   1      42.978  34.957  29.134  1.00  0.00     0.023 A 
ATOM     88  C   UNL A   1      42.106  35.186  28.049  1.00  0.00     0.012 A 
ATOM     89  C   UNL A   1      43.733  36.074  29.573  1.00  0.00     0.148 A 
ATOM     90  C   UNL A   1      42.071  36.404  27.361  1.00  0.00     0.002 A 
ATOM     91  C   UNL A   1      43.585  37.324  28.980  1.00  0.00     0.091 A 
ATOM     92  F   UNL A   1      44.628  35.932  30.562  1.00  0.00    -0.205 F 
ATOM     93  C   UNL A   1      42.798  37.482  27.839  1.00  0.00     0.022 A 
BRANCH  91  94
ATOM     94  S   UNL A   1      44.249  38.808  29.749  1.00  0.00     0.127 S 
ATOM     95  O   UNL A   1      43.606  38.782  31.060  1.00  0.00    -0.237 OA
ATOM     96  O   UNL A   1      45.686  38.530  29.767  1.00  0.00    -0.237 OA
ATOM     97  O   UNL A   1      43.866  39.900  28.864  1.00  0.00    -0.744 OA
ENDBRANCH  91  94
ENDBRANCH  64  87
ENDBRANCH  38  39
ENDBRANCH  31  33
ENDBRANCH  30  31
ENDBRANCH  29  30
ENDBRANCH  28  29
ENDBRANCH  27  28
ENDBRANCH   1  27
TORSDOF 21
ENDMDL
MODEL 3
REMARK VINA RESULT:     -10.6      3.677      7.944
REMARK SMILES Cc1cc(C(=O)OCCOCCOC(=O)c2ccc(-c3c4nc(c(-c5cccc(S(=O)(=O)[O-])c5F)c5ccc([nH]5)c(-c5cccc(S(=O)(=O)[O-])c5F)c5nc(c(-c6cccc(S(=O)(=O)[O-])c6F)c6ccc3[nH]6)C=C5)C=C4)cc2)ccc1NS(=O)(=O)c1ccc(C#N)cc1C
REMARK SMILES IDX 9 1 8 2 7 3 5 4 6 5 4 6 1 7 2 8 3 9 81 10 80 11 79 12 82 13
REMARK SMILES IDX 83 15 84 16 85 17 86 18 87 19 93 20 88 21 92 22 94 23 89 24
REMARK SMILES IDX 90 25 91 26 10 27 11 28 12 29 13 30 14 31 15 32 16 33 17 34
REMARK SMILES IDX 78 35 18 36 77 37 19 38 20 39 21 40 71 41 22 42 76 43 70 44
REMARK SMILES IDX 72 45 23 46 75 47 69 48 68 49 24 51 56 52 36 53 55 54 37 55
REMARK SMILES IDX 40 56 54 57 73 58 38 59 39 60 53 62 74 63 41 64 25 65 26 66
REMARK SMILES IDX 34 67 27 68 29 69 35 70 28 71 30 72 31 73 32 74 33 75 57 76
REMARK SMILES IDX 58 77 66 78 59 79 61 80 67 81 60 82 62 83 63 84 64 85 65 86
REMARK SMILES IDX 42 87 43 88 51 89 44 90 46 91 52 92 45 93 47 94 48 95 49 96
REMARK SMILES IDX 50 97
REMARK H PARENT 82 14 72 50 40 61
REMARK Flexibility Score: inf
ROOT
ATOM      1  C   UNL A   1      39.458  21.813  26.255  1.00  0.00     0.202 C 
ENDROOT
BRANCH   1   2
ATOM      2  C   UNL A   1      38.779  20.818  25.305  1.00  0.00     0.261 C 
BRANCH   2   3
ATOM      3  O   UNL A   1      37.640  21.310  24.674  1.00  0.00    -0.460 OA
BRANCH   3   4
ATOM      4  C   UNL A   1      36.517  20.608  24.867  1.00  0.00     0.338 C 
ATOM      5  O   UNL A   1      36.362  19.413  25.009  1.00  0.00    -0.246 OA
BRANCH   4   6
ATOM      6  C   UNL A   1      35.579  21.669  25.221  1.00  0.00     0.060 A 
ATOM      7  C   UNL A   1      34.128  24.544  23.382  1.00  0.00     0.046 C 
ATOM      8  C   UNL A   1      34.430  23.652  24.552  1.00  0.00    -0.026 A 
ATOM      9  C   UNL A   1      35.446  22.722  24.339  1.00  0.00     0.021 A 
ATOM     10  C   UNL A   1      33.637  23.545  25.716  1.00  0.00     0.052 A 
ATOM     11  C   UNL A   1      33.591  22.347  26.392  1.00  0.00     0.028 A 
ATOM     12  C   UNL A   1      34.636  21.470  26.241  1.00  0.00     0.018 A 
BRANCH  10  13
ATOM     13  N   UNL A   1      32.764  24.582  26.131  1.00  0.00    -0.279 N 
ATOM     14  H   UNL A   1      33.131  25.286  26.714  1.00  0.00     0.180 HD
BRANCH  13  15
ATOM     15  S   UNL A   1      31.118  24.692  25.687  1.00  0.00     0.262 S 
ATOM     16  O   UNL A   1      30.921  23.665  24.685  1.00  0.00    -0.201 OA
ATOM     17  O   UNL A   1      30.456  24.584  26.975  1.00  0.00    -0.201 OA
BRANCH  15  18
ATOM     18  C   UNL A   1      30.502  26.221  24.938  1.00  0.00     0.090 A 
ATOM     19  C   UNL A   1      29.349  26.274  24.149  1.00  0.00     0.024 A 
ATOM     20  C   UNL A   1      31.195  27.435  25.152  1.00  0.00    -0.029 A 
ATOM     21  C   UNL A   1      29.078  27.393  23.338  1.00  0.00     0.021 A 
ATOM     22  C   UNL A   1      30.890  28.568  24.362  1.00  0.00     0.024 A 
ATOM     23  C   UNL A   1      32.142  27.684  26.297  1.00  0.00     0.046 C 
ATOM     24  C   UNL A   1      29.874  28.533  23.413  1.00  0.00     0.052 A 
BRANCH  24  25
ATOM     25  C   UNL A   1      29.647  29.681  22.583  1.00  0.00     0.099 C 
ATOM     26  N   UNL A   1      29.463  30.578  21.870  1.00  0.00    -0.192 NA
ENDBRANCH  24  25
ENDBRANCH  15  18
ENDBRANCH  13  15
ENDBRANCH  10  13
ENDBRANCH   4   6
ENDBRANCH   3   4
ENDBRANCH   2   3
ENDBRANCH   1   2
BRANCH   1  27
ATOM     27  O   UNL A   1      40.078  21.259  27.387  1.00  0.00    -0.374 OA
BRANCH  27  28
ATOM     28  C   UNL A   1      41.045  20.296  27.055  1.00  0.00     0.202 C 
BRANCH  28  29
ATOM     29  C   UNL A   1      42.296  20.588  26.157  1.00  0.00     0.261 C 
BRANCH  29  30
ATOM     30  O   UNL A   1      42.787  21.889  25.515  1.00  0.00    -0.460 OA
BRANCH  30  31
ATOM     31  C   UNL A   1      43.122  23.055  24.926  1.00  0.00     0.338 C 
ATOM     32  O   UNL A   1      43.910  23.042  23.988  1.00  0.00    -0.246 OA
BRANCH  31  33
ATOM     33  C   UNL A   1      42.665  24.400  25.431  1.00  0.00     0.060 A 
ATOM     34  C   UNL A   1      43.351  25.567  25.092  1.00  0.00     0.016 A 
ATOM     35  C   UNL A   1      41.604  24.571  26.289  1.00  0.00     0.016 A 
ATOM     36  C   UNL A   1      43.438  26.633  26.003  1.00  0.00     0.010 A 
ATOM     37  C   UNL A   1      41.712  25.586  27.242  1.00  0.00     0.010 A 
ATOM     38  C   UNL A   1      42.778  26.511  27.202  1.00  0.00    -0.014 A 
BRANCH  38  39
ATOM     39  C   UNL A   1      43.216  27.102  28.492  1.00  0.00     0.031 A 
ATOM     40  C   UNL A   1      44.308  26.390  29.211  1.00  0.00     0.074 A 
ATOM     41  C   UNL A   1      42.879  28.374  28.892  1.00  0.00     0.049 A 
ATOM     42  N   UNL A   1      44.748  26.716  30.374  1.00  0.00    -0.248 NA
ATOM     43  C   UNL A   1      44.973  25.198  28.682  1.00  0.00     0.031 C 
ATOM     44  C   UNL A   1      43.699  29.235  29.768  1.00  0.00     0.029 A 
ATOM     45  N   UNL A   1      41.832  29.250  28.567  1.00  0.00    -0.354 N 
ATOM     46  C   UNL A   1      45.911  26.014  30.595  1.00  0.00     0.074 A 
ATOM     47  C   UNL A   1      45.942  25.001  29.579  1.00  0.00     0.031 C 
ATOM     48  C   UNL A   1      43.059  30.381  30.040  1.00  0.00     0.029 A 
ATOM     49  C   UNL A   1      41.706  30.241  29.555  1.00  0.00     0.049 A 
ATOM     50  H   UNL A   1      41.267  29.180  27.764  1.00  0.00     0.167 HD
ATOM     51  C   UNL A   1      46.765  26.447  31.557  1.00  0.00     0.034 A 
ATOM     52  C   UNL A   1      40.611  30.440  30.355  1.00  0.00     0.034 A 
ATOM     53  C   UNL A   1      46.131  27.507  32.361  1.00  0.00     0.049 A 
ATOM     54  C   UNL A   1      40.874  30.008  31.798  1.00  0.00     0.074 A 
ATOM     55  C   UNL A   1      46.282  28.879  32.429  1.00  0.00     0.029 A 
ATOM     56  N   UNL A   1      44.937  27.216  33.024  1.00  0.00    -0.354 N 
ATOM     57  N   UNL A   1      42.049  29.639  32.241  1.00  0.00    -0.248 NA
ATOM     58  C   UNL A   1      39.865  29.939  32.854  1.00  0.00     0.031 C 
ATOM     59  C   UNL A   1      45.098  29.416  33.023  1.00  0.00     0.029 A 
ATOM     60  C   UNL A   1      44.255  28.372  33.378  1.00  0.00     0.049 A 
ATOM     61  H   UNL A   1      44.619  26.304  33.217  1.00  0.00     0.167 HD
ATOM     62  C   UNL A   1      41.934  29.062  33.474  1.00  0.00     0.074 A 
ATOM     63  C   UNL A   1      40.570  29.388  33.862  1.00  0.00     0.031 C 
ATOM     64  C   UNL A   1      42.934  28.295  34.020  1.00  0.00     0.034 A 
BRANCH  51  65
ATOM     65  C   UNL A   1      48.209  26.005  31.722  1.00  0.00     0.023 A 
ATOM     66  C   UNL A   1      49.123  26.447  30.741  1.00  0.00     0.012 A 
ATOM     67  C   UNL A   1      48.736  25.130  32.712  1.00  0.00     0.148 A 
ATOM     68  C   UNL A   1      50.469  26.059  30.739  1.00  0.00     0.002 A 
ATOM     69  C   UNL A   1      50.097  24.801  32.751  1.00  0.00     0.091 A 
ATOM     70  F   UNL A   1      47.918  24.522  33.576  1.00  0.00    -0.205 F 
ATOM     71  C   UNL A   1      50.963  25.253  31.754  1.00  0.00     0.022 A 
BRANCH  69  72
ATOM     72  S   UNL A   1      50.832  23.804  34.067  1.00  0.00     0.127 S 
ATOM     73  O   UNL A   1      50.547  22.441  33.619  1.00  0.00    -0.237 OA
ATOM     74  O   UNL A   1      52.244  24.183  33.997  1.00  0.00    -0.237 OA
ATOM     75  O   UNL A   1      50.165  24.200  35.302  1.00  0.00    -0.744 OA
ENDBRANCH  69  72
ENDBRANCH  51  65
BRANCH  52  76
ATOM     76  C   UNL A   1      39.321  30.403  29.614  1.00  0.00     0.023 A 
ATOM     77  C   UNL A   1      38.687  29.137  29.565  1.00  0.00     0.012 A 
ATOM     78  C   UNL A   1      38.540  31.559  29.517  1.00  0.00     0.148 A 
ATOM     79  C   UNL A   1      37.302  29.018  29.652  1.00  0.00     0.002 A 
ATOM     80  C   UNL A   1      37.161  31.433  29.642  1.00  0.00     0.091 A 
ATOM     81  F   UNL A   1      39.157  32.746  29.474  1.00  0.00    -0.205 F 
ATOM     82  C   UNL A   1      36.545  30.171  29.744  1.00  0.00     0.022 A 
BRANCH  80  83
ATOM     83  S   UNL A   1      36.128  32.804  30.136  1.00  0.00     0.127 S 
ATOM     84  O   UNL A   1      36.746  33.256  31.376  1.00  0.00    -0.237 OA
ATOM     85  O   UNL A   1      36.353  33.681  28.992  1.00  0.00    -0.237 OA
ATOM     86  O   UNL A   1      34.783  32.265  30.258  1.00  0.00    -0.744 OA
ENDBRANCH  80  83
ENDBRANCH  52  76
BRANCH  64  87
ATOM     87  C   UNL A   1      42.728  27.379  35.221  1.00  0.00     0.023 A 
ATOM     88  C   UNL A   1      41.719  26.395  35.251  1.00  0.00     0.012 A 
ATOM     89  C   UNL A   1      43.628  27.384  36.317  1.00  0.00     0.148 A 
ATOM     90  C   UNL A   1      41.531  25.549  36.350  1.00  0.00     0.002 A 
ATOM     91  C   UNL A   1      43.528  26.442  37.337  1.00  0.00     0.091 A 
ATOM     92  F   UNL A   1      44.584  28.321  36.397  1.00  0.00    -0.205 F 
ATOM     93  C   UNL A   1      42.449  25.559  37.388  1.00  0.00     0.022 A 
BRANCH  91  94
ATOM     94  S   UNL A   1      44.858  26.205  38.524  1.00  0.00     0.127 S 
ATOM     95  O   UNL A   1      44.481  27.131  39.589  1.00  0.00    -0.237 OA
ATOM     96  O   UNL A   1      44.718  24.789  38.867  1.00  0.00    -0.237 OA
ATOM     97  O   UNL A   1      46.079  26.522  37.795  1.00  0.00    -0.744 OA
ENDBRANCH  91  94
ENDBRANCH  64  87
ENDBRANCH  38  39
ENDBRANCH  31  33
ENDBRANCH  30  31
ENDBRANCH  29  30
ENDBRANCH  28  29
ENDBRANCH  27  28
ENDBRANCH   1  27
TORSDOF 21
ENDMDL
