MODEL 1
REMARK VINA RESULT:     -11.5      0.000      0.000
REMARK SMILES CN1CCN(C(=O)N2CCC[C@H]2CC(=O)OCCOCCOC(=O)c2ccc(-c3c4nc(c(-c5cccc(S(=O)(=O)[O-])c5F)c5ccc([nH]5)c(-c5cccc(S(=O)(=O)[O-])c5F)c5nc(c(-c6cccc(S(=O)(=O)[O-])c6F)c6ccc3[nH]6)C=C5)C=C4)cc2)C(C)(C)C1=O
REMARK SMILES IDX 19 1 18 2 17 3 16 4 14 5 15 6 13 7 12 8 8 9 9 10 10 11 11 12
REMARK SMILES IDX 6 13 7 14 5 15 1 16 2 17 3 18 91 19 4 20 88 21 92 22 89 23
REMARK SMILES IDX 90 24 20 25 21 26 22 27 23 28 24 29 25 30 26 31 87 32 27 33
REMARK SMILES IDX 86 34 28 35 29 36 30 37 80 38 31 39 85 40 79 41 81 42 32 43
REMARK SMILES IDX 84 44 78 45 77 46 33 48 65 49 45 50 64 51 46 52 49 53 63 54
REMARK SMILES IDX 82 55 47 56 48 57 62 59 83 60 50 61 34 62 35 63 43 64 36 65
REMARK SMILES IDX 38 66 44 67 37 68 39 69 40 70 41 71 42 72 66 73 67 74 75 75
REMARK SMILES IDX 68 76 70 77 76 78 69 79 71 80 72 81 73 82 74 83 51 84 52 85
REMARK SMILES IDX 60 86 53 87 55 88 61 89 54 90 56 91 57 92 58 93 59 94
REMARK H PARENT 81 47 49 58
REMARK Flexibility Score: inf
ROOT
ATOM      1  O   UNL A   1      35.614  21.247  24.941  1.00  0.00    -0.374 OA
ENDROOT
BRANCH   1   2
ATOM      2  C   UNL A   1      35.391  21.894  26.199  1.00  0.00     0.202 C 
BRANCH   2   3
ATOM      3  C   UNL A   1      34.079  21.552  26.922  1.00  0.00     0.261 C 
BRANCH   3   4
ATOM      4  O   UNL A   1      32.950  21.684  26.037  1.00  0.00    -0.463 OA
BRANCH   4   5
ATOM      5  C   UNL A   1      31.942  22.472  26.490  1.00  0.00     0.307 C 
ATOM      6  O   UNL A   1      31.857  22.903  27.634  1.00  0.00    -0.252 OA
BRANCH   5   7
ATOM      7  C   UNL A   1      31.002  22.880  25.376  1.00  0.00     0.147 C 
BRANCH   7   8
ATOM      8  C   UNL A   1      31.442  24.026  24.463  1.00  0.00     0.098 C 
ATOM      9  N   UNL A   1      32.114  25.134  25.140  1.00  0.00    -0.321 N 
ATOM     10  C   UNL A   1      33.544  25.021  24.926  1.00  0.00     0.122 C 
ATOM     11  C   UNL A   1      33.645  24.471  23.514  1.00  0.00     0.024 C 
ATOM     12  C   UNL A   1      32.404  23.595  23.347  1.00  0.00     0.027 C 
BRANCH   9  13
ATOM     13  C   UNL A   1      31.399  26.088  25.827  1.00  0.00     0.321 C 
ATOM     14  O   UNL A   1      31.195  25.980  27.039  1.00  0.00    -0.248 OA
BRANCH  13  15
ATOM     15  N   UNL A   1      30.960  27.209  25.129  1.00  0.00    -0.309 N 
ATOM     16  C   UNL A   1      29.420  30.446  22.756  1.00  0.00     0.146 C 
ATOM     17  N   UNL A   1      30.114  29.384  23.469  1.00  0.00    -0.342 N 
ATOM     18  C   UNL A   1      29.775  28.021  23.090  1.00  0.00     0.140 C 
ATOM     19  C   UNL A   1      30.804  29.686  24.641  1.00  0.00     0.247 C 
ATOM     20  C   UNL A   1      30.638  26.941  23.726  1.00  0.00     0.144 C 
ATOM     21  C   UNL A   1      31.632  28.539  25.314  1.00  0.00     0.118 C 
ATOM     22  O   UNL A   1      30.914  30.853  25.030  1.00  0.00    -0.272 OA
ATOM     23  C   UNL A   1      33.015  28.552  24.614  1.00  0.00     0.045 C 
ATOM     24  C   UNL A   1      31.884  28.946  26.777  1.00  0.00     0.045 C 
ENDBRANCH  13  15
ENDBRANCH   9  13
ENDBRANCH   7   8
ENDBRANCH   5   7
ENDBRANCH   4   5
ENDBRANCH   3   4
ENDBRANCH   2   3
ENDBRANCH   1   2
BRANCH   1  25
ATOM     25  C   UNL A   1      36.254  19.973  24.967  1.00  0.00     0.202 C 
BRANCH  25  26
ATOM     26  C   UNL A   1      37.789  19.970  24.925  1.00  0.00     0.261 C 
BRANCH  26  27
ATOM     27  O   UNL A   1      38.391  21.211  25.348  1.00  0.00    -0.460 OA
BRANCH  27  28
ATOM     28  C   UNL A   1      39.501  21.086  26.107  1.00  0.00     0.338 C 
ATOM     29  O   UNL A   1      40.193  20.077  26.236  1.00  0.00    -0.246 OA
BRANCH  28  30
ATOM     30  C   UNL A   1      39.849  22.349  26.781  1.00  0.00     0.060 A 
ATOM     31  C   UNL A   1      39.262  23.533  26.331  1.00  0.00     0.016 A 
ATOM     32  C   UNL A   1      40.879  22.395  27.722  1.00  0.00     0.016 A 
ATOM     33  C   UNL A   1      39.735  24.765  26.798  1.00  0.00     0.010 A 
ATOM     34  C   UNL A   1      41.347  23.625  28.196  1.00  0.00     0.010 A 
ATOM     35  C   UNL A   1      40.802  24.820  27.708  1.00  0.00    -0.014 A 
BRANCH  35  36
ATOM     36  C   UNL A   1      41.384  26.130  28.098  1.00  0.00     0.031 A 
ATOM     37  C   UNL A   1      42.806  26.470  27.737  1.00  0.00     0.074 A 
ATOM     38  C   UNL A   1      40.641  27.016  28.784  1.00  0.00     0.049 A 
ATOM     39  N   UNL A   1      43.448  27.599  27.897  1.00  0.00    -0.248 NA
ATOM     40  C   UNL A   1      43.610  25.404  27.117  1.00  0.00     0.031 C 
ATOM     41  C   UNL A   1      39.272  26.790  29.243  1.00  0.00     0.029 A 
ATOM     42  N   UNL A   1      40.942  28.280  29.226  1.00  0.00    -0.354 N 
ATOM     43  C   UNL A   1      44.727  27.386  27.398  1.00  0.00     0.074 A 
ATOM     44  C   UNL A   1      44.782  26.005  26.962  1.00  0.00     0.031 C 
ATOM     45  C   UNL A   1      38.851  27.879  29.907  1.00  0.00     0.029 A 
ATOM     46  C   UNL A   1      39.918  28.878  29.922  1.00  0.00     0.049 A 
ATOM     47  H   UNL A   1      41.808  28.718  29.060  1.00  0.00     0.167 HD
ATOM     48  C   UNL A   1      45.752  28.264  27.279  1.00  0.00     0.034 A 
ATOM     49  C   UNL A   1      39.844  30.095  30.494  1.00  0.00     0.034 A 
ATOM     50  C   UNL A   1      45.696  29.639  27.701  1.00  0.00     0.049 A 
ATOM     51  C   UNL A   1      40.998  31.051  30.360  1.00  0.00     0.074 A 
ATOM     52  C   UNL A   1      46.657  30.625  27.553  1.00  0.00     0.029 A 
ATOM     53  N   UNL A   1      44.630  30.220  28.369  1.00  0.00    -0.354 N 
ATOM     54  N   UNL A   1      42.130  30.892  29.718  1.00  0.00    -0.248 NA
ATOM     55  C   UNL A   1      40.848  32.369  30.996  1.00  0.00     0.031 C 
ATOM     56  C   UNL A   1      46.176  31.799  28.145  1.00  0.00     0.029 A 
ATOM     57  C   UNL A   1      44.912  31.546  28.653  1.00  0.00     0.049 A 
ATOM     58  H   UNL A   1      43.794  29.758  28.607  1.00  0.00     0.167 HD
ATOM     59  C   UNL A   1      42.810  32.099  29.839  1.00  0.00     0.074 A 
ATOM     60  C   UNL A   1      41.957  32.985  30.605  1.00  0.00     0.031 C 
ATOM     61  C   UNL A   1      44.036  32.439  29.369  1.00  0.00     0.034 A 
BRANCH  48  62
ATOM     62  C   UNL A   1      47.004  27.784  26.594  1.00  0.00     0.023 A 
ATOM     63  C   UNL A   1      47.990  27.128  27.358  1.00  0.00     0.012 A 
ATOM     64  C   UNL A   1      47.183  27.917  25.204  1.00  0.00     0.148 A 
ATOM     65  C   UNL A   1      49.147  26.634  26.756  1.00  0.00     0.002 A 
ATOM     66  C   UNL A   1      48.325  27.393  24.605  1.00  0.00     0.091 A 
ATOM     67  F   UNL A   1      46.249  28.565  24.494  1.00  0.00    -0.205 F 
ATOM     68  C   UNL A   1      49.309  26.758  25.379  1.00  0.00     0.022 A 
BRANCH  66  69
ATOM     69  S   UNL A   1      48.582  27.447  22.827  1.00  0.00     0.127 S 
ATOM     70  O   UNL A   1      47.417  28.210  22.383  1.00  0.00    -0.237 OA
ATOM     71  O   UNL A   1      49.856  28.159  22.713  1.00  0.00    -0.237 OA
ATOM     72  O   UNL A   1      48.633  26.055  22.398  1.00  0.00    -0.744 OA
ENDBRANCH  66  69
ENDBRANCH  48  62
BRANCH  49  73
ATOM     73  C   UNL A   1      38.582  30.510  31.168  1.00  0.00     0.023 A 
ATOM     74  C   UNL A   1      38.422  30.256  32.543  1.00  0.00     0.012 A 
ATOM     75  C   UNL A   1      37.571  31.198  30.470  1.00  0.00     0.148 A 
ATOM     76  C   UNL A   1      37.267  30.666  33.210  1.00  0.00     0.002 A 
ATOM     77  C   UNL A   1      36.446  31.647  31.152  1.00  0.00     0.091 A 
ATOM     78  F   UNL A   1      37.738  31.413  29.158  1.00  0.00    -0.205 F 
ATOM     79  C   UNL A   1      36.286  31.371  32.519  1.00  0.00     0.022 A 
BRANCH  77  80
ATOM     80  S   UNL A   1      35.197  32.674  30.369  1.00  0.00     0.127 S 
ATOM     81  O   UNL A   1      35.974  33.848  29.981  1.00  0.00    -0.237 OA
ATOM     82  O   UNL A   1      34.762  31.827  29.257  1.00  0.00    -0.237 OA
ATOM     83  O   UNL A   1      34.178  32.893  31.387  1.00  0.00    -0.744 OA
ENDBRANCH  77  80
ENDBRANCH  49  73
BRANCH  61  84
ATOM     84  C   UNL A   1      44.533  33.832  29.648  1.00  0.00     0.023 A 
ATOM     85  C   UNL A   1      45.357  34.064  30.767  1.00  0.00     0.012 A 
ATOM     86  C   UNL A   1      44.252  34.895  28.766  1.00  0.00     0.148 A 
ATOM     87  C   UNL A   1      45.872  35.335  31.019  1.00  0.00     0.002 A 
ATOM     88  C   UNL A   1      44.802  36.150  29.001  1.00  0.00     0.091 A 
ATOM     89  F   UNL A   1      43.449  34.661  27.718  1.00  0.00    -0.205 F 
ATOM     90  C   UNL A   1      45.605  36.375  30.132  1.00  0.00     0.022 A 
BRANCH  88  91
ATOM     91  S   UNL A   1      44.576  37.523  27.864  1.00  0.00     0.127 S 
ATOM     92  O   UNL A   1      45.461  38.536  28.436  1.00  0.00    -0.237 OA
ATOM     93  O   UNL A   1      45.035  36.959  26.593  1.00  0.00    -0.237 OA
ATOM     94  O   UNL A   1      43.153  37.838  27.900  1.00  0.00    -0.744 OA
ENDBRANCH  88  91
ENDBRANCH  61  84
ENDBRANCH  35  36
ENDBRANCH  28  30
ENDBRANCH  27  28
ENDBRANCH  26  27
ENDBRANCH  25  26
ENDBRANCH   1  25
TORSDOF 20
ENDMDL
MODEL 2
REMARK VINA RESULT:     -11.1      1.478      7.599
REMARK SMILES CN1CCN(C(=O)N2CCC[C@H]2CC(=O)OCCOCCOC(=O)c2ccc(-c3c4nc(c(-c5cccc(S(=O)(=O)[O-])c5F)c5ccc([nH]5)c(-c5cccc(S(=O)(=O)[O-])c5F)c5nc(c(-c6cccc(S(=O)(=O)[O-])c6F)c6ccc3[nH]6)C=C5)C=C4)cc2)C(C)(C)C1=O
REMARK SMILES IDX 19 1 18 2 17 3 16 4 14 5 15 6 13 7 12 8 8 9 9 10 10 11 11 12
REMARK SMILES IDX 6 13 7 14 5 15 1 16 2 17 3 18 91 19 4 20 88 21 92 22 89 23
REMARK SMILES IDX 90 24 20 25 21 26 22 27 23 28 24 29 25 30 26 31 87 32 27 33
REMARK SMILES IDX 86 34 28 35 29 36 30 37 80 38 31 39 85 40 79 41 81 42 32 43
REMARK SMILES IDX 84 44 78 45 77 46 33 48 65 49 45 50 64 51 46 52 49 53 63 54
REMARK SMILES IDX 82 55 47 56 48 57 62 59 83 60 50 61 34 62 35 63 43 64 36 65
REMARK SMILES IDX 38 66 44 67 37 68 39 69 40 70 41 71 42 72 66 73 67 74 75 75
REMARK SMILES IDX 68 76 70 77 76 78 69 79 71 80 72 81 73 82 74 83 51 84 52 85
REMARK SMILES IDX 60 86 53 87 55 88 61 89 54 90 56 91 57 92 58 93 59 94
REMARK H PARENT 81 47 49 58
REMARK Flexibility Score: inf
ROOT
ATOM      1  O   UNL A   1      37.625  20.325  24.503  1.00  0.00    -0.374 OA
ENDROOT
BRANCH   1   2
ATOM      2  C   UNL A   1      37.829  21.544  25.226  1.00  0.00     0.202 C 
BRANCH   2   3
ATOM      3  C   UNL A   1      36.645  22.524  25.266  1.00  0.00     0.261 C 
BRANCH   3   4
ATOM      4  O   UNL A   1      35.548  21.980  26.024  1.00  0.00    -0.463 OA
BRANCH   4   5
ATOM      5  C   UNL A   1      34.556  21.413  25.290  1.00  0.00     0.307 C 
ATOM      6  O   UNL A   1      34.335  20.210  25.231  1.00  0.00    -0.252 OA
BRANCH   5   7
ATOM      7  C   UNL A   1      33.657  22.456  24.660  1.00  0.00     0.147 C 
BRANCH   7   8
ATOM      8  C   UNL A   1      33.132  23.575  25.561  1.00  0.00     0.098 C 
ATOM      9  N   UNL A   1      32.247  24.535  24.904  1.00  0.00    -0.321 N 
ATOM     10  C   UNL A   1      30.874  24.230  25.254  1.00  0.00     0.122 C 
ATOM     11  C   UNL A   1      30.976  23.749  26.691  1.00  0.00     0.024 C 
ATOM     12  C   UNL A   1      32.343  23.072  26.779  1.00  0.00     0.027 C 
BRANCH   9  13
ATOM     13  C   UNL A   1      32.752  25.543  24.115  1.00  0.00     0.321 C 
ATOM     14  O   UNL A   1      33.817  25.405  23.510  1.00  0.00    -0.248 OA
BRANCH  13  15
ATOM     15  N   UNL A   1      31.997  26.704  23.969  1.00  0.00    -0.309 N 
ATOM     16  C   UNL A   1      29.487  30.120  23.252  1.00  0.00     0.146 C 
ATOM     17  N   UNL A   1      30.481  29.068  23.409  1.00  0.00    -0.342 N 
ATOM     18  C   UNL A   1      30.326  27.900  22.556  1.00  0.00     0.140 C 
ATOM     19  C   UNL A   1      31.313  29.075  24.526  1.00  0.00     0.247 C 
ATOM     20  C   UNL A   1      31.470  26.899  22.617  1.00  0.00     0.144 C 
ATOM     21  C   UNL A   1      32.444  27.993  24.597  1.00  0.00     0.118 C 
ATOM     22  O   UNL A   1      31.284  30.008  25.333  1.00  0.00    -0.272 OA
ATOM     23  C   UNL A   1      33.646  28.588  23.822  1.00  0.00     0.045 C 
ATOM     24  C   UNL A   1      32.888  27.883  26.068  1.00  0.00     0.045 C 
ENDBRANCH  13  15
ENDBRANCH   9  13
ENDBRANCH   7   8
ENDBRANCH   5   7
ENDBRANCH   4   5
ENDBRANCH   3   4
ENDBRANCH   2   3
ENDBRANCH   1   2
BRANCH   1  25
ATOM     25  C   UNL A   1      38.324  19.169  24.962  1.00  0.00     0.202 C 
BRANCH  25  26
ATOM     26  C   UNL A   1      39.352  19.383  26.081  1.00  0.00     0.261 C 
BRANCH  26  27
ATOM     27  O   UNL A   1      40.723  19.347  25.634  1.00  0.00    -0.460 OA
BRANCH  27  28
ATOM     28  C   UNL A   1      41.648  19.608  26.583  1.00  0.00     0.338 C 
ATOM     29  O   UNL A   1      42.379  18.791  27.141  1.00  0.00    -0.246 OA
BRANCH  28  30
ATOM     30  C   UNL A   1      41.731  21.047  26.886  1.00  0.00     0.060 A 
ATOM     31  C   UNL A   1      41.488  21.964  25.860  1.00  0.00     0.016 A 
ATOM     32  C   UNL A   1      42.223  21.491  28.115  1.00  0.00     0.016 A 
ATOM     33  C   UNL A   1      41.774  23.319  26.057  1.00  0.00     0.010 A 
ATOM     34  C   UNL A   1      42.501  22.847  28.315  1.00  0.00     0.010 A 
ATOM     35  C   UNL A   1      42.313  23.765  27.274  1.00  0.00    -0.014 A 
BRANCH  35  36
ATOM     36  C   UNL A   1      42.736  25.180  27.430  1.00  0.00     0.031 A 
ATOM     37  C   UNL A   1      41.810  26.188  28.056  1.00  0.00     0.074 A 
ATOM     38  C   UNL A   1      43.951  25.568  27.003  1.00  0.00     0.049 A 
ATOM     39  N   UNL A   1      42.044  27.437  28.372  1.00  0.00    -0.248 NA
ATOM     40  C   UNL A   1      40.444  25.736  28.367  1.00  0.00     0.031 C 
ATOM     41  C   UNL A   1      44.922  24.706  26.330  1.00  0.00     0.029 A 
ATOM     42  N   UNL A   1      44.568  26.792  27.060  1.00  0.00    -0.354 N 
ATOM     43  C   UNL A   1      40.861  27.921  28.920  1.00  0.00     0.074 A 
ATOM     44  C   UNL A   1      39.899  26.840  28.860  1.00  0.00     0.031 C 
ATOM     45  C   UNL A   1      46.013  25.430  26.032  1.00  0.00     0.029 A 
ATOM     46  C   UNL A   1      45.819  26.805  26.491  1.00  0.00     0.049 A 
ATOM     47  H   UNL A   1      44.155  27.587  27.470  1.00  0.00     0.167 HD
ATOM     48  C   UNL A   1      40.609  29.139  29.456  1.00  0.00     0.034 A 
ATOM     49  C   UNL A   1      46.713  27.806  26.364  1.00  0.00     0.034 A 
ATOM     50  C   UNL A   1      41.567  30.211  29.526  1.00  0.00     0.049 A 
ATOM     51  C   UNL A   1      46.406  29.154  26.957  1.00  0.00     0.074 A 
ATOM     52  C   UNL A   1      41.426  31.454  30.118  1.00  0.00     0.029 A 
ATOM     53  N   UNL A   1      42.836  30.175  28.972  1.00  0.00    -0.354 N 
ATOM     54  N   UNL A   1      45.354  29.535  27.639  1.00  0.00    -0.248 NA
ATOM     55  C   UNL A   1      47.429  30.200  26.797  1.00  0.00     0.031 C 
ATOM     56  C   UNL A   1      42.608  32.176  29.909  1.00  0.00     0.029 A 
ATOM     57  C   UNL A   1      43.486  31.378  29.194  1.00  0.00     0.049 A 
ATOM     58  H   UNL A   1      43.220  29.408  28.490  1.00  0.00     0.167 HD
ATOM     59  C   UNL A   1      45.602  30.849  28.022  1.00  0.00     0.074 A 
ATOM     60  C   UNL A   1      46.911  31.195  27.507  1.00  0.00     0.031 C 
ATOM     61  C   UNL A   1      44.811  31.697  28.726  1.00  0.00     0.034 A 
BRANCH  48  62
ATOM     62  C   UNL A   1      39.256  29.356  30.083  1.00  0.00     0.023 A 
ATOM     63  C   UNL A   1      39.000  28.805  31.356  1.00  0.00     0.012 A 
ATOM     64  C   UNL A   1      38.272  30.146  29.461  1.00  0.00     0.148 A 
ATOM     65  C   UNL A   1      37.775  29.014  31.989  1.00  0.00     0.002 A 
ATOM     66  C   UNL A   1      37.064  30.378  30.114  1.00  0.00     0.091 A 
ATOM     67  F   UNL A   1      38.521  30.642  28.242  1.00  0.00    -0.205 F 
ATOM     68  C   UNL A   1      36.812  29.809  31.372  1.00  0.00     0.022 A 
BRANCH  66  69
ATOM     69  S   UNL A   1      35.794  31.446  29.423  1.00  0.00     0.127 S 
ATOM     70  O   UNL A   1      34.973  31.728  30.599  1.00  0.00    -0.237 OA
ATOM     71  O   UNL A   1      36.570  32.587  28.935  1.00  0.00    -0.237 OA
ATOM     72  O   UNL A   1      35.155  30.663  28.374  1.00  0.00    -0.744 OA
ENDBRANCH  66  69
ENDBRANCH  48  62
BRANCH  49  73
ATOM     73  C   UNL A   1      48.030  27.533  25.725  1.00  0.00     0.023 A 
ATOM     74  C   UNL A   1      49.113  27.128  26.528  1.00  0.00     0.012 A 
ATOM     75  C   UNL A   1      48.200  27.620  24.330  1.00  0.00     0.148 A 
ATOM     76  C   UNL A   1      50.349  26.829  25.954  1.00  0.00     0.002 A 
ATOM     77  C   UNL A   1      49.419  27.274  23.761  1.00  0.00     0.091 A 
ATOM     78  F   UNL A   1      47.160  28.026  23.588  1.00  0.00    -0.205 F 
ATOM     79  C   UNL A   1      50.498  26.890  24.572  1.00  0.00     0.022 A 
BRANCH  77  80
ATOM     80  S   UNL A   1      49.660  27.199  21.982  1.00  0.00     0.127 S 
ATOM     81  O   UNL A   1      48.662  26.209  21.586  1.00  0.00    -0.237 OA
ATOM     82  O   UNL A   1      49.360  28.573  21.577  1.00  0.00    -0.237 OA
ATOM     83  O   UNL A   1      51.051  26.811  21.793  1.00  0.00    -0.744 OA
ENDBRANCH  77  80
ENDBRANCH  49  73
BRANCH  61  84
ATOM     84  C   UNL A   1      45.337  33.080  29.003  1.00  0.00     0.023 A 
ATOM     85  C   UNL A   1      46.089  33.314  30.172  1.00  0.00     0.012 A 
ATOM     86  C   UNL A   1      45.156  34.127  28.078  1.00  0.00     0.148 A 
ATOM     87  C   UNL A   1      46.631  34.573  30.427  1.00  0.00     0.002 A 
ATOM     88  C   UNL A   1      45.733  35.369  28.319  1.00  0.00     0.091 A 
ATOM     89  F   UNL A   1      44.419  33.892  26.982  1.00  0.00    -0.205 F 
ATOM     90  C   UNL A   1      46.463  35.597  29.497  1.00  0.00     0.022 A 
BRANCH  88  91
ATOM     91  S   UNL A   1      45.635  36.717  27.135  1.00  0.00     0.127 S 
ATOM     92  O   UNL A   1      46.362  37.779  27.828  1.00  0.00    -0.237 OA
ATOM     93  O   UNL A   1      46.328  36.164  25.970  1.00  0.00    -0.237 OA
ATOM     94  O   UNL A   1      44.213  36.959  26.927  1.00  0.00    -0.744 OA
ENDBRANCH  88  91
ENDBRANCH  61  84
ENDBRANCH  35  36
ENDBRANCH  28  30
ENDBRANCH  27  28
ENDBRANCH  26  27
ENDBRANCH  25  26
ENDBRANCH   1  25
TORSDOF 20
ENDMDL
MODEL 3
REMARK VINA RESULT:     -11.1      4.943     10.503
REMARK SMILES CN1CCN(C(=O)N2CCC[C@H]2CC(=O)OCCOCCOC(=O)c2ccc(-c3c4nc(c(-c5cccc(S(=O)(=O)[O-])c5F)c5ccc([nH]5)c(-c5cccc(S(=O)(=O)[O-])c5F)c5nc(c(-c6cccc(S(=O)(=O)[O-])c6F)c6ccc3[nH]6)C=C5)C=C4)cc2)C(C)(C)C1=O
REMARK SMILES IDX 19 1 18 2 17 3 16 4 14 5 15 6 13 7 12 8 8 9 9 10 10 11 11 12
REMARK SMILES IDX 6 13 7 14 5 15 1 16 2 17 3 18 91 19 4 20 88 21 92 22 89 23
REMARK SMILES IDX 90 24 20 25 21 26 22 27 23 28 24 29 25 30 26 31 87 32 27 33
REMARK SMILES IDX 86 34 28 35 29 36 30 37 80 38 31 39 85 40 79 41 81 42 32 43
REMARK SMILES IDX 84 44 78 45 77 46 33 48 65 49 45 50 64 51 46 52 49 53 63 54
REMARK SMILES IDX 82 55 47 56 48 57 62 59 83 60 50 61 34 62 35 63 43 64 36 65
REMARK SMILES IDX 38 66 44 67 37 68 39 69 40 70 41 71 42 72 66 73 67 74 75 75
REMARK SMILES IDX 68 76 70 77 76 78 69 79 71 80 72 81 73 82 74 83 51 84 52 85
REMARK SMILES IDX 60 86 53 87 55 88 61 89 54 90 56 91 57 92 58 93 59 94
REMARK H PARENT 81 47 49 58
REMARK Flexibility Score: inf
ROOT
ATOM      1  O   UNL A   1      31.254  30.198  26.167  1.00  0.00    -0.374 OA
ENDROOT
BRANCH   1   2
ATOM      2  C   UNL A   1      31.425  30.082  24.750  1.00  0.00     0.202 C 
BRANCH   2   3
ATOM      3  C   UNL A   1      31.963  28.739  24.232  1.00  0.00     0.261 C 
BRANCH   3   4
ATOM      4  O   UNL A   1      31.215  27.635  24.779  1.00  0.00    -0.463 OA
BRANCH   4   5
ATOM      5  C   UNL A   1      31.844  26.931  25.754  1.00  0.00     0.307 C 
ATOM      6  O   UNL A   1      31.315  26.555  26.793  1.00  0.00    -0.252 OA
BRANCH   5   7
ATOM      7  C   UNL A   1      33.247  26.536  25.345  1.00  0.00     0.147 C 
BRANCH   7   8
ATOM      8  C   UNL A   1      33.398  25.350  24.390  1.00  0.00     0.098 C 
ATOM      9  N   UNL A   1      32.359  24.327  24.504  1.00  0.00    -0.321 N 
ATOM     10  C   UNL A   1      31.411  24.493  23.420  1.00  0.00     0.122 C 
ATOM     11  C   UNL A   1      32.280  24.946  22.259  1.00  0.00     0.024 C 
ATOM     12  C   UNL A   1      33.409  25.746  22.906  1.00  0.00     0.027 C 
BRANCH   9  13
ATOM     13  C   UNL A   1      32.390  23.391  25.511  1.00  0.00     0.321 C 
ATOM     14  O   UNL A   1      31.869  23.618  26.607  1.00  0.00    -0.248 OA
BRANCH  13  15
ATOM     15  N   UNL A   1      32.972  22.156  25.243  1.00  0.00    -0.309 N 
ATOM     16  C   UNL A   1      34.443  18.227  24.302  1.00  0.00     0.146 C 
ATOM     17  N   UNL A   1      33.961  19.503  24.810  1.00  0.00    -0.342 N 
ATOM     18  C   UNL A   1      32.544  19.776  24.632  1.00  0.00     0.140 C 
ATOM     19  C   UNL A   1      34.879  20.496  25.145  1.00  0.00     0.247 C 
ATOM     20  C   UNL A   1      32.036  21.033  25.323  1.00  0.00     0.144 C 
ATOM     21  C   UNL A   1      34.324  21.809  25.796  1.00  0.00     0.118 C 
ATOM     22  O   UNL A   1      36.093  20.277  25.107  1.00  0.00    -0.272 OA
ATOM     23  C   UNL A   1      34.233  21.519  27.316  1.00  0.00     0.045 C 
ATOM     24  C   UNL A   1      35.399  22.899  25.627  1.00  0.00     0.045 C 
ENDBRANCH  13  15
ENDBRANCH   9  13
ENDBRANCH   7   8
ENDBRANCH   5   7
ENDBRANCH   4   5
ENDBRANCH   3   4
ENDBRANCH   2   3
ENDBRANCH   1   2
BRANCH   1  25
ATOM     25  C   UNL A   1      32.166  31.041  26.867  1.00  0.00     0.202 C 
BRANCH  25  26
ATOM     26  C   UNL A   1      31.761  32.512  27.031  1.00  0.00     0.261 C 
BRANCH  26  27
ATOM     27  O   UNL A   1      32.869  33.435  26.988  1.00  0.00    -0.460 OA
BRANCH  27  28
ATOM     28  C   UNL A   1      33.396  33.763  28.187  1.00  0.00     0.338 C 
ATOM     29  O   UNL A   1      32.934  34.563  28.999  1.00  0.00    -0.246 OA
BRANCH  28  30
ATOM     30  C   UNL A   1      34.629  33.007  28.469  1.00  0.00     0.060 A 
ATOM     31  C   UNL A   1      34.530  31.788  29.145  1.00  0.00     0.016 A 
ATOM     32  C   UNL A   1      35.883  33.575  28.237  1.00  0.00     0.016 A 
ATOM     33  C   UNL A   1      35.686  31.160  29.619  1.00  0.00     0.010 A 
ATOM     34  C   UNL A   1      37.041  32.943  28.703  1.00  0.00     0.010 A 
ATOM     35  C   UNL A   1      36.947  31.750  29.431  1.00  0.00    -0.014 A 
BRANCH  35  36
ATOM     36  C   UNL A   1      38.154  31.145  30.050  1.00  0.00     0.031 A 
ATOM     37  C   UNL A   1      38.632  31.610  31.400  1.00  0.00     0.074 A 
ATOM     38  C   UNL A   1      38.830  30.182  29.399  1.00  0.00     0.049 A 
ATOM     39  N   UNL A   1      39.596  31.128  32.142  1.00  0.00    -0.248 NA
ATOM     40  C   UNL A   1      37.937  32.764  31.992  1.00  0.00     0.031 C 
ATOM     41  C   UNL A   1      38.507  29.681  28.064  1.00  0.00     0.029 A 
ATOM     42  N   UNL A   1      39.939  29.465  29.770  1.00  0.00    -0.354 N 
ATOM     43  C   UNL A   1      39.626  31.914  33.288  1.00  0.00     0.074 A 
ATOM     44  C   UNL A   1      38.605  32.929  33.127  1.00  0.00     0.031 C 
ATOM     45  C   UNL A   1      39.401  28.738  27.725  1.00  0.00     0.029 A 
ATOM     46  C   UNL A   1      40.360  28.570  28.816  1.00  0.00     0.049 A 
ATOM     47  H   UNL A   1      40.391  29.579  30.638  1.00  0.00     0.167 HD
ATOM     48  C   UNL A   1      40.405  31.784  34.389  1.00  0.00     0.034 A 
ATOM     49  C   UNL A   1      41.393  27.704  28.823  1.00  0.00     0.034 A 
ATOM     50  C   UNL A   1      41.413  30.770  34.556  1.00  0.00     0.049 A 
ATOM     51  C   UNL A   1      42.253  27.584  30.052  1.00  0.00     0.074 A 
ATOM     52  C   UNL A   1      42.200  30.512  35.665  1.00  0.00     0.029 A 
ATOM     53  N   UNL A   1      41.787  29.858  33.582  1.00  0.00    -0.354 N 
ATOM     54  N   UNL A   1      42.143  28.208  31.199  1.00  0.00    -0.248 NA
ATOM     55  C   UNL A   1      43.354  26.610  30.001  1.00  0.00     0.031 C 
ATOM     56  C   UNL A   1      43.061  29.452  35.357  1.00  0.00     0.029 A 
ATOM     57  C   UNL A   1      42.802  29.044  34.057  1.00  0.00     0.049 A 
ATOM     58  H   UNL A   1      41.389  29.796  32.684  1.00  0.00     0.167 HD
ATOM     59  C   UNL A   1      43.135  27.679  32.018  1.00  0.00     0.074 A 
ATOM     60  C   UNL A   1      43.827  26.672  31.241  1.00  0.00     0.031 C 
ATOM     61  C   UNL A   1      43.451  28.007  33.296  1.00  0.00     0.034 A 
BRANCH  48  62
ATOM     62  C   UNL A   1      40.145  32.720  35.540  1.00  0.00     0.023 A 
ATOM     63  C   UNL A   1      40.768  33.985  35.543  1.00  0.00     0.012 A 
ATOM     64  C   UNL A   1      39.249  32.389  36.573  1.00  0.00     0.148 A 
ATOM     65  C   UNL A   1      40.525  34.896  36.570  1.00  0.00     0.002 A 
ATOM     66  C   UNL A   1      38.986  33.317  37.577  1.00  0.00     0.091 A 
ATOM     67  F   UNL A   1      38.683  31.174  36.570  1.00  0.00    -0.205 F 
ATOM     68  C   UNL A   1      39.627  34.566  37.581  1.00  0.00     0.022 A 
BRANCH  66  69
ATOM     69  S   UNL A   1      37.790  33.000  38.881  1.00  0.00     0.127 S 
ATOM     70  O   UNL A   1      36.549  32.872  38.118  1.00  0.00    -0.237 OA
ATOM     71  O   UNL A   1      38.278  31.750  39.463  1.00  0.00    -0.237 OA
ATOM     72  O   UNL A   1      37.872  34.149  39.773  1.00  0.00    -0.744 OA
ENDBRANCH  66  69
ENDBRANCH  48  62
BRANCH  49  73
ATOM     73  C   UNL A   1      41.606  26.810  27.651  1.00  0.00     0.023 A 
ATOM     74  C   UNL A   1      42.284  27.309  26.522  1.00  0.00     0.012 A 
ATOM     75  C   UNL A   1      41.192  25.465  27.670  1.00  0.00     0.148 A 
ATOM     76  C   UNL A   1      42.532  26.486  25.423  1.00  0.00     0.002 A 
ATOM     77  C   UNL A   1      41.486  24.638  26.592  1.00  0.00     0.091 A 
ATOM     78  F   UNL A   1      40.533  25.018  28.748  1.00  0.00    -0.205 F 
ATOM     79  C   UNL A   1      42.145  25.149  25.463  1.00  0.00     0.022 A 
BRANCH  77  80
ATOM     80  S   UNL A   1      41.140  22.875  26.614  1.00  0.00     0.127 S 
ATOM     81  O   UNL A   1      42.110  22.367  25.648  1.00  0.00    -0.237 OA
ATOM     82  O   UNL A   1      41.419  22.529  28.009  1.00  0.00    -0.237 OA
ATOM     83  O   UNL A   1      39.739  22.748  26.236  1.00  0.00    -0.744 OA
ENDBRANCH  77  80
ENDBRANCH  49  73
BRANCH  61  84
ATOM     84  C   UNL A   1      44.583  27.262  33.952  1.00  0.00     0.023 A 
ATOM     85  C   UNL A   1      45.890  27.786  33.883  1.00  0.00     0.012 A 
ATOM     86  C   UNL A   1      44.348  26.090  34.697  1.00  0.00     0.148 A 
ATOM     87  C   UNL A   1      46.947  27.143  34.524  1.00  0.00     0.002 A 
ATOM     88  C   UNL A   1      45.401  25.475  35.367  1.00  0.00     0.091 A 
ATOM     89  F   UNL A   1      43.103  25.593  34.734  1.00  0.00    -0.205 F 
ATOM     90  C   UNL A   1      46.703  25.995  35.275  1.00  0.00     0.022 A 
BRANCH  88  91
ATOM     91  S   UNL A   1      45.157  24.042  36.424  1.00  0.00     0.127 S 
ATOM     92  O   UNL A   1      44.421  23.140  35.541  1.00  0.00    -0.237 OA
ATOM     93  O   UNL A   1      46.531  23.626  36.713  1.00  0.00    -0.237 OA
ATOM     94  O   UNL A   1      44.422  24.526  37.585  1.00  0.00    -0.744 OA
ENDBRANCH  88  91
ENDBRANCH  61  84
ENDBRANCH  35  36
ENDBRANCH  28  30
ENDBRANCH  27  28
ENDBRANCH  26  27
ENDBRANCH  25  26
ENDBRANCH   1  25
TORSDOF 20
ENDMDL
