MODEL 1
REMARK VINA RESULT:     -10.8      0.000      0.000
REMARK SMILES CCC[C@]1(C(=O)OCCOCCOC(=O)c2ccc(-c3c4nc(c(-c5cccc(S(=O)(=O)[O-])c5F)c5ccc([nH]5)c(-c5cccc(S(=O)(=O)[O-])c5F)c5nc(c(-c6cccc(S(=O)(=O)[O-])c6F)c6ccc3[nH]6)C=C5)C=C4)cc2)CCCN(C(=O)c2ccc(NS(=O)(=O)CC)cc2)C1
REMARK SMILES IDX 9 1 8 2 7 3 5 4 6 5 4 6 79 7 97 8 80 9 82 10 81 11 3 12 2 13
REMARK SMILES IDX 1 14 83 15 84 16 85 17 86 18 96 19 87 20 95 21 88 22 89 23
REMARK SMILES IDX 90 25 91 26 92 27 93 28 94 29 10 30 11 31 12 32 13 33 14 34
REMARK SMILES IDX 15 35 16 36 17 37 78 38 18 39 77 40 19 41 20 42 21 43 71 44
REMARK SMILES IDX 22 45 76 46 70 47 72 48 23 49 75 50 69 51 68 52 24 54 56 55
REMARK SMILES IDX 36 56 55 57 37 58 40 59 54 60 73 61 38 62 39 63 53 65 74 66
REMARK SMILES IDX 41 67 25 68 26 69 34 70 27 71 29 72 35 73 28 74 30 75 31 76
REMARK SMILES IDX 32 77 33 78 57 79 58 80 66 81 59 82 61 83 67 84 60 85 62 86
REMARK SMILES IDX 63 87 64 88 65 89 42 90 43 91 51 92 44 93 46 94 52 95 45 96
REMARK SMILES IDX 47 97 48 98 49 99 50 100
REMARK H PARENT 89 24 72 53 40 64
REMARK Flexibility Score: inf
ROOT
ATOM      1  C   UNL A   1      34.056  19.264  24.582  1.00  0.00     0.202 C 
ENDROOT
BRANCH   1   2
ATOM      2  C   UNL A   1      32.688  19.957  24.497  1.00  0.00     0.261 C 
BRANCH   2   3
ATOM      3  O   UNL A   1      32.764  21.372  24.275  1.00  0.00    -0.463 OA
BRANCH   3   4
ATOM      4  C   UNL A   1      32.744  22.096  25.425  1.00  0.00     0.313 C 
ATOM      5  O   UNL A   1      32.893  21.582  26.527  1.00  0.00    -0.252 OA
BRANCH   4   6
ATOM      6  C   UNL A   1      32.576  23.604  25.199  1.00  0.00     0.086 C 
ATOM      7  C   UNL A   1      33.064  24.435  26.437  1.00  0.00     0.022 C 
ATOM      8  C   UNL A   1      33.470  23.977  24.010  1.00  0.00     0.138 C 
ATOM      9  C   UNL A   1      33.161  25.943  26.166  1.00  0.00     0.023 C 
ATOM     10  N   UNL A   1      33.464  25.421  23.788  1.00  0.00    -0.338 N 
ATOM     11  C   UNL A   1      33.947  26.240  24.898  1.00  0.00     0.120 C 
BRANCH   6  12
ATOM     12  C   UNL A   1      31.043  23.885  25.001  1.00  0.00     0.020 C 
BRANCH  12  13
ATOM     13  C   UNL A   1      30.110  24.097  26.208  1.00  0.00    -0.002 C 
ATOM     14  C   UNL A   1      29.663  22.876  26.991  1.00  0.00     0.004 C 
ENDBRANCH  12  13
ENDBRANCH   6  12
BRANCH  10  15
ATOM     15  C   UNL A   1      33.030  25.894  22.564  1.00  0.00     0.253 C 
ATOM     16  O   UNL A   1      33.436  25.502  21.474  1.00  0.00    -0.269 OA
BRANCH  15  17
ATOM     17  C   UNL A   1      31.930  26.862  22.539  1.00  0.00     0.040 A 
ATOM     18  C   UNL A   1      32.243  28.200  22.307  1.00  0.00     0.016 A 
ATOM     19  C   UNL A   1      30.645  26.474  22.900  1.00  0.00     0.016 A 
ATOM     20  C   UNL A   1      31.265  29.175  22.501  1.00  0.00     0.027 A 
ATOM     21  C   UNL A   1      29.682  27.460  23.121  1.00  0.00     0.027 A 
ATOM     22  C   UNL A   1      29.997  28.820  22.968  1.00  0.00     0.049 A 
BRANCH  22  23
ATOM     23  N   UNL A   1      29.126  29.745  23.617  1.00  0.00    -0.284 N 
ATOM     24  H   UNL A   1      29.456  30.160  24.446  1.00  0.00     0.180 HD
BRANCH  23  25
ATOM     25  S   UNL A   1      27.611  30.191  23.110  1.00  0.00     0.232 S 
ATOM     26  O   UNL A   1      26.756  29.023  23.129  1.00  0.00    -0.207 OA
ATOM     27  O   UNL A   1      27.280  31.349  23.917  1.00  0.00    -0.207 OA
BRANCH  25  28
ATOM     28  C   UNL A   1      27.758  30.757  21.413  1.00  0.00     0.156 C 
ATOM     29  C   UNL A   1      28.804  31.822  21.158  1.00  0.00     0.023 C 
ENDBRANCH  25  28
ENDBRANCH  23  25
ENDBRANCH  22  23
ENDBRANCH  15  17
ENDBRANCH  10  15
ENDBRANCH   4   6
ENDBRANCH   3   4
ENDBRANCH   2   3
ENDBRANCH   1   2
BRANCH   1  30
ATOM     30  O   UNL A   1      35.226  20.028  24.862  1.00  0.00    -0.374 OA
BRANCH  30  31
ATOM     31  C   UNL A   1      36.485  19.359  24.866  1.00  0.00     0.202 C 
BRANCH  31  32
ATOM     32  C   UNL A   1      37.756  20.158  24.546  1.00  0.00     0.261 C 
BRANCH  32  33
ATOM     33  O   UNL A   1      38.123  21.068  25.598  1.00  0.00    -0.460 OA
BRANCH  33  34
ATOM     34  C   UNL A   1      39.334  20.828  26.159  1.00  0.00     0.338 C 
ATOM     35  O   UNL A   1      40.001  19.806  26.065  1.00  0.00    -0.246 OA
BRANCH  34  36
ATOM     36  C   UNL A   1      39.871  22.076  26.726  1.00  0.00     0.060 A 
ATOM     37  C   UNL A   1      39.434  23.287  26.169  1.00  0.00     0.016 A 
ATOM     38  C   UNL A   1      40.814  22.066  27.754  1.00  0.00     0.016 A 
ATOM     39  C   UNL A   1      39.953  24.495  26.624  1.00  0.00     0.010 A 
ATOM     40  C   UNL A   1      41.351  23.279  28.195  1.00  0.00     0.010 A 
ATOM     41  C   UNL A   1      40.940  24.494  27.616  1.00  0.00    -0.014 A 
BRANCH  41  42
ATOM     42  C   UNL A   1      41.630  25.757  27.968  1.00  0.00     0.031 A 
ATOM     43  C   UNL A   1      40.869  26.825  28.699  1.00  0.00     0.074 A 
ATOM     44  C   UNL A   1      42.916  25.949  27.624  1.00  0.00     0.049 A 
ATOM     45  N   UNL A   1      41.249  28.029  29.033  1.00  0.00    -0.248 NA
ATOM     46  C   UNL A   1      39.494  26.491  29.108  1.00  0.00     0.031 C 
ATOM     47  C   UNL A   1      43.760  24.976  26.932  1.00  0.00     0.029 A 
ATOM     48  N   UNL A   1      43.724  27.046  27.782  1.00  0.00    -0.354 N 
ATOM     49  C   UNL A   1      40.154  28.611  29.659  1.00  0.00     0.074 A 
ATOM     50  C   UNL A   1      39.092  27.628  29.657  1.00  0.00     0.031 C 
ATOM     51  C   UNL A   1      44.958  25.534  26.690  1.00  0.00     0.029 A 
ATOM     52  C   UNL A   1      44.951  26.912  27.176  1.00  0.00     0.049 A 
ATOM     53  H   UNL A   1      43.453  27.852  28.280  1.00  0.00     0.167 HD
ATOM     54  C   UNL A   1      40.047  29.849  30.195  1.00  0.00     0.034 A 
ATOM     55  C   UNL A   1      45.939  27.812  27.002  1.00  0.00     0.034 A 
ATOM     56  C   UNL A   1      41.111  30.816  30.204  1.00  0.00     0.049 A 
ATOM     57  C   UNL A   1      45.775  29.202  27.559  1.00  0.00     0.074 A 
ATOM     58  C   UNL A   1      41.119  32.080  30.767  1.00  0.00     0.029 A 
ATOM     59  N   UNL A   1      42.348  30.638  29.606  1.00  0.00    -0.354 N 
ATOM     60  N   UNL A   1      44.778  29.702  28.249  1.00  0.00    -0.248 NA
ATOM     61  C   UNL A   1      46.881  30.144  27.336  1.00  0.00     0.031 C 
ATOM     62  C   UNL A   1      42.347  32.681  30.474  1.00  0.00     0.029 A 
ATOM     63  C   UNL A   1      43.119  31.778  29.762  1.00  0.00     0.049 A 
ATOM     64  H   UNL A   1      42.638  29.821  29.139  1.00  0.00     0.167 HD
ATOM     65  C   UNL A   1      45.148  31.004  28.567  1.00  0.00     0.074 A 
ATOM     66  C   UNL A   1      46.471  31.209  28.013  1.00  0.00     0.031 C 
ATOM     67  C   UNL A   1      44.451  31.952  29.243  1.00  0.00     0.034 A 
BRANCH  54  68
ATOM     68  C   UNL A   1      38.734  30.229  30.827  1.00  0.00     0.023 A 
ATOM     69  C   UNL A   1      38.491  29.919  32.181  1.00  0.00     0.012 A 
ATOM     70  C   UNL A   1      37.765  30.942  30.096  1.00  0.00     0.148 A 
ATOM     71  C   UNL A   1      37.291  30.288  32.788  1.00  0.00     0.002 A 
ATOM     72  C   UNL A   1      36.591  31.346  30.720  1.00  0.00     0.091 A 
ATOM     73  F   UNL A   1      38.005  31.207  28.804  1.00  0.00    -0.205 F 
ATOM     74  C   UNL A   1      36.347  31.010  32.062  1.00  0.00     0.022 A 
BRANCH  72  75
ATOM     75  S   UNL A   1      35.347  32.345  29.894  1.00  0.00     0.127 S 
ATOM     76  O   UNL A   1      36.127  33.517  29.498  1.00  0.00    -0.237 OA
ATOM     77  O   UNL A   1      34.943  31.477  28.788  1.00  0.00    -0.237 OA
ATOM     78  O   UNL A   1      34.308  32.594  30.884  1.00  0.00    -0.744 OA
ENDBRANCH  72  75
ENDBRANCH  54  68
BRANCH  55  79
ATOM     79  C   UNL A   1      47.177  27.425  26.267  1.00  0.00     0.023 A 
ATOM     80  C   UNL A   1      47.257  27.636  24.878  1.00  0.00     0.012 A 
ATOM     81  C   UNL A   1      48.280  26.864  26.943  1.00  0.00     0.148 A 
ATOM     82  C   UNL A   1      48.401  27.269  24.169  1.00  0.00     0.002 A 
ATOM     83  C   UNL A   1      49.438  26.555  26.240  1.00  0.00     0.091 A 
ATOM     84  F   UNL A   1      48.177  26.656  28.264  1.00  0.00    -0.205 F 
ATOM     85  C   UNL A   1      49.494  26.739  24.851  1.00  0.00     0.022 A 
BRANCH  83  86
ATOM     86  S   UNL A   1      50.936  25.991  27.056  1.00  0.00     0.127 S 
ATOM     87  O   UNL A   1      50.654  24.572  27.254  1.00  0.00    -0.237 OA
ATOM     88  O   UNL A   1      51.954  26.284  26.046  1.00  0.00    -0.237 OA
ATOM     89  O   UNL A   1      51.049  26.788  28.270  1.00  0.00    -0.744 OA
ENDBRANCH  83  86
ENDBRANCH  55  79
BRANCH  67  90
ATOM     90  C   UNL A   1      45.108  33.292  29.451  1.00  0.00     0.023 A 
ATOM     91  C   UNL A   1      46.090  33.444  30.449  1.00  0.00     0.012 A 
ATOM     92  C   UNL A   1      44.815  34.376  28.599  1.00  0.00     0.148 A 
ATOM     93  C   UNL A   1      46.751  34.661  30.615  1.00  0.00     0.002 A 
ATOM     94  C   UNL A   1      45.513  35.569  28.737  1.00  0.00     0.091 A 
ATOM     95  F   UNL A   1      43.868  34.215  27.664  1.00  0.00    -0.205 F 
ATOM     96  C   UNL A   1      46.472  35.718  29.752  1.00  0.00     0.022 A 
BRANCH  94  97
ATOM     97  S   UNL A   1      45.294  36.956  27.615  1.00  0.00     0.127 S 
ATOM     98  O   UNL A   1      46.370  37.851  28.033  1.00  0.00    -0.237 OA
ATOM     99  O   UNL A   1      45.493  36.328  26.308  1.00  0.00    -0.237 OA
ATOM    100  O   UNL A   1      43.945  37.455  27.848  1.00  0.00    -0.744 OA
ENDBRANCH  94  97
ENDBRANCH  67  90
ENDBRANCH  41  42
ENDBRANCH  34  36
ENDBRANCH  33  34
ENDBRANCH  32  33
ENDBRANCH  31  32
ENDBRANCH  30  31
ENDBRANCH   1  30
TORSDOF 24
ENDMDL
MODEL 2
REMARK VINA RESULT:     -10.8      1.650      7.516
REMARK SMILES CCC[C@]1(C(=O)OCCOCCOC(=O)c2ccc(-c3c4nc(c(-c5cccc(S(=O)(=O)[O-])c5F)c5ccc([nH]5)c(-c5cccc(S(=O)(=O)[O-])c5F)c5nc(c(-c6cccc(S(=O)(=O)[O-])c6F)c6ccc3[nH]6)C=C5)C=C4)cc2)CCCN(C(=O)c2ccc(NS(=O)(=O)CC)cc2)C1
REMARK SMILES IDX 9 1 8 2 7 3 5 4 6 5 4 6 79 7 97 8 80 9 82 10 81 11 3 12 2 13
REMARK SMILES IDX 1 14 83 15 84 16 85 17 86 18 96 19 87 20 95 21 88 22 89 23
REMARK SMILES IDX 90 25 91 26 92 27 93 28 94 29 10 30 11 31 12 32 13 33 14 34
REMARK SMILES IDX 15 35 16 36 17 37 78 38 18 39 77 40 19 41 20 42 21 43 71 44
REMARK SMILES IDX 22 45 76 46 70 47 72 48 23 49 75 50 69 51 68 52 24 54 56 55
REMARK SMILES IDX 36 56 55 57 37 58 40 59 54 60 73 61 38 62 39 63 53 65 74 66
REMARK SMILES IDX 41 67 25 68 26 69 34 70 27 71 29 72 35 73 28 74 30 75 31 76
REMARK SMILES IDX 32 77 33 78 57 79 58 80 66 81 59 82 61 83 67 84 60 85 62 86
REMARK SMILES IDX 63 87 64 88 65 89 42 90 43 91 51 92 44 93 46 94 52 95 45 96
REMARK SMILES IDX 47 97 48 98 49 99 50 100
REMARK H PARENT 89 24 72 53 40 64
REMARK Flexibility Score: inf
ROOT
ATOM      1  C   UNL A   1      34.635  18.569  24.521  1.00  0.00     0.202 C 
ENDROOT
BRANCH   1   2
ATOM      2  C   UNL A   1      33.142  18.894  24.367  1.00  0.00     0.261 C 
BRANCH   2   3
ATOM      3  O   UNL A   1      32.882  20.178  23.783  1.00  0.00    -0.463 OA
BRANCH   3   4
ATOM      4  C   UNL A   1      32.248  21.032  24.629  1.00  0.00     0.313 C 
ATOM      5  O   UNL A   1      31.561  20.640  25.565  1.00  0.00    -0.252 OA
BRANCH   4   6
ATOM      6  C   UNL A   1      32.524  22.511  24.329  1.00  0.00     0.086 C 
ATOM      7  C   UNL A   1      33.219  22.700  22.936  1.00  0.00     0.022 C 
ATOM      8  C   UNL A   1      31.161  23.212  24.265  1.00  0.00     0.138 C 
ATOM      9  C   UNL A   1      33.281  24.162  22.472  1.00  0.00     0.023 C 
ATOM     10  N   UNL A   1      31.314  24.610  23.870  1.00  0.00    -0.338 N 
ATOM     11  C   UNL A   1      31.922  24.841  22.561  1.00  0.00     0.120 C 
BRANCH   6  12
ATOM     12  C   UNL A   1      33.503  23.045  25.435  1.00  0.00     0.020 C 
BRANCH  12  13
ATOM     13  C   UNL A   1      35.012  22.743  25.376  1.00  0.00    -0.002 C 
ATOM     14  C   UNL A   1      35.958  23.878  25.028  1.00  0.00     0.004 C 
ENDBRANCH  12  13
ENDBRANCH   6  12
BRANCH  10  15
ATOM     15  C   UNL A   1      30.865  25.590  24.736  1.00  0.00     0.253 C 
ATOM     16  O   UNL A   1      30.636  25.420  25.930  1.00  0.00    -0.269 OA
BRANCH  15  17
ATOM     17  C   UNL A   1      30.747  26.963  24.240  1.00  0.00     0.040 A 
ATOM     18  C   UNL A   1      31.353  27.978  24.977  1.00  0.00     0.016 A 
ATOM     19  C   UNL A   1      29.916  27.251  23.163  1.00  0.00     0.016 A 
ATOM     20  C   UNL A   1      31.073  29.308  24.668  1.00  0.00     0.027 A 
ATOM     21  C   UNL A   1      29.619  28.585  22.881  1.00  0.00     0.027 A 
ATOM     22  C   UNL A   1      30.158  29.622  23.660  1.00  0.00     0.049 A 
BRANCH  22  23
ATOM     23  N   UNL A   1      29.483  30.877  23.592  1.00  0.00    -0.284 N 
ATOM     24  H   UNL A   1      29.879  31.622  24.098  1.00  0.00     0.180 HD
BRANCH  23  25
ATOM     25  S   UNL A   1      28.096  31.203  22.743  1.00  0.00     0.232 S 
ATOM     26  O   UNL A   1      27.885  30.144  21.781  1.00  0.00    -0.207 OA
ATOM     27  O   UNL A   1      27.098  31.474  23.759  1.00  0.00    -0.207 OA
BRANCH  25  28
ATOM     28  C   UNL A   1      28.364  32.735  21.848  1.00  0.00     0.156 C 
ATOM     29  C   UNL A   1      27.657  32.857  20.513  1.00  0.00     0.023 C 
ENDBRANCH  25  28
ENDBRANCH  23  25
ENDBRANCH  22  23
ENDBRANCH  15  17
ENDBRANCH  10  15
ENDBRANCH   4   6
ENDBRANCH   3   4
ENDBRANCH   2   3
ENDBRANCH   1   2
BRANCH   1  30
ATOM     30  O   UNL A   1      35.565  19.609  24.807  1.00  0.00    -0.374 OA
BRANCH  30  31
ATOM     31  C   UNL A   1      36.946  19.271  24.914  1.00  0.00     0.202 C 
BRANCH  31  32
ATOM     32  C   UNL A   1      38.002  20.357  24.663  1.00  0.00     0.261 C 
BRANCH  32  33
ATOM     33  O   UNL A   1      38.240  21.181  25.817  1.00  0.00    -0.460 OA
BRANCH  33  34
ATOM     34  C   UNL A   1      39.505  21.128  26.303  1.00  0.00     0.338 C 
ATOM     35  O   UNL A   1      40.299  20.204  26.191  1.00  0.00    -0.246 OA
BRANCH  34  36
ATOM     36  C   UNL A   1      39.899  22.456  26.802  1.00  0.00     0.060 A 
ATOM     37  C   UNL A   1      39.297  23.578  26.215  1.00  0.00     0.016 A 
ATOM     38  C   UNL A   1      40.867  22.605  27.796  1.00  0.00     0.016 A 
ATOM     39  C   UNL A   1      39.675  24.859  26.605  1.00  0.00     0.010 A 
ATOM     40  C   UNL A   1      41.261  23.894  28.170  1.00  0.00     0.010 A 
ATOM     41  C   UNL A   1      40.684  25.023  27.560  1.00  0.00    -0.014 A 
BRANCH  41  42
ATOM     42  C   UNL A   1      41.221  26.375  27.839  1.00  0.00     0.031 A 
ATOM     43  C   UNL A   1      42.652  26.675  27.500  1.00  0.00     0.074 A 
ATOM     44  C   UNL A   1      40.441  27.314  28.404  1.00  0.00     0.049 A 
ATOM     45  N   UNL A   1      43.346  27.757  27.732  1.00  0.00    -0.248 NA
ATOM     46  C   UNL A   1      43.402  25.613  26.809  1.00  0.00     0.031 C 
ATOM     47  C   UNL A   1      39.033  27.142  28.757  1.00  0.00     0.029 A 
ATOM     48  N   UNL A   1      40.739  28.590  28.810  1.00  0.00    -0.354 N 
ATOM     49  C   UNL A   1      44.622  27.498  27.247  1.00  0.00     0.074 A 
ATOM     50  C   UNL A   1      44.608  26.154  26.711  1.00  0.00     0.031 C 
ATOM     51  C   UNL A   1      38.597  28.259  29.363  1.00  0.00     0.029 A 
ATOM     52  C   UNL A   1      39.704  29.207  29.472  1.00  0.00     0.049 A 
ATOM     53  H   UNL A   1      41.608  29.023  28.643  1.00  0.00     0.167 HD
ATOM     54  C   UNL A   1      45.705  28.311  27.242  1.00  0.00     0.034 A 
ATOM     55  C   UNL A   1      39.668  30.386  30.125  1.00  0.00     0.034 A 
ATOM     56  C   UNL A   1      45.708  29.650  27.765  1.00  0.00     0.049 A 
ATOM     57  C   UNL A   1      40.903  31.249  30.153  1.00  0.00     0.074 A 
ATOM     58  C   UNL A   1      46.740  30.572  27.762  1.00  0.00     0.029 A 
ATOM     59  N   UNL A   1      44.637  30.253  28.405  1.00  0.00    -0.354 N 
ATOM     60  N   UNL A   1      42.069  31.040  29.593  1.00  0.00    -0.248 NA
ATOM     61  C   UNL A   1      40.809  32.521  30.883  1.00  0.00     0.031 C 
ATOM     62  C   UNL A   1      46.304  31.717  28.435  1.00  0.00     0.029 A 
ATOM     63  C   UNL A   1      44.990  31.524  28.825  1.00  0.00     0.049 A 
ATOM     64  H   UNL A   1      43.754  29.838  28.542  1.00  0.00     0.167 HD
ATOM     65  C   UNL A   1      42.837  32.164  29.876  1.00  0.00     0.074 A 
ATOM     66  C   UNL A   1      41.996  33.062  30.640  1.00  0.00     0.031 C 
ATOM     67  C   UNL A   1      44.128  32.424  29.547  1.00  0.00     0.034 A 
BRANCH  54  68
ATOM     68  C   UNL A   1      46.979  27.778  26.642  1.00  0.00     0.023 A 
ATOM     69  C   UNL A   1      47.913  27.108  27.458  1.00  0.00     0.012 A 
ATOM     70  C   UNL A   1      47.224  27.890  25.259  1.00  0.00     0.148 A 
ATOM     71  C   UNL A   1      49.085  26.584  26.912  1.00  0.00     0.002 A 
ATOM     72  C   UNL A   1      48.372  27.326  24.715  1.00  0.00     0.091 A 
ATOM     73  F   UNL A   1      46.334  28.550  24.504  1.00  0.00    -0.205 F 
ATOM     74  C   UNL A   1      49.308  26.684  25.541  1.00  0.00     0.022 A 
BRANCH  72  75
ATOM     75  S   UNL A   1      48.714  27.333  22.952  1.00  0.00     0.127 S 
ATOM     76  O   UNL A   1      47.830  28.402  22.485  1.00  0.00    -0.237 OA
ATOM     77  O   UNL A   1      50.139  27.662  22.918  1.00  0.00    -0.237 OA
ATOM     78  O   UNL A   1      48.384  25.999  22.472  1.00  0.00    -0.744 OA
ENDBRANCH  72  75
ENDBRANCH  54  68
BRANCH  55  79
ATOM     79  C   UNL A   1      38.415  30.822  30.805  1.00  0.00     0.023 A 
ATOM     80  C   UNL A   1      38.215  30.510  32.162  1.00  0.00     0.012 A 
ATOM     81  C   UNL A   1      37.431  31.558  30.115  1.00  0.00     0.148 A 
ATOM     82  C   UNL A   1      37.044  30.897  32.814  1.00  0.00     0.002 A 
ATOM     83  C   UNL A   1      36.294  31.991  30.786  1.00  0.00     0.091 A 
ATOM     84  F   UNL A   1      37.633  31.830  28.818  1.00  0.00    -0.205 F 
ATOM     85  C   UNL A   1      36.089  31.646  32.131  1.00  0.00     0.022 A 
BRANCH  83  86
ATOM     86  S   UNL A   1      35.077  33.068  30.021  1.00  0.00     0.127 S 
ATOM     87  O   UNL A   1      34.403  32.153  29.102  1.00  0.00    -0.237 OA
ATOM     88  O   UNL A   1      34.279  33.484  31.174  1.00  0.00    -0.237 OA
ATOM     89  O   UNL A   1      35.836  34.143  29.398  1.00  0.00    -0.744 OA
ENDBRANCH  83  86
ENDBRANCH  55  79
BRANCH  67  90
ATOM     90  C   UNL A   1      44.711  33.743  29.984  1.00  0.00     0.023 A 
ATOM     91  C   UNL A   1      45.439  33.824  31.187  1.00  0.00     0.012 A 
ATOM     92  C   UNL A   1      44.612  34.882  29.159  1.00  0.00     0.148 A 
ATOM     93  C   UNL A   1      46.036  35.023  31.576  1.00  0.00     0.002 A 
ATOM     94  C   UNL A   1      45.252  36.059  29.528  1.00  0.00     0.091 A 
ATOM     95  F   UNL A   1      43.904  34.788  28.024  1.00  0.00    -0.205 F 
ATOM     96  C   UNL A   1      45.954  36.134  30.741  1.00  0.00     0.022 A 
BRANCH  94  97
ATOM     97  S   UNL A   1      45.284  37.515  28.475  1.00  0.00     0.127 S 
ATOM     98  O   UNL A   1      43.862  37.834  28.365  1.00  0.00    -0.237 OA
ATOM     99  O   UNL A   1      46.062  38.458  29.279  1.00  0.00    -0.237 OA
ATOM    100  O   UNL A   1      45.925  37.103  27.234  1.00  0.00    -0.744 OA
ENDBRANCH  94  97
ENDBRANCH  67  90
ENDBRANCH  41  42
ENDBRANCH  34  36
ENDBRANCH  33  34
ENDBRANCH  32  33
ENDBRANCH  31  32
ENDBRANCH  30  31
ENDBRANCH   1  30
TORSDOF 24
ENDMDL
MODEL 3
REMARK VINA RESULT:     -10.4      2.245      3.211
REMARK SMILES CCC[C@]1(C(=O)OCCOCCOC(=O)c2ccc(-c3c4nc(c(-c5cccc(S(=O)(=O)[O-])c5F)c5ccc([nH]5)c(-c5cccc(S(=O)(=O)[O-])c5F)c5nc(c(-c6cccc(S(=O)(=O)[O-])c6F)c6ccc3[nH]6)C=C5)C=C4)cc2)CCCN(C(=O)c2ccc(NS(=O)(=O)CC)cc2)C1
REMARK SMILES IDX 9 1 8 2 7 3 5 4 6 5 4 6 79 7 97 8 80 9 82 10 81 11 3 12 2 13
REMARK SMILES IDX 1 14 83 15 84 16 85 17 86 18 96 19 87 20 95 21 88 22 89 23
REMARK SMILES IDX 90 25 91 26 92 27 93 28 94 29 10 30 11 31 12 32 13 33 14 34
REMARK SMILES IDX 15 35 16 36 17 37 78 38 18 39 77 40 19 41 20 42 21 43 71 44
REMARK SMILES IDX 22 45 76 46 70 47 72 48 23 49 75 50 69 51 68 52 24 54 56 55
REMARK SMILES IDX 36 56 55 57 37 58 40 59 54 60 73 61 38 62 39 63 53 65 74 66
REMARK SMILES IDX 41 67 25 68 26 69 34 70 27 71 29 72 35 73 28 74 30 75 31 76
REMARK SMILES IDX 32 77 33 78 57 79 58 80 66 81 59 82 61 83 67 84 60 85 62 86
REMARK SMILES IDX 63 87 64 88 65 89 42 90 43 91 51 92 44 93 46 94 52 95 45 96
REMARK SMILES IDX 47 97 48 98 49 99 50 100
REMARK H PARENT 89 24 72 53 40 64
REMARK Flexibility Score: inf
ROOT
ATOM      1  C   UNL A   1      33.997  19.361  24.625  1.00  0.00     0.202 C 
ENDROOT
BRANCH   1   2
ATOM      2  C   UNL A   1      32.717  19.873  23.949  1.00  0.00     0.261 C 
BRANCH   2   3
ATOM      3  O   UNL A   1      32.744  21.271  23.631  1.00  0.00    -0.463 OA
BRANCH   3   4
ATOM      4  C   UNL A   1      32.012  22.029  24.490  1.00  0.00     0.313 C 
ATOM      5  O   UNL A   1      31.375  21.542  25.417  1.00  0.00    -0.252 OA
BRANCH   4   6
ATOM      6  C   UNL A   1      32.109  23.535  24.216  1.00  0.00     0.086 C 
ATOM      7  C   UNL A   1      33.162  23.855  23.097  1.00  0.00     0.022 C 
ATOM      8  C   UNL A   1      30.736  23.982  23.699  1.00  0.00     0.138 C 
ATOM      9  C   UNL A   1      33.114  25.307  22.603  1.00  0.00     0.023 C 
ATOM     10  N   UNL A   1      30.762  25.387  23.300  1.00  0.00    -0.338 N 
ATOM     11  C   UNL A   1      31.700  25.731  22.234  1.00  0.00     0.120 C 
BRANCH   6  12
ATOM     12  C   UNL A   1      32.587  24.229  25.542  1.00  0.00     0.020 C 
BRANCH  12  13
ATOM     13  C   UNL A   1      34.057  24.639  25.741  1.00  0.00    -0.002 C 
ATOM     14  C   UNL A   1      35.026  23.599  26.271  1.00  0.00     0.004 C 
ENDBRANCH  12  13
ENDBRANCH   6  12
BRANCH  10  15
ATOM     15  C   UNL A   1      29.904  26.265  23.935  1.00  0.00     0.253 C 
ATOM     16  O   UNL A   1      28.689  26.311  23.760  1.00  0.00    -0.269 OA
BRANCH  15  17
ATOM     17  C   UNL A   1      30.445  27.144  24.974  1.00  0.00     0.040 A 
ATOM     18  C   UNL A   1      30.894  28.407  24.592  1.00  0.00     0.016 A 
ATOM     19  C   UNL A   1      30.653  26.664  26.262  1.00  0.00     0.016 A 
ATOM     20  C   UNL A   1      31.619  29.178  25.500  1.00  0.00     0.027 A 
ATOM     21  C   UNL A   1      31.405  27.432  27.152  1.00  0.00     0.027 A 
ATOM     22  C   UNL A   1      31.934  28.673  26.764  1.00  0.00     0.049 A 
BRANCH  22  23
ATOM     23  N   UNL A   1      33.018  29.169  27.546  1.00  0.00    -0.284 N 
ATOM     24  H   UNL A   1      32.905  29.151  28.524  1.00  0.00     0.180 HD
BRANCH  23  25
ATOM     25  S   UNL A   1      34.452  29.771  26.971  1.00  0.00     0.232 S 
ATOM     26  O   UNL A   1      34.599  29.370  25.589  1.00  0.00    -0.207 OA
ATOM     27  O   UNL A   1      34.427  31.178  27.323  1.00  0.00    -0.207 OA
BRANCH  25  28
ATOM     28  C   UNL A   1      35.772  29.015  27.923  1.00  0.00     0.156 C 
ATOM     29  C   UNL A   1      36.182  29.744  29.186  1.00  0.00     0.023 C 
ENDBRANCH  25  28
ENDBRANCH  23  25
ENDBRANCH  22  23
ENDBRANCH  15  17
ENDBRANCH  10  15
ENDBRANCH   4   6
ENDBRANCH   3   4
ENDBRANCH   2   3
ENDBRANCH   1   2
BRANCH   1  30
ATOM     30  O   UNL A   1      34.988  20.284  25.067  1.00  0.00    -0.374 OA
BRANCH  30  31
ATOM     31  C   UNL A   1      36.360  19.940  24.891  1.00  0.00     0.202 C 
BRANCH  31  32
ATOM     32  C   UNL A   1      37.382  21.055  24.628  1.00  0.00     0.261 C 
BRANCH  32  33
ATOM     33  O   UNL A   1      37.835  21.692  25.835  1.00  0.00    -0.460 OA
BRANCH  33  34
ATOM     34  C   UNL A   1      39.098  21.370  26.208  1.00  0.00     0.338 C 
ATOM     35  O   UNL A   1      39.698  20.332  25.960  1.00  0.00    -0.246 OA
BRANCH  34  36
ATOM     36  C   UNL A   1      39.765  22.554  26.773  1.00  0.00     0.060 A 
ATOM     37  C   UNL A   1      39.380  23.813  26.286  1.00  0.00     0.016 A 
ATOM     38  C   UNL A   1      40.774  22.440  27.729  1.00  0.00     0.016 A 
ATOM     39  C   UNL A   1      40.018  24.963  26.740  1.00  0.00     0.010 A 
ATOM     40  C   UNL A   1      41.428  23.595  28.166  1.00  0.00     0.010 A 
ATOM     41  C   UNL A   1      41.069  24.857  27.657  1.00  0.00    -0.014 A 
BRANCH  41  42
ATOM     42  C   UNL A   1      41.873  26.053  27.997  1.00  0.00     0.031 A 
ATOM     43  C   UNL A   1      41.258  27.129  28.843  1.00  0.00     0.074 A 
ATOM     44  C   UNL A   1      43.132  26.180  27.540  1.00  0.00     0.049 A 
ATOM     45  N   UNL A   1      41.749  28.289  29.191  1.00  0.00    -0.248 NA
ATOM     46  C   UNL A   1      39.907  26.864  29.366  1.00  0.00     0.031 C 
ATOM     47  C   UNL A   1      43.840  25.190  26.729  1.00  0.00     0.029 A 
ATOM     48  N   UNL A   1      44.024  27.214  27.669  1.00  0.00    -0.354 N 
ATOM     49  C   UNL A   1      40.758  28.907  29.945  1.00  0.00     0.074 A 
ATOM     50  C   UNL A   1      39.636  27.995  30.000  1.00  0.00     0.031 C 
ATOM     51  C   UNL A   1      45.045  25.682  26.399  1.00  0.00     0.029 A 
ATOM     52  C   UNL A   1      45.178  27.031  26.943  1.00  0.00     0.049 A 
ATOM     53  H   UNL A   1      43.856  28.009  28.225  1.00  0.00     0.167 HD
ATOM     54  C   UNL A   1      40.787  30.121  30.542  1.00  0.00     0.034 A 
ATOM     55  C   UNL A   1      46.206  27.873  26.715  1.00  0.00     0.034 A 
ATOM     56  C   UNL A   1      41.910  31.017  30.492  1.00  0.00     0.049 A 
ATOM     57  C   UNL A   1      46.189  29.242  27.346  1.00  0.00     0.074 A 
ATOM     58  C   UNL A   1      42.057  32.248  31.106  1.00  0.00     0.029 A 
ATOM     59  N   UNL A   1      43.072  30.790  29.771  1.00  0.00    -0.354 N 
ATOM     60  N   UNL A   1      45.297  29.770  28.149  1.00  0.00    -0.248 NA
ATOM     61  C   UNL A   1      47.331  30.121  27.060  1.00  0.00     0.031 C 
ATOM     62  C   UNL A   1      43.291  32.783  30.724  1.00  0.00     0.029 A 
ATOM     63  C   UNL A   1      43.929  31.869  29.903  1.00  0.00     0.049 A 
ATOM     64  H   UNL A   1      43.260  29.980  29.243  1.00  0.00     0.167 HD
ATOM     65  C   UNL A   1      45.783  31.028  28.487  1.00  0.00     0.074 A 
ATOM     66  C   UNL A   1      47.060  31.175  27.819  1.00  0.00     0.031 C 
ATOM     67  C   UNL A   1      45.217  31.983  29.267  1.00  0.00     0.034 A 
BRANCH  54  68
ATOM     68  C   UNL A   1      39.566  30.552  31.313  1.00  0.00     0.023 A 
ATOM     69  C   UNL A   1      39.274  29.956  32.556  1.00  0.00     0.012 A 
ATOM     70  C   UNL A   1      38.741  31.587  30.831  1.00  0.00     0.148 A 
ATOM     71  C   UNL A   1      38.164  30.364  33.295  1.00  0.00     0.002 A 
ATOM     72  C   UNL A   1      37.662  32.018  31.593  1.00  0.00     0.091 A 
ATOM     73  F   UNL A   1      39.022  32.125  29.635  1.00  0.00    -0.205 F 
ATOM     74  C   UNL A   1      37.365  31.400  32.819  1.00  0.00     0.022 A 
BRANCH  72  75
ATOM     75  S   UNL A   1      36.619  33.396  31.105  1.00  0.00     0.127 S 
ATOM     76  O   UNL A   1      35.435  33.178  31.935  1.00  0.00    -0.237 OA
ATOM     77  O   UNL A   1      37.433  34.548  31.492  1.00  0.00    -0.237 OA
ATOM     78  O   UNL A   1      36.408  33.254  29.671  1.00  0.00    -0.744 OA
ENDBRANCH  72  75
ENDBRANCH  54  68
BRANCH  55  79
ATOM     79  C   UNL A   1      47.341  27.445  25.849  1.00  0.00     0.023 A 
ATOM     80  C   UNL A   1      48.378  26.667  26.395  1.00  0.00     0.012 A 
ATOM     81  C   UNL A   1      47.386  27.793  24.484  1.00  0.00     0.148 A 
ATOM     82  C   UNL A   1      49.456  26.267  25.606  1.00  0.00     0.002 A 
ATOM     83  C   UNL A   1      48.433  27.342  23.690  1.00  0.00     0.091 A 
ATOM     84  F   UNL A   1      46.397  28.549  23.987  1.00  0.00    -0.205 F 
ATOM     85  C   UNL A   1      49.479  26.595  24.253  1.00  0.00     0.022 A 
BRANCH  83  86
ATOM     86  S   UNL A   1      48.477  27.606  21.914  1.00  0.00     0.127 S 
ATOM     87  O   UNL A   1      49.602  28.526  21.775  1.00  0.00    -0.237 OA
ATOM     88  O   UNL A   1      48.720  26.252  21.416  1.00  0.00    -0.237 OA
ATOM     89  O   UNL A   1      47.171  28.148  21.563  1.00  0.00    -0.744 OA
ENDBRANCH  83  86
ENDBRANCH  55  79
BRANCH  67  90
ATOM     90  C   UNL A   1      45.981  33.266  29.470  1.00  0.00     0.023 A 
ATOM     91  C   UNL A   1      46.931  33.360  30.506  1.00  0.00     0.012 A 
ATOM     92  C   UNL A   1      45.820  34.347  28.580  1.00  0.00     0.148 A 
ATOM     93  C   UNL A   1      47.689  34.520  30.671  1.00  0.00     0.002 A 
ATOM     94  C   UNL A   1      46.614  35.479  28.719  1.00  0.00     0.091 A 
ATOM     95  F   UNL A   1      44.902  34.242  27.609  1.00  0.00    -0.205 F 
ATOM     96  C   UNL A   1      47.540  35.572  29.770  1.00  0.00     0.022 A 
BRANCH  94  97
ATOM     97  S   UNL A   1      46.564  36.846  27.554  1.00  0.00     0.127 S 
ATOM     98  O   UNL A   1      45.199  37.337  27.729  1.00  0.00    -0.237 OA
ATOM     99  O   UNL A   1      47.605  37.733  28.075  1.00  0.00    -0.237 OA
ATOM    100  O   UNL A   1      46.854  36.273  26.246  1.00  0.00    -0.744 OA
ENDBRANCH  94  97
ENDBRANCH  67  90
ENDBRANCH  41  42
ENDBRANCH  34  36
ENDBRANCH  33  34
ENDBRANCH  32  33
ENDBRANCH  31  32
ENDBRANCH  30  31
ENDBRANCH   1  30
TORSDOF 24
ENDMDL
