MODEL 1
REMARK VINA RESULT:     -10.1      0.000      0.000
REMARK SMILES CC[C@@H]1CCC[C@](CCCCCO)(C(=O)OCCOCCOC(=O)c2ccc(-c3c4nc(c(-c5cccc(S(=O)(=O)[O-])c5F)c5ccc([nH]5)c(-c5cccc(S(=O)(=O)[O-])c5F)c5nc(c(-c6cccc(S(=O)(=O)[O-])c6F)c6ccc3[nH]6)C=C5)C=C4)cc2)C1
REMARK SMILES IDX 17 1 16 2 14 3 15 4 7 5 3 6 4 7 88 8 5 9 6 10 2 11 1 12 8 13
REMARK SMILES IDX 9 14 10 15 11 16 12 17 13 18 18 20 19 21 20 22 21 23 22 24
REMARK SMILES IDX 23 25 24 26 25 27 26 28 87 29 27 30 86 31 28 32 29 33 30 34
REMARK SMILES IDX 80 35 31 36 85 37 79 38 81 39 32 40 84 41 78 42 77 43 33 45
REMARK SMILES IDX 65 46 45 47 64 48 46 49 49 50 63 51 82 52 47 53 48 54 62 56
REMARK SMILES IDX 83 57 50 58 34 59 35 60 43 61 36 62 38 63 44 64 37 65 39 66
REMARK SMILES IDX 40 67 41 68 42 69 66 70 67 71 75 72 68 73 70 74 76 75 69 76
REMARK SMILES IDX 71 77 72 78 73 79 74 80 51 81 52 82 60 83 53 84 55 85 61 86
REMARK SMILES IDX 54 87 56 88 57 89 58 90 59 91
REMARK H PARENT 13 19 81 44 49 55
REMARK Flexibility Score: inf
ROOT
ATOM      1  C   UNL A   1      33.568  28.325  22.707  1.00  0.00     0.261 C 
ENDROOT
BRANCH   1   2
ATOM      2  O   UNL A   1      33.842  27.203  23.572  1.00  0.00    -0.463 OA
BRANCH   2   3
ATOM      3  C   UNL A   1      33.800  25.983  22.960  1.00  0.00     0.312 C 
ATOM      4  O   UNL A   1      33.637  25.836  21.751  1.00  0.00    -0.252 OA
BRANCH   3   5
ATOM      5  C   UNL A   1      33.919  24.797  23.940  1.00  0.00     0.068 C 
ATOM      6  C   UNL A   1      35.678  23.182  25.040  1.00  0.00    -0.010 C 
ATOM      7  C   UNL A   1      35.157  22.039  24.158  1.00  0.00     0.003 C 
ATOM      8  C   UNL A   1      35.394  24.561  24.387  1.00  0.00     0.022 C 
ATOM      9  C   UNL A   1      33.689  22.222  23.821  1.00  0.00     0.001 C 
ATOM     10  C   UNL A   1      33.467  23.551  23.118  1.00  0.00     0.019 C 
BRANCH   6  11
ATOM     11  C   UNL A   1      37.182  22.949  25.302  1.00  0.00     0.000 C 
ATOM     12  C   UNL A   1      37.719  23.728  26.491  1.00  0.00     0.004 C 
ENDBRANCH   6  11
BRANCH   5  13
ATOM     13  C   UNL A   1      32.968  24.971  25.166  1.00  0.00     0.019 C 
BRANCH  13  14
ATOM     14  C   UNL A   1      31.451  24.805  24.967  1.00  0.00     0.001 C 
BRANCH  14  15
ATOM     15  C   UNL A   1      30.539  25.314  26.098  1.00  0.00     0.002 C 
BRANCH  15  16
ATOM     16  C   UNL A   1      29.619  24.277  26.750  1.00  0.00     0.028 C 
BRANCH  16  17
ATOM     17  C   UNL A   1      30.186  22.865  26.752  1.00  0.00     0.156 C 
BRANCH  17  18
ATOM     18  O   UNL A   1      31.299  22.789  27.625  1.00  0.00    -0.396 OA
ATOM     19  H   UNL A   1      32.059  22.418  27.151  1.00  0.00     0.210 HD
ENDBRANCH  17  18
ENDBRANCH  16  17
ENDBRANCH  15  16
ENDBRANCH  14  15
ENDBRANCH  13  14
ENDBRANCH   5  13
ENDBRANCH   3   5
ENDBRANCH   2   3
ENDBRANCH   1   2
BRANCH   1  20
ATOM     20  C   UNL A   1      32.181  28.937  22.916  1.00  0.00     0.202 C 
BRANCH  20  21
ATOM     21  O   UNL A   1      31.555  28.706  24.176  1.00  0.00    -0.374 OA
BRANCH  21  22
ATOM     22  C   UNL A   1      31.502  29.803  25.083  1.00  0.00     0.202 C 
BRANCH  22  23
ATOM     23  C   UNL A   1      32.759  30.098  25.916  1.00  0.00     0.261 C 
BRANCH  23  24
ATOM     24  O   UNL A   1      32.502  30.689  27.203  1.00  0.00    -0.460 OA
BRANCH  24  25
ATOM     25  C   UNL A   1      33.280  31.762  27.493  1.00  0.00     0.338 C 
ATOM     26  O   UNL A   1      32.888  32.922  27.663  1.00  0.00    -0.246 OA
BRANCH  25  27
ATOM     27  C   UNL A   1      34.686  31.397  27.721  1.00  0.00     0.060 A 
ATOM     28  C   UNL A   1      34.981  30.038  27.880  1.00  0.00     0.016 A 
ATOM     29  C   UNL A   1      35.664  32.362  27.965  1.00  0.00     0.016 A 
ATOM     30  C   UNL A   1      36.233  29.643  28.354  1.00  0.00     0.010 A 
ATOM     31  C   UNL A   1      36.921  31.964  28.447  1.00  0.00     0.010 A 
ATOM     32  C   UNL A   1      37.194  30.606  28.693  1.00  0.00    -0.014 A 
BRANCH  32  33
ATOM     33  C   UNL A   1      38.405  30.175  29.440  1.00  0.00     0.031 A 
ATOM     34  C   UNL A   1      38.618  30.661  30.853  1.00  0.00     0.074 A 
ATOM     35  C   UNL A   1      39.273  29.300  28.901  1.00  0.00     0.049 A 
ATOM     36  N   UNL A   1      39.540  30.319  31.716  1.00  0.00    -0.248 NA
ATOM     37  C   UNL A   1      37.664  31.661  31.362  1.00  0.00     0.031 C 
ATOM     38  C   UNL A   1      39.195  28.757  27.546  1.00  0.00     0.029 A 
ATOM     39  N   UNL A   1      40.396  28.715  29.433  1.00  0.00    -0.354 N 
ATOM     40  C   UNL A   1      39.279  31.053  32.867  1.00  0.00     0.074 A 
ATOM     41  C   UNL A   1      38.129  31.886  32.583  1.00  0.00     0.031 C 
ATOM     42  C   UNL A   1      40.231  27.923  27.350  1.00  0.00     0.029 A 
ATOM     43  C   UNL A   1      41.043  27.870  28.563  1.00  0.00     0.049 A 
ATOM     44  H   UNL A   1      40.708  28.885  30.352  1.00  0.00     0.167 HD
ATOM     45  C   UNL A   1      39.911  31.017  34.064  1.00  0.00     0.034 A 
ATOM     46  C   UNL A   1      42.158  27.128  28.732  1.00  0.00     0.034 A 
ATOM     47  C   UNL A   1      41.043  30.182  34.364  1.00  0.00     0.049 A 
ATOM     48  C   UNL A   1      42.842  27.107  30.075  1.00  0.00     0.074 A 
ATOM     49  C   UNL A   1      41.747  30.077  35.552  1.00  0.00     0.029 A 
ATOM     50  N   UNL A   1      41.635  29.303  33.472  1.00  0.00    -0.354 N 
ATOM     51  N   UNL A   1      42.502  27.714  31.186  1.00  0.00    -0.248 NA
ATOM     52  C   UNL A   1      44.039  26.261  30.197  1.00  0.00     0.031 C 
ATOM     53  C   UNL A   1      42.764  29.131  35.378  1.00  0.00     0.029 A 
ATOM     54  C   UNL A   1      42.690  28.646  34.083  1.00  0.00     0.049 A 
ATOM     55  H   UNL A   1      41.349  29.166  32.540  1.00  0.00     0.167 HD
ATOM     56  C   UNL A   1      43.420  27.296  32.144  1.00  0.00     0.074 A 
ATOM     57  C   UNL A   1      44.313  26.363  31.489  1.00  0.00     0.031 C 
ATOM     58  C   UNL A   1      43.529  27.669  33.442  1.00  0.00     0.034 A 
BRANCH  45  59
ATOM     59  C   UNL A   1      39.346  31.859  35.177  1.00  0.00     0.023 A 
ATOM     60  C   UNL A   1      38.344  31.310  36.003  1.00  0.00     0.012 A 
ATOM     61  C   UNL A   1      39.844  33.146  35.454  1.00  0.00     0.148 A 
ATOM     62  C   UNL A   1      37.835  32.035  37.079  1.00  0.00     0.002 A 
ATOM     63  C   UNL A   1      39.354  33.851  36.549  1.00  0.00     0.091 A 
ATOM     64  F   UNL A   1      40.782  33.657  34.644  1.00  0.00    -0.205 F 
ATOM     65  C   UNL A   1      38.346  33.300  37.357  1.00  0.00     0.022 A 
BRANCH  63  66
ATOM     66  S   UNL A   1      39.987  35.462  37.028  1.00  0.00     0.127 S 
ATOM     67  O   UNL A   1      41.411  35.181  37.200  1.00  0.00    -0.237 OA
ATOM     68  O   UNL A   1      39.664  36.282  35.859  1.00  0.00    -0.237 OA
ATOM     69  O   UNL A   1      39.271  35.830  38.243  1.00  0.00    -0.744 OA
ENDBRANCH  63  66
ENDBRANCH  45  59
BRANCH  46  70
ATOM     70  C   UNL A   1      42.665  26.280  27.617  1.00  0.00     0.023 A 
ATOM     71  C   UNL A   1      43.587  26.818  26.698  1.00  0.00     0.012 A 
ATOM     72  C   UNL A   1      42.236  24.950  27.458  1.00  0.00     0.148 A 
ATOM     73  C   UNL A   1      44.046  26.055  25.623  1.00  0.00     0.002 A 
ATOM     74  C   UNL A   1      42.737  24.180  26.413  1.00  0.00     0.091 A 
ATOM     75  F   UNL A   1      41.336  24.458  28.323  1.00  0.00    -0.205 F 
ATOM     76  C   UNL A   1      43.630  24.734  25.486  1.00  0.00     0.022 A 
BRANCH  74  77
ATOM     77  S   UNL A   1      42.324  22.439  26.271  1.00  0.00     0.127 S 
ATOM     78  O   UNL A   1      40.875  22.483  26.094  1.00  0.00    -0.237 OA
ATOM     79  O   UNL A   1      43.077  22.028  25.083  1.00  0.00    -0.237 OA
ATOM     80  O   UNL A   1      42.807  21.845  27.513  1.00  0.00    -0.744 OA
ENDBRANCH  74  77
ENDBRANCH  46  70
BRANCH  58  81
ATOM     81  C   UNL A   1      44.640  27.053  34.253  1.00  0.00     0.023 A 
ATOM     82  C   UNL A   1      45.861  27.743  34.390  1.00  0.00     0.012 A 
ATOM     83  C   UNL A   1      44.463  25.825  34.918  1.00  0.00     0.148 A 
ATOM     84  C   UNL A   1      46.900  27.203  35.149  1.00  0.00     0.002 A 
ATOM     85  C   UNL A   1      45.490  25.311  35.704  1.00  0.00     0.091 A 
ATOM     86  F   UNL A   1      43.305  25.168  34.760  1.00  0.00    -0.205 F 
ATOM     87  C   UNL A   1      46.712  25.993  35.813  1.00  0.00     0.022 A 
BRANCH  85  88
ATOM     88  S   UNL A   1      45.282  23.799  36.651  1.00  0.00     0.127 S 
ATOM     89  O   UNL A   1      44.258  23.098  35.879  1.00  0.00    -0.237 OA
ATOM     90  O   UNL A   1      46.613  23.192  36.588  1.00  0.00    -0.237 OA
ATOM     91  O   UNL A   1      44.890  24.234  37.986  1.00  0.00    -0.744 OA
ENDBRANCH  85  88
ENDBRANCH  58  81
ENDBRANCH  32  33
ENDBRANCH  25  27
ENDBRANCH  24  25
ENDBRANCH  23  24
ENDBRANCH  22  23
ENDBRANCH  21  22
ENDBRANCH  20  21
ENDBRANCH   1  20
TORSDOF 24
ENDMDL
MODEL 2
REMARK VINA RESULT:      -9.7      1.599      2.630
REMARK SMILES CC[C@@H]1CCC[C@](CCCCCO)(C(=O)OCCOCCOC(=O)c2ccc(-c3c4nc(c(-c5cccc(S(=O)(=O)[O-])c5F)c5ccc([nH]5)c(-c5cccc(S(=O)(=O)[O-])c5F)c5nc(c(-c6cccc(S(=O)(=O)[O-])c6F)c6ccc3[nH]6)C=C5)C=C4)cc2)C1
REMARK SMILES IDX 17 1 16 2 14 3 15 4 7 5 3 6 4 7 88 8 5 9 6 10 2 11 1 12 8 13
REMARK SMILES IDX 9 14 10 15 11 16 12 17 13 18 18 20 19 21 20 22 21 23 22 24
REMARK SMILES IDX 23 25 24 26 25 27 26 28 87 29 27 30 86 31 28 32 29 33 30 34
REMARK SMILES IDX 80 35 31 36 85 37 79 38 81 39 32 40 84 41 78 42 77 43 33 45
REMARK SMILES IDX 65 46 45 47 64 48 46 49 49 50 63 51 82 52 47 53 48 54 62 56
REMARK SMILES IDX 83 57 50 58 34 59 35 60 43 61 36 62 38 63 44 64 37 65 39 66
REMARK SMILES IDX 40 67 41 68 42 69 66 70 67 71 75 72 68 73 70 74 76 75 69 76
REMARK SMILES IDX 71 77 72 78 73 79 74 80 51 81 52 82 60 83 53 84 55 85 61 86
REMARK SMILES IDX 54 87 56 88 57 89 58 90 59 91
REMARK H PARENT 13 19 81 44 49 55
REMARK Flexibility Score: inf
ROOT
ATOM      1  C   UNL A   1      31.864  27.069  23.614  1.00  0.00     0.261 C 
ENDROOT
BRANCH   1   2
ATOM      2  O   UNL A   1      30.909  26.269  24.342  1.00  0.00    -0.463 OA
BRANCH   2   3
ATOM      3  C   UNL A   1      31.290  25.931  25.608  1.00  0.00     0.312 C 
ATOM      4  O   UNL A   1      30.972  26.571  26.607  1.00  0.00    -0.252 OA
BRANCH   3   5
ATOM      5  C   UNL A   1      32.212  24.694  25.663  1.00  0.00     0.068 C 
ATOM      6  C   UNL A   1      32.609  22.349  24.542  1.00  0.00    -0.010 C 
ATOM      7  C   UNL A   1      32.086  21.669  25.815  1.00  0.00     0.003 C 
ATOM      8  C   UNL A   1      32.041  23.787  24.406  1.00  0.00     0.022 C 
ATOM      9  C   UNL A   1      32.358  22.511  27.047  1.00  0.00     0.001 C 
ATOM     10  C   UNL A   1      31.722  23.884  26.904  1.00  0.00     0.019 C 
BRANCH   6  11
ATOM     11  C   UNL A   1      32.258  21.456  23.332  1.00  0.00     0.000 C 
ATOM     12  C   UNL A   1      32.503  22.126  21.991  1.00  0.00     0.004 C 
ENDBRANCH   6  11
BRANCH   5  13
ATOM     13  C   UNL A   1      33.704  25.101  25.879  1.00  0.00     0.019 C 
BRANCH  13  14
ATOM     14  C   UNL A   1      34.733  24.784  24.780  1.00  0.00     0.001 C 
BRANCH  14  15
ATOM     15  C   UNL A   1      36.045  24.113  25.225  1.00  0.00     0.002 C 
BRANCH  15  16
ATOM     16  C   UNL A   1      35.908  22.832  26.055  1.00  0.00     0.028 C 
BRANCH  16  17
ATOM     17  C   UNL A   1      36.783  21.687  25.568  1.00  0.00     0.156 C 
BRANCH  17  18
ATOM     18  O   UNL A   1      37.295  21.980  24.280  1.00  0.00    -0.396 OA
ATOM     19  H   UNL A   1      36.773  21.513  23.610  1.00  0.00     0.210 HD
ENDBRANCH  17  18
ENDBRANCH  16  17
ENDBRANCH  15  16
ENDBRANCH  14  15
ENDBRANCH  13  14
ENDBRANCH   5  13
ENDBRANCH   3   5
ENDBRANCH   2   3
ENDBRANCH   1   2
BRANCH   1  20
ATOM     20  C   UNL A   1      31.575  28.571  23.669  1.00  0.00     0.202 C 
BRANCH  20  21
ATOM     21  O   UNL A   1      30.958  29.069  24.853  1.00  0.00    -0.374 OA
BRANCH  21  22
ATOM     22  C   UNL A   1      31.475  30.281  25.392  1.00  0.00     0.202 C 
BRANCH  22  23
ATOM     23  C   UNL A   1      32.884  30.244  26.004  1.00  0.00     0.261 C 
BRANCH  23  24
ATOM     24  O   UNL A   1      32.938  30.551  27.409  1.00  0.00    -0.460 OA
BRANCH  24  25
ATOM     25  C   UNL A   1      33.771  31.572  27.729  1.00  0.00     0.338 C 
ATOM     26  O   UNL A   1      33.435  32.733  27.991  1.00  0.00    -0.246 OA
BRANCH  25  27
ATOM     27  C   UNL A   1      35.170  31.140  27.866  1.00  0.00     0.060 A 
ATOM     28  C   UNL A   1      35.406  29.773  28.047  1.00  0.00     0.016 A 
ATOM     29  C   UNL A   1      36.210  32.059  28.007  1.00  0.00     0.016 A 
ATOM     30  C   UNL A   1      36.669  29.325  28.442  1.00  0.00     0.010 A 
ATOM     31  C   UNL A   1      37.478  31.609  28.409  1.00  0.00     0.010 A 
ATOM     32  C   UNL A   1      37.699  30.246  28.679  1.00  0.00    -0.014 A 
BRANCH  32  33
ATOM     33  C   UNL A   1      38.939  29.773  29.349  1.00  0.00     0.031 A 
ATOM     34  C   UNL A   1      39.304  30.321  30.708  1.00  0.00     0.074 A 
ATOM     35  C   UNL A   1      39.700  28.811  28.796  1.00  0.00     0.049 A 
ATOM     36  N   UNL A   1      40.272  29.963  31.512  1.00  0.00    -0.248 NA
ATOM     37  C   UNL A   1      38.464  31.412  31.230  1.00  0.00     0.031 C 
ATOM     38  C   UNL A   1      39.470  28.201  27.487  1.00  0.00     0.029 A 
ATOM     39  N   UNL A   1      40.823  28.179  29.270  1.00  0.00    -0.354 N 
ATOM     40  C   UNL A   1      40.158  30.777  32.634  1.00  0.00     0.074 A 
ATOM     41  C   UNL A   1      39.046  31.671  32.394  1.00  0.00     0.031 C 
ATOM     42  C   UNL A   1      40.430  27.287  27.259  1.00  0.00     0.029 A 
ATOM     43  C   UNL A   1      41.337  27.244  28.403  1.00  0.00     0.049 A 
ATOM     44  H   UNL A   1      41.223  28.377  30.148  1.00  0.00     0.167 HD
ATOM     45  C   UNL A   1      40.887  30.763  33.775  1.00  0.00     0.034 A 
ATOM     46  C   UNL A   1      42.412  26.436  28.525  1.00  0.00     0.034 A 
ATOM     47  C   UNL A   1      41.984  29.868  34.032  1.00  0.00     0.049 A 
ATOM     48  C   UNL A   1      43.205  26.442  29.806  1.00  0.00     0.074 A 
ATOM     49  C   UNL A   1      42.778  29.781  35.163  1.00  0.00     0.029 A 
ATOM     50  N   UNL A   1      42.439  28.902  33.150  1.00  0.00    -0.354 N 
ATOM     51  N   UNL A   1      43.002  27.132  30.902  1.00  0.00    -0.248 NA
ATOM     52  C   UNL A   1      44.351  25.522  29.882  1.00  0.00     0.031 C 
ATOM     53  C   UNL A   1      43.713  28.758  34.965  1.00  0.00     0.029 A 
ATOM     54  C   UNL A   1      43.498  28.208  33.712  1.00  0.00     0.049 A 
ATOM     55  H   UNL A   1      42.066  28.734  32.255  1.00  0.00     0.167 HD
ATOM     56  C   UNL A   1      43.969  26.704  31.806  1.00  0.00     0.074 A 
ATOM     57  C   UNL A   1      44.741  25.676  31.139  1.00  0.00     0.031 C 
ATOM     58  C   UNL A   1      44.213  27.140  33.066  1.00  0.00     0.034 A 
BRANCH  45  59
ATOM     59  C   UNL A   1      40.475  31.703  34.877  1.00  0.00     0.023 A 
ATOM     60  C   UNL A   1      41.053  32.989  34.924  1.00  0.00     0.012 A 
ATOM     61  C   UNL A   1      39.480  31.355  35.810  1.00  0.00     0.148 A 
ATOM     62  C   UNL A   1      40.657  33.909  35.893  1.00  0.00     0.002 A 
ATOM     63  C   UNL A   1      39.068  32.290  36.754  1.00  0.00     0.091 A 
ATOM     64  F   UNL A   1      38.960  30.121  35.760  1.00  0.00    -0.205 F 
ATOM     65  C   UNL A   1      39.659  33.563  36.801  1.00  0.00     0.022 A 
BRANCH  63  66
ATOM     66  S   UNL A   1      37.749  31.965  37.929  1.00  0.00     0.127 S 
ATOM     67  O   UNL A   1      36.744  32.946  37.524  1.00  0.00    -0.237 OA
ATOM     68  O   UNL A   1      37.401  30.576  37.628  1.00  0.00    -0.237 OA
ATOM     69  O   UNL A   1      38.328  32.172  39.250  1.00  0.00    -0.744 OA
ENDBRANCH  63  66
ENDBRANCH  45  59
BRANCH  46  70
ATOM     70  C   UNL A   1      42.765  25.494  27.426  1.00  0.00     0.023 A 
ATOM     71  C   UNL A   1      43.547  25.948  26.346  1.00  0.00     0.012 A 
ATOM     72  C   UNL A   1      42.327  24.157  27.441  1.00  0.00     0.148 A 
ATOM     73  C   UNL A   1      43.858  25.095  25.287  1.00  0.00     0.002 A 
ATOM     74  C   UNL A   1      42.684  23.299  26.407  1.00  0.00     0.091 A 
ATOM     75  F   UNL A   1      41.560  23.745  28.462  1.00  0.00    -0.205 F 
ATOM     76  C   UNL A   1      43.436  23.768  25.321  1.00  0.00     0.022 A 
BRANCH  74  77
ATOM     77  S   UNL A   1      42.268  21.554  26.471  1.00  0.00     0.127 S 
ATOM     78  O   UNL A   1      41.052  21.501  25.664  1.00  0.00    -0.237 OA
ATOM     79  O   UNL A   1      43.441  20.924  25.860  1.00  0.00    -0.237 OA
ATOM     80  O   UNL A   1      42.114  21.267  27.893  1.00  0.00    -0.744 OA
ENDBRANCH  74  77
ENDBRANCH  46  70
BRANCH  58  81
ATOM     81  C   UNL A   1      45.346  26.494  33.819  1.00  0.00     0.023 A 
ATOM     82  C   UNL A   1      46.646  27.028  33.706  1.00  0.00     0.012 A 
ATOM     83  C   UNL A   1      45.123  25.398  34.675  1.00  0.00     0.148 A 
ATOM     84  C   UNL A   1      47.711  26.458  34.406  1.00  0.00     0.002 A 
ATOM     85  C   UNL A   1      46.182  24.860  35.399  1.00  0.00     0.091 A 
ATOM     86  F   UNL A   1      43.886  24.886  34.756  1.00  0.00    -0.205 F 
ATOM     87  C   UNL A   1      47.478  25.382  35.259  1.00  0.00     0.022 A 
BRANCH  85  88
ATOM     88  S   UNL A   1      45.934  23.527  36.576  1.00  0.00     0.127 S 
ATOM     89  O   UNL A   1      47.289  23.310  37.079  1.00  0.00    -0.237 OA
ATOM     90  O   UNL A   1      45.012  24.120  37.547  1.00  0.00    -0.237 OA
ATOM     91  O   UNL A   1      45.358  22.434  35.801  1.00  0.00    -0.744 OA
ENDBRANCH  85  88
ENDBRANCH  58  81
ENDBRANCH  32  33
ENDBRANCH  25  27
ENDBRANCH  24  25
ENDBRANCH  23  24
ENDBRANCH  22  23
ENDBRANCH  21  22
ENDBRANCH  20  21
ENDBRANCH   1  20
TORSDOF 24
ENDMDL
MODEL 3
REMARK VINA RESULT:      -9.3      2.046      3.237
REMARK SMILES CC[C@@H]1CCC[C@](CCCCCO)(C(=O)OCCOCCOC(=O)c2ccc(-c3c4nc(c(-c5cccc(S(=O)(=O)[O-])c5F)c5ccc([nH]5)c(-c5cccc(S(=O)(=O)[O-])c5F)c5nc(c(-c6cccc(S(=O)(=O)[O-])c6F)c6ccc3[nH]6)C=C5)C=C4)cc2)C1
REMARK SMILES IDX 17 1 16 2 14 3 15 4 7 5 3 6 4 7 88 8 5 9 6 10 2 11 1 12 8 13
REMARK SMILES IDX 9 14 10 15 11 16 12 17 13 18 18 20 19 21 20 22 21 23 22 24
REMARK SMILES IDX 23 25 24 26 25 27 26 28 87 29 27 30 86 31 28 32 29 33 30 34
REMARK SMILES IDX 80 35 31 36 85 37 79 38 81 39 32 40 84 41 78 42 77 43 33 45
REMARK SMILES IDX 65 46 45 47 64 48 46 49 49 50 63 51 82 52 47 53 48 54 62 56
REMARK SMILES IDX 83 57 50 58 34 59 35 60 43 61 36 62 38 63 44 64 37 65 39 66
REMARK SMILES IDX 40 67 41 68 42 69 66 70 67 71 75 72 68 73 70 74 76 75 69 76
REMARK SMILES IDX 71 77 72 78 73 79 74 80 51 81 52 82 60 83 53 84 55 85 61 86
REMARK SMILES IDX 54 87 56 88 57 89 58 90 59 91
REMARK H PARENT 13 19 81 44 49 55
REMARK Flexibility Score: inf
ROOT
ATOM      1  C   UNL A   1      32.381  27.656  22.330  1.00  0.00     0.261 C 
ENDROOT
BRANCH   1   2
ATOM      2  O   UNL A   1      33.480  26.777  22.651  1.00  0.00    -0.463 OA
BRANCH   2   3
ATOM      3  C   UNL A   1      33.278  25.466  22.328  1.00  0.00     0.312 C 
ATOM      4  O   UNL A   1      32.987  25.082  21.198  1.00  0.00    -0.252 OA
BRANCH   3   5
ATOM      5  C   UNL A   1      33.392  24.510  23.535  1.00  0.00     0.068 C 
ATOM      6  C   UNL A   1      32.717  22.101  24.345  1.00  0.00    -0.010 C 
ATOM      7  C   UNL A   1      31.685  22.726  25.293  1.00  0.00     0.003 C 
ATOM      8  C   UNL A   1      33.018  23.045  23.151  1.00  0.00     0.022 C 
ATOM      9  C   UNL A   1      32.113  24.108  25.750  1.00  0.00     0.001 C 
ATOM     10  C   UNL A   1      32.325  25.021  24.553  1.00  0.00     0.019 C 
BRANCH   6  11
ATOM     11  C   UNL A   1      32.192  20.722  23.893  1.00  0.00     0.000 C 
ATOM     12  C   UNL A   1      33.148  19.579  24.192  1.00  0.00     0.004 C 
ENDBRANCH   6  11
BRANCH   5  13
ATOM     13  C   UNL A   1      34.804  24.588  24.196  1.00  0.00     0.019 C 
BRANCH  13  14
ATOM     14  C   UNL A   1      35.914  23.642  23.705  1.00  0.00     0.001 C 
BRANCH  14  15
ATOM     15  C   UNL A   1      36.455  22.616  24.717  1.00  0.00     0.002 C 
BRANCH  15  16
ATOM     16  C   UNL A   1      37.040  23.181  26.014  1.00  0.00     0.028 C 
BRANCH  16  17
ATOM     17  C   UNL A   1      38.543  22.991  26.147  1.00  0.00     0.156 C 
BRANCH  17  18
ATOM     18  O   UNL A   1      38.943  21.806  25.481  1.00  0.00    -0.396 OA
ATOM     19  H   UNL A   1      38.193  21.194  25.429  1.00  0.00     0.210 HD
ENDBRANCH  17  18
ENDBRANCH  16  17
ENDBRANCH  15  16
ENDBRANCH  14  15
ENDBRANCH  13  14
ENDBRANCH   5  13
ENDBRANCH   3   5
ENDBRANCH   2   3
ENDBRANCH   1   2
BRANCH   1  20
ATOM     20  C   UNL A   1      32.169  28.773  23.354  1.00  0.00     0.202 C 
BRANCH  20  21
ATOM     21  O   UNL A   1      32.726  28.576  24.652  1.00  0.00    -0.374 OA
BRANCH  21  22
ATOM     22  C   UNL A   1      32.769  29.706  25.517  1.00  0.00     0.202 C 
BRANCH  22  23
ATOM     23  C   UNL A   1      33.767  29.671  26.685  1.00  0.00     0.261 C 
BRANCH  23  24
ATOM     24  O   UNL A   1      33.659  30.776  27.601  1.00  0.00    -0.460 OA
BRANCH  24  25
ATOM     25  C   UNL A   1      34.830  31.410  27.855  1.00  0.00     0.338 C 
ATOM     26  O   UNL A   1      34.981  32.625  28.027  1.00  0.00    -0.246 OA
BRANCH  25  27
ATOM     27  C   UNL A   1      35.951  30.475  28.040  1.00  0.00     0.060 A 
ATOM     28  C   UNL A   1      35.974  29.722  29.219  1.00  0.00     0.016 A 
ATOM     29  C   UNL A   1      37.051  30.471  27.181  1.00  0.00     0.016 A 
ATOM     30  C   UNL A   1      37.124  29.019  29.580  1.00  0.00     0.010 A 
ATOM     31  C   UNL A   1      38.210  29.768  27.547  1.00  0.00     0.010 A 
ATOM     32  C   UNL A   1      38.269  29.081  28.773  1.00  0.00    -0.014 A 
BRANCH  32  33
ATOM     33  C   UNL A   1      39.550  28.549  29.310  1.00  0.00     0.031 A 
ATOM     34  C   UNL A   1      40.156  29.178  30.542  1.00  0.00     0.074 A 
ATOM     35  C   UNL A   1      40.136  27.472  28.758  1.00  0.00     0.049 A 
ATOM     36  N   UNL A   1      41.199  28.799  31.236  1.00  0.00    -0.248 NA
ATOM     37  C   UNL A   1      39.499  30.388  31.061  1.00  0.00     0.031 C 
ATOM     38  C   UNL A   1      39.665  26.773  27.564  1.00  0.00     0.029 A 
ATOM     39  N   UNL A   1      41.260  26.777  29.133  1.00  0.00    -0.354 N 
ATOM     40  C   UNL A   1      41.322  29.717  32.273  1.00  0.00     0.074 A 
ATOM     41  C   UNL A   1      40.266  30.692  32.100  1.00  0.00     0.031 C 
ATOM     42  C   UNL A   1      40.499  25.752  27.299  1.00  0.00     0.029 A 
ATOM     43  C   UNL A   1      41.559  25.722  28.304  1.00  0.00     0.049 A 
ATOM     44  H   UNL A   1      41.800  27.012  29.922  1.00  0.00     0.167 HD
ATOM     45  C   UNL A   1      42.208  29.733  33.298  1.00  0.00     0.034 A 
ATOM     46  C   UNL A   1      42.567  24.826  28.358  1.00  0.00     0.034 A 
ATOM     47  C   UNL A   1      43.251  28.761  33.490  1.00  0.00     0.049 A 
ATOM     48  C   UNL A   1      43.539  24.868  29.509  1.00  0.00     0.074 A 
ATOM     49  C   UNL A   1      44.193  28.697  34.502  1.00  0.00     0.029 A 
ATOM     50  N   UNL A   1      43.487  27.680  32.657  1.00  0.00    -0.354 N 
ATOM     51  N   UNL A   1      43.559  25.670  30.546  1.00  0.00    -0.248 NA
ATOM     52  C   UNL A   1      44.601  23.850  29.518  1.00  0.00     0.031 C 
ATOM     53  C   UNL A   1      44.998  27.573  34.283  1.00  0.00     0.029 A 
ATOM     54  C   UNL A   1      44.554  26.938  33.135  1.00  0.00     0.049 A 
ATOM     55  H   UNL A   1      42.973  27.470  31.844  1.00  0.00     0.167 HD
ATOM     56  C   UNL A   1      44.610  25.231  31.346  1.00  0.00     0.074 A 
ATOM     57  C   UNL A   1      45.184  24.077  30.687  1.00  0.00     0.031 C 
ATOM     58  C   UNL A   1      45.073  25.751  32.508  1.00  0.00     0.034 A 
BRANCH  45  59
ATOM     59  C   UNL A   1      42.044  30.804  34.344  1.00  0.00     0.023 A 
ATOM     60  C   UNL A   1      41.276  30.521  35.491  1.00  0.00     0.012 A 
ATOM     61  C   UNL A   1      42.698  32.046  34.236  1.00  0.00     0.148 A 
ATOM     62  C   UNL A   1      41.147  31.464  36.509  1.00  0.00     0.002 A 
ATOM     63  C   UNL A   1      42.590  32.969  35.270  1.00  0.00     0.091 A 
ATOM     64  F   UNL A   1      43.407  32.302  33.127  1.00  0.00    -0.205 F 
ATOM     65  C   UNL A   1      41.811  32.683  36.403  1.00  0.00     0.022 A 
BRANCH  63  66
ATOM     66  S   UNL A   1      43.455  34.544  35.259  1.00  0.00     0.127 S 
ATOM     67  O   UNL A   1      43.098  35.087  36.569  1.00  0.00    -0.237 OA
ATOM     68  O   UNL A   1      44.853  34.130  35.131  1.00  0.00    -0.237 OA
ATOM     69  O   UNL A   1      42.933  35.280  34.115  1.00  0.00    -0.744 OA
ENDBRANCH  63  66
ENDBRANCH  45  59
BRANCH  46  70
ATOM     70  C   UNL A   1      42.674  23.760  27.323  1.00  0.00     0.023 A 
ATOM     71  C   UNL A   1      43.352  24.025  26.118  1.00  0.00     0.012 A 
ATOM     72  C   UNL A   1      42.101  22.490  27.522  1.00  0.00     0.148 A 
ATOM     73  C   UNL A   1      43.431  23.055  25.118  1.00  0.00     0.002 A 
ATOM     74  C   UNL A   1      42.228  21.512  26.541  1.00  0.00     0.091 A 
ATOM     75  F   UNL A   1      41.433  22.259  28.662  1.00  0.00    -0.205 F 
ATOM     76  C   UNL A   1      42.879  21.795  25.333  1.00  0.00     0.022 A 
BRANCH  74  77
ATOM     77  S   UNL A   1      41.640  19.839  26.826  1.00  0.00     0.127 S 
ATOM     78  O   UNL A   1      40.886  19.989  28.068  1.00  0.00    -0.237 OA
ATOM     79  O   UNL A   1      40.824  19.581  25.638  1.00  0.00    -0.237 OA
ATOM     80  O   UNL A   1      42.853  19.032  26.899  1.00  0.00    -0.744 OA
ENDBRANCH  74  77
ENDBRANCH  46  70
BRANCH  58  81
ATOM     81  C   UNL A   1      46.246  25.066  33.159  1.00  0.00     0.023 A 
ATOM     82  C   UNL A   1      47.550  25.542  32.912  1.00  0.00     0.012 A 
ATOM     83  C   UNL A   1      46.062  23.991  34.050  1.00  0.00     0.148 A 
ATOM     84  C   UNL A   1      48.653  24.936  33.515  1.00  0.00     0.002 A 
ATOM     85  C   UNL A   1      47.163  23.417  34.677  1.00  0.00     0.091 A 
ATOM     86  F   UNL A   1      44.818  23.534  34.258  1.00  0.00    -0.205 F 
ATOM     87  C   UNL A   1      48.460  23.881  34.404  1.00  0.00     0.022 A 
BRANCH  85  88
ATOM     88  S   UNL A   1      46.975  22.110  35.895  1.00  0.00     0.127 S 
ATOM     89  O   UNL A   1      46.176  22.769  36.925  1.00  0.00    -0.237 OA
ATOM     90  O   UNL A   1      46.266  21.071  35.146  1.00  0.00    -0.237 OA
ATOM     91  O   UNL A   1      48.334  21.745  36.277  1.00  0.00    -0.744 OA
ENDBRANCH  85  88
ENDBRANCH  58  81
ENDBRANCH  32  33
ENDBRANCH  25  27
ENDBRANCH  24  25
ENDBRANCH  23  24
ENDBRANCH  22  23
ENDBRANCH  21  22
ENDBRANCH  20  21
ENDBRANCH   1  20
TORSDOF 24
ENDMDL
