MODEL 1
REMARK VINA RESULT:     -11.2      0.000      0.000
REMARK SMILES COc1ccc(N[C@]2(Br)C(=O)NC(=O)N[C@@H]2C(=O)OCCOCCOC(=O)c2ccc(-c3c4nc(c(-c5cccc(S(=O)(=O)[O-])c5F)c5ccc([nH]5)c(-c5cccc(S(=O)(=O)[O-])c5F)c5nc(c(-c6cccc(S(=O)(=O)[O-])c6F)c6ccc3[nH]6)C=C5)C=C4)cc2)cc1
REMARK SMILES IDX 22 1 21 2 20 3 19 4 17 5 18 6 16 7 8 8 10 9 9 10 11 11 12 12
REMARK SMILES IDX 15 13 13 14 14 17 7 18 6 20 3 21 4 22 92 23 5 24 91 25 2 26
REMARK SMILES IDX 1 27 23 28 24 29 25 30 26 31 27 32 28 33 29 34 90 35 30 36
REMARK SMILES IDX 89 37 31 38 32 39 33 40 83 41 34 42 88 43 82 44 84 45 35 46
REMARK SMILES IDX 87 47 81 48 80 49 36 51 68 52 48 53 67 54 49 55 52 56 66 57
REMARK SMILES IDX 85 58 50 59 51 60 65 62 86 63 53 64 37 65 38 66 46 67 39 68
REMARK SMILES IDX 41 69 47 70 40 71 42 72 43 73 44 74 45 75 69 76 70 77 78 78
REMARK SMILES IDX 71 79 73 80 79 81 72 82 74 83 75 84 76 85 77 86 54 87 55 88
REMARK SMILES IDX 63 89 56 90 58 91 64 92 57 93 59 94 60 95 61 96 62 97
REMARK H PARENT 12 15 15 16 7 19 84 50 52 61
REMARK Flexibility Score: inf
ROOT
ATOM      1  O   UNL A   1      37.864  20.978  25.264  1.00  0.00    -0.374 OA
ENDROOT
BRANCH   1   2
ATOM      2  C   UNL A   1      36.471  21.239  25.425  1.00  0.00     0.202 C 
BRANCH   2   3
ATOM      3  C   UNL A   1      35.743  21.831  24.217  1.00  0.00     0.261 C 
BRANCH   3   4
ATOM      4  O   UNL A   1      35.017  23.043  24.496  1.00  0.00    -0.462 OA
BRANCH   4   5
ATOM      5  C   UNL A   1      33.962  23.297  23.676  1.00  0.00     0.332 C 
ATOM      6  O   UNL A   1      34.063  23.660  22.510  1.00  0.00    -0.250 OA
BRANCH   5   7
ATOM      7  C   UNL A   1      32.614  23.055  24.344  1.00  0.00     0.240 C 
ATOM      8  C   UNL A   1      32.616  23.496  25.822  1.00  0.00     0.204 C 
ATOM      9  C   UNL A   1      32.957  22.339  26.779  1.00  0.00     0.267 C 
ATOM     10  Br  UNL A   1      30.665  23.835  26.278  1.00  0.00    -0.048 Br
ATOM     11  O   UNL A   1      33.266  22.498  27.962  1.00  0.00    -0.271 OA
ATOM     12  N   UNL A   1      32.836  21.061  26.283  1.00  0.00    -0.275 N 
ATOM     13  N   UNL A   1      32.155  21.675  24.168  1.00  0.00    -0.321 N 
ATOM     14  C   UNL A   1      32.355  20.687  25.069  1.00  0.00     0.322 C 
ATOM     15  H   UNL A   1      33.134  20.335  26.878  1.00  0.00     0.174 HD
ATOM     16  H   UNL A   1      31.669  21.452  23.340  1.00  0.00     0.166 HD
ATOM     17  O   UNL A   1      32.069  19.530  24.802  1.00  0.00    -0.248 OA
BRANCH   8  18
ATOM     18  N   UNL A   1      33.247  24.778  26.155  1.00  0.00    -0.360 N 
ATOM     19  H   UNL A   1      34.121  24.726  26.605  1.00  0.00     0.162 HD
BRANCH  18  20
ATOM     20  C   UNL A   1      32.765  26.050  25.912  1.00  0.00     0.036 A 
ATOM     21  C   UNL A   1      32.293  28.796  25.456  1.00  0.00     0.119 A 
ATOM     22  C   UNL A   1      31.924  28.214  26.660  1.00  0.00     0.048 A 
ATOM     23  C   UNL A   1      32.844  28.015  24.448  1.00  0.00     0.048 A 
ATOM     24  C   UNL A   1      32.147  26.849  26.878  1.00  0.00     0.029 A 
ATOM     25  C   UNL A   1      33.064  26.650  24.675  1.00  0.00     0.029 A 
BRANCH  21  26
ATOM     26  O   UNL A   1      32.230  30.159  25.366  1.00  0.00    -0.497 OA
ATOM     27  C   UNL A   1      31.938  30.761  26.621  1.00  0.00     0.278 C 
ENDBRANCH  21  26
ENDBRANCH  18  20
ENDBRANCH   8  18
ENDBRANCH   5   7
ENDBRANCH   4   5
ENDBRANCH   3   4
ENDBRANCH   2   3
ENDBRANCH   1   2
BRANCH   1  28
ATOM     28  C   UNL A   1      38.252  19.603  25.243  1.00  0.00     0.202 C 
BRANCH  28  29
ATOM     29  C   UNL A   1      39.696  19.335  25.666  1.00  0.00     0.261 C 
BRANCH  29  30
ATOM     30  O   UNL A   1      40.382  20.573  25.910  1.00  0.00    -0.460 OA
BRANCH  30  31
ATOM     31  C   UNL A   1      41.087  20.611  27.063  1.00  0.00     0.338 C 
ATOM     32  O   UNL A   1      41.693  19.684  27.587  1.00  0.00    -0.246 OA
BRANCH  31  33
ATOM     33  C   UNL A   1      41.205  22.006  27.526  1.00  0.00     0.060 A 
ATOM     34  C   UNL A   1      40.481  22.980  26.824  1.00  0.00     0.016 A 
ATOM     35  C   UNL A   1      42.016  22.364  28.606  1.00  0.00     0.016 A 
ATOM     36  C   UNL A   1      40.625  24.324  27.147  1.00  0.00     0.010 A 
ATOM     37  C   UNL A   1      42.167  23.715  28.924  1.00  0.00     0.010 A 
ATOM     38  C   UNL A   1      41.511  24.699  28.164  1.00  0.00    -0.014 A 
BRANCH  38  39
ATOM     39  C   UNL A   1      41.889  26.121  28.310  1.00  0.00     0.031 A 
ATOM     40  C   UNL A   1      43.262  26.545  27.870  1.00  0.00     0.074 A 
ATOM     41  C   UNL A   1      41.029  27.012  28.832  1.00  0.00     0.049 A 
ATOM     42  N   UNL A   1      43.830  27.719  27.944  1.00  0.00    -0.248 NA
ATOM     43  C   UNL A   1      44.112  25.501  27.271  1.00  0.00     0.031 C 
ATOM     44  C   UNL A   1      39.674  26.709  29.287  1.00  0.00     0.029 A 
ATOM     45  N   UNL A   1      41.186  28.348  29.093  1.00  0.00    -0.354 N 
ATOM     46  C   UNL A   1      45.113  27.550  27.439  1.00  0.00     0.074 A 
ATOM     47  C   UNL A   1      45.244  26.158  27.066  1.00  0.00     0.031 C 
ATOM     48  C   UNL A   1      39.134  27.822  29.811  1.00  0.00     0.029 A 
ATOM     49  C   UNL A   1      40.114  28.904  29.751  1.00  0.00     0.049 A 
ATOM     50  H   UNL A   1      41.986  28.860  28.836  1.00  0.00     0.167 HD
ATOM     51  C   UNL A   1      46.090  28.473  27.290  1.00  0.00     0.034 A 
ATOM     52  C   UNL A   1      39.960  30.137  30.271  1.00  0.00     0.034 A 
ATOM     53  C   UNL A   1      45.943  29.858  27.644  1.00  0.00     0.049 A 
ATOM     54  C   UNL A   1      41.068  31.144  30.110  1.00  0.00     0.074 A 
ATOM     55  C   UNL A   1      46.844  30.892  27.470  1.00  0.00     0.029 A 
ATOM     56  N   UNL A   1      44.827  30.398  28.265  1.00  0.00    -0.354 N 
ATOM     57  N   UNL A   1      42.227  31.006  29.510  1.00  0.00    -0.248 NA
ATOM     58  C   UNL A   1      40.838  32.484  30.669  1.00  0.00     0.031 C 
ATOM     59  C   UNL A   1      46.287  32.051  28.019  1.00  0.00     0.029 A 
ATOM     60  C   UNL A   1      45.024  31.746  28.504  1.00  0.00     0.049 A 
ATOM     61  H   UNL A   1      44.013  29.897  28.501  1.00  0.00     0.167 HD
ATOM     62  C   UNL A   1      42.852  32.246  29.596  1.00  0.00     0.074 A 
ATOM     63  C   UNL A   1      41.932  33.128  30.285  1.00  0.00     0.031 C 
ATOM     64  C   UNL A   1      44.080  32.619  29.156  1.00  0.00     0.034 A 
BRANCH  51  65
ATOM     65  C   UNL A   1      47.402  28.015  26.708  1.00  0.00     0.023 A 
ATOM     66  C   UNL A   1      48.469  27.672  27.563  1.00  0.00     0.012 A 
ATOM     67  C   UNL A   1      47.563  27.886  25.316  1.00  0.00     0.148 A 
ATOM     68  C   UNL A   1      49.687  27.240  27.039  1.00  0.00     0.002 A 
ATOM     69  C   UNL A   1      48.765  27.413  24.802  1.00  0.00     0.091 A 
ATOM     70  F   UNL A   1      46.546  28.245  24.518  1.00  0.00    -0.205 F 
ATOM     71  C   UNL A   1      49.832  27.101  25.661  1.00  0.00     0.022 A 
BRANCH  69  72
ATOM     72  S   UNL A   1      49.021  27.128  23.048  1.00  0.00     0.127 S 
ATOM     73  O   UNL A   1      48.501  28.366  22.469  1.00  0.00    -0.237 OA
ATOM     74  O   UNL A   1      50.475  26.983  22.969  1.00  0.00    -0.237 OA
ATOM     75  O   UNL A   1      48.273  25.922  22.724  1.00  0.00    -0.744 OA
ENDBRANCH  69  72
ENDBRANCH  51  65
BRANCH  52  76
ATOM     76  C   UNL A   1      38.695  30.487  30.976  1.00  0.00     0.023 A 
ATOM     77  C   UNL A   1      38.540  30.158  32.335  1.00  0.00     0.012 A 
ATOM     78  C   UNL A   1      37.664  31.183  30.313  1.00  0.00     0.148 A 
ATOM     79  C   UNL A   1      37.371  30.495  33.019  1.00  0.00     0.002 A 
ATOM     80  C   UNL A   1      36.527  31.565  31.014  1.00  0.00     0.091 A 
ATOM     81  F   UNL A   1      37.827  31.474  29.016  1.00  0.00    -0.205 F 
ATOM     82  C   UNL A   1      36.371  31.209  32.362  1.00  0.00     0.022 A 
BRANCH  80  83
ATOM     83  S   UNL A   1      35.248  32.599  30.291  1.00  0.00     0.127 S 
ATOM     84  O   UNL A   1      36.004  33.792  29.916  1.00  0.00    -0.237 OA
ATOM     85  O   UNL A   1      34.797  31.776  29.169  1.00  0.00    -0.237 OA
ATOM     86  O   UNL A   1      34.253  32.786  31.338  1.00  0.00    -0.744 OA
ENDBRANCH  80  83
ENDBRANCH  52  76
BRANCH  64  87
ATOM     87  C   UNL A   1      44.501  34.048  29.383  1.00  0.00     0.023 A 
ATOM     88  C   UNL A   1      44.955  34.450  30.655  1.00  0.00     0.012 A 
ATOM     89  C   UNL A   1      44.528  34.967  28.315  1.00  0.00     0.148 A 
ATOM     90  C   UNL A   1      45.401  35.753  30.867  1.00  0.00     0.002 A 
ATOM     91  C   UNL A   1      45.022  36.249  28.523  1.00  0.00     0.091 A 
ATOM     92  F   UNL A   1      44.078  34.569  27.117  1.00  0.00    -0.205 F 
ATOM     93  C   UNL A   1      45.446  36.648  29.800  1.00  0.00     0.022 A 
BRANCH  91  94
ATOM     94  S   UNL A   1      45.209  37.438  27.189  1.00  0.00     0.127 S 
ATOM     95  O   UNL A   1      43.819  37.787  26.903  1.00  0.00    -0.237 OA
ATOM     96  O   UNL A   1      45.986  38.501  27.829  1.00  0.00    -0.237 OA
ATOM     97  O   UNL A   1      45.909  36.738  26.121  1.00  0.00    -0.744 OA
ENDBRANCH  91  94
ENDBRANCH  64  87
ENDBRANCH  38  39
ENDBRANCH  31  33
ENDBRANCH  30  31
ENDBRANCH  29  30
ENDBRANCH  28  29
ENDBRANCH   1  28
TORSDOF 20
ENDMDL
MODEL 2
REMARK VINA RESULT:     -11.1      1.351      8.062
REMARK SMILES COc1ccc(N[C@]2(Br)C(=O)NC(=O)N[C@@H]2C(=O)OCCOCCOC(=O)c2ccc(-c3c4nc(c(-c5cccc(S(=O)(=O)[O-])c5F)c5ccc([nH]5)c(-c5cccc(S(=O)(=O)[O-])c5F)c5nc(c(-c6cccc(S(=O)(=O)[O-])c6F)c6ccc3[nH]6)C=C5)C=C4)cc2)cc1
REMARK SMILES IDX 22 1 21 2 20 3 19 4 17 5 18 6 16 7 8 8 10 9 9 10 11 11 12 12
REMARK SMILES IDX 15 13 13 14 14 17 7 18 6 20 3 21 4 22 92 23 5 24 91 25 2 26
REMARK SMILES IDX 1 27 23 28 24 29 25 30 26 31 27 32 28 33 29 34 90 35 30 36
REMARK SMILES IDX 89 37 31 38 32 39 33 40 83 41 34 42 88 43 82 44 84 45 35 46
REMARK SMILES IDX 87 47 81 48 80 49 36 51 68 52 48 53 67 54 49 55 52 56 66 57
REMARK SMILES IDX 85 58 50 59 51 60 65 62 86 63 53 64 37 65 38 66 46 67 39 68
REMARK SMILES IDX 41 69 47 70 40 71 42 72 43 73 44 74 45 75 69 76 70 77 78 78
REMARK SMILES IDX 71 79 73 80 79 81 72 82 74 83 75 84 76 85 77 86 54 87 55 88
REMARK SMILES IDX 63 89 56 90 58 91 64 92 57 93 59 94 60 95 61 96 62 97
REMARK H PARENT 12 15 15 16 7 19 84 50 52 61
REMARK Flexibility Score: inf
ROOT
ATOM      1  O   UNL A   1      36.284  21.603  24.328  1.00  0.00    -0.374 OA
ENDROOT
BRANCH   1   2
ATOM      2  C   UNL A   1      35.383  22.513  24.954  1.00  0.00     0.202 C 
BRANCH   2   3
ATOM      3  C   UNL A   1      35.765  23.994  24.908  1.00  0.00     0.261 C 
BRANCH   3   4
ATOM      4  O   UNL A   1      34.720  24.891  25.329  1.00  0.00    -0.462 OA
BRANCH   4   5
ATOM      5  C   UNL A   1      33.983  25.444  24.328  1.00  0.00     0.332 C 
ATOM      6  O   UNL A   1      34.289  25.409  23.143  1.00  0.00    -0.250 OA
BRANCH   5   7
ATOM      7  C   UNL A   1      32.698  26.098  24.823  1.00  0.00     0.240 C 
ATOM      8  C   UNL A   1      31.545  25.940  23.812  1.00  0.00     0.204 C 
ATOM      9  C   UNL A   1      31.433  27.145  22.859  1.00  0.00     0.267 C 
ATOM     10  Br  UNL A   1      29.846  26.135  24.908  1.00  0.00    -0.048 Br
ATOM     11  O   UNL A   1      30.768  27.135  21.820  1.00  0.00    -0.271 OA
ATOM     12  N   UNL A   1      32.062  28.307  23.241  1.00  0.00    -0.275 N 
ATOM     13  N   UNL A   1      32.912  27.491  25.224  1.00  0.00    -0.321 N 
ATOM     14  C   UNL A   1      32.697  28.554  24.416  1.00  0.00     0.322 C 
ATOM     15  H   UNL A   1      32.051  29.043  22.587  1.00  0.00     0.174 HD
ATOM     16  H   UNL A   1      33.231  27.665  26.138  1.00  0.00     0.166 HD
ATOM     17  O   UNL A   1      33.024  29.679  24.764  1.00  0.00    -0.248 OA
BRANCH   8  18
ATOM     18  N   UNL A   1      31.364  24.630  23.175  1.00  0.00    -0.360 N 
ATOM     19  H   UNL A   1      30.909  24.634  22.302  1.00  0.00     0.162 HD
BRANCH  18  20
ATOM     20  C   UNL A   1      31.756  23.395  23.652  1.00  0.00     0.036 A 
ATOM     21  C   UNL A   1      32.133  20.685  24.351  1.00  0.00     0.119 A 
ATOM     22  C   UNL A   1      31.664  21.591  25.291  1.00  0.00     0.048 A 
ATOM     23  C   UNL A   1      32.474  21.122  23.077  1.00  0.00     0.048 A 
ATOM     24  C   UNL A   1      31.491  22.936  24.946  1.00  0.00     0.029 A 
ATOM     25  C   UNL A   1      32.297  22.471  22.740  1.00  0.00     0.029 A 
BRANCH  21  26
ATOM     26  O   UNL A   1      32.104  19.358  24.680  1.00  0.00    -0.497 OA
ATOM     27  C   UNL A   1      32.969  19.062  25.769  1.00  0.00     0.278 C 
ENDBRANCH  21  26
ENDBRANCH  18  20
ENDBRANCH   8  18
ENDBRANCH   5   7
ENDBRANCH   4   5
ENDBRANCH   3   4
ENDBRANCH   2   3
ENDBRANCH   1   2
BRANCH   1  28
ATOM     28  C   UNL A   1      36.385  20.305  24.916  1.00  0.00     0.202 C 
BRANCH  28  29
ATOM     29  C   UNL A   1      37.812  19.791  25.103  1.00  0.00     0.261 C 
BRANCH  29  30
ATOM     30  O   UNL A   1      38.721  20.892  25.266  1.00  0.00    -0.460 OA
BRANCH  30  31
ATOM     31  C   UNL A   1      39.715  20.676  26.156  1.00  0.00     0.338 C 
ATOM     32  O   UNL A   1      40.319  19.628  26.346  1.00  0.00    -0.246 OA
BRANCH  31  33
ATOM     33  C   UNL A   1      40.133  21.958  26.752  1.00  0.00     0.060 A 
ATOM     34  C   UNL A   1      39.599  23.130  26.197  1.00  0.00     0.016 A 
ATOM     35  C   UNL A   1      41.039  22.023  27.814  1.00  0.00     0.016 A 
ATOM     36  C   UNL A   1      40.026  24.373  26.649  1.00  0.00     0.010 A 
ATOM     37  C   UNL A   1      41.474  23.272  28.261  1.00  0.00     0.010 A 
ATOM     38  C   UNL A   1      41.006  24.446  27.646  1.00  0.00    -0.014 A 
BRANCH  38  39
ATOM     39  C   UNL A   1      41.673  25.739  27.915  1.00  0.00     0.031 A 
ATOM     40  C   UNL A   1      40.898  26.808  28.633  1.00  0.00     0.074 A 
ATOM     41  C   UNL A   1      42.939  25.955  27.521  1.00  0.00     0.049 A 
ATOM     42  N   UNL A   1      41.255  28.027  28.936  1.00  0.00    -0.248 NA
ATOM     43  C   UNL A   1      39.533  26.456  29.061  1.00  0.00     0.031 C 
ATOM     44  C   UNL A   1      43.782  24.987  26.822  1.00  0.00     0.029 A 
ATOM     45  N   UNL A   1      43.723  27.074  27.629  1.00  0.00    -0.354 N 
ATOM     46  C   UNL A   1      40.150  28.601  29.554  1.00  0.00     0.074 A 
ATOM     47  C   UNL A   1      39.108  27.598  29.579  1.00  0.00     0.031 C 
ATOM     48  C   UNL A   1      44.956  25.568  26.526  1.00  0.00     0.029 A 
ATOM     49  C   UNL A   1      44.935  26.954  26.991  1.00  0.00     0.049 A 
ATOM     50  H   UNL A   1      43.446  27.885  28.115  1.00  0.00     0.167 HD
ATOM     51  C   UNL A   1      40.021  29.847  30.063  1.00  0.00     0.034 A 
ATOM     52  C   UNL A   1      45.899  27.871  26.782  1.00  0.00     0.034 A 
ATOM     53  C   UNL A   1      41.070  30.829  30.052  1.00  0.00     0.049 A 
ATOM     54  C   UNL A   1      45.726  29.258  27.342  1.00  0.00     0.074 A 
ATOM     55  C   UNL A   1      41.068  32.097  30.603  1.00  0.00     0.029 A 
ATOM     56  N   UNL A   1      42.302  30.659  29.439  1.00  0.00    -0.354 N 
ATOM     57  N   UNL A   1      44.730  29.746  28.041  1.00  0.00    -0.248 NA
ATOM     58  C   UNL A   1      46.821  30.211  27.111  1.00  0.00     0.031 C 
ATOM     59  C   UNL A   1      42.287  32.708  30.291  1.00  0.00     0.029 A 
ATOM     60  C   UNL A   1      43.062  31.807  29.576  1.00  0.00     0.049 A 
ATOM     61  H   UNL A   1      42.595  29.841  28.975  1.00  0.00     0.167 HD
ATOM     62  C   UNL A   1      45.088  31.053  28.357  1.00  0.00     0.074 A 
ATOM     63  C   UNL A   1      46.404  31.271  27.792  1.00  0.00     0.031 C 
ATOM     64  C   UNL A   1      44.387  31.992  29.041  1.00  0.00     0.034 A 
BRANCH  51  65
ATOM     65  C   UNL A   1      38.699  30.214  30.686  1.00  0.00     0.023 A 
ATOM     66  C   UNL A   1      38.430  29.861  32.024  1.00  0.00     0.012 A 
ATOM     67  C   UNL A   1      37.740  30.942  29.957  1.00  0.00     0.148 A 
ATOM     68  C   UNL A   1      37.214  30.200  32.615  1.00  0.00     0.002 A 
ATOM     69  C   UNL A   1      36.548  31.315  30.566  1.00  0.00     0.091 A 
ATOM     70  F   UNL A   1      38.003  31.243  28.676  1.00  0.00    -0.205 F 
ATOM     71  C   UNL A   1      36.278  30.934  31.891  1.00  0.00     0.022 A 
BRANCH  69  72
ATOM     72  S   UNL A   1      35.315  32.325  29.741  1.00  0.00     0.127 S 
ATOM     73  O   UNL A   1      36.112  33.474  29.315  1.00  0.00    -0.237 OA
ATOM     74  O   UNL A   1      34.879  31.449  28.652  1.00  0.00    -0.237 OA
ATOM     75  O   UNL A   1      34.293  32.606  30.738  1.00  0.00    -0.744 OA
ENDBRANCH  69  72
ENDBRANCH  51  65
BRANCH  52  76
ATOM     76  C   UNL A   1      47.123  27.492  26.020  1.00  0.00     0.023 A 
ATOM     77  C   UNL A   1      48.159  26.793  26.667  1.00  0.00     0.012 A 
ATOM     78  C   UNL A   1      47.242  27.784  24.647  1.00  0.00     0.148 A 
ATOM     79  C   UNL A   1      49.304  26.411  25.966  1.00  0.00     0.002 A 
ATOM     80  C   UNL A   1      48.359  27.352  23.942  1.00  0.00     0.091 A 
ATOM     81  F   UNL A   1      46.250  28.462  24.054  1.00  0.00    -0.205 F 
ATOM     82  C   UNL A   1      49.398  26.679  24.603  1.00  0.00     0.022 A 
BRANCH  80  83
ATOM     83  S   UNL A   1      48.508  27.533  22.161  1.00  0.00     0.127 S 
ATOM     84  O   UNL A   1      48.660  26.145  21.731  1.00  0.00    -0.237 OA
ATOM     85  O   UNL A   1      47.227  28.150  21.815  1.00  0.00    -0.237 OA
ATOM     86  O   UNL A   1      49.666  28.390  21.947  1.00  0.00    -0.744 OA
ENDBRANCH  80  83
ENDBRANCH  52  76
BRANCH  64  87
ATOM     87  C   UNL A   1      45.033  33.339  29.241  1.00  0.00     0.023 A 
ATOM     88  C   UNL A   1      45.719  33.615  30.440  1.00  0.00     0.012 A 
ATOM     89  C   UNL A   1      45.033  34.296  28.207  1.00  0.00     0.148 A 
ATOM     90  C   UNL A   1      46.369  34.835  30.619  1.00  0.00     0.002 A 
ATOM     91  C   UNL A   1      45.726  35.489  28.373  1.00  0.00     0.091 A 
ATOM     92  F   UNL A   1      44.362  34.019  27.080  1.00  0.00    -0.205 F 
ATOM     93  C   UNL A   1      46.383  35.765  29.582  1.00  0.00     0.022 A 
BRANCH  91  94
ATOM     94  S   UNL A   1      45.882  36.704  27.059  1.00  0.00     0.127 S 
ATOM     95  O   UNL A   1      46.273  35.869  25.925  1.00  0.00    -0.237 OA
ATOM     96  O   UNL A   1      44.526  37.249  26.978  1.00  0.00    -0.237 OA
ATOM     97  O   UNL A   1      46.889  37.655  27.510  1.00  0.00    -0.744 OA
ENDBRANCH  91  94
ENDBRANCH  64  87
ENDBRANCH  38  39
ENDBRANCH  31  33
ENDBRANCH  30  31
ENDBRANCH  29  30
ENDBRANCH  28  29
ENDBRANCH   1  28
TORSDOF 20
ENDMDL
MODEL 3
REMARK VINA RESULT:     -10.8      1.051      7.464
REMARK SMILES COc1ccc(N[C@]2(Br)C(=O)NC(=O)N[C@@H]2C(=O)OCCOCCOC(=O)c2ccc(-c3c4nc(c(-c5cccc(S(=O)(=O)[O-])c5F)c5ccc([nH]5)c(-c5cccc(S(=O)(=O)[O-])c5F)c5nc(c(-c6cccc(S(=O)(=O)[O-])c6F)c6ccc3[nH]6)C=C5)C=C4)cc2)cc1
REMARK SMILES IDX 22 1 21 2 20 3 19 4 17 5 18 6 16 7 8 8 10 9 9 10 11 11 12 12
REMARK SMILES IDX 15 13 13 14 14 17 7 18 6 20 3 21 4 22 92 23 5 24 91 25 2 26
REMARK SMILES IDX 1 27 23 28 24 29 25 30 26 31 27 32 28 33 29 34 90 35 30 36
REMARK SMILES IDX 89 37 31 38 32 39 33 40 83 41 34 42 88 43 82 44 84 45 35 46
REMARK SMILES IDX 87 47 81 48 80 49 36 51 68 52 48 53 67 54 49 55 52 56 66 57
REMARK SMILES IDX 85 58 50 59 51 60 65 62 86 63 53 64 37 65 38 66 46 67 39 68
REMARK SMILES IDX 41 69 47 70 40 71 42 72 43 73 44 74 45 75 69 76 70 77 78 78
REMARK SMILES IDX 71 79 73 80 79 81 72 82 74 83 75 84 76 85 77 86 54 87 55 88
REMARK SMILES IDX 63 89 56 90 58 91 64 92 57 93 59 94 60 95 61 96 62 97
REMARK H PARENT 12 15 15 16 7 19 84 50 52 61
REMARK Flexibility Score: inf
ROOT
ATOM      1  O   UNL A   1      36.502  21.417  24.379  1.00  0.00    -0.374 OA
ENDROOT
BRANCH   1   2
ATOM      2  C   UNL A   1      35.659  22.348  25.056  1.00  0.00     0.202 C 
BRANCH   2   3
ATOM      3  C   UNL A   1      35.963  23.831  24.835  1.00  0.00     0.261 C 
BRANCH   3   4
ATOM      4  O   UNL A   1      34.839  24.706  25.047  1.00  0.00    -0.462 OA
BRANCH   4   5
ATOM      5  C   UNL A   1      34.031  24.896  23.970  1.00  0.00     0.332 C 
ATOM      6  O   UNL A   1      34.426  25.229  22.859  1.00  0.00    -0.250 OA
BRANCH   5   7
ATOM      7  C   UNL A   1      32.562  24.623  24.269  1.00  0.00     0.240 C 
ATOM      8  C   UNL A   1      32.266  24.654  25.782  1.00  0.00     0.204 C 
ATOM      9  C   UNL A   1      32.344  23.257  26.423  1.00  0.00     0.267 C 
ATOM     10  Br  UNL A   1      30.280  25.054  25.927  1.00  0.00    -0.048 Br
ATOM     11  O   UNL A   1      32.400  23.065  27.640  1.00  0.00    -0.271 OA
ATOM     12  N   UNL A   1      32.278  22.174  25.577  1.00  0.00    -0.275 N 
ATOM     13  N   UNL A   1      32.092  23.392  23.627  1.00  0.00    -0.321 N 
ATOM     14  C   UNL A   1      32.052  22.186  24.238  1.00  0.00     0.322 C 
ATOM     15  H   UNL A   1      32.409  21.291  25.990  1.00  0.00     0.174 HD
ATOM     16  H   UNL A   1      31.786  23.446  22.693  1.00  0.00     0.166 HD
ATOM     17  O   UNL A   1      31.780  21.175  23.606  1.00  0.00    -0.248 OA
BRANCH   8  18
ATOM     18  N   UNL A   1      32.866  25.733  26.576  1.00  0.00    -0.360 N 
ATOM     19  H   UNL A   1      33.505  25.453  27.271  1.00  0.00     0.162 HD
BRANCH  18  20
ATOM     20  C   UNL A   1      32.644  27.091  26.466  1.00  0.00     0.036 A 
ATOM     21  C   UNL A   1      32.558  29.909  26.630  1.00  0.00     0.119 A 
ATOM     22  C   UNL A   1      31.505  29.147  27.118  1.00  0.00     0.048 A 
ATOM     23  C   UNL A   1      33.633  29.288  26.007  1.00  0.00     0.048 A 
ATOM     24  C   UNL A   1      31.544  27.751  27.022  1.00  0.00     0.029 A 
ATOM     25  C   UNL A   1      33.664  27.890  25.917  1.00  0.00     0.029 A 
BRANCH  21  26
ATOM     26  O   UNL A   1      32.558  31.246  26.917  1.00  0.00    -0.497 OA
ATOM     27  C   UNL A   1      31.366  31.884  26.476  1.00  0.00     0.278 C 
ENDBRANCH  21  26
ENDBRANCH  18  20
ENDBRANCH   8  18
ENDBRANCH   5   7
ENDBRANCH   4   5
ENDBRANCH   3   4
ENDBRANCH   2   3
ENDBRANCH   1   2
BRANCH   1  28
ATOM     28  C   UNL A   1      36.609  20.118  24.964  1.00  0.00     0.202 C 
BRANCH  28  29
ATOM     29  C   UNL A   1      38.039  19.617  25.163  1.00  0.00     0.261 C 
BRANCH  29  30
ATOM     30  O   UNL A   1      38.934  20.726  25.347  1.00  0.00    -0.460 OA
BRANCH  30  31
ATOM     31  C   UNL A   1      39.898  20.525  26.273  1.00  0.00     0.338 C 
ATOM     32  O   UNL A   1      40.489  19.478  26.507  1.00  0.00    -0.246 OA
BRANCH  31  33
ATOM     33  C   UNL A   1      40.305  21.819  26.852  1.00  0.00     0.060 A 
ATOM     34  C   UNL A   1      39.771  22.979  26.273  1.00  0.00     0.016 A 
ATOM     35  C   UNL A   1      41.202  21.905  27.920  1.00  0.00     0.016 A 
ATOM     36  C   UNL A   1      40.190  24.231  26.708  1.00  0.00     0.010 A 
ATOM     37  C   UNL A   1      41.628  23.163  28.350  1.00  0.00     0.010 A 
ATOM     38  C   UNL A   1      41.160  24.325  27.712  1.00  0.00    -0.014 A 
BRANCH  38  39
ATOM     39  C   UNL A   1      41.820  25.625  27.966  1.00  0.00     0.031 A 
ATOM     40  C   UNL A   1      41.049  26.686  28.699  1.00  0.00     0.074 A 
ATOM     41  C   UNL A   1      43.074  25.853  27.544  1.00  0.00     0.049 A 
ATOM     42  N   UNL A   1      41.400  27.910  28.993  1.00  0.00    -0.248 NA
ATOM     43  C   UNL A   1      39.698  26.320  29.157  1.00  0.00     0.031 C 
ATOM     44  C   UNL A   1      43.912  24.893  26.827  1.00  0.00     0.029 A 
ATOM     45  N   UNL A   1      43.849  26.981  27.633  1.00  0.00    -0.354 N 
ATOM     46  C   UNL A   1      40.304  28.472  29.635  1.00  0.00     0.074 A 
ATOM     47  C   UNL A   1      39.273  27.459  29.683  1.00  0.00     0.031 C 
ATOM     48  C   UNL A   1      45.073  25.487  26.505  1.00  0.00     0.029 A 
ATOM     49  C   UNL A   1      45.047  26.873  26.969  1.00  0.00     0.049 A 
ATOM     50  H   UNL A   1      43.574  27.789  28.124  1.00  0.00     0.167 HD
ATOM     51  C   UNL A   1      40.172  29.718  30.146  1.00  0.00     0.034 A 
ATOM     52  C   UNL A   1      45.998  27.799  26.738  1.00  0.00     0.034 A 
ATOM     53  C   UNL A   1      41.210  30.710  30.111  1.00  0.00     0.049 A 
ATOM     54  C   UNL A   1      45.823  29.185  27.300  1.00  0.00     0.074 A 
ATOM     55  C   UNL A   1      41.208  31.979  30.660  1.00  0.00     0.029 A 
ATOM     56  N   UNL A   1      42.431  30.553  29.471  1.00  0.00    -0.354 N 
ATOM     57  N   UNL A   1      44.836  29.664  28.021  1.00  0.00    -0.248 NA
ATOM     58  C   UNL A   1      46.902  30.149  27.045  1.00  0.00     0.031 C 
ATOM     59  C   UNL A   1      42.413  32.602  30.322  1.00  0.00     0.029 A 
ATOM     60  C   UNL A   1      43.181  31.709  29.591  1.00  0.00     0.049 A 
ATOM     61  H   UNL A   1      42.721  29.738  29.001  1.00  0.00     0.167 HD
ATOM     62  C   UNL A   1      45.188  30.974  28.328  1.00  0.00     0.074 A 
ATOM     63  C   UNL A   1      46.489  31.205  27.734  1.00  0.00     0.031 C 
ATOM     64  C   UNL A   1      44.493  31.907  29.027  1.00  0.00     0.034 A 
BRANCH  51  65
ATOM     65  C   UNL A   1      38.861  30.071  30.797  1.00  0.00     0.023 A 
ATOM     66  C   UNL A   1      38.604  29.670  32.123  1.00  0.00     0.012 A 
ATOM     67  C   UNL A   1      37.900  30.835  30.107  1.00  0.00     0.148 A 
ATOM     68  C   UNL A   1      37.396  29.996  32.741  1.00  0.00     0.002 A 
ATOM     69  C   UNL A   1      36.718  31.194  30.744  1.00  0.00     0.091 A 
ATOM     70  F   UNL A   1      38.152  31.183  28.836  1.00  0.00    -0.205 F 
ATOM     71  C   UNL A   1      36.459  30.765  32.056  1.00  0.00     0.022 A 
BRANCH  69  72
ATOM     72  S   UNL A   1      35.485  32.246  29.972  1.00  0.00     0.127 S 
ATOM     73  O   UNL A   1      36.270  33.438  29.656  1.00  0.00    -0.237 OA
ATOM     74  O   UNL A   1      35.090  31.452  28.807  1.00  0.00    -0.237 OA
ATOM     75  O   UNL A   1      34.437  32.430  30.965  1.00  0.00    -0.744 OA
ENDBRANCH  69  72
ENDBRANCH  51  65
BRANCH  52  76
ATOM     76  C   UNL A   1      47.208  27.432  25.950  1.00  0.00     0.023 A 
ATOM     77  C   UNL A   1      48.249  26.713  26.566  1.00  0.00     0.012 A 
ATOM     78  C   UNL A   1      47.309  27.756  24.582  1.00  0.00     0.148 A 
ATOM     79  C   UNL A   1      49.382  26.342  25.839  1.00  0.00     0.002 A 
ATOM     80  C   UNL A   1      48.413  27.335  23.852  1.00  0.00     0.091 A 
ATOM     81  F   UNL A   1      46.312  28.453  24.020  1.00  0.00    -0.205 F 
ATOM     82  C   UNL A   1      49.458  26.641  24.481  1.00  0.00     0.022 A 
BRANCH  80  83
ATOM     83  S   UNL A   1      48.538  27.558  22.073  1.00  0.00     0.127 S 
ATOM     84  O   UNL A   1      48.745  26.186  21.614  1.00  0.00    -0.237 OA
ATOM     85  O   UNL A   1      47.229  28.126  21.750  1.00  0.00    -0.237 OA
ATOM     86  O   UNL A   1      49.657  28.467  21.867  1.00  0.00    -0.744 OA
ENDBRANCH  80  83
ENDBRANCH  52  76
BRANCH  64  87
ATOM     87  C   UNL A   1      45.128  33.261  29.211  1.00  0.00     0.023 A 
ATOM     88  C   UNL A   1      45.920  33.513  30.349  1.00  0.00     0.012 A 
ATOM     89  C   UNL A   1      45.012  34.251  28.216  1.00  0.00     0.148 A 
ATOM     90  C   UNL A   1      46.561  34.740  30.508  1.00  0.00     0.002 A 
ATOM     91  C   UNL A   1      45.695  35.452  28.357  1.00  0.00     0.091 A 
ATOM     92  F   UNL A   1      44.242  33.996  27.148  1.00  0.00    -0.205 F 
ATOM     93  C   UNL A   1      46.458  35.704  29.507  1.00  0.00     0.022 A 
BRANCH  91  94
ATOM     94  S   UNL A   1      45.702  36.714  27.077  1.00  0.00     0.127 S 
ATOM     95  O   UNL A   1      46.170  35.959  25.916  1.00  0.00    -0.237 OA
ATOM     96  O   UNL A   1      44.293  37.108  27.022  1.00  0.00    -0.237 OA
ATOM     97  O   UNL A   1      46.603  37.757  27.547  1.00  0.00    -0.744 OA
ENDBRANCH  91  94
ENDBRANCH  64  87
ENDBRANCH  38  39
ENDBRANCH  31  33
ENDBRANCH  30  31
ENDBRANCH  29  30
ENDBRANCH  28  29
ENDBRANCH   1  28
TORSDOF 20
ENDMDL
