MODEL 1
REMARK VINA RESULT:     -10.4      0.000      0.000
REMARK SMILES O=C(OCCOCCOC(=O)[C@@H]1C[N@@H+](CCOc2ccc(F)cc2)C[C@H]1C1CC1)c1ccc(-c2c3nc(c(-c4cccc(S(=O)(=O)[O-])c4F)c4ccc([nH]4)c(-c4cccc(S(=O)(=O)[O-])c4F)c4nc(c(-c5cccc(S(=O)(=O)[O-])c5F)c5ccc2[nH]5)C=C4)C=C3)cc1
REMARK SMILES IDX 7 1 6 2 5 3 4 4 3 5 2 6 1 7 30 8 31 9 92 10 32 11 91 12
REMARK SMILES IDX 33 13 34 14 35 15 85 16 36 17 90 18 84 19 86 20 37 21 89 22
REMARK SMILES IDX 83 23 82 24 38 26 70 27 50 28 69 29 51 30 54 31 68 32 87 33
REMARK SMILES IDX 52 34 53 35 67 37 88 38 55 39 39 40 40 41 48 42 41 43 43 44
REMARK SMILES IDX 49 45 42 46 44 47 45 48 46 49 47 50 71 51 72 52 80 53 73 54
REMARK SMILES IDX 75 55 81 56 74 57 76 58 77 59 78 60 79 61 56 62 57 63 65 64
REMARK SMILES IDX 58 65 60 66 66 67 59 68 61 69 62 70 63 71 64 72 8 73 9 74
REMARK SMILES IDX 10 75 11 76 12 77 13 78 26 79 14 80 25 81 27 83 28 84 29 85
REMARK SMILES IDX 15 86 16 87 17 88 18 89 19 90 24 91 20 92 23 93 21 94 22 95
REMARK H PARENT 86 25 54 36 14 82
REMARK Flexibility Score: inf
ROOT
ATOM      1  C   UNL A   1      37.835  21.818  25.272  1.00  0.00     0.202 C 
ENDROOT
BRANCH   1   2
ATOM      2  O   UNL A   1      37.502  20.559  24.693  1.00  0.00    -0.374 OA
BRANCH   2   3
ATOM      3  C   UNL A   1      38.355  19.499  25.105  1.00  0.00     0.202 C 
BRANCH   3   4
ATOM      4  C   UNL A   1      39.486  19.847  26.077  1.00  0.00     0.261 C 
BRANCH   4   5
ATOM      5  O   UNL A   1      40.659  19.102  25.751  1.00  0.00    -0.460 OA
BRANCH   5   6
ATOM      6  C   UNL A   1      41.914  19.506  26.108  1.00  0.00     0.338 C 
ATOM      7  O   UNL A   1      42.852  18.748  26.012  1.00  0.00    -0.246 OA
BRANCH   6   8
ATOM      8  C   UNL A   1      42.142  20.958  26.397  1.00  0.00     0.060 A 
ATOM      9  C   UNL A   1      42.038  21.981  25.453  1.00  0.00     0.016 A 
ATOM     10  C   UNL A   1      42.462  21.295  27.717  1.00  0.00     0.016 A 
ATOM     11  C   UNL A   1      42.358  23.278  25.755  1.00  0.00     0.010 A 
ATOM     12  C   UNL A   1      42.691  22.629  28.061  1.00  0.00     0.010 A 
ATOM     13  C   UNL A   1      42.648  23.613  27.067  1.00  0.00    -0.014 A 
BRANCH  13  14
ATOM     14  C   UNL A   1      42.978  25.018  27.300  1.00  0.00     0.031 A 
ATOM     15  C   UNL A   1      44.277  25.521  26.773  1.00  0.00     0.074 A 
ATOM     16  C   UNL A   1      42.026  25.824  27.806  1.00  0.00     0.049 A 
ATOM     17  N   UNL A   1      44.816  26.693  26.925  1.00  0.00    -0.248 NA
ATOM     18  C   UNL A   1      45.072  24.586  25.953  1.00  0.00     0.031 C 
ATOM     19  C   UNL A   1      40.670  25.397  28.181  1.00  0.00     0.029 A 
ATOM     20  N   UNL A   1      42.027  27.166  28.056  1.00  0.00    -0.354 N 
ATOM     21  C   UNL A   1      46.052  26.611  26.302  1.00  0.00     0.074 A 
ATOM     22  C   UNL A   1      46.169  25.293  25.725  1.00  0.00     0.031 C 
ATOM     23  C   UNL A   1      39.966  26.462  28.587  1.00  0.00     0.029 A 
ATOM     24  C   UNL A   1      40.852  27.616  28.611  1.00  0.00     0.049 A 
ATOM     25  H   UNL A   1      42.791  27.754  27.856  1.00  0.00     0.167 HD
ATOM     26  C   UNL A   1      47.000  27.568  26.250  1.00  0.00     0.034 A 
ATOM     27  C   UNL A   1      40.562  28.816  29.145  1.00  0.00     0.034 A 
ATOM     28  C   UNL A   1      46.801  28.873  26.808  1.00  0.00     0.049 A 
ATOM     29  C   UNL A   1      41.660  29.842  29.124  1.00  0.00     0.074 A 
ATOM     30  C   UNL A   1      47.687  29.928  26.867  1.00  0.00     0.029 A 
ATOM     31  N   UNL A   1      45.619  29.295  27.405  1.00  0.00    -0.354 N 
ATOM     32  N   UNL A   1      42.849  29.758  28.572  1.00  0.00    -0.248 NA
ATOM     33  C   UNL A   1      41.397  31.114  29.802  1.00  0.00     0.031 C 
ATOM     34  C   UNL A   1      47.046  30.982  27.525  1.00  0.00     0.029 A 
ATOM     35  C   UNL A   1      45.751  30.595  27.846  1.00  0.00     0.049 A 
ATOM     36  H   UNL A   1      44.807  28.746  27.499  1.00  0.00     0.167 HD
ATOM     37  C   UNL A   1      43.478  30.966  28.828  1.00  0.00     0.074 A 
ATOM     38  C   UNL A   1      42.520  31.779  29.557  1.00  0.00     0.031 C 
ATOM     39  C   UNL A   1      44.736  31.365  28.520  1.00  0.00     0.034 A 
BRANCH  26  40
ATOM     40  C   UNL A   1      48.318  27.216  25.628  1.00  0.00     0.023 A 
ATOM     41  C   UNL A   1      49.335  26.618  26.395  1.00  0.00     0.012 A 
ATOM     42  C   UNL A   1      48.534  27.463  24.258  1.00  0.00     0.148 A 
ATOM     43  C   UNL A   1      50.557  26.285  25.809  1.00  0.00     0.002 A 
ATOM     44  C   UNL A   1      49.736  27.089  23.673  1.00  0.00     0.091 A 
ATOM     45  F   UNL A   1      47.562  28.065  23.557  1.00  0.00    -0.205 F 
ATOM     46  C   UNL A   1      50.753  26.509  24.449  1.00  0.00     0.022 A 
BRANCH  44  47
ATOM     47  S   UNL A   1      50.061  27.278  21.917  1.00  0.00     0.127 S 
ATOM     48  O   UNL A   1      51.486  26.953  21.843  1.00  0.00    -0.237 OA
ATOM     49  O   UNL A   1      49.175  26.271  21.336  1.00  0.00    -0.237 OA
ATOM     50  O   UNL A   1      49.730  28.656  21.588  1.00  0.00    -0.744 OA
ENDBRANCH  44  47
ENDBRANCH  26  40
BRANCH  27  51
ATOM     51  C   UNL A   1      39.230  29.072  29.765  1.00  0.00     0.023 A 
ATOM     52  C   UNL A   1      38.964  28.610  31.066  1.00  0.00     0.012 A 
ATOM     53  C   UNL A   1      38.234  29.808  29.087  1.00  0.00     0.148 A 
ATOM     54  C   UNL A   1      37.729  28.857  31.672  1.00  0.00     0.002 A 
ATOM     55  C   UNL A   1      37.030  30.103  29.718  1.00  0.00     0.091 A 
ATOM     56  F   UNL A   1      38.487  30.224  27.837  1.00  0.00    -0.205 F 
ATOM     57  C   UNL A   1      36.769  29.613  31.004  1.00  0.00     0.022 A 
BRANCH  55  58
ATOM     58  S   UNL A   1      35.795  31.182  28.981  1.00  0.00     0.127 S 
ATOM     59  O   UNL A   1      35.121  30.276  28.056  1.00  0.00    -0.237 OA
ATOM     60  O   UNL A   1      35.001  31.574  30.147  1.00  0.00    -0.237 OA
ATOM     61  O   UNL A   1      36.541  32.274  28.373  1.00  0.00    -0.744 OA
ENDBRANCH  55  58
ENDBRANCH  27  51
BRANCH  39  62
ATOM     62  C   UNL A   1      45.141  32.743  28.951  1.00  0.00     0.023 A 
ATOM     63  C   UNL A   1      45.905  32.903  30.121  1.00  0.00     0.012 A 
ATOM     64  C   UNL A   1      44.903  33.842  28.107  1.00  0.00     0.148 A 
ATOM     65  C   UNL A   1      46.428  34.152  30.448  1.00  0.00     0.002 A 
ATOM     66  C   UNL A   1      45.475  35.067  28.408  1.00  0.00     0.091 A 
ATOM     67  F   UNL A   1      44.158  33.654  27.007  1.00  0.00    -0.205 F 
ATOM     68  C   UNL A   1      46.230  35.227  29.583  1.00  0.00     0.022 A 
BRANCH  66  69
ATOM     69  S   UNL A   1      45.384  36.468  27.290  1.00  0.00     0.127 S 
ATOM     70  O   UNL A   1      43.982  36.426  26.877  1.00  0.00    -0.237 OA
ATOM     71  O   UNL A   1      45.730  37.586  28.169  1.00  0.00    -0.237 OA
ATOM     72  O   UNL A   1      46.350  36.206  26.232  1.00  0.00    -0.744 OA
ENDBRANCH  66  69
ENDBRANCH  39  62
ENDBRANCH  13  14
ENDBRANCH   6   8
ENDBRANCH   5   6
ENDBRANCH   4   5
ENDBRANCH   3   4
ENDBRANCH   2   3
ENDBRANCH   1   2
BRANCH   1  73
ATOM     73  C   UNL A   1      36.636  22.666  25.736  1.00  0.00     0.261 C 
BRANCH  73  74
ATOM     74  O   UNL A   1      35.364  22.087  25.356  1.00  0.00    -0.463 OA
BRANCH  74  75
ATOM     75  C   UNL A   1      34.373  22.087  26.297  1.00  0.00     0.315 C 
ATOM     76  O   UNL A   1      34.411  21.461  27.348  1.00  0.00    -0.252 OA
BRANCH  75  77
ATOM     77  C   UNL A   1      33.200  22.991  25.934  1.00  0.00     0.163 C 
ATOM     78  C   UNL A   1      32.313  23.361  27.128  1.00  0.00     0.278 C 
ATOM     79  C   UNL A   1      32.256  22.325  24.945  1.00  0.00     0.067 C 
ATOM     80  N   UNL A   1      30.907  23.298  26.656  1.00  0.00    -0.331 N 
ATOM     81  C   UNL A   1      30.951  22.193  25.725  1.00  0.00     0.267 C 
ATOM     82  H   UNL A   1      30.243  23.153  27.417  1.00  0.00     0.348 HD
BRANCH  79  83
ATOM     83  C   UNL A   1      32.122  22.909  23.564  1.00  0.00    -0.001 C 
ATOM     84  C   UNL A   1      33.133  23.789  22.858  1.00  0.00     0.004 C 
ATOM     85  C   UNL A   1      32.850  22.419  22.329  1.00  0.00     0.004 C 
ENDBRANCH  79  83
BRANCH  80  86
ATOM     86  C   UNL A   1      30.341  24.561  26.128  1.00  0.00     0.304 C 
BRANCH  86  87
ATOM     87  C   UNL A   1      31.038  25.968  26.220  1.00  0.00     0.290 C 
BRANCH  87  88
ATOM     88  O   UNL A   1      30.518  26.988  25.344  1.00  0.00    -0.488 OA
BRANCH  88  89
ATOM     89  C   UNL A   1      31.452  27.681  24.608  1.00  0.00     0.119 A 
ATOM     90  C   UNL A   1      31.784  27.105  23.375  1.00  0.00     0.049 A 
ATOM     91  C   UNL A   1      32.139  28.822  25.041  1.00  0.00     0.049 A 
ATOM     92  C   UNL A   1      32.918  27.530  22.681  1.00  0.00     0.043 A 
ATOM     93  C   UNL A   1      33.260  29.270  24.323  1.00  0.00     0.043 A 
ATOM     94  C   UNL A   1      33.661  28.594  23.175  1.00  0.00     0.123 A 
ATOM     95  F   UNL A   1      34.797  28.946  22.559  1.00  0.00    -0.207 F 
ENDBRANCH  88  89
ENDBRANCH  87  88
ENDBRANCH  86  87
ENDBRANCH  80  86
ENDBRANCH  75  77
ENDBRANCH  74  75
ENDBRANCH  73  74
ENDBRANCH   1  73
TORSDOF 22
ENDMDL
MODEL 2
REMARK VINA RESULT:     -10.1      2.081      2.376
REMARK SMILES O=C(OCCOCCOC(=O)[C@@H]1C[N@@H+](CCOc2ccc(F)cc2)C[C@H]1C1CC1)c1ccc(-c2c3nc(c(-c4cccc(S(=O)(=O)[O-])c4F)c4ccc([nH]4)c(-c4cccc(S(=O)(=O)[O-])c4F)c4nc(c(-c5cccc(S(=O)(=O)[O-])c5F)c5ccc2[nH]5)C=C4)C=C3)cc1
REMARK SMILES IDX 7 1 6 2 5 3 4 4 3 5 2 6 1 7 30 8 31 9 92 10 32 11 91 12
REMARK SMILES IDX 33 13 34 14 35 15 85 16 36 17 90 18 84 19 86 20 37 21 89 22
REMARK SMILES IDX 83 23 82 24 38 26 70 27 50 28 69 29 51 30 54 31 68 32 87 33
REMARK SMILES IDX 52 34 53 35 67 37 88 38 55 39 39 40 40 41 48 42 41 43 43 44
REMARK SMILES IDX 49 45 42 46 44 47 45 48 46 49 47 50 71 51 72 52 80 53 73 54
REMARK SMILES IDX 75 55 81 56 74 57 76 58 77 59 78 60 79 61 56 62 57 63 65 64
REMARK SMILES IDX 58 65 60 66 66 67 59 68 61 69 62 70 63 71 64 72 8 73 9 74
REMARK SMILES IDX 10 75 11 76 12 77 13 78 26 79 14 80 25 81 27 83 28 84 29 85
REMARK SMILES IDX 15 86 16 87 17 88 18 89 19 90 24 91 20 92 23 93 21 94 22 95
REMARK H PARENT 86 25 54 36 14 82
REMARK Flexibility Score: inf
ROOT
ATOM      1  C   UNL A   1      38.313  22.358  26.062  1.00  0.00     0.202 C 
ENDROOT
BRANCH   1   2
ATOM      2  O   UNL A   1      38.153  21.642  24.839  1.00  0.00    -0.374 OA
BRANCH   2   3
ATOM      3  C   UNL A   1      38.253  20.233  24.987  1.00  0.00     0.202 C 
BRANCH   3   4
ATOM      4  C   UNL A   1      39.121  19.708  26.135  1.00  0.00     0.261 C 
BRANCH   4   5
ATOM      5  O   UNL A   1      40.373  19.244  25.629  1.00  0.00    -0.460 OA
BRANCH   5   6
ATOM      6  C   UNL A   1      41.571  19.608  26.176  1.00  0.00     0.338 C 
ATOM      7  O   UNL A   1      42.473  18.807  26.262  1.00  0.00    -0.246 OA
BRANCH   6   8
ATOM      8  C   UNL A   1      41.820  21.059  26.451  1.00  0.00     0.060 A 
ATOM      9  C   UNL A   1      41.809  22.063  25.482  1.00  0.00     0.016 A 
ATOM     10  C   UNL A   1      42.058  21.416  27.783  1.00  0.00     0.016 A 
ATOM     11  C   UNL A   1      42.144  23.358  25.778  1.00  0.00     0.010 A 
ATOM     12  C   UNL A   1      42.301  22.751  28.114  1.00  0.00     0.010 A 
ATOM     13  C   UNL A   1      42.353  23.714  27.100  1.00  0.00    -0.014 A 
BRANCH  13  14
ATOM     14  C   UNL A   1      42.706  25.114  27.327  1.00  0.00     0.031 A 
ATOM     15  C   UNL A   1      43.996  25.603  26.767  1.00  0.00     0.074 A 
ATOM     16  C   UNL A   1      41.778  25.931  27.860  1.00  0.00     0.049 A 
ATOM     17  N   UNL A   1      44.553  26.768  26.907  1.00  0.00    -0.248 NA
ATOM     18  C   UNL A   1      44.759  24.661  25.924  1.00  0.00     0.031 C 
ATOM     19  C   UNL A   1      40.428  25.519  28.271  1.00  0.00     0.029 A 
ATOM     20  N   UNL A   1      41.801  27.272  28.112  1.00  0.00    -0.354 N 
ATOM     21  C   UNL A   1      45.771  26.672  26.251  1.00  0.00     0.074 A 
ATOM     22  C   UNL A   1      45.857  25.355  25.669  1.00  0.00     0.031 C 
ATOM     23  C   UNL A   1      39.747  26.591  28.697  1.00  0.00     0.029 A 
ATOM     24  C   UNL A   1      40.647  27.735  28.700  1.00  0.00     0.049 A 
ATOM     25  H   UNL A   1      42.567  27.851  27.894  1.00  0.00     0.167 HD
ATOM     26  C   UNL A   1      46.729  27.618  26.175  1.00  0.00     0.034 A 
ATOM     27  C   UNL A   1      40.386  28.937  29.243  1.00  0.00     0.034 A 
ATOM     28  C   UNL A   1      46.560  28.924  26.741  1.00  0.00     0.049 A 
ATOM     29  C   UNL A   1      41.495  29.949  29.196  1.00  0.00     0.074 A 
ATOM     30  C   UNL A   1      47.460  29.969  26.778  1.00  0.00     0.029 A 
ATOM     31  N   UNL A   1      45.400  29.359  27.370  1.00  0.00    -0.354 N 
ATOM     32  N   UNL A   1      42.668  29.852  28.612  1.00  0.00    -0.248 NA
ATOM     33  C   UNL A   1      41.266  31.223  29.883  1.00  0.00     0.031 C 
ATOM     34  C   UNL A   1      46.850  31.028  27.455  1.00  0.00     0.029 A 
ATOM     35  C   UNL A   1      45.560  30.656  27.810  1.00  0.00     0.049 A 
ATOM     36  H   UNL A   1      44.584  28.820  27.485  1.00  0.00     0.167 HD
ATOM     37  C   UNL A   1      43.318  31.052  28.853  1.00  0.00     0.074 A 
ATOM     38  C   UNL A   1      42.389  31.874  29.610  1.00  0.00     0.031 C 
ATOM     39  C   UNL A   1      44.572  31.437  28.513  1.00  0.00     0.034 A 
BRANCH  26  40
ATOM     40  C   UNL A   1      48.025  27.252  25.517  1.00  0.00     0.023 A 
ATOM     41  C   UNL A   1      49.067  26.667  26.262  1.00  0.00     0.012 A 
ATOM     42  C   UNL A   1      48.197  27.472  24.137  1.00  0.00     0.148 A 
ATOM     43  C   UNL A   1      50.268  26.321  25.644  1.00  0.00     0.002 A 
ATOM     44  C   UNL A   1      49.378  27.084  23.520  1.00  0.00     0.091 A 
ATOM     45  F   UNL A   1      47.203  28.062  23.457  1.00  0.00    -0.205 F 
ATOM     46  C   UNL A   1      50.420  26.519  24.273  1.00  0.00     0.022 A 
BRANCH  44  47
ATOM     47  S   UNL A   1      49.646  27.238  21.752  1.00  0.00     0.127 S 
ATOM     48  O   UNL A   1      51.033  26.789  21.621  1.00  0.00    -0.237 OA
ATOM     49  O   UNL A   1      48.652  26.311  21.214  1.00  0.00    -0.237 OA
ATOM     50  O   UNL A   1      49.424  28.639  21.427  1.00  0.00    -0.744 OA
ENDBRANCH  44  47
ENDBRANCH  26  40
BRANCH  27  51
ATOM     51  C   UNL A   1      39.074  29.207  29.900  1.00  0.00     0.023 A 
ATOM     52  C   UNL A   1      38.788  28.636  31.153  1.00  0.00     0.012 A 
ATOM     53  C   UNL A   1      38.120  30.062  29.307  1.00  0.00     0.148 A 
ATOM     54  C   UNL A   1      37.573  28.893  31.792  1.00  0.00     0.002 A 
ATOM     55  C   UNL A   1      36.938  30.362  29.976  1.00  0.00     0.091 A 
ATOM     56  F   UNL A   1      38.391  30.583  28.102  1.00  0.00    -0.205 F 
ATOM     57  C   UNL A   1      36.655  29.764  31.212  1.00  0.00     0.022 A 
BRANCH  55  58
ATOM     58  S   UNL A   1      35.765  31.579  29.362  1.00  0.00     0.127 S 
ATOM     59  O   UNL A   1      36.653  32.633  28.881  1.00  0.00    -0.237 OA
ATOM     60  O   UNL A   1      35.073  30.830  28.312  1.00  0.00    -0.237 OA
ATOM     61  O   UNL A   1      34.926  31.925  30.500  1.00  0.00    -0.744 OA
ENDBRANCH  55  58
ENDBRANCH  27  51
BRANCH  39  62
ATOM     62  C   UNL A   1      45.005  32.809  28.935  1.00  0.00     0.023 A 
ATOM     63  C   UNL A   1      44.665  33.917  28.138  1.00  0.00     0.012 A 
ATOM     64  C   UNL A   1      45.598  33.002  30.196  1.00  0.00     0.148 A 
ATOM     65  C   UNL A   1      44.916  35.209  28.593  1.00  0.00     0.002 A 
ATOM     66  C   UNL A   1      45.789  34.290  30.667  1.00  0.00     0.091 A 
ATOM     67  F   UNL A   1      45.920  31.921  30.922  1.00  0.00    -0.205 F 
ATOM     68  C   UNL A   1      45.458  35.395  29.864  1.00  0.00     0.022 A 
BRANCH  66  69
ATOM     69  S   UNL A   1      46.357  34.626  32.336  1.00  0.00     0.127 S 
ATOM     70  O   UNL A   1      47.683  34.010  32.327  1.00  0.00    -0.237 OA
ATOM     71  O   UNL A   1      46.361  36.089  32.372  1.00  0.00    -0.237 OA
ATOM     72  O   UNL A   1      45.390  34.000  33.227  1.00  0.00    -0.744 OA
ENDBRANCH  66  69
ENDBRANCH  39  62
ENDBRANCH  13  14
ENDBRANCH   6   8
ENDBRANCH   5   6
ENDBRANCH   4   5
ENDBRANCH   3   4
ENDBRANCH   2   3
ENDBRANCH   1   2
BRANCH   1  73
ATOM     73  C   UNL A   1      37.540  23.687  26.152  1.00  0.00     0.261 C 
BRANCH  73  74
ATOM     74  O   UNL A   1      36.467  23.774  25.182  1.00  0.00    -0.463 OA
BRANCH  74  75
ATOM     75  C   UNL A   1      35.189  23.733  25.663  1.00  0.00     0.315 C 
ATOM     76  O   UNL A   1      34.825  23.061  26.620  1.00  0.00    -0.252 OA
BRANCH  75  77
ATOM     77  C   UNL A   1      34.234  24.651  24.908  1.00  0.00     0.163 C 
ATOM     78  C   UNL A   1      33.952  25.975  25.627  1.00  0.00     0.278 C 
ATOM     79  C   UNL A   1      32.865  24.016  24.722  1.00  0.00     0.067 C 
ATOM     80  N   UNL A   1      32.504  26.255  25.463  1.00  0.00    -0.331 N 
ATOM     81  C   UNL A   1      31.934  24.928  25.515  1.00  0.00     0.267 C 
ATOM     82  H   UNL A   1      32.139  26.875  26.186  1.00  0.00     0.348 HD
BRANCH  79  83
ATOM     83  C   UNL A   1      32.403  23.682  23.328  1.00  0.00    -0.001 C 
ATOM     84  C   UNL A   1      33.267  23.175  22.192  1.00  0.00     0.004 C 
ATOM     85  C   UNL A   1      32.217  22.284  22.775  1.00  0.00     0.004 C 
ENDBRANCH  79  83
BRANCH  80  86
ATOM     86  C   UNL A   1      32.129  27.072  24.285  1.00  0.00     0.304 C 
BRANCH  86  87
ATOM     87  C   UNL A   1      30.921  28.077  24.236  1.00  0.00     0.290 C 
BRANCH  87  88
ATOM     88  O   UNL A   1      30.445  28.427  22.922  1.00  0.00    -0.488 OA
BRANCH  88  89
ATOM     89  C   UNL A   1      29.646  29.546  22.849  1.00  0.00     0.119 A 
ATOM     90  C   UNL A   1      28.989  29.729  21.626  1.00  0.00     0.049 A 
ATOM     91  C   UNL A   1      29.535  30.526  23.843  1.00  0.00     0.049 A 
ATOM     92  C   UNL A   1      28.404  30.958  21.316  1.00  0.00     0.043 A 
ATOM     93  C   UNL A   1      28.916  31.751  23.542  1.00  0.00     0.043 A 
ATOM     94  C   UNL A   1      28.395  31.968  22.269  1.00  0.00     0.123 A 
ATOM     95  F   UNL A   1      27.914  33.175  21.945  1.00  0.00    -0.207 F 
ENDBRANCH  88  89
ENDBRANCH  87  88
ENDBRANCH  86  87
ENDBRANCH  80  86
ENDBRANCH  75  77
ENDBRANCH  74  75
ENDBRANCH  73  74
ENDBRANCH   1  73
TORSDOF 22
ENDMDL
MODEL 3
REMARK VINA RESULT:     -10.0      3.128      4.238
REMARK SMILES O=C(OCCOCCOC(=O)[C@@H]1C[N@@H+](CCOc2ccc(F)cc2)C[C@H]1C1CC1)c1ccc(-c2c3nc(c(-c4cccc(S(=O)(=O)[O-])c4F)c4ccc([nH]4)c(-c4cccc(S(=O)(=O)[O-])c4F)c4nc(c(-c5cccc(S(=O)(=O)[O-])c5F)c5ccc2[nH]5)C=C4)C=C3)cc1
REMARK SMILES IDX 7 1 6 2 5 3 4 4 3 5 2 6 1 7 30 8 31 9 92 10 32 11 91 12
REMARK SMILES IDX 33 13 34 14 35 15 85 16 36 17 90 18 84 19 86 20 37 21 89 22
REMARK SMILES IDX 83 23 82 24 38 26 70 27 50 28 69 29 51 30 54 31 68 32 87 33
REMARK SMILES IDX 52 34 53 35 67 37 88 38 55 39 39 40 40 41 48 42 41 43 43 44
REMARK SMILES IDX 49 45 42 46 44 47 45 48 46 49 47 50 71 51 72 52 80 53 73 54
REMARK SMILES IDX 75 55 81 56 74 57 76 58 77 59 78 60 79 61 56 62 57 63 65 64
REMARK SMILES IDX 58 65 60 66 66 67 59 68 61 69 62 70 63 71 64 72 8 73 9 74
REMARK SMILES IDX 10 75 11 76 12 77 13 78 26 79 14 80 25 81 27 83 28 84 29 85
REMARK SMILES IDX 15 86 16 87 17 88 18 89 19 90 24 91 20 92 23 93 21 94 22 95
REMARK H PARENT 86 25 54 36 14 82
REMARK Flexibility Score: inf
ROOT
ATOM      1  C   UNL A   1      34.447  20.464  24.876  1.00  0.00     0.202 C 
ENDROOT
BRANCH   1   2
ATOM      2  O   UNL A   1      35.808  20.602  25.275  1.00  0.00    -0.374 OA
BRANCH   2   3
ATOM      3  C   UNL A   1      36.509  21.617  24.569  1.00  0.00     0.202 C 
BRANCH   3   4
ATOM      4  C   UNL A   1      37.115  22.755  25.396  1.00  0.00     0.261 C 
BRANCH   4   5
ATOM      5  O   UNL A   1      38.539  22.664  25.387  1.00  0.00    -0.460 OA
BRANCH   5   6
ATOM      6  C   UNL A   1      39.296  22.811  26.514  1.00  0.00     0.338 C 
ATOM      7  O   UNL A   1      39.843  21.855  27.014  1.00  0.00    -0.246 OA
BRANCH   6   8
ATOM      8  C   UNL A   1      39.619  24.196  26.983  1.00  0.00     0.060 A 
ATOM      9  C   UNL A   1      40.081  25.225  26.159  1.00  0.00     0.016 A 
ATOM     10  C   UNL A   1      39.418  24.466  28.342  1.00  0.00     0.016 A 
ATOM     11  C   UNL A   1      40.456  26.442  26.664  1.00  0.00     0.010 A 
ATOM     12  C   UNL A   1      39.701  25.735  28.850  1.00  0.00     0.010 A 
ATOM     13  C   UNL A   1      40.231  26.714  28.003  1.00  0.00    -0.014 A 
BRANCH  13  14
ATOM     14  C   UNL A   1      40.661  28.036  28.457  1.00  0.00     0.031 A 
ATOM     15  C   UNL A   1      42.101  28.386  28.307  1.00  0.00     0.074 A 
ATOM     16  C   UNL A   1      39.718  28.930  28.810  1.00  0.00     0.049 A 
ATOM     17  N   UNL A   1      42.723  29.453  28.707  1.00  0.00    -0.248 NA
ATOM     18  C   UNL A   1      42.955  27.410  27.600  1.00  0.00     0.031 C 
ATOM     19  C   UNL A   1      38.271  28.675  28.808  1.00  0.00     0.029 A 
ATOM     20  N   UNL A   1      39.820  30.235  29.196  1.00  0.00    -0.354 N 
ATOM     21  C   UNL A   1      44.055  29.241  28.387  1.00  0.00     0.074 A 
ATOM     22  C   UNL A   1      44.151  27.967  27.715  1.00  0.00     0.031 C 
ATOM     23  C   UNL A   1      37.622  29.796  29.149  1.00  0.00     0.029 A 
ATOM     24  C   UNL A   1      38.607  30.806  29.505  1.00  0.00     0.049 A 
ATOM     25  H   UNL A   1      40.675  30.720  29.246  1.00  0.00     0.167 HD
ATOM     26  C   UNL A   1      45.095  30.053  28.662  1.00  0.00     0.034 A 
ATOM     27  C   UNL A   1      38.342  31.992  30.083  1.00  0.00     0.034 A 
ATOM     28  C   UNL A   1      44.924  31.328  29.295  1.00  0.00     0.049 A 
ATOM     29  C   UNL A   1      39.527  32.847  30.431  1.00  0.00     0.074 A 
ATOM     30  C   UNL A   1      45.890  32.237  29.674  1.00  0.00     0.029 A 
ATOM     31  N   UNL A   1      43.691  31.868  29.640  1.00  0.00    -0.354 N 
ATOM     32  N   UNL A   1      40.796  32.635  30.168  1.00  0.00    -0.248 NA
ATOM     33  C   UNL A   1      39.261  34.089  31.162  1.00  0.00     0.031 C 
ATOM     34  C   UNL A   1      45.238  33.319  30.273  1.00  0.00     0.029 A 
ATOM     35  C   UNL A   1      43.867  33.099  30.237  1.00  0.00     0.049 A 
ATOM     36  H   UNL A   1      42.821  31.437  29.481  1.00  0.00     0.167 HD
ATOM     37  C   UNL A   1      41.484  33.717  30.693  1.00  0.00     0.074 A 
ATOM     38  C   UNL A   1      40.481  34.602  31.260  1.00  0.00     0.031 C 
ATOM     39  C   UNL A   1      42.818  33.955  30.734  1.00  0.00     0.034 A 
BRANCH  26  40
ATOM     40  C   UNL A   1      46.474  29.564  28.332  1.00  0.00     0.023 A 
ATOM     41  C   UNL A   1      47.073  29.886  27.099  1.00  0.00     0.012 A 
ATOM     42  C   UNL A   1      47.187  28.793  29.271  1.00  0.00     0.148 A 
ATOM     43  C   UNL A   1      48.358  29.435  26.800  1.00  0.00     0.002 A 
ATOM     44  C   UNL A   1      48.482  28.386  28.984  1.00  0.00     0.091 A 
ATOM     45  F   UNL A   1      46.582  28.471  30.423  1.00  0.00    -0.205 F 
ATOM     46  C   UNL A   1      49.067  28.696  27.745  1.00  0.00     0.022 A 
BRANCH  44  47
ATOM     47  S   UNL A   1      49.499  27.485  30.158  1.00  0.00     0.127 S 
ATOM     48  O   UNL A   1      48.800  26.201  30.232  1.00  0.00    -0.237 OA
ATOM     49  O   UNL A   1      50.787  27.439  29.468  1.00  0.00    -0.237 OA
ATOM     50  O   UNL A   1      49.485  28.262  31.389  1.00  0.00    -0.744 OA
ENDBRANCH  44  47
ENDBRANCH  26  40
BRANCH  27  51
ATOM     51  C   UNL A   1      36.939  32.389  30.397  1.00  0.00     0.023 A 
ATOM     52  C   UNL A   1      36.394  32.091  31.659  1.00  0.00     0.012 A 
ATOM     53  C   UNL A   1      36.151  33.098  29.465  1.00  0.00     0.148 A 
ATOM     54  C   UNL A   1      35.089  32.472  31.979  1.00  0.00     0.002 A 
ATOM     55  C   UNL A   1      34.874  33.528  29.811  1.00  0.00     0.091 A 
ATOM     56  F   UNL A   1      36.671  33.357  28.256  1.00  0.00    -0.205 F 
ATOM     57  C   UNL A   1      34.335  33.200  31.062  1.00  0.00     0.022 A 
BRANCH  55  58
ATOM     58  S   UNL A   1      33.890  34.585  28.741  1.00  0.00     0.127 S 
ATOM     59  O   UNL A   1      34.781  35.726  28.548  1.00  0.00    -0.237 OA
ATOM     60  O   UNL A   1      33.710  33.739  27.560  1.00  0.00    -0.237 OA
ATOM     61  O   UNL A   1      32.663  34.854  29.476  1.00  0.00    -0.744 OA
ENDBRANCH  55  58
ENDBRANCH  27  51
BRANCH  39  62
ATOM     62  C   UNL A   1      43.268  35.223  31.394  1.00  0.00     0.023 A 
ATOM     63  C   UNL A   1      43.609  35.208  32.759  1.00  0.00     0.012 A 
ATOM     64  C   UNL A   1      43.506  36.373  30.619  1.00  0.00     0.148 A 
ATOM     65  C   UNL A   1      44.182  36.332  33.348  1.00  0.00     0.002 A 
ATOM     66  C   UNL A   1      44.130  37.465  31.199  1.00  0.00     0.091 A 
ATOM     67  F   UNL A   1      43.155  36.354  29.325  1.00  0.00    -0.205 F 
ATOM     68  C   UNL A   1      44.461  37.451  32.564  1.00  0.00     0.022 A 
BRANCH  66  69
ATOM     69  S   UNL A   1      44.645  38.893  30.241  1.00  0.00     0.127 S 
ATOM     70  O   UNL A   1      43.377  39.598  30.056  1.00  0.00    -0.237 OA
ATOM     71  O   UNL A   1      45.583  39.551  31.151  1.00  0.00    -0.237 OA
ATOM     72  O   UNL A   1      45.246  38.369  29.023  1.00  0.00    -0.744 OA
ENDBRANCH  66  69
ENDBRANCH  39  62
ENDBRANCH  13  14
ENDBRANCH   6   8
ENDBRANCH   5   6
ENDBRANCH   4   5
ENDBRANCH   3   4
ENDBRANCH   2   3
ENDBRANCH   1   2
BRANCH   1  73
ATOM     73  C   UNL A   1      33.430  20.370  26.028  1.00  0.00     0.261 C 
BRANCH  73  74
ATOM     74  O   UNL A   1      32.609  21.559  26.145  1.00  0.00    -0.463 OA
BRANCH  74  75
ATOM     75  C   UNL A   1      33.259  22.757  26.237  1.00  0.00     0.315 C 
ATOM     76  O   UNL A   1      34.000  23.080  27.157  1.00  0.00    -0.252 OA
BRANCH  75  77
ATOM     77  C   UNL A   1      33.007  23.669  25.042  1.00  0.00     0.163 C 
ATOM     78  C   UNL A   1      32.971  25.160  25.398  1.00  0.00     0.278 C 
ATOM     79  C   UNL A   1      31.658  23.396  24.395  1.00  0.00     0.067 C 
ATOM     80  N   UNL A   1      31.863  25.763  24.618  1.00  0.00    -0.331 N 
ATOM     81  C   UNL A   1      30.887  24.697  24.606  1.00  0.00     0.267 C 
ATOM     82  H   UNL A   1      31.509  26.623  25.038  1.00  0.00     0.348 HD
BRANCH  79  83
ATOM     83  C   UNL A   1      31.623  22.850  22.993  1.00  0.00    -0.001 C 
ATOM     84  C   UNL A   1      32.816  22.617  22.088  1.00  0.00     0.004 C 
ATOM     85  C   UNL A   1      32.028  21.447  22.586  1.00  0.00     0.004 C 
ENDBRANCH  79  83
BRANCH  80  86
ATOM     86  C   UNL A   1      32.227  26.318  23.293  1.00  0.00     0.304 C 
BRANCH  86  87
ATOM     87  C   UNL A   1      33.077  27.620  23.065  1.00  0.00     0.290 C 
BRANCH  87  88
ATOM     88  O   UNL A   1      32.549  28.829  23.645  1.00  0.00    -0.488 OA
BRANCH  88  89
ATOM     89  C   UNL A   1      32.917  29.082  24.947  1.00  0.00     0.119 A 
ATOM     90  C   UNL A   1      32.070  29.952  25.645  1.00  0.00     0.049 A 
ATOM     91  C   UNL A   1      34.093  28.629  25.558  1.00  0.00     0.049 A 
ATOM     92  C   UNL A   1      32.484  30.525  26.849  1.00  0.00     0.043 A 
ATOM     93  C   UNL A   1      34.493  29.181  26.786  1.00  0.00     0.043 A 
ATOM     94  C   UNL A   1      33.705  30.153  27.396  1.00  0.00     0.123 A 
ATOM     95  F   UNL A   1      34.145  30.766  28.503  1.00  0.00    -0.207 F 
ENDBRANCH  88  89
ENDBRANCH  87  88
ENDBRANCH  86  87
ENDBRANCH  80  86
ENDBRANCH  75  77
ENDBRANCH  74  75
ENDBRANCH  73  74
ENDBRANCH   1  73
TORSDOF 22
ENDMDL
