MODEL 1
REMARK VINA RESULT:     -10.7      0.000      0.000
REMARK SMILES O=C(OCCOCCOC(=O)[C@@H]1[C@@H](C(=O)NCCCn2ccnc2)[C@@H]2C=C[C@H]1C2)c1ccc(-c2c3nc(c(-c4cccc(S(=O)(=O)[O-])c4F)c4ccc([nH]4)c(-c4cccc(S(=O)(=O)[O-])c4F)c4nc(c(-c5cccc(S(=O)(=O)[O-])c5F)c5ccc2[nH]5)C=C4)C=C3)cc1
REMARK SMILES IDX 7 1 6 2 5 3 4 4 3 5 2 6 1 7 30 8 31 9 92 10 32 11 91 12
REMARK SMILES IDX 33 13 34 14 35 15 85 16 36 17 90 18 84 19 86 20 37 21 89 22
REMARK SMILES IDX 83 23 82 24 38 26 70 27 50 28 69 29 51 30 54 31 68 32 87 33
REMARK SMILES IDX 52 34 53 35 67 37 88 38 55 39 39 40 40 41 48 42 41 43 43 44
REMARK SMILES IDX 49 45 42 46 44 47 45 48 46 49 47 50 71 51 72 52 80 53 73 54
REMARK SMILES IDX 75 55 81 56 74 57 76 58 77 59 78 60 79 61 56 62 57 63 65 64
REMARK SMILES IDX 58 65 60 66 66 67 59 68 61 69 62 70 63 71 64 72 8 73 9 74
REMARK SMILES IDX 10 75 11 76 12 77 13 78 28 79 25 80 27 81 29 82 26 83 14 84
REMARK SMILES IDX 15 85 16 86 17 88 18 89 19 90 20 91 21 92 24 93 22 94 23 95
REMARK H PARENT 86 25 54 36 16 87
REMARK Flexibility Score: inf
ROOT
ATOM      1  C   UNL A   1      32.244  29.350  27.185  1.00  0.00     0.202 C 
ENDROOT
BRANCH   1   2
ATOM      2  O   UNL A   1      32.755  30.690  27.244  1.00  0.00    -0.374 OA
BRANCH   2   3
ATOM      3  C   UNL A   1      34.157  30.873  27.369  1.00  0.00     0.202 C 
BRANCH   3   4
ATOM      4  C   UNL A   1      34.731  32.157  27.980  1.00  0.00     0.261 C 
BRANCH   4   5
ATOM      5  O   UNL A   1      34.734  32.133  29.413  1.00  0.00    -0.460 OA
BRANCH   5   6
ATOM      6  C   UNL A   1      35.803  31.929  30.216  1.00  0.00     0.338 C 
ATOM      7  O   UNL A   1      35.735  32.271  31.394  1.00  0.00    -0.246 OA
BRANCH   6   8
ATOM      8  C   UNL A   1      37.006  31.189  29.747  1.00  0.00     0.060 A 
ATOM      9  C   UNL A   1      37.040  29.842  29.387  1.00  0.00     0.016 A 
ATOM     10  C   UNL A   1      38.207  31.911  29.766  1.00  0.00     0.016 A 
ATOM     11  C   UNL A   1      38.232  29.156  29.395  1.00  0.00     0.010 A 
ATOM     12  C   UNL A   1      39.416  31.250  29.661  1.00  0.00     0.010 A 
ATOM     13  C   UNL A   1      39.410  29.861  29.604  1.00  0.00    -0.014 A 
BRANCH  13  14
ATOM     14  C   UNL A   1      40.619  29.071  29.708  1.00  0.00     0.031 A 
ATOM     15  C   UNL A   1      41.075  28.816  31.100  1.00  0.00     0.074 A 
ATOM     16  C   UNL A   1      41.235  28.594  28.611  1.00  0.00     0.049 A 
ATOM     17  N   UNL A   1      42.202  29.139  31.648  1.00  0.00    -0.248 NA
ATOM     18  C   UNL A   1      40.083  28.265  32.035  1.00  0.00     0.031 C 
ATOM     19  C   UNL A   1      40.740  28.585  27.232  1.00  0.00     0.029 A 
ATOM     20  N   UNL A   1      42.378  27.864  28.538  1.00  0.00    -0.354 N 
ATOM     21  C   UNL A   1      42.137  28.638  32.947  1.00  0.00     0.074 A 
ATOM     22  C   UNL A   1      40.766  28.264  33.179  1.00  0.00     0.031 C 
ATOM     23  C   UNL A   1      41.414  27.646  26.534  1.00  0.00     0.029 A 
ATOM     24  C   UNL A   1      42.466  27.109  27.377  1.00  0.00     0.049 A 
ATOM     25  H   UNL A   1      43.072  27.872  29.235  1.00  0.00     0.167 HD
ATOM     26  C   UNL A   1      43.251  28.352  33.671  1.00  0.00     0.034 A 
ATOM     27  C   UNL A   1      43.271  26.040  27.184  1.00  0.00     0.034 A 
ATOM     28  C   UNL A   1      44.414  29.029  33.170  1.00  0.00     0.049 A 
ATOM     29  C   UNL A   1      44.354  26.108  28.193  1.00  0.00     0.074 A 
ATOM     30  C   UNL A   1      44.780  30.351  33.019  1.00  0.00     0.029 A 
ATOM     31  N   UNL A   1      45.282  28.306  32.390  1.00  0.00    -0.354 N 
ATOM     32  N   UNL A   1      45.266  27.040  28.209  1.00  0.00    -0.248 NA
ATOM     33  C   UNL A   1      44.176  25.386  29.443  1.00  0.00     0.031 C 
ATOM     34  C   UNL A   1      45.521  30.390  31.802  1.00  0.00     0.029 A 
ATOM     35  C   UNL A   1      45.600  29.085  31.309  1.00  0.00     0.049 A 
ATOM     36  H   UNL A   1      45.612  27.397  32.573  1.00  0.00     0.167 HD
ATOM     37  C   UNL A   1      45.457  27.319  29.556  1.00  0.00     0.074 A 
ATOM     38  C   UNL A   1      44.850  26.194  30.266  1.00  0.00     0.031 C 
ATOM     39  C   UNL A   1      45.827  28.566  29.977  1.00  0.00     0.034 A 
BRANCH  26  40
ATOM     40  C   UNL A   1      43.341  27.204  34.642  1.00  0.00     0.023 A 
ATOM     41  C   UNL A   1      43.275  27.491  36.022  1.00  0.00     0.012 A 
ATOM     42  C   UNL A   1      43.736  25.897  34.274  1.00  0.00     0.148 A 
ATOM     43  C   UNL A   1      43.606  26.528  36.984  1.00  0.00     0.002 A 
ATOM     44  C   UNL A   1      43.976  24.920  35.233  1.00  0.00     0.091 A 
ATOM     45  F   UNL A   1      44.022  25.618  32.999  1.00  0.00    -0.205 F 
ATOM     46  C   UNL A   1      43.940  25.237  36.590  1.00  0.00     0.022 A 
BRANCH  44  47
ATOM     47  S   UNL A   1      44.338  23.226  34.756  1.00  0.00     0.127 S 
ATOM     48  O   UNL A   1      44.677  22.625  36.048  1.00  0.00    -0.237 OA
ATOM     49  O   UNL A   1      43.054  22.792  34.197  1.00  0.00    -0.237 OA
ATOM     50  O   UNL A   1      45.408  23.319  33.784  1.00  0.00    -0.744 OA
ENDBRANCH  44  47
ENDBRANCH  26  40
BRANCH  27  51
ATOM     51  C   UNL A   1      42.983  24.816  26.404  1.00  0.00     0.023 A 
ATOM     52  C   UNL A   1      43.881  24.403  25.405  1.00  0.00     0.012 A 
ATOM     53  C   UNL A   1      41.966  23.920  26.806  1.00  0.00     0.148 A 
ATOM     54  C   UNL A   1      43.783  23.128  24.836  1.00  0.00     0.002 A 
ATOM     55  C   UNL A   1      41.864  22.659  26.228  1.00  0.00     0.091 A 
ATOM     56  F   UNL A   1      41.159  24.266  27.818  1.00  0.00    -0.205 F 
ATOM     57  C   UNL A   1      42.779  22.255  25.250  1.00  0.00     0.022 A 
BRANCH  55  58
ATOM     58  S   UNL A   1      40.603  21.479  26.726  1.00  0.00     0.127 S 
ATOM     59  O   UNL A   1      41.012  20.275  26.001  1.00  0.00    -0.237 OA
ATOM     60  O   UNL A   1      40.799  21.420  28.172  1.00  0.00    -0.237 OA
ATOM     61  O   UNL A   1      39.334  22.040  26.280  1.00  0.00    -0.744 OA
ENDBRANCH  55  58
ENDBRANCH  27  51
BRANCH  39  62
ATOM     62  C   UNL A   1      46.226  29.578  28.926  1.00  0.00     0.023 A 
ATOM     63  C   UNL A   1      47.531  29.615  28.388  1.00  0.00     0.012 A 
ATOM     64  C   UNL A   1      45.232  30.377  28.337  1.00  0.00     0.148 A 
ATOM     65  C   UNL A   1      47.845  30.449  27.311  1.00  0.00     0.002 A 
ATOM     66  C   UNL A   1      45.535  31.169  27.235  1.00  0.00     0.091 A 
ATOM     67  F   UNL A   1      43.992  30.325  28.846  1.00  0.00    -0.205 F 
ATOM     68  C   UNL A   1      46.844  31.217  26.726  1.00  0.00     0.022 A 
BRANCH  66  69
ATOM     69  S   UNL A   1      44.263  32.072  26.348  1.00  0.00     0.127 S 
ATOM     70  O   UNL A   1      43.282  31.026  26.069  1.00  0.00    -0.237 OA
ATOM     71  O   UNL A   1      43.834  33.066  27.335  1.00  0.00    -0.237 OA
ATOM     72  O   UNL A   1      44.923  32.645  25.181  1.00  0.00    -0.744 OA
ENDBRANCH  66  69
ENDBRANCH  39  62
ENDBRANCH  13  14
ENDBRANCH   6   8
ENDBRANCH   5   6
ENDBRANCH   4   5
ENDBRANCH   3   4
ENDBRANCH   2   3
ENDBRANCH   1   2
BRANCH   1  73
ATOM     73  C   UNL A   1      32.219  28.583  25.850  1.00  0.00     0.261 C 
BRANCH  73  74
ATOM     74  O   UNL A   1      31.818  27.202  25.972  1.00  0.00    -0.463 OA
BRANCH  74  75
ATOM     75  C   UNL A   1      30.908  26.785  25.048  1.00  0.00     0.310 C 
ATOM     76  O   UNL A   1      30.182  27.550  24.424  1.00  0.00    -0.252 OA
BRANCH  75  77
ATOM     77  C   UNL A   1      30.847  25.262  24.927  1.00  0.00     0.119 C 
ATOM     78  C   UNL A   1      32.124  24.374  25.297  1.00  0.00     0.100 C 
ATOM     79  C   UNL A   1      30.620  24.872  23.439  1.00  0.00     0.027 C 
ATOM     80  C   UNL A   1      32.351  23.577  23.993  1.00  0.00     0.025 C 
ATOM     81  C   UNL A   1      31.805  25.324  22.609  1.00  0.00    -0.027 C 
ATOM     82  C   UNL A   1      30.927  23.378  23.478  1.00  0.00     0.017 C 
ATOM     83  C   UNL A   1      32.851  24.564  22.958  1.00  0.00    -0.027 C 
BRANCH  78  84
ATOM     84  C   UNL A   1      31.866  23.579  26.578  1.00  0.00     0.224 C 
ATOM     85  O   UNL A   1      30.861  23.805  27.260  1.00  0.00    -0.275 OA
ATOM     86  N   UNL A   1      32.738  22.696  27.131  1.00  0.00    -0.356 N 
ATOM     87  H   UNL A   1      32.568  22.534  28.087  1.00  0.00     0.163 HD
BRANCH  86  88
ATOM     88  C   UNL A   1      33.865  21.939  26.616  1.00  0.00     0.117 C 
BRANCH  88  89
ATOM     89  C   UNL A   1      33.594  20.439  26.416  1.00  0.00     0.043 C 
BRANCH  89  90
ATOM     90  C   UNL A   1      33.404  19.931  24.983  1.00  0.00     0.125 C 
BRANCH  90  91
ATOM     91  N   UNL A   1      33.339  18.493  24.832  1.00  0.00    -0.337 N 
ATOM     92  C   UNL A   1      32.573  17.628  25.559  1.00  0.00     0.107 A 
ATOM     93  C   UNL A   1      34.153  17.742  24.028  1.00  0.00     0.199 A 
ATOM     94  C   UNL A   1      32.940  16.374  25.127  1.00  0.00     0.130 A 
ATOM     95  N   UNL A   1      33.916  16.456  24.169  1.00  0.00    -0.245 NA
ENDBRANCH  90  91
ENDBRANCH  89  90
ENDBRANCH  88  89
ENDBRANCH  86  88
ENDBRANCH  78  84
ENDBRANCH  75  77
ENDBRANCH  74  75
ENDBRANCH  73  74
ENDBRANCH   1  73
TORSDOF 22
ENDMDL
MODEL 2
REMARK VINA RESULT:     -10.6      3.752      7.690
REMARK SMILES O=C(OCCOCCOC(=O)[C@@H]1[C@@H](C(=O)NCCCn2ccnc2)[C@@H]2C=C[C@H]1C2)c1ccc(-c2c3nc(c(-c4cccc(S(=O)(=O)[O-])c4F)c4ccc([nH]4)c(-c4cccc(S(=O)(=O)[O-])c4F)c4nc(c(-c5cccc(S(=O)(=O)[O-])c5F)c5ccc2[nH]5)C=C4)C=C3)cc1
REMARK SMILES IDX 7 1 6 2 5 3 4 4 3 5 2 6 1 7 30 8 31 9 92 10 32 11 91 12
REMARK SMILES IDX 33 13 34 14 35 15 85 16 36 17 90 18 84 19 86 20 37 21 89 22
REMARK SMILES IDX 83 23 82 24 38 26 70 27 50 28 69 29 51 30 54 31 68 32 87 33
REMARK SMILES IDX 52 34 53 35 67 37 88 38 55 39 39 40 40 41 48 42 41 43 43 44
REMARK SMILES IDX 49 45 42 46 44 47 45 48 46 49 47 50 71 51 72 52 80 53 73 54
REMARK SMILES IDX 75 55 81 56 74 57 76 58 77 59 78 60 79 61 56 62 57 63 65 64
REMARK SMILES IDX 58 65 60 66 66 67 59 68 61 69 62 70 63 71 64 72 8 73 9 74
REMARK SMILES IDX 10 75 11 76 12 77 13 78 28 79 25 80 27 81 29 82 26 83 14 84
REMARK SMILES IDX 15 85 16 86 17 88 18 89 19 90 20 91 21 92 24 93 22 94 23 95
REMARK H PARENT 86 25 54 36 16 87
REMARK Flexibility Score: inf
ROOT
ATOM      1  C   UNL A   1      33.608  29.109  25.584  1.00  0.00     0.202 C 
ENDROOT
BRANCH   1   2
ATOM      2  O   UNL A   1      32.487  29.955  25.292  1.00  0.00    -0.374 OA
BRANCH   2   3
ATOM      3  C   UNL A   1      31.901  30.691  26.355  1.00  0.00     0.202 C 
BRANCH   3   4
ATOM      4  C   UNL A   1      32.764  31.554  27.284  1.00  0.00     0.261 C 
BRANCH   4   5
ATOM      5  O   UNL A   1      32.248  32.881  27.442  1.00  0.00    -0.460 OA
BRANCH   5   6
ATOM      6  C   UNL A   1      32.840  33.908  28.093  1.00  0.00     0.338 C 
ATOM      7  O   UNL A   1      32.160  34.879  28.416  1.00  0.00    -0.246 OA
BRANCH   6   8
ATOM      8  C   UNL A   1      34.259  33.839  28.539  1.00  0.00     0.060 A 
ATOM      9  C   UNL A   1      35.369  34.187  27.769  1.00  0.00     0.016 A 
ATOM     10  C   UNL A   1      34.468  33.288  29.810  1.00  0.00     0.016 A 
ATOM     11  C   UNL A   1      36.611  33.690  28.086  1.00  0.00     0.010 A 
ATOM     12  C   UNL A   1      35.733  32.886  30.193  1.00  0.00     0.010 A 
ATOM     13  C   UNL A   1      36.767  32.979  29.268  1.00  0.00    -0.014 A 
BRANCH  13  14
ATOM     14  C   UNL A   1      38.071  32.391  29.494  1.00  0.00     0.031 A 
ATOM     15  C   UNL A   1      38.168  30.948  29.151  1.00  0.00     0.074 A 
ATOM     16  C   UNL A   1      39.098  33.131  29.947  1.00  0.00     0.049 A 
ATOM     17  N   UNL A   1      38.481  29.957  29.924  1.00  0.00    -0.248 NA
ATOM     18  C   UNL A   1      37.709  30.549  27.812  1.00  0.00     0.031 C 
ATOM     19  C   UNL A   1      39.170  34.589  30.081  1.00  0.00     0.029 A 
ATOM     20  N   UNL A   1      40.365  32.730  30.230  1.00  0.00    -0.354 N 
ATOM     21  C   UNL A   1      38.461  28.830  29.105  1.00  0.00     0.074 A 
ATOM     22  C   UNL A   1      37.826  29.223  27.874  1.00  0.00     0.031 C 
ATOM     23  C   UNL A   1      40.467  34.959  30.126  1.00  0.00     0.029 A 
ATOM     24  C   UNL A   1      41.289  33.764  30.170  1.00  0.00     0.049 A 
ATOM     25  H   UNL A   1      40.602  31.801  30.456  1.00  0.00     0.167 HD
ATOM     26  C   UNL A   1      39.168  27.707  29.399  1.00  0.00     0.034 A 
ATOM     27  C   UNL A   1      42.627  33.627  30.043  1.00  0.00     0.034 A 
ATOM     28  C   UNL A   1      39.523  27.637  30.789  1.00  0.00     0.049 A 
ATOM     29  C   UNL A   1      42.977  32.248  30.459  1.00  0.00     0.074 A 
ATOM     30  C   UNL A   1      38.815  27.573  31.972  1.00  0.00     0.029 A 
ATOM     31  N   UNL A   1      40.804  27.991  31.134  1.00  0.00    -0.354 N 
ATOM     32  N   UNL A   1      42.850  31.811  31.681  1.00  0.00    -0.248 NA
ATOM     33  C   UNL A   1      43.064  31.221  29.434  1.00  0.00     0.031 C 
ATOM     34  C   UNL A   1      39.573  28.350  32.896  1.00  0.00     0.029 A 
ATOM     35  C   UNL A   1      40.717  28.804  32.234  1.00  0.00     0.049 A 
ATOM     36  H   UNL A   1      41.630  27.713  30.676  1.00  0.00     0.167 HD
ATOM     37  C   UNL A   1      42.401  30.505  31.541  1.00  0.00     0.074 A 
ATOM     38  C   UNL A   1      42.664  30.162  30.144  1.00  0.00     0.031 C 
ATOM     39  C   UNL A   1      41.597  29.925  32.482  1.00  0.00     0.034 A 
BRANCH  26  40
ATOM     40  C   UNL A   1      39.809  26.830  28.357  1.00  0.00     0.023 A 
ATOM     41  C   UNL A   1      39.526  25.448  28.381  1.00  0.00     0.012 A 
ATOM     42  C   UNL A   1      40.864  27.256  27.517  1.00  0.00     0.148 A 
ATOM     43  C   UNL A   1      40.271  24.537  27.621  1.00  0.00     0.002 A 
ATOM     44  C   UNL A   1      41.540  26.360  26.697  1.00  0.00     0.091 A 
ATOM     45  F   UNL A   1      41.322  28.509  27.601  1.00  0.00    -0.205 F 
ATOM     46  C   UNL A   1      41.268  24.994  26.767  1.00  0.00     0.022 A 
BRANCH  44  47
ATOM     47  S   UNL A   1      42.781  26.931  25.530  1.00  0.00     0.127 S 
ATOM     48  O   UNL A   1      42.945  25.750  24.678  1.00  0.00    -0.237 OA
ATOM     49  O   UNL A   1      42.095  28.058  24.890  1.00  0.00    -0.237 OA
ATOM     50  O   UNL A   1      43.923  27.311  26.336  1.00  0.00    -0.744 OA
ENDBRANCH  44  47
ENDBRANCH  26  40
BRANCH  27  51
ATOM     51  C   UNL A   1      43.561  34.494  29.292  1.00  0.00     0.023 A 
ATOM     52  C   UNL A   1      43.793  34.248  27.928  1.00  0.00     0.012 A 
ATOM     53  C   UNL A   1      44.028  35.710  29.845  1.00  0.00     0.148 A 
ATOM     54  C   UNL A   1      44.452  35.192  27.131  1.00  0.00     0.002 A 
ATOM     55  C   UNL A   1      44.695  36.638  29.052  1.00  0.00     0.091 A 
ATOM     56  F   UNL A   1      43.738  35.996  31.121  1.00  0.00    -0.205 F 
ATOM     57  C   UNL A   1      44.899  36.387  27.691  1.00  0.00     0.022 A 
BRANCH  55  58
ATOM     58  S   UNL A   1      45.284  38.205  29.706  1.00  0.00     0.127 S 
ATOM     59  O   UNL A   1      44.033  38.866  30.081  1.00  0.00    -0.237 OA
ATOM     60  O   UNL A   1      46.109  37.772  30.831  1.00  0.00    -0.237 OA
ATOM     61  O   UNL A   1      45.995  38.852  28.611  1.00  0.00    -0.744 OA
ENDBRANCH  55  58
ENDBRANCH  27  51
BRANCH  39  62
ATOM     62  C   UNL A   1      41.381  30.668  33.782  1.00  0.00     0.023 A 
ATOM     63  C   UNL A   1      42.301  30.582  34.849  1.00  0.00     0.012 A 
ATOM     64  C   UNL A   1      40.341  31.609  33.864  1.00  0.00     0.148 A 
ATOM     65  C   UNL A   1      42.170  31.391  35.982  1.00  0.00     0.002 A 
ATOM     66  C   UNL A   1      40.242  32.446  34.969  1.00  0.00     0.091 A 
ATOM     67  F   UNL A   1      39.479  31.692  32.838  1.00  0.00    -0.205 F 
ATOM     68  C   UNL A   1      41.148  32.333  36.037  1.00  0.00     0.022 A 
BRANCH  66  69
ATOM     69  S   UNL A   1      39.035  33.773  35.039  1.00  0.00     0.127 S 
ATOM     70  O   UNL A   1      37.772  33.038  35.046  1.00  0.00    -0.237 OA
ATOM     71  O   UNL A   1      39.364  34.434  36.304  1.00  0.00    -0.237 OA
ATOM     72  O   UNL A   1      39.281  34.595  33.860  1.00  0.00    -0.744 OA
ENDBRANCH  66  69
ENDBRANCH  39  62
ENDBRANCH  13  14
ENDBRANCH   6   8
ENDBRANCH   5   6
ENDBRANCH   4   5
ENDBRANCH   3   4
ENDBRANCH   2   3
ENDBRANCH   1   2
BRANCH   1  73
ATOM     73  C   UNL A   1      33.572  28.154  26.791  1.00  0.00     0.261 C 
BRANCH  73  74
ATOM     74  O   UNL A   1      32.956  26.879  26.514  1.00  0.00    -0.463 OA
BRANCH  74  75
ATOM     75  C   UNL A   1      31.613  26.829  26.734  1.00  0.00     0.310 C 
ATOM     76  O   UNL A   1      31.033  27.558  27.532  1.00  0.00    -0.252 OA
BRANCH  75  77
ATOM     77  C   UNL A   1      30.924  25.726  25.930  1.00  0.00     0.119 C 
ATOM     78  C   UNL A   1      31.762  24.470  25.406  1.00  0.00     0.100 C 
ATOM     79  C   UNL A   1      30.387  26.318  24.597  1.00  0.00     0.027 C 
ATOM     80  C   UNL A   1      31.493  24.516  23.884  1.00  0.00     0.025 C 
ATOM     81  C   UNL A   1      31.549  26.806  23.754  1.00  0.00    -0.027 C 
ATOM     82  C   UNL A   1      30.062  25.045  23.821  1.00  0.00     0.017 C 
ATOM     83  C   UNL A   1      32.228  25.726  23.346  1.00  0.00    -0.027 C 
BRANCH  78  84
ATOM     84  C   UNL A   1      31.354  23.204  26.161  1.00  0.00     0.224 C 
ATOM     85  O   UNL A   1      30.298  22.626  25.882  1.00  0.00    -0.275 OA
ATOM     86  N   UNL A   1      32.007  22.701  27.241  1.00  0.00    -0.356 N 
ATOM     87  H   UNL A   1      31.445  22.104  27.786  1.00  0.00     0.163 HD
BRANCH  86  88
ATOM     88  C   UNL A   1      33.352  22.854  27.764  1.00  0.00     0.117 C 
BRANCH  88  89
ATOM     89  C   UNL A   1      34.277  21.650  27.521  1.00  0.00     0.043 C 
BRANCH  89  90
ATOM     90  C   UNL A   1      34.754  21.392  26.088  1.00  0.00     0.125 C 
BRANCH  90  91
ATOM     91  N   UNL A   1      33.799  20.738  25.218  1.00  0.00    -0.337 N 
ATOM     92  C   UNL A   1      33.378  21.170  23.993  1.00  0.00     0.107 A 
ATOM     93  C   UNL A   1      33.043  19.645  25.548  1.00  0.00     0.199 A 
ATOM     94  C   UNL A   1      32.396  20.282  23.618  1.00  0.00     0.130 A 
ATOM     95  N   UNL A   1      32.202  19.334  24.587  1.00  0.00    -0.245 NA
ENDBRANCH  90  91
ENDBRANCH  89  90
ENDBRANCH  88  89
ENDBRANCH  86  88
ENDBRANCH  78  84
ENDBRANCH  75  77
ENDBRANCH  74  75
ENDBRANCH  73  74
ENDBRANCH   1  73
TORSDOF 22
ENDMDL
MODEL 3
REMARK VINA RESULT:     -10.5      1.967      3.742
REMARK SMILES O=C(OCCOCCOC(=O)[C@@H]1[C@@H](C(=O)NCCCn2ccnc2)[C@@H]2C=C[C@H]1C2)c1ccc(-c2c3nc(c(-c4cccc(S(=O)(=O)[O-])c4F)c4ccc([nH]4)c(-c4cccc(S(=O)(=O)[O-])c4F)c4nc(c(-c5cccc(S(=O)(=O)[O-])c5F)c5ccc2[nH]5)C=C4)C=C3)cc1
REMARK SMILES IDX 7 1 6 2 5 3 4 4 3 5 2 6 1 7 30 8 31 9 92 10 32 11 91 12
REMARK SMILES IDX 33 13 34 14 35 15 85 16 36 17 90 18 84 19 86 20 37 21 89 22
REMARK SMILES IDX 83 23 82 24 38 26 70 27 50 28 69 29 51 30 54 31 68 32 87 33
REMARK SMILES IDX 52 34 53 35 67 37 88 38 55 39 39 40 40 41 48 42 41 43 43 44
REMARK SMILES IDX 49 45 42 46 44 47 45 48 46 49 47 50 71 51 72 52 80 53 73 54
REMARK SMILES IDX 75 55 81 56 74 57 76 58 77 59 78 60 79 61 56 62 57 63 65 64
REMARK SMILES IDX 58 65 60 66 66 67 59 68 61 69 62 70 63 71 64 72 8 73 9 74
REMARK SMILES IDX 10 75 11 76 12 77 13 78 28 79 25 80 27 81 29 82 26 83 14 84
REMARK SMILES IDX 15 85 16 86 17 88 18 89 19 90 20 91 21 92 24 93 22 94 23 95
REMARK H PARENT 86 25 54 36 16 87
REMARK Flexibility Score: inf
ROOT
ATOM      1  C   UNL A   1      32.909  29.062  24.371  1.00  0.00     0.202 C 
ENDROOT
BRANCH   1   2
ATOM      2  O   UNL A   1      33.104  29.148  25.790  1.00  0.00    -0.374 OA
BRANCH   2   3
ATOM      3  C   UNL A   1      33.372  30.420  26.360  1.00  0.00     0.202 C 
BRANCH   3   4
ATOM      4  C   UNL A   1      34.119  30.544  27.693  1.00  0.00     0.261 C 
BRANCH   4   5
ATOM      5  O   UNL A   1      34.658  31.854  27.904  1.00  0.00    -0.460 OA
BRANCH   5   6
ATOM      6  C   UNL A   1      35.966  32.190  27.975  1.00  0.00     0.338 C 
ATOM      7  O   UNL A   1      36.321  33.292  27.562  1.00  0.00    -0.246 OA
BRANCH   6   8
ATOM      8  C   UNL A   1      36.963  31.317  28.654  1.00  0.00     0.060 A 
ATOM      9  C   UNL A   1      37.939  31.748  29.552  1.00  0.00     0.016 A 
ATOM     10  C   UNL A   1      36.951  29.970  28.268  1.00  0.00     0.016 A 
ATOM     11  C   UNL A   1      39.056  30.979  29.777  1.00  0.00     0.010 A 
ATOM     12  C   UNL A   1      38.015  29.148  28.585  1.00  0.00     0.010 A 
ATOM     13  C   UNL A   1      39.115  29.705  29.228  1.00  0.00    -0.014 A 
BRANCH  13  14
ATOM     14  C   UNL A   1      40.358  28.986  29.411  1.00  0.00     0.031 A 
ATOM     15  C   UNL A   1      40.714  28.713  30.829  1.00  0.00     0.074 A 
ATOM     16  C   UNL A   1      41.089  28.581  28.357  1.00  0.00     0.049 A 
ATOM     17  N   UNL A   1      41.771  29.085  31.477  1.00  0.00    -0.248 NA
ATOM     18  C   UNL A   1      39.685  28.075  31.663  1.00  0.00     0.031 C 
ATOM     19  C   UNL A   1      40.710  28.586  26.941  1.00  0.00     0.029 A 
ATOM     20  N   UNL A   1      42.277  27.922  28.359  1.00  0.00    -0.354 N 
ATOM     21  C   UNL A   1      41.631  28.540  32.752  1.00  0.00     0.074 A 
ATOM     22  C   UNL A   1      40.271  28.078  32.859  1.00  0.00     0.031 C 
ATOM     23  C   UNL A   1      41.495  27.712  26.277  1.00  0.00     0.029 A 
ATOM     24  C   UNL A   1      42.506  27.211  27.190  1.00  0.00     0.049 A 
ATOM     25  H   UNL A   1      42.911  27.949  29.112  1.00  0.00     0.167 HD
ATOM     26  C   UNL A   1      42.698  28.297  33.559  1.00  0.00     0.034 A 
ATOM     27  C   UNL A   1      43.388  26.198  27.036  1.00  0.00     0.034 A 
ATOM     28  C   UNL A   1      43.854  29.058  33.174  1.00  0.00     0.049 A 
ATOM     29  C   UNL A   1      44.379  26.298  28.133  1.00  0.00     0.074 A 
ATOM     30  C   UNL A   1      44.148  30.403  33.090  1.00  0.00     0.029 A 
ATOM     31  N   UNL A   1      44.825  28.412  32.450  1.00  0.00    -0.354 N 
ATOM     32  N   UNL A   1      45.228  27.281  28.250  1.00  0.00    -0.248 NA
ATOM     33  C   UNL A   1      44.145  25.528  29.344  1.00  0.00     0.031 C 
ATOM     34  C   UNL A   1      44.983  30.524  31.940  1.00  0.00     0.029 A 
ATOM     35  C   UNL A   1      45.182  29.243  31.421  1.00  0.00     0.049 A 
ATOM     36  H   UNL A   1      45.195  27.519  32.636  1.00  0.00     0.167 HD
ATOM     37  C   UNL A   1      45.291  27.528  29.615  1.00  0.00     0.074 A 
ATOM     38  C   UNL A   1      44.699  26.348  30.241  1.00  0.00     0.031 C 
ATOM     39  C   UNL A   1      45.548  28.781  30.098  1.00  0.00     0.034 A 
BRANCH  26  40
ATOM     40  C   UNL A   1      42.779  27.126  34.503  1.00  0.00     0.023 A 
ATOM     41  C   UNL A   1      42.309  27.299  35.821  1.00  0.00     0.012 A 
ATOM     42  C   UNL A   1      43.520  25.952  34.232  1.00  0.00     0.148 A 
ATOM     43  C   UNL A   1      42.580  26.357  36.822  1.00  0.00     0.002 A 
ATOM     44  C   UNL A   1      43.709  24.979  35.206  1.00  0.00     0.091 A 
ATOM     45  F   UNL A   1      44.170  25.824  33.071  1.00  0.00    -0.205 F 
ATOM     46  C   UNL A   1      43.267  25.189  36.511  1.00  0.00     0.022 A 
BRANCH  44  47
ATOM     47  S   UNL A   1      44.528  23.428  34.814  1.00  0.00     0.127 S 
ATOM     48  O   UNL A   1      44.680  22.835  36.146  1.00  0.00    -0.237 OA
ATOM     49  O   UNL A   1      43.532  22.771  33.961  1.00  0.00    -0.237 OA
ATOM     50  O   UNL A   1      45.747  23.798  34.127  1.00  0.00    -0.744 OA
ENDBRANCH  44  47
ENDBRANCH  26  40
BRANCH  27  51
ATOM     51  C   UNL A   1      43.241  24.985  26.202  1.00  0.00     0.023 A 
ATOM     52  C   UNL A   1      44.149  24.748  25.156  1.00  0.00     0.012 A 
ATOM     53  C   UNL A   1      42.371  23.939  26.588  1.00  0.00     0.148 A 
ATOM     54  C   UNL A   1      44.205  23.500  24.525  1.00  0.00     0.002 A 
ATOM     55  C   UNL A   1      42.420  22.705  25.948  1.00  0.00     0.091 A 
ATOM     56  F   UNL A   1      41.562  24.122  27.640  1.00  0.00    -0.205 F 
ATOM     57  C   UNL A   1      43.344  22.478  24.922  1.00  0.00     0.022 A 
BRANCH  55  58
ATOM     58  S   UNL A   1      41.351  21.340  26.421  1.00  0.00     0.127 S 
ATOM     59  O   UNL A   1      40.022  21.885  26.141  1.00  0.00    -0.237 OA
ATOM     60  O   UNL A   1      41.786  20.286  25.508  1.00  0.00    -0.237 OA
ATOM     61  O   UNL A   1      41.611  21.101  27.835  1.00  0.00    -0.744 OA
ENDBRANCH  55  58
ENDBRANCH  27  51
BRANCH  39  62
ATOM     62  C   UNL A   1      45.969  29.848  29.113  1.00  0.00     0.023 A 
ATOM     63  C   UNL A   1      47.317  30.016  28.730  1.00  0.00     0.012 A 
ATOM     64  C   UNL A   1      44.978  30.564  28.420  1.00  0.00     0.148 A 
ATOM     65  C   UNL A   1      47.673  30.898  27.706  1.00  0.00     0.002 A 
ATOM     66  C   UNL A   1      45.330  31.404  27.370  1.00  0.00     0.091 A 
ATOM     67  F   UNL A   1      43.698  30.388  28.782  1.00  0.00    -0.205 F 
ATOM     68  C   UNL A   1      46.678  31.584  27.016  1.00  0.00     0.022 A 
BRANCH  66  69
ATOM     69  S   UNL A   1      44.089  32.206  26.351  1.00  0.00     0.127 S 
ATOM     70  O   UNL A   1      43.181  31.102  26.048  1.00  0.00    -0.237 OA
ATOM     71  O   UNL A   1      43.540  33.218  27.257  1.00  0.00    -0.237 OA
ATOM     72  O   UNL A   1      44.809  32.762  25.211  1.00  0.00    -0.744 OA
ENDBRANCH  66  69
ENDBRANCH  39  62
ENDBRANCH  13  14
ENDBRANCH   6   8
ENDBRANCH   5   6
ENDBRANCH   4   5
ENDBRANCH   3   4
ENDBRANCH   2   3
ENDBRANCH   1   2
BRANCH   1  73
ATOM     73  C   UNL A   1      33.638  27.986  23.547  1.00  0.00     0.261 C 
BRANCH  73  74
ATOM     74  O   UNL A   1      33.752  26.711  24.212  1.00  0.00    -0.463 OA
BRANCH  74  75
ATOM     75  C   UNL A   1      33.604  25.625  23.402  1.00  0.00     0.310 C 
ATOM     76  O   UNL A   1      33.805  25.654  22.193  1.00  0.00    -0.252 OA
BRANCH  75  77
ATOM     77  C   UNL A   1      33.099  24.393  24.154  1.00  0.00     0.119 C 
ATOM     78  C   UNL A   1      32.899  24.444  25.740  1.00  0.00     0.100 C 
ATOM     79  C   UNL A   1      34.131  23.240  24.009  1.00  0.00     0.027 C 
ATOM     80  C   UNL A   1      33.783  23.268  26.213  1.00  0.00     0.025 C 
ATOM     81  C   UNL A   1      35.437  23.643  24.667  1.00  0.00    -0.027 C 
ATOM     82  C   UNL A   1      33.633  22.265  25.071  1.00  0.00     0.017 C 
ATOM     83  C   UNL A   1      35.223  23.683  25.988  1.00  0.00    -0.027 C 
BRANCH  78  84
ATOM     84  C   UNL A   1      31.411  24.400  26.091  1.00  0.00     0.224 C 
ATOM     85  O   UNL A   1      31.049  24.063  27.223  1.00  0.00    -0.275 OA
ATOM     86  N   UNL A   1      30.400  24.584  25.204  1.00  0.00    -0.356 N 
ATOM     87  H   UNL A   1      29.544  24.205  25.511  1.00  0.00     0.163 HD
BRANCH  86  88
ATOM     88  C   UNL A   1      30.307  25.218  23.901  1.00  0.00     0.117 C 
BRANCH  88  89
ATOM     89  C   UNL A   1      29.308  26.384  23.824  1.00  0.00     0.043 C 
BRANCH  89  90
ATOM     90  C   UNL A   1      29.861  27.808  23.941  1.00  0.00     0.125 C 
BRANCH  90  91
ATOM     91  N   UNL A   1      29.301  28.775  23.021  1.00  0.00    -0.337 N 
ATOM     92  C   UNL A   1      27.981  29.091  22.869  1.00  0.00     0.107 A 
ATOM     93  C   UNL A   1      29.994  29.431  22.040  1.00  0.00     0.199 A 
ATOM     94  C   UNL A   1      27.943  29.966  21.807  1.00  0.00     0.130 A 
ATOM     95  N   UNL A   1      29.200  30.177  21.305  1.00  0.00    -0.245 NA
ENDBRANCH  90  91
ENDBRANCH  89  90
ENDBRANCH  88  89
ENDBRANCH  86  88
ENDBRANCH  78  84
ENDBRANCH  75  77
ENDBRANCH  74  75
ENDBRANCH  73  74
ENDBRANCH   1  73
TORSDOF 22
ENDMDL
