MODEL 1
REMARK VINA RESULT:      -9.2      0.000      0.000
REMARK SMILES O=C(CNc1nc(-c2ccccc2)c(-c2ccccc2)s1)OCCOCCOC(=O)c1ccc(-c2c3nc(c(-c4cccc(S(=O)(=O)[O-])c4F)c4ccc([nH]4)c(-c4cccc(S(=O)(=O)[O-])c4F)c4nc(c(-c5cccc(S(=O)(=O)[O-])c5F)c5ccc2[nH]5)C=C4)C=C3)cc1
REMARK SMILES IDX 25 1 24 2 23 3 22 4 2 5 1 6 3 7 4 8 5 10 6 11 21 12 7 13
REMARK SMILES IDX 14 14 8 15 9 16 13 17 10 18 12 19 11 20 15 21 16 22 20 23
REMARK SMILES IDX 17 24 19 25 18 26 26 27 27 28 28 29 29 30 30 31 31 32 32 33
REMARK SMILES IDX 93 34 33 35 92 36 34 37 35 38 36 39 86 40 37 41 91 42 85 43
REMARK SMILES IDX 87 44 38 45 90 46 84 47 83 48 39 50 71 51 51 52 70 53 52 54
REMARK SMILES IDX 55 55 69 56 88 57 53 58 54 59 68 61 89 62 56 63 40 64 41 65
REMARK SMILES IDX 49 66 42 67 44 68 50 69 43 70 45 71 46 72 47 73 48 74 72 75
REMARK SMILES IDX 73 76 81 77 74 78 76 79 82 80 75 81 77 82 78 83 79 84 80 85
REMARK SMILES IDX 57 86 58 87 66 88 59 89 61 90 67 91 60 92 62 93 63 94 64 95
REMARK SMILES IDX 65 96
REMARK H PARENT 4 9 87 49 55 60
REMARK Flexibility Score: inf
ROOT
ATOM      1  O   UNL A   1      42.331  19.438  25.415  1.00  0.00    -0.374 OA
ENDROOT
BRANCH   1   2
ATOM      2  C   UNL A   1      43.429  18.623  25.805  1.00  0.00     0.202 C 
BRANCH   2   3
ATOM      3  C   UNL A   1      44.622  18.557  24.854  1.00  0.00     0.261 C 
BRANCH   3   4
ATOM      4  O   UNL A   1      45.451  19.726  24.829  1.00  0.00    -0.462 OA
BRANCH   4   5
ATOM      5  C   UNL A   1      45.032  20.986  24.563  1.00  0.00     0.325 C 
ATOM      6  O   UNL A   1      44.544  21.224  23.457  1.00  0.00    -0.250 OA
BRANCH   5   7
ATOM      7  C   UNL A   1      45.208  22.110  25.583  1.00  0.00     0.238 C 
BRANCH   7   8
ATOM      8  N   UNL A   1      44.463  23.317  25.270  1.00  0.00    -0.351 N 
ATOM      9  H   UNL A   1      43.497  23.259  25.093  1.00  0.00     0.163 HD
BRANCH   8  10
ATOM     10  C   UNL A   1      45.078  24.518  25.220  1.00  0.00     0.184 A 
ATOM     11  N   UNL A   1      46.253  24.769  24.694  1.00  0.00    -0.220 NA
ATOM     12  S   UNL A   1      44.312  25.861  25.974  1.00  0.00    -0.096 S 
ATOM     13  C   UNL A   1      46.627  26.081  24.965  1.00  0.00     0.091 A 
ATOM     14  C   UNL A   1      45.712  26.811  25.706  1.00  0.00     0.064 A 
BRANCH  13  15
ATOM     15  C   UNL A   1      47.832  26.672  24.396  1.00  0.00     0.002 A 
ATOM     16  C   UNL A   1      47.832  27.267  23.127  1.00  0.00     0.010 A 
ATOM     17  C   UNL A   1      49.044  26.526  25.081  1.00  0.00     0.010 A 
ATOM     18  C   UNL A   1      49.035  27.650  22.527  1.00  0.00     0.001 A 
ATOM     19  C   UNL A   1      50.247  26.907  24.478  1.00  0.00     0.001 A 
ATOM     20  C   UNL A   1      50.241  27.455  23.196  1.00  0.00     0.000 A 
ENDBRANCH  13  15
BRANCH  14  21
ATOM     21  C   UNL A   1      45.710  28.200  26.149  1.00  0.00    -0.006 A 
ATOM     22  C   UNL A   1      46.880  28.970  26.100  1.00  0.00     0.009 A 
ATOM     23  C   UNL A   1      44.531  28.769  26.641  1.00  0.00     0.009 A 
ATOM     24  C   UNL A   1      46.870  30.288  26.559  1.00  0.00     0.001 A 
ATOM     25  C   UNL A   1      44.523  30.084  27.102  1.00  0.00     0.001 A 
ATOM     26  C   UNL A   1      45.694  30.840  27.066  1.00  0.00     0.000 A 
ENDBRANCH  14  21
ENDBRANCH   8  10
ENDBRANCH   7   8
ENDBRANCH   5   7
ENDBRANCH   4   5
ENDBRANCH   3   4
ENDBRANCH   2   3
ENDBRANCH   1   2
BRANCH   1  27
ATOM     27  C   UNL A   1      41.948  20.456  26.344  1.00  0.00     0.202 C 
BRANCH  27  28
ATOM     28  C   UNL A   1      40.457  20.816  26.350  1.00  0.00     0.261 C 
BRANCH  28  29
ATOM     29  O   UNL A   1      40.213  22.037  27.064  1.00  0.00    -0.460 OA
BRANCH  29  30
ATOM     30  C   UNL A   1      39.311  22.870  26.491  1.00  0.00     0.338 C 
ATOM     31  O   UNL A   1      38.385  22.563  25.755  1.00  0.00    -0.246 OA
BRANCH  30  32
ATOM     32  C   UNL A   1      39.471  24.220  27.067  1.00  0.00     0.060 A 
ATOM     33  C   UNL A   1      40.179  25.168  26.316  1.00  0.00     0.016 A 
ATOM     34  C   UNL A   1      38.940  24.551  28.315  1.00  0.00     0.016 A 
ATOM     35  C   UNL A   1      40.416  26.435  26.842  1.00  0.00     0.010 A 
ATOM     36  C   UNL A   1      39.182  25.820  28.841  1.00  0.00     0.010 A 
ATOM     37  C   UNL A   1      39.959  26.748  28.127  1.00  0.00    -0.014 A 
BRANCH  37  38
ATOM     38  C   UNL A   1      40.443  27.974  28.801  1.00  0.00     0.031 A 
ATOM     39  C   UNL A   1      41.834  27.973  29.374  1.00  0.00     0.074 A 
ATOM     40  C   UNL A   1      39.659  29.061  28.905  1.00  0.00     0.049 A 
ATOM     41  N   UNL A   1      42.452  28.903  30.051  1.00  0.00    -0.248 NA
ATOM     42  C   UNL A   1      42.632  26.753  29.161  1.00  0.00     0.031 C 
ATOM     43  C   UNL A   1      38.297  29.173  28.382  1.00  0.00     0.029 A 
ATOM     44  N   UNL A   1      39.889  30.268  29.513  1.00  0.00    -0.354 N 
ATOM     45  C   UNL A   1      43.694  28.371  30.375  1.00  0.00     0.074 A 
ATOM     46  C   UNL A   1      43.738  27.031  29.835  1.00  0.00     0.031 C 
ATOM     47  C   UNL A   1      37.801  30.376  28.720  1.00  0.00     0.029 A 
ATOM     48  C   UNL A   1      38.797  31.101  29.505  1.00  0.00     0.049 A 
ATOM     49  H   UNL A   1      40.753  30.513  29.916  1.00  0.00     0.167 HD
ATOM     50  C   UNL A   1      44.714  28.953  31.049  1.00  0.00     0.034 A 
ATOM     51  C   UNL A   1      38.616  32.301  30.092  1.00  0.00     0.034 A 
ATOM     52  C   UNL A   1      44.664  30.290  31.573  1.00  0.00     0.049 A 
ATOM     53  C   UNL A   1      39.756  32.915  30.864  1.00  0.00     0.074 A 
ATOM     54  C   UNL A   1      45.656  30.993  32.233  1.00  0.00     0.029 A 
ATOM     55  N   UNL A   1      43.556  31.123  31.510  1.00  0.00    -0.354 N 
ATOM     56  N   UNL A   1      40.963  32.446  31.068  1.00  0.00    -0.248 NA
ATOM     57  C   UNL A   1      39.518  34.239  31.457  1.00  0.00     0.031 C 
ATOM     58  C   UNL A   1      45.134  32.237  32.604  1.00  0.00     0.029 A 
ATOM     59  C   UNL A   1      43.833  32.328  32.132  1.00  0.00     0.049 A 
ATOM     60  H   UNL A   1      42.700  30.890  31.085  1.00  0.00     0.167 HD
ATOM     61  C   UNL A   1      41.641  33.433  31.775  1.00  0.00     0.074 A 
ATOM     62  C   UNL A   1      40.714  34.533  31.948  1.00  0.00     0.031 C 
ATOM     63  C   UNL A   1      42.913  33.429  32.249  1.00  0.00     0.034 A 
BRANCH  50  64
ATOM     64  C   UNL A   1      45.973  28.149  31.247  1.00  0.00     0.023 A 
ATOM     65  C   UNL A   1      45.994  27.101  32.191  1.00  0.00     0.012 A 
ATOM     66  C   UNL A   1      47.118  28.398  30.468  1.00  0.00     0.148 A 
ATOM     67  C   UNL A   1      47.147  26.338  32.381  1.00  0.00     0.002 A 
ATOM     68  C   UNL A   1      48.246  27.602  30.627  1.00  0.00     0.091 A 
ATOM     69  F   UNL A   1      47.086  29.412  29.591  1.00  0.00    -0.205 F 
ATOM     70  C   UNL A   1      48.267  26.583  31.591  1.00  0.00     0.022 A 
BRANCH  68  71
ATOM     71  S   UNL A   1      49.712  27.782  29.604  1.00  0.00     0.127 S 
ATOM     72  O   UNL A   1      50.604  26.782  30.188  1.00  0.00    -0.237 OA
ATOM     73  O   UNL A   1      49.200  27.441  28.276  1.00  0.00    -0.237 OA
ATOM     74  O   UNL A   1      50.141  29.165  29.755  1.00  0.00    -0.744 OA
ENDBRANCH  68  71
ENDBRANCH  50  64
BRANCH  51  75
ATOM     75  C   UNL A   1      37.314  33.013  29.955  1.00  0.00     0.023 A 
ATOM     76  C   UNL A   1      36.884  33.442  28.683  1.00  0.00     0.012 A 
ATOM     77  C   UNL A   1      36.498  33.265  31.075  1.00  0.00     0.148 A 
ATOM     78  C   UNL A   1      35.684  34.139  28.536  1.00  0.00     0.002 A 
ATOM     79  C   UNL A   1      35.277  33.907  30.913  1.00  0.00     0.091 A 
ATOM     80  F   UNL A   1      36.932  32.861  32.278  1.00  0.00    -0.205 F 
ATOM     81  C   UNL A   1      34.877  34.363  29.648  1.00  0.00     0.022 A 
BRANCH  79  82
ATOM     82  S   UNL A   1      34.115  34.126  32.265  1.00  0.00     0.127 S 
ATOM     83  O   UNL A   1      33.062  34.913  31.630  1.00  0.00    -0.237 OA
ATOM     84  O   UNL A   1      33.752  32.743  32.573  1.00  0.00    -0.237 OA
ATOM     85  O   UNL A   1      34.859  34.801  33.320  1.00  0.00    -0.744 OA
ENDBRANCH  79  82
ENDBRANCH  51  75
BRANCH  63  86
ATOM     86  C   UNL A   1      43.401  34.670  32.951  1.00  0.00     0.023 A 
ATOM     87  C   UNL A   1      44.010  35.707  32.218  1.00  0.00     0.012 A 
ATOM     88  C   UNL A   1      43.192  34.832  34.335  1.00  0.00     0.148 A 
ATOM     89  C   UNL A   1      44.438  36.870  32.858  1.00  0.00     0.002 A 
ATOM     90  C   UNL A   1      43.569  36.015  34.957  1.00  0.00     0.091 A 
ATOM     91  F   UNL A   1      42.625  33.827  35.018  1.00  0.00    -0.205 F 
ATOM     92  C   UNL A   1      44.207  37.029  34.223  1.00  0.00     0.022 A 
BRANCH  90  93
ATOM     93  S   UNL A   1      43.221  36.350  36.686  1.00  0.00     0.127 S 
ATOM     94  O   UNL A   1      43.795  37.684  36.852  1.00  0.00    -0.237 OA
ATOM     95  O   UNL A   1      41.759  36.307  36.721  1.00  0.00    -0.237 OA
ATOM     96  O   UNL A   1      43.877  35.291  37.442  1.00  0.00    -0.744 OA
ENDBRANCH  90  93
ENDBRANCH  63  86
ENDBRANCH  37  38
ENDBRANCH  30  32
ENDBRANCH  29  30
ENDBRANCH  28  29
ENDBRANCH  27  28
ENDBRANCH   1  27
TORSDOF 21
ENDMDL
MODEL 2
REMARK VINA RESULT:      -9.0      3.626      5.964
REMARK SMILES O=C(CNc1nc(-c2ccccc2)c(-c2ccccc2)s1)OCCOCCOC(=O)c1ccc(-c2c3nc(c(-c4cccc(S(=O)(=O)[O-])c4F)c4ccc([nH]4)c(-c4cccc(S(=O)(=O)[O-])c4F)c4nc(c(-c5cccc(S(=O)(=O)[O-])c5F)c5ccc2[nH]5)C=C4)C=C3)cc1
REMARK SMILES IDX 25 1 24 2 23 3 22 4 2 5 1 6 3 7 4 8 5 10 6 11 21 12 7 13
REMARK SMILES IDX 14 14 8 15 9 16 13 17 10 18 12 19 11 20 15 21 16 22 20 23
REMARK SMILES IDX 17 24 19 25 18 26 26 27 27 28 28 29 29 30 30 31 31 32 32 33
REMARK SMILES IDX 93 34 33 35 92 36 34 37 35 38 36 39 86 40 37 41 91 42 85 43
REMARK SMILES IDX 87 44 38 45 90 46 84 47 83 48 39 50 71 51 51 52 70 53 52 54
REMARK SMILES IDX 55 55 69 56 88 57 53 58 54 59 68 61 89 62 56 63 40 64 41 65
REMARK SMILES IDX 49 66 42 67 44 68 50 69 43 70 45 71 46 72 47 73 48 74 72 75
REMARK SMILES IDX 73 76 81 77 74 78 76 79 82 80 75 81 77 82 78 83 79 84 80 85
REMARK SMILES IDX 57 86 58 87 66 88 59 89 61 90 67 91 60 92 62 93 63 94 64 95
REMARK SMILES IDX 65 96
REMARK H PARENT 4 9 87 49 55 60
REMARK Flexibility Score: inf
ROOT
ATOM      1  O   UNL A   1      47.602  24.137  26.996  1.00  0.00    -0.374 OA
ENDROOT
BRANCH   1   2
ATOM      2  C   UNL A   1      47.869  25.533  26.954  1.00  0.00     0.202 C 
BRANCH   2   3
ATOM      3  C   UNL A   1      46.783  26.468  27.480  1.00  0.00     0.261 C 
BRANCH   3   4
ATOM      4  O   UNL A   1      46.589  27.669  26.722  1.00  0.00    -0.462 OA
BRANCH   4   5
ATOM      5  C   UNL A   1      46.938  28.916  27.116  1.00  0.00     0.325 C 
ATOM      6  O   UNL A   1      47.612  29.045  28.140  1.00  0.00    -0.250 OA
BRANCH   5   7
ATOM      7  C   UNL A   1      46.465  30.149  26.347  1.00  0.00     0.238 C 
BRANCH   7   8
ATOM      8  N   UNL A   1      45.024  30.333  26.349  1.00  0.00    -0.351 N 
ATOM      9  H   UNL A   1      44.454  29.703  25.851  1.00  0.00     0.163 HD
BRANCH   8  10
ATOM     10  C   UNL A   1      44.455  31.353  27.025  1.00  0.00     0.184 A 
ATOM     11  N   UNL A   1      44.541  32.628  26.727  1.00  0.00    -0.220 NA
ATOM     12  S   UNL A   1      43.589  30.998  28.468  1.00  0.00    -0.096 S 
ATOM     13  C   UNL A   1      43.962  33.394  27.732  1.00  0.00     0.091 A 
ATOM     14  C   UNL A   1      43.440  32.672  28.793  1.00  0.00     0.064 A 
BRANCH  13  15
ATOM     15  C   UNL A   1      43.803  34.838  27.606  1.00  0.00     0.002 A 
ATOM     16  C   UNL A   1      42.711  35.403  26.933  1.00  0.00     0.010 A 
ATOM     17  C   UNL A   1      44.832  35.673  28.058  1.00  0.00     0.010 A 
ATOM     18  C   UNL A   1      42.683  36.773  26.659  1.00  0.00     0.001 A 
ATOM     19  C   UNL A   1      44.804  37.042  27.780  1.00  0.00     0.001 A 
ATOM     20  C   UNL A   1      43.736  37.588  27.069  1.00  0.00     0.000 A 
ENDBRANCH  13  15
BRANCH  14  21
ATOM     21  C   UNL A   1      42.728  33.091  29.994  1.00  0.00    -0.006 A 
ATOM     22  C   UNL A   1      41.327  33.126  30.021  1.00  0.00     0.009 A 
ATOM     23  C   UNL A   1      43.449  33.474  31.130  1.00  0.00     0.009 A 
ATOM     24  C   UNL A   1      40.660  33.561  31.168  1.00  0.00     0.001 A 
ATOM     25  C   UNL A   1      42.781  33.912  32.273  1.00  0.00     0.001 A 
ATOM     26  C   UNL A   1      41.388  33.961  32.288  1.00  0.00     0.000 A 
ENDBRANCH  14  21
ENDBRANCH   8  10
ENDBRANCH   7   8
ENDBRANCH   5   7
ENDBRANCH   4   5
ENDBRANCH   3   4
ENDBRANCH   2   3
ENDBRANCH   1   2
BRANCH   1  27
ATOM     27  C   UNL A   1      46.259  23.748  26.695  1.00  0.00     0.202 C 
BRANCH  27  28
ATOM     28  C   UNL A   1      45.955  23.522  25.210  1.00  0.00     0.261 C 
BRANCH  28  29
ATOM     29  O   UNL A   1      45.021  24.491  24.710  1.00  0.00    -0.460 OA
BRANCH  29  30
ATOM     30  C   UNL A   1      43.720  24.120  24.764  1.00  0.00     0.338 C 
ATOM     31  O   UNL A   1      43.217  23.114  24.285  1.00  0.00    -0.246 OA
BRANCH  30  32
ATOM     32  C   UNL A   1      43.005  25.013  25.697  1.00  0.00     0.060 A 
ATOM     33  C   UNL A   1      43.412  26.353  25.756  1.00  0.00     0.016 A 
ATOM     34  C   UNL A   1      41.959  24.551  26.498  1.00  0.00     0.016 A 
ATOM     35  C   UNL A   1      42.817  27.222  26.667  1.00  0.00     0.010 A 
ATOM     36  C   UNL A   1      41.366  25.422  27.412  1.00  0.00     0.010 A 
ATOM     37  C   UNL A   1      41.825  26.745  27.531  1.00  0.00    -0.014 A 
BRANCH  37  38
ATOM     38  C   UNL A   1      41.392  27.573  28.679  1.00  0.00     0.031 A 
ATOM     39  C   UNL A   1      42.209  27.528  29.941  1.00  0.00     0.074 A 
ATOM     40  C   UNL A   1      40.291  28.341  28.601  1.00  0.00     0.049 A 
ATOM     41  N   UNL A   1      41.998  28.119  31.087  1.00  0.00    -0.248 NA
ATOM     42  C   UNL A   1      43.426  26.698  29.908  1.00  0.00     0.031 C 
ATOM     43  C   UNL A   1      39.428  28.463  27.427  1.00  0.00     0.029 A 
ATOM     44  N   UNL A   1      39.698  29.142  29.543  1.00  0.00    -0.354 N 
ATOM     45  C   UNL A   1      43.031  27.707  31.920  1.00  0.00     0.074 A 
ATOM     46  C   UNL A   1      43.861  26.803  31.154  1.00  0.00     0.031 C 
ATOM     47  C   UNL A   1      38.395  29.269  27.729  1.00  0.00     0.029 A 
ATOM     48  C   UNL A   1      38.511  29.693  29.123  1.00  0.00     0.049 A 
ATOM     49  H   UNL A   1      40.085  29.306  30.433  1.00  0.00     0.167 HD
ATOM     50  C   UNL A   1      43.277  28.062  33.203  1.00  0.00     0.034 A 
ATOM     51  C   UNL A   1      37.609  30.431  29.800  1.00  0.00     0.034 A 
ATOM     52  C   UNL A   1      42.451  28.970  33.951  1.00  0.00     0.049 A 
ATOM     53  C   UNL A   1      37.889  30.787  31.237  1.00  0.00     0.074 A 
ATOM     54  C   UNL A   1      42.632  29.431  35.243  1.00  0.00     0.029 A 
ATOM     55  N   UNL A   1      41.279  29.543  33.481  1.00  0.00    -0.354 N 
ATOM     56  N   UNL A   1      38.926  30.479  31.979  1.00  0.00    -0.248 NA
ATOM     57  C   UNL A   1      36.889  31.620  31.921  1.00  0.00     0.031 C 
ATOM     58  C   UNL A   1      41.548  30.254  35.566  1.00  0.00     0.029 A 
ATOM     59  C   UNL A   1      40.717  30.343  34.460  1.00  0.00     0.049 A 
ATOM     60  H   UNL A   1      40.903  29.401  32.582  1.00  0.00     0.167 HD
ATOM     61  C   UNL A   1      38.725  31.115  33.199  1.00  0.00     0.074 A 
ATOM     62  C   UNL A   1      37.475  31.839  33.090  1.00  0.00     0.031 C 
ATOM     63  C   UNL A   1      39.498  31.096  34.315  1.00  0.00     0.034 A 
BRANCH  50  64
ATOM     64  C   UNL A   1      44.491  27.474  33.873  1.00  0.00     0.023 A 
ATOM     65  C   UNL A   1      45.724  28.156  33.815  1.00  0.00     0.012 A 
ATOM     66  C   UNL A   1      44.403  26.271  34.598  1.00  0.00     0.148 A 
ATOM     67  C   UNL A   1      46.857  27.632  34.438  1.00  0.00     0.002 A 
ATOM     68  C   UNL A   1      45.523  25.779  35.258  1.00  0.00     0.091 A 
ATOM     69  F   UNL A   1      43.228  25.624  34.623  1.00  0.00    -0.205 F 
ATOM     70  C   UNL A   1      46.753  26.451  35.167  1.00  0.00     0.022 A 
BRANCH  68  71
ATOM     71  S   UNL A   1      45.475  24.310  36.289  1.00  0.00     0.127 S 
ATOM     72  O   UNL A   1      45.159  23.272  35.309  1.00  0.00    -0.237 OA
ATOM     73  O   UNL A   1      46.841  24.259  36.811  1.00  0.00    -0.237 OA
ATOM     74  O   UNL A   1      44.448  24.554  37.291  1.00  0.00    -0.744 OA
ENDBRANCH  68  71
ENDBRANCH  50  64
BRANCH  51  75
ATOM     75  C   UNL A   1      36.368  30.903  29.123  1.00  0.00     0.023 A 
ATOM     76  C   UNL A   1      35.457  29.963  28.602  1.00  0.00     0.012 A 
ATOM     77  C   UNL A   1      36.085  32.277  28.995  1.00  0.00     0.148 A 
ATOM     78  C   UNL A   1      34.305  30.383  27.936  1.00  0.00     0.002 A 
ATOM     79  C   UNL A   1      34.907  32.687  28.382  1.00  0.00     0.091 A 
ATOM     80  F   UNL A   1      36.972  33.155  29.484  1.00  0.00    -0.205 F 
ATOM     81  C   UNL A   1      34.026  31.743  27.834  1.00  0.00     0.022 A 
BRANCH  79  82
ATOM     82  S   UNL A   1      34.403  34.409  28.318  1.00  0.00     0.127 S 
ATOM     83  O   UNL A   1      32.956  34.304  28.491  1.00  0.00    -0.237 OA
ATOM     84  O   UNL A   1      35.121  34.974  29.460  1.00  0.00    -0.237 OA
ATOM     85  O   UNL A   1      34.849  34.904  27.022  1.00  0.00    -0.744 OA
ENDBRANCH  79  82
ENDBRANCH  51  75
BRANCH  63  86
ATOM     86  C   UNL A   1      39.048  31.923  35.491  1.00  0.00     0.023 A 
ATOM     87  C   UNL A   1      38.173  31.376  36.450  1.00  0.00     0.012 A 
ATOM     88  C   UNL A   1      39.553  33.225  35.678  1.00  0.00     0.148 A 
ATOM     89  C   UNL A   1      37.776  32.127  37.556  1.00  0.00     0.002 A 
ATOM     90  C   UNL A   1      39.198  33.947  36.811  1.00  0.00     0.091 A 
ATOM     91  F   UNL A   1      40.373  33.733  34.747  1.00  0.00    -0.205 F 
ATOM     92  C   UNL A   1      38.297  33.406  37.742  1.00  0.00     0.022 A 
BRANCH  90  93
ATOM     93  S   UNL A   1      39.897  35.558  37.186  1.00  0.00     0.127 S 
ATOM     94  O   UNL A   1      39.443  36.352  36.046  1.00  0.00    -0.237 OA
ATOM     95  O   UNL A   1      39.248  35.888  38.455  1.00  0.00    -0.237 OA
ATOM     96  O   UNL A   1      41.337  35.362  37.276  1.00  0.00    -0.744 OA
ENDBRANCH  90  93
ENDBRANCH  63  86
ENDBRANCH  37  38
ENDBRANCH  30  32
ENDBRANCH  29  30
ENDBRANCH  28  29
ENDBRANCH  27  28
ENDBRANCH   1  27
TORSDOF 21
ENDMDL
MODEL 3
REMARK VINA RESULT:      -8.7      4.131      7.689
REMARK SMILES O=C(CNc1nc(-c2ccccc2)c(-c2ccccc2)s1)OCCOCCOC(=O)c1ccc(-c2c3nc(c(-c4cccc(S(=O)(=O)[O-])c4F)c4ccc([nH]4)c(-c4cccc(S(=O)(=O)[O-])c4F)c4nc(c(-c5cccc(S(=O)(=O)[O-])c5F)c5ccc2[nH]5)C=C4)C=C3)cc1
REMARK SMILES IDX 25 1 24 2 23 3 22 4 2 5 1 6 3 7 4 8 5 10 6 11 21 12 7 13
REMARK SMILES IDX 14 14 8 15 9 16 13 17 10 18 12 19 11 20 15 21 16 22 20 23
REMARK SMILES IDX 17 24 19 25 18 26 26 27 27 28 28 29 29 30 30 31 31 32 32 33
REMARK SMILES IDX 93 34 33 35 92 36 34 37 35 38 36 39 86 40 37 41 91 42 85 43
REMARK SMILES IDX 87 44 38 45 90 46 84 47 83 48 39 50 71 51 51 52 70 53 52 54
REMARK SMILES IDX 55 55 69 56 88 57 53 58 54 59 68 61 89 62 56 63 40 64 41 65
REMARK SMILES IDX 49 66 42 67 44 68 50 69 43 70 45 71 46 72 47 73 48 74 72 75
REMARK SMILES IDX 73 76 81 77 74 78 76 79 82 80 75 81 77 82 78 83 79 84 80 85
REMARK SMILES IDX 57 86 58 87 66 88 59 89 61 90 67 91 60 92 62 93 63 94 64 95
REMARK SMILES IDX 65 96
REMARK H PARENT 4 9 87 49 55 60
REMARK Flexibility Score: inf
ROOT
ATOM      1  O   UNL A   1      53.738  25.923  23.676  1.00  0.00    -0.374 OA
ENDROOT
BRANCH   1   2
ATOM      2  C   UNL A   1      52.802  26.323  22.683  1.00  0.00     0.202 C 
BRANCH   2   3
ATOM      3  C   UNL A   1      51.706  27.297  23.109  1.00  0.00     0.261 C 
BRANCH   3   4
ATOM      4  O   UNL A   1      50.552  27.331  22.259  1.00  0.00    -0.462 OA
BRANCH   4   5
ATOM      5  C   UNL A   1      49.346  26.786  22.542  1.00  0.00     0.325 C 
ATOM      6  O   UNL A   1      48.660  26.354  21.614  1.00  0.00    -0.250 OA
BRANCH   5   7
ATOM      7  C   UNL A   1      48.810  26.752  23.973  1.00  0.00     0.238 C 
BRANCH   7   8
ATOM      8  N   UNL A   1      47.931  25.630  24.251  1.00  0.00    -0.351 N 
ATOM      9  H   UNL A   1      48.130  24.749  23.860  1.00  0.00     0.163 HD
BRANCH   8  10
ATOM     10  C   UNL A   1      46.846  25.778  25.039  1.00  0.00     0.184 A 
ATOM     11  N   UNL A   1      46.361  24.888  25.873  1.00  0.00    -0.220 NA
ATOM     12  S   UNL A   1      45.934  27.231  24.913  1.00  0.00    -0.096 S 
ATOM     13  C   UNL A   1      45.151  25.330  26.394  1.00  0.00     0.091 A 
ATOM     14  C   UNL A   1      44.731  26.568  25.936  1.00  0.00     0.064 A 
BRANCH  13  15
ATOM     15  C   UNL A   1      44.450  24.597  27.442  1.00  0.00     0.002 A 
ATOM     16  C   UNL A   1      44.585  24.938  28.795  1.00  0.00     0.010 A 
ATOM     17  C   UNL A   1      43.727  23.450  27.097  1.00  0.00     0.010 A 
ATOM     18  C   UNL A   1      44.061  24.106  29.788  1.00  0.00     0.001 A 
ATOM     19  C   UNL A   1      43.206  22.617  28.091  1.00  0.00     0.001 A 
ATOM     20  C   UNL A   1      43.386  22.939  29.436  1.00  0.00     0.000 A 
ENDBRANCH  13  15
BRANCH  14  21
ATOM     21  C   UNL A   1      43.568  27.381  26.266  1.00  0.00    -0.006 A 
ATOM     22  C   UNL A   1      42.297  27.045  25.782  1.00  0.00     0.009 A 
ATOM     23  C   UNL A   1      43.722  28.518  27.067  1.00  0.00     0.009 A 
ATOM     24  C   UNL A   1      41.198  27.853  26.080  1.00  0.00     0.001 A 
ATOM     25  C   UNL A   1      42.624  29.325  27.361  1.00  0.00     0.001 A 
ATOM     26  C   UNL A   1      41.365  28.996  26.862  1.00  0.00     0.000 A 
ENDBRANCH  14  21
ENDBRANCH   8  10
ENDBRANCH   7   8
ENDBRANCH   5   7
ENDBRANCH   4   5
ENDBRANCH   3   4
ENDBRANCH   2   3
ENDBRANCH   1   2
BRANCH   1  27
ATOM     27  C   UNL A   1      53.238  25.050  24.692  1.00  0.00     0.202 C 
BRANCH  27  28
ATOM     28  C   UNL A   1      53.393  25.555  26.131  1.00  0.00     0.261 C 
BRANCH  28  29
ATOM     29  O   UNL A   1      52.203  26.217  26.588  1.00  0.00    -0.460 OA
BRANCH  29  30
ATOM     30  C   UNL A   1      52.048  26.260  27.933  1.00  0.00     0.338 C 
ATOM     31  O   UNL A   1      52.870  25.952  28.783  1.00  0.00    -0.246 OA
BRANCH  30  32
ATOM     32  C   UNL A   1      50.785  26.957  28.248  1.00  0.00     0.060 A 
ATOM     33  C   UNL A   1      50.826  27.973  29.213  1.00  0.00     0.016 A 
ATOM     34  C   UNL A   1      49.587  26.624  27.614  1.00  0.00     0.016 A 
ATOM     35  C   UNL A   1      49.652  28.617  29.596  1.00  0.00     0.010 A 
ATOM     36  C   UNL A   1      48.411  27.268  28.002  1.00  0.00     0.010 A 
ATOM     37  C   UNL A   1      48.434  28.231  29.025  1.00  0.00    -0.014 A 
BRANCH  37  38
ATOM     38  C   UNL A   1      47.163  28.702  29.620  1.00  0.00     0.031 A 
ATOM     39  C   UNL A   1      46.503  27.845  30.665  1.00  0.00     0.074 A 
ATOM     40  C   UNL A   1      46.606  29.862  29.232  1.00  0.00     0.049 A 
ATOM     41  N   UNL A   1      45.367  28.021  31.285  1.00  0.00    -0.248 NA
ATOM     42  C   UNL A   1      47.219  26.620  31.060  1.00  0.00     0.031 C 
ATOM     43  C   UNL A   1      47.161  30.772  28.230  1.00  0.00     0.029 A 
ATOM     44  N   UNL A   1      45.432  30.457  29.617  1.00  0.00    -0.354 N 
ATOM     45  C   UNL A   1      45.214  26.916  32.114  1.00  0.00     0.074 A 
ATOM     46  C   UNL A   1      46.365  26.067  31.908  1.00  0.00     0.031 C 
ATOM     47  C   UNL A   1      46.310  31.799  28.058  1.00  0.00     0.029 A 
ATOM     48  C   UNL A   1      45.142  31.601  28.912  1.00  0.00     0.049 A 
ATOM     49  H   UNL A   1      44.854  30.100  30.329  1.00  0.00     0.167 HD
ATOM     50  C   UNL A   1      44.211  26.641  32.981  1.00  0.00     0.034 A 
ATOM     51  C   UNL A   1      44.042  32.380  28.937  1.00  0.00     0.034 A 
ATOM     52  C   UNL A   1      43.076  27.498  33.186  1.00  0.00     0.049 A 
ATOM     53  C   UNL A   1      42.925  32.035  29.888  1.00  0.00     0.074 A 
ATOM     54  C   UNL A   1      42.025  27.337  34.071  1.00  0.00     0.029 A 
ATOM     55  N   UNL A   1      42.835  28.671  32.485  1.00  0.00    -0.354 N 
ATOM     56  N   UNL A   1      42.844  31.046  30.746  1.00  0.00    -0.248 NA
ATOM     57  C   UNL A   1      41.763  32.935  29.899  1.00  0.00     0.031 C 
ATOM     58  C   UNL A   1      41.128  28.393  33.877  1.00  0.00     0.029 A 
ATOM     59  C   UNL A   1      41.644  29.237  32.907  1.00  0.00     0.049 A 
ATOM     60  H   UNL A   1      43.424  29.044  31.791  1.00  0.00     0.167 HD
ATOM     61  C   UNL A   1      41.646  31.228  31.426  1.00  0.00     0.074 A 
ATOM     62  C   UNL A   1      41.042  32.432  30.893  1.00  0.00     0.031 C 
ATOM     63  C   UNL A   1      41.086  30.464  32.399  1.00  0.00     0.034 A 
BRANCH  50  64
ATOM     64  C   UNL A   1      44.305  25.367  33.779  1.00  0.00     0.023 A 
ATOM     65  C   UNL A   1      43.941  24.140  33.187  1.00  0.00     0.012 A 
ATOM     66  C   UNL A   1      44.797  25.377  35.098  1.00  0.00     0.148 A 
ATOM     67  C   UNL A   1      44.032  22.948  33.908  1.00  0.00     0.002 A 
ATOM     68  C   UNL A   1      44.931  24.181  35.793  1.00  0.00     0.091 A 
ATOM     69  F   UNL A   1      45.116  26.556  35.652  1.00  0.00    -0.205 F 
ATOM     70  C   UNL A   1      44.536  22.969  35.205  1.00  0.00     0.022 A 
BRANCH  68  71
ATOM     71  S   UNL A   1      45.646  24.090  37.438  1.00  0.00     0.127 S 
ATOM     72  O   UNL A   1      46.959  24.697  37.224  1.00  0.00    -0.237 OA
ATOM     73  O   UNL A   1      44.717  24.908  38.219  1.00  0.00    -0.237 OA
ATOM     74  O   UNL A   1      45.662  22.678  37.793  1.00  0.00    -0.744 OA
ENDBRANCH  68  71
ENDBRANCH  50  64
BRANCH  51  75
ATOM     75  C   UNL A   1      43.951  33.574  28.050  1.00  0.00     0.023 A 
ATOM     76  C   UNL A   1      43.624  33.410  26.690  1.00  0.00     0.012 A 
ATOM     77  C   UNL A   1      44.182  34.871  28.548  1.00  0.00     0.148 A 
ATOM     78  C   UNL A   1      43.565  34.511  25.835  1.00  0.00     0.002 A 
ATOM     79  C   UNL A   1      44.064  35.969  27.705  1.00  0.00     0.091 A 
ATOM     80  F   UNL A   1      44.506  35.005  29.843  1.00  0.00    -0.205 F 
ATOM     81  C   UNL A   1      43.776  35.790  26.344  1.00  0.00     0.022 A 
BRANCH  79  82
ATOM     82  S   UNL A   1      44.192  37.659  28.298  1.00  0.00     0.127 S 
ATOM     83  O   UNL A   1      45.586  37.720  28.730  1.00  0.00    -0.237 OA
ATOM     84  O   UNL A   1      43.887  38.424  27.088  1.00  0.00    -0.237 OA
ATOM     85  O   UNL A   1      43.197  37.783  29.354  1.00  0.00    -0.744 OA
ENDBRANCH  79  82
ENDBRANCH  51  75
BRANCH  63  86
ATOM     86  C   UNL A   1      39.783  30.932  32.992  1.00  0.00     0.023 A 
ATOM     87  C   UNL A   1      38.561  30.600  32.373  1.00  0.00     0.012 A 
ATOM     88  C   UNL A   1      39.770  31.645  34.207  1.00  0.00     0.148 A 
ATOM     89  C   UNL A   1      37.350  31.006  32.933  1.00  0.00     0.002 A 
ATOM     90  C   UNL A   1      38.559  31.998  34.788  1.00  0.00     0.091 A 
ATOM     91  F   UNL A   1      40.943  31.964  34.773  1.00  0.00    -0.205 F 
ATOM     92  C   UNL A   1      37.348  31.693  34.145  1.00  0.00     0.022 A 
BRANCH  90  93
ATOM     93  S   UNL A   1      38.455  32.793  36.395  1.00  0.00     0.127 S 
ATOM     94  O   UNL A   1      39.112  34.073  36.137  1.00  0.00    -0.237 OA
ATOM     95  O   UNL A   1      37.010  32.881  36.604  1.00  0.00    -0.237 OA
ATOM     96  O   UNL A   1      39.149  31.913  37.326  1.00  0.00    -0.744 OA
ENDBRANCH  90  93
ENDBRANCH  63  86
ENDBRANCH  37  38
ENDBRANCH  30  32
ENDBRANCH  29  30
ENDBRANCH  28  29
ENDBRANCH  27  28
ENDBRANCH   1  27
TORSDOF 21
ENDMDL
