MODEL 1
REMARK VINA RESULT:     -11.0      0.000      0.000
REMARK SMILES COc1ccc(CSc2ncccc2C(=O)OCCOCCOC(=O)c2ccc(-c3c4nc(c(-c5cccc(S(=O)(=O)[O-])c5F)c5ccc([nH]5)c(-c5cccc(S(=O)(=O)[O-])c5F)c5nc(c(-c6cccc(S(=O)(=O)[O-])c6F)c6ccc3[nH]6)C=C5)C=C4)cc2)cc1
REMARK SMILES IDX 19 1 18 2 17 3 15 4 16 5 14 6 9 7 10 8 11 9 13 10 12 11 8 12
REMARK SMILES IDX 7 13 6 14 3 15 4 16 90 17 5 18 89 19 2 20 1 21 20 22 21 23
REMARK SMILES IDX 22 24 23 25 24 26 25 27 26 28 27 29 88 30 28 31 87 32 29 33
REMARK SMILES IDX 30 34 31 35 81 36 32 37 86 38 80 39 82 40 33 41 85 42 79 43
REMARK SMILES IDX 78 44 34 46 66 47 46 48 65 49 47 50 50 51 64 52 83 53 48 54
REMARK SMILES IDX 49 55 63 57 84 58 51 59 35 60 36 61 44 62 37 63 39 64 45 65
REMARK SMILES IDX 38 66 40 67 41 68 42 69 43 70 67 71 68 72 76 73 69 74 71 75
REMARK SMILES IDX 77 76 70 77 72 78 73 79 74 80 75 81 52 82 53 83 61 84 54 85
REMARK SMILES IDX 56 86 62 87 55 88 57 89 58 90 59 91 60 92
REMARK H PARENT 82 45 50 56
REMARK Flexibility Score: inf
ROOT
ATOM      1  C   UNL A   1      34.909  23.401  25.898  1.00  0.00     0.202 C 
ENDROOT
BRANCH   1   2
ATOM      2  C   UNL A   1      33.591  23.951  26.469  1.00  0.00     0.261 C 
BRANCH   2   3
ATOM      3  O   UNL A   1      33.283  25.246  25.948  1.00  0.00    -0.460 OA
BRANCH   3   4
ATOM      4  C   UNL A   1      32.123  25.815  26.337  1.00  0.00     0.340 C 
ATOM      5  O   UNL A   1      31.107  25.258  26.704  1.00  0.00    -0.246 OA
BRANCH   4   6
ATOM      6  C   UNL A   1      32.233  27.243  26.067  1.00  0.00     0.092 A 
ATOM      7  C   UNL A   1      31.644  27.945  25.016  1.00  0.00     0.111 A 
ATOM      8  N   UNL A   1      31.895  29.285  24.889  1.00  0.00    -0.249 NA
ATOM      9  C   UNL A   1      32.707  29.912  25.767  1.00  0.00     0.112 A 
ATOM     10  C   UNL A   1      33.059  27.927  26.984  1.00  0.00     0.020 A 
ATOM     11  C   UNL A   1      33.302  29.282  26.833  1.00  0.00     0.021 A 
BRANCH   7  12
ATOM     12  S   UNL A   1      30.529  27.494  23.704  1.00  0.00    -0.101 SA
BRANCH  12  13
ATOM     13  C   UNL A   1      31.436  26.681  22.362  1.00  0.00     0.112 C 
BRANCH  13  14
ATOM     14  C   UNL A   1      31.734  25.215  22.535  1.00  0.00    -0.037 A 
ATOM     15  C   UNL A   1      32.329  22.559  23.223  1.00  0.00     0.118 A 
ATOM     16  C   UNL A   1      33.192  23.278  22.401  1.00  0.00     0.047 A 
ATOM     17  C   UNL A   1      31.104  23.113  23.589  1.00  0.00     0.047 A 
ATOM     18  C   UNL A   1      32.896  24.597  22.051  1.00  0.00     0.008 A 
ATOM     19  C   UNL A   1      30.803  24.428  23.233  1.00  0.00     0.008 A 
BRANCH  15  20
ATOM     20  O   UNL A   1      32.758  21.317  23.610  1.00  0.00    -0.497 OA
ATOM     21  C   UNL A   1      32.150  20.848  24.814  1.00  0.00     0.278 C 
ENDBRANCH  15  20
ENDBRANCH  13  14
ENDBRANCH  12  13
ENDBRANCH   7  12
ENDBRANCH   4   6
ENDBRANCH   3   4
ENDBRANCH   2   3
ENDBRANCH   1   2
BRANCH   1  22
ATOM     22  O   UNL A   1      35.179  22.006  26.022  1.00  0.00    -0.374 OA
BRANCH  22  23
ATOM     23  C   UNL A   1      35.904  21.339  24.985  1.00  0.00     0.202 C 
BRANCH  23  24
ATOM     24  C   UNL A   1      37.152  20.550  25.380  1.00  0.00     0.261 C 
BRANCH  24  25
ATOM     25  O   UNL A   1      38.356  21.288  25.112  1.00  0.00    -0.460 OA
BRANCH  25  26
ATOM     26  C   UNL A   1      39.355  21.077  26.003  1.00  0.00     0.338 C 
ATOM     27  O   UNL A   1      39.967  20.040  26.193  1.00  0.00    -0.246 OA
BRANCH  26  28
ATOM     28  C   UNL A   1      39.758  22.359  26.603  1.00  0.00     0.060 A 
ATOM     29  C   UNL A   1      39.118  23.518  26.145  1.00  0.00     0.016 A 
ATOM     30  C   UNL A   1      40.789  22.435  27.542  1.00  0.00     0.016 A 
ATOM     31  C   UNL A   1      39.540  24.767  26.589  1.00  0.00     0.010 A 
ATOM     32  C   UNL A   1      41.221  23.691  27.976  1.00  0.00     0.010 A 
ATOM     33  C   UNL A   1      40.622  24.860  27.472  1.00  0.00    -0.014 A 
BRANCH  33  34
ATOM     34  C   UNL A   1      41.235  26.180  27.735  1.00  0.00     0.031 A 
ATOM     35  C   UNL A   1      42.641  26.428  27.262  1.00  0.00     0.074 A 
ATOM     36  C   UNL A   1      40.553  27.136  28.388  1.00  0.00     0.049 A 
ATOM     37  N   UNL A   1      43.382  27.496  27.394  1.00  0.00    -0.248 NA
ATOM     38  C   UNL A   1      43.299  25.322  26.544  1.00  0.00     0.031 C 
ATOM     39  C   UNL A   1      39.187  27.005  28.890  1.00  0.00     0.029 A 
ATOM     40  N   UNL A   1      40.932  28.400  28.762  1.00  0.00    -0.354 N 
ATOM     41  C   UNL A   1      44.598  27.188  26.798  1.00  0.00     0.074 A 
ATOM     42  C   UNL A   1      44.501  25.828  26.312  1.00  0.00     0.031 C 
ATOM     43  C   UNL A   1      38.852  28.133  29.539  1.00  0.00     0.029 A 
ATOM     44  C   UNL A   1      39.984  29.056  29.510  1.00  0.00     0.049 A 
ATOM     45  H   UNL A   1      41.799  28.799  28.519  1.00  0.00     0.167 HD
ATOM     46  C   UNL A   1      45.691  27.971  26.653  1.00  0.00     0.034 A 
ATOM     47  C   UNL A   1      40.037  30.260  30.116  1.00  0.00     0.034 A 
ATOM     48  C   UNL A   1      45.776  29.325  27.125  1.00  0.00     0.049 A 
ATOM     49  C   UNL A   1      41.275  31.105  29.959  1.00  0.00     0.074 A 
ATOM     50  C   UNL A   1      46.821  30.220  26.988  1.00  0.00     0.029 A 
ATOM     51  N   UNL A   1      44.781  29.976  27.837  1.00  0.00    -0.354 N 
ATOM     52  N   UNL A   1      42.367  30.850  29.279  1.00  0.00    -0.248 NA
ATOM     53  C   UNL A   1      41.275  32.416  30.626  1.00  0.00     0.031 C 
ATOM     54  C   UNL A   1      46.463  31.408  27.635  1.00  0.00     0.029 A 
ATOM     55  C   UNL A   1      45.189  31.256  28.159  1.00  0.00     0.049 A 
ATOM     56  H   UNL A   1      43.911  29.583  28.079  1.00  0.00     0.167 HD
ATOM     57  C   UNL A   1      43.170  31.978  29.409  1.00  0.00     0.074 A 
ATOM     58  C   UNL A   1      42.430  32.926  30.217  1.00  0.00     0.031 C 
ATOM     59  C   UNL A   1      44.414  32.205  28.918  1.00  0.00     0.034 A 
BRANCH  46  60
ATOM     60  C   UNL A   1      46.870  27.389  25.923  1.00  0.00     0.023 A 
ATOM     61  C   UNL A   1      47.698  26.455  26.578  1.00  0.00     0.012 A 
ATOM     62  C   UNL A   1      47.137  27.731  24.584  1.00  0.00     0.148 A 
ATOM     63  C   UNL A   1      48.790  25.891  25.921  1.00  0.00     0.002 A 
ATOM     64  C   UNL A   1      48.207  27.136  23.924  1.00  0.00     0.091 A 
ATOM     65  F   UNL A   1      46.356  28.643  23.987  1.00  0.00    -0.205 F 
ATOM     66  C   UNL A   1      49.038  26.224  24.593  1.00  0.00     0.022 A 
BRANCH  64  67
ATOM     67  S   UNL A   1      48.567  27.455  22.193  1.00  0.00     0.127 S 
ATOM     68  O   UNL A   1      48.667  26.098  21.659  1.00  0.00    -0.237 OA
ATOM     69  O   UNL A   1      47.382  28.195  21.760  1.00  0.00    -0.237 OA
ATOM     70  O   UNL A   1      49.802  28.228  22.179  1.00  0.00    -0.744 OA
ENDBRANCH  64  67
ENDBRANCH  46  60
BRANCH  47  71
ATOM     71  C   UNL A   1      38.863  30.752  30.890  1.00  0.00     0.023 A 
ATOM     72  C   UNL A   1      38.881  30.683  32.296  1.00  0.00     0.012 A 
ATOM     73  C   UNL A   1      37.746  31.315  30.244  1.00  0.00     0.148 A 
ATOM     74  C   UNL A   1      37.797  31.144  33.045  1.00  0.00     0.002 A 
ATOM     75  C   UNL A   1      36.692  31.820  30.997  1.00  0.00     0.091 A 
ATOM     76  F   UNL A   1      37.738  31.353  28.905  1.00  0.00    -0.205 F 
ATOM     77  C   UNL A   1      36.708  31.723  32.396  1.00  0.00     0.022 A 
BRANCH  75  78
ATOM     78  S   UNL A   1      35.314  32.698  30.248  1.00  0.00     0.127 S 
ATOM     79  O   UNL A   1      35.919  33.987  29.926  1.00  0.00    -0.237 OA
ATOM     80  O   UNL A   1      35.008  31.854  29.092  1.00  0.00    -0.237 OA
ATOM     81  O   UNL A   1      34.270  32.719  31.264  1.00  0.00    -0.744 OA
ENDBRANCH  75  78
ENDBRANCH  47  71
BRANCH  59  82
ATOM     82  C   UNL A   1      45.052  33.536  29.216  1.00  0.00     0.023 A 
ATOM     83  C   UNL A   1      45.884  33.670  30.344  1.00  0.00     0.012 A 
ATOM     84  C   UNL A   1      44.902  34.622  28.331  1.00  0.00     0.148 A 
ATOM     85  C   UNL A   1      46.539  34.874  30.601  1.00  0.00     0.002 A 
ATOM     86  C   UNL A   1      45.593  35.804  28.569  1.00  0.00     0.091 A 
ATOM     87  F   UNL A   1      44.090  34.478  27.274  1.00  0.00    -0.205 F 
ATOM     88  C   UNL A   1      46.404  35.935  29.708  1.00  0.00     0.022 A 
BRANCH  86  89
ATOM     89  S   UNL A   1      45.551  37.186  27.422  1.00  0.00     0.127 S 
ATOM     90  O   UNL A   1      44.114  37.397  27.262  1.00  0.00    -0.237 OA
ATOM     91  O   UNL A   1      46.243  38.236  28.171  1.00  0.00    -0.237 OA
ATOM     92  O   UNL A   1      46.256  36.734  26.230  1.00  0.00    -0.744 OA
ENDBRANCH  86  89
ENDBRANCH  59  82
ENDBRANCH  33  34
ENDBRANCH  26  28
ENDBRANCH  25  26
ENDBRANCH  24  25
ENDBRANCH  23  24
ENDBRANCH  22  23
ENDBRANCH   1  22
TORSDOF 21
ENDMDL
MODEL 2
REMARK VINA RESULT:     -10.8      4.987     10.195
REMARK SMILES COc1ccc(CSc2ncccc2C(=O)OCCOCCOC(=O)c2ccc(-c3c4nc(c(-c5cccc(S(=O)(=O)[O-])c5F)c5ccc([nH]5)c(-c5cccc(S(=O)(=O)[O-])c5F)c5nc(c(-c6cccc(S(=O)(=O)[O-])c6F)c6ccc3[nH]6)C=C5)C=C4)cc2)cc1
REMARK SMILES IDX 19 1 18 2 17 3 15 4 16 5 14 6 9 7 10 8 11 9 13 10 12 11 8 12
REMARK SMILES IDX 7 13 6 14 3 15 4 16 90 17 5 18 89 19 2 20 1 21 20 22 21 23
REMARK SMILES IDX 22 24 23 25 24 26 25 27 26 28 27 29 88 30 28 31 87 32 29 33
REMARK SMILES IDX 30 34 31 35 81 36 32 37 86 38 80 39 82 40 33 41 85 42 79 43
REMARK SMILES IDX 78 44 34 46 66 47 46 48 65 49 47 50 50 51 64 52 83 53 48 54
REMARK SMILES IDX 49 55 63 57 84 58 51 59 35 60 36 61 44 62 37 63 39 64 45 65
REMARK SMILES IDX 38 66 40 67 41 68 42 69 43 70 67 71 68 72 76 73 69 74 71 75
REMARK SMILES IDX 77 76 70 77 72 78 73 79 74 80 75 81 52 82 53 83 61 84 54 85
REMARK SMILES IDX 56 86 62 87 55 88 57 89 58 90 59 91 60 92
REMARK H PARENT 82 45 50 56
REMARK Flexibility Score: inf
ROOT
ATOM      1  C   UNL A   1      33.236  29.508  26.116  1.00  0.00     0.202 C 
ENDROOT
BRANCH   1   2
ATOM      2  C   UNL A   1      33.790  28.163  26.615  1.00  0.00     0.261 C 
BRANCH   2   3
ATOM      3  O   UNL A   1      34.047  27.259  25.537  1.00  0.00    -0.460 OA
BRANCH   3   4
ATOM      4  C   UNL A   1      33.493  26.031  25.607  1.00  0.00     0.340 C 
ATOM      5  O   UNL A   1      32.529  25.685  26.262  1.00  0.00    -0.246 OA
BRANCH   4   6
ATOM      6  C   UNL A   1      34.373  25.119  24.886  1.00  0.00     0.092 A 
ATOM      7  C   UNL A   1      34.169  24.591  23.612  1.00  0.00     0.111 A 
ATOM      8  N   UNL A   1      35.084  23.705  23.107  1.00  0.00    -0.249 NA
ATOM      9  C   UNL A   1      36.162  23.347  23.837  1.00  0.00     0.112 A 
ATOM     10  C   UNL A   1      35.520  24.746  25.620  1.00  0.00     0.020 A 
ATOM     11  C   UNL A   1      36.428  23.846  25.090  1.00  0.00     0.021 A 
BRANCH   7  12
ATOM     12  S   UNL A   1      32.922  24.825  22.365  1.00  0.00    -0.101 SA
BRANCH  12  13
ATOM     13  C   UNL A   1      31.463  23.818  22.740  1.00  0.00     0.112 C 
BRANCH  13  14
ATOM     14  C   UNL A   1      31.710  22.474  23.373  1.00  0.00    -0.037 A 
ATOM     15  C   UNL A   1      32.490  20.118  24.686  1.00  0.00     0.118 A 
ATOM     16  C   UNL A   1      32.388  20.144  23.297  1.00  0.00     0.047 A 
ATOM     17  C   UNL A   1      32.073  21.220  25.429  1.00  0.00     0.047 A 
ATOM     18  C   UNL A   1      31.993  21.312  22.642  1.00  0.00     0.008 A 
ATOM     19  C   UNL A   1      31.670  22.385  24.775  1.00  0.00     0.008 A 
BRANCH  15  20
ATOM     20  O   UNL A   1      32.999  18.970  25.232  1.00  0.00    -0.497 OA
ATOM     21  C   UNL A   1      32.294  17.790  24.847  1.00  0.00     0.278 C 
ENDBRANCH  15  20
ENDBRANCH  13  14
ENDBRANCH  12  13
ENDBRANCH   7  12
ENDBRANCH   4   6
ENDBRANCH   3   4
ENDBRANCH   2   3
ENDBRANCH   1   2
BRANCH   1  22
ATOM     22  O   UNL A   1      31.924  29.898  26.514  1.00  0.00    -0.374 OA
BRANCH  22  23
ATOM     23  C   UNL A   1      31.420  31.174  26.108  1.00  0.00     0.202 C 
BRANCH  23  24
ATOM     24  C   UNL A   1      31.544  32.336  27.093  1.00  0.00     0.261 C 
BRANCH  24  25
ATOM     25  O   UNL A   1      32.705  33.140  26.824  1.00  0.00    -0.460 OA
BRANCH  25  26
ATOM     26  C   UNL A   1      33.273  33.692  27.923  1.00  0.00     0.338 C 
ATOM     27  O   UNL A   1      32.794  34.543  28.653  1.00  0.00    -0.246 OA
BRANCH  26  28
ATOM     28  C   UNL A   1      34.512  32.968  28.254  1.00  0.00     0.060 A 
ATOM     29  C   UNL A   1      34.394  31.624  28.630  1.00  0.00     0.016 A 
ATOM     30  C   UNL A   1      35.753  33.608  28.266  1.00  0.00     0.016 A 
ATOM     31  C   UNL A   1      35.514  30.924  29.067  1.00  0.00     0.010 A 
ATOM     32  C   UNL A   1      36.873  32.908  28.719  1.00  0.00     0.010 A 
ATOM     33  C   UNL A   1      36.750  31.577  29.155  1.00  0.00    -0.014 A 
BRANCH  33  34
ATOM     34  C   UNL A   1      37.871  30.920  29.861  1.00  0.00     0.031 A 
ATOM     35  C   UNL A   1      38.172  31.334  31.275  1.00  0.00     0.074 A 
ATOM     36  C   UNL A   1      38.609  29.978  29.251  1.00  0.00     0.049 A 
ATOM     37  N   UNL A   1      39.111  30.911  32.079  1.00  0.00    -0.248 NA
ATOM     38  C   UNL A   1      37.298  32.367  31.860  1.00  0.00     0.031 C 
ATOM     39  C   UNL A   1      38.405  29.499  27.886  1.00  0.00     0.029 A 
ATOM     40  N   UNL A   1      39.697  29.272  29.699  1.00  0.00    -0.354 N 
ATOM     41  C   UNL A   1      38.957  31.635  33.254  1.00  0.00     0.074 A 
ATOM     42  C   UNL A   1      37.841  32.535  33.056  1.00  0.00     0.031 C 
ATOM     43  C   UNL A   1      39.361  28.601  27.592  1.00  0.00     0.029 A 
ATOM     44  C   UNL A   1      40.250  28.455  28.743  1.00  0.00     0.049 A 
ATOM     45  H   UNL A   1      40.048  29.345  30.616  1.00  0.00     0.167 HD
ATOM     46  C   UNL A   1      39.669  31.547  34.401  1.00  0.00     0.034 A 
ATOM     47  C   UNL A   1      41.360  27.690  28.791  1.00  0.00     0.034 A 
ATOM     48  C   UNL A   1      40.768  30.643  34.596  1.00  0.00     0.049 A 
ATOM     49  C   UNL A   1      42.150  27.627  30.073  1.00  0.00     0.074 A 
ATOM     50  C   UNL A   1      41.526  30.443  35.735  1.00  0.00     0.029 A 
ATOM     51  N   UNL A   1      41.273  29.794  33.623  1.00  0.00    -0.354 N 
ATOM     52  N   UNL A   1      41.913  28.219  31.219  1.00  0.00    -0.248 NA
ATOM     53  C   UNL A   1      43.343  26.766  30.078  1.00  0.00     0.031 C 
ATOM     54  C   UNL A   1      42.503  29.484  35.443  1.00  0.00     0.029 A 
ATOM     55  C   UNL A   1      42.341  29.077  34.128  1.00  0.00     0.049 A 
ATOM     56  H   UNL A   1      40.922  29.715  32.706  1.00  0.00     0.167 HD
ATOM     57  C   UNL A   1      42.904  27.780  32.089  1.00  0.00     0.074 A 
ATOM     58  C   UNL A   1      43.734  26.856  31.343  1.00  0.00     0.031 C 
ATOM     59  C   UNL A   1      43.120  28.121  33.384  1.00  0.00     0.034 A 
BRANCH  46  60
ATOM     60  C   UNL A   1      39.256  32.434  35.543  1.00  0.00     0.023 A 
ATOM     61  C   UNL A   1      38.355  31.944  36.509  1.00  0.00     0.012 A 
ATOM     62  C   UNL A   1      39.785  33.731  35.684  1.00  0.00     0.148 A 
ATOM     63  C   UNL A   1      37.964  32.741  37.584  1.00  0.00     0.002 A 
ATOM     64  C   UNL A   1      39.419  34.506  36.779  1.00  0.00     0.091 A 
ATOM     65  F   UNL A   1      40.618  34.190  34.739  1.00  0.00    -0.205 F 
ATOM     66  C   UNL A   1      38.503  34.017  37.724  1.00  0.00     0.022 A 
BRANCH  64  67
ATOM     67  S   UNL A   1      40.109  36.138  37.078  1.00  0.00     0.127 S 
ATOM     68  O   UNL A   1      39.859  36.801  35.799  1.00  0.00    -0.237 OA
ATOM     69  O   UNL A   1      39.288  36.624  38.188  1.00  0.00    -0.237 OA
ATOM     70  O   UNL A   1      41.510  35.923  37.411  1.00  0.00    -0.744 OA
ENDBRANCH  64  67
ENDBRANCH  46  60
BRANCH  47  71
ATOM     71  C   UNL A   1      41.763  26.892  27.600  1.00  0.00     0.023 A 
ATOM     72  C   UNL A   1      42.411  27.527  26.525  1.00  0.00     0.012 A 
ATOM     73  C   UNL A   1      41.534  25.503  27.541  1.00  0.00     0.148 A 
ATOM     74  C   UNL A   1      42.804  26.800  25.400  1.00  0.00     0.002 A 
ATOM     75  C   UNL A   1      41.975  24.775  26.441  1.00  0.00     0.091 A 
ATOM     76  F   UNL A   1      40.896  24.919  28.565  1.00  0.00    -0.205 F 
ATOM     77  C   UNL A   1      42.596  25.423  25.364  1.00  0.00     0.022 A 
BRANCH  75  78
ATOM     78  S   UNL A   1      41.865  22.983  26.373  1.00  0.00     0.127 S 
ATOM     79  O   UNL A   1      42.549  22.593  27.603  1.00  0.00    -0.237 OA
ATOM     80  O   UNL A   1      40.417  22.766  26.377  1.00  0.00    -0.237 OA
ATOM     81  O   UNL A   1      42.521  22.601  25.130  1.00  0.00    -0.744 OA
ENDBRANCH  75  78
ENDBRANCH  47  71
BRANCH  59  82
ATOM     82  C   UNL A   1      44.284  27.479  34.093  1.00  0.00     0.023 A 
ATOM     83  C   UNL A   1      45.531  28.130  34.111  1.00  0.00     0.012 A 
ATOM     84  C   UNL A   1      44.116  26.280  34.815  1.00  0.00     0.148 A 
ATOM     85  C   UNL A   1      46.603  27.587  34.819  1.00  0.00     0.002 A 
ATOM     86  C   UNL A   1      45.176  25.768  35.553  1.00  0.00     0.091 A 
ATOM     87  F   UNL A   1      42.925  25.665  34.767  1.00  0.00    -0.205 F 
ATOM     88  C   UNL A   1      46.422  26.415  35.549  1.00  0.00     0.022 A 
BRANCH  86  89
ATOM     89  S   UNL A   1      45.003  24.316  36.597  1.00  0.00     0.127 S 
ATOM     90  O   UNL A   1      44.273  23.404  35.719  1.00  0.00    -0.237 OA
ATOM     91  O   UNL A   1      46.395  23.940  36.845  1.00  0.00    -0.237 OA
ATOM     92  O   UNL A   1      44.281  24.761  37.781  1.00  0.00    -0.744 OA
ENDBRANCH  86  89
ENDBRANCH  59  82
ENDBRANCH  33  34
ENDBRANCH  26  28
ENDBRANCH  25  26
ENDBRANCH  24  25
ENDBRANCH  23  24
ENDBRANCH  22  23
ENDBRANCH   1  22
TORSDOF 21
ENDMDL
MODEL 3
REMARK VINA RESULT:     -10.7      1.936      2.713
REMARK SMILES COc1ccc(CSc2ncccc2C(=O)OCCOCCOC(=O)c2ccc(-c3c4nc(c(-c5cccc(S(=O)(=O)[O-])c5F)c5ccc([nH]5)c(-c5cccc(S(=O)(=O)[O-])c5F)c5nc(c(-c6cccc(S(=O)(=O)[O-])c6F)c6ccc3[nH]6)C=C5)C=C4)cc2)cc1
REMARK SMILES IDX 19 1 18 2 17 3 15 4 16 5 14 6 9 7 10 8 11 9 13 10 12 11 8 12
REMARK SMILES IDX 7 13 6 14 3 15 4 16 90 17 5 18 89 19 2 20 1 21 20 22 21 23
REMARK SMILES IDX 22 24 23 25 24 26 25 27 26 28 27 29 88 30 28 31 87 32 29 33
REMARK SMILES IDX 30 34 31 35 81 36 32 37 86 38 80 39 82 40 33 41 85 42 79 43
REMARK SMILES IDX 78 44 34 46 66 47 46 48 65 49 47 50 50 51 64 52 83 53 48 54
REMARK SMILES IDX 49 55 63 57 84 58 51 59 35 60 36 61 44 62 37 63 39 64 45 65
REMARK SMILES IDX 38 66 40 67 41 68 42 69 43 70 67 71 68 72 76 73 69 74 71 75
REMARK SMILES IDX 77 76 70 77 72 78 73 79 74 80 75 81 52 82 53 83 61 84 54 85
REMARK SMILES IDX 56 86 62 87 55 88 57 89 58 90 59 91 60 92
REMARK H PARENT 82 45 50 56
REMARK Flexibility Score: inf
ROOT
ATOM      1  C   UNL A   1      35.636  23.549  25.738  1.00  0.00     0.202 C 
ENDROOT
BRANCH   1   2
ATOM      2  C   UNL A   1      34.279  24.125  26.179  1.00  0.00     0.261 C 
BRANCH   2   3
ATOM      3  O   UNL A   1      33.241  23.143  26.128  1.00  0.00    -0.460 OA
BRANCH   3   4
ATOM      4  C   UNL A   1      32.008  23.519  26.525  1.00  0.00     0.340 C 
ATOM      5  O   UNL A   1      31.449  23.251  27.571  1.00  0.00    -0.246 OA
BRANCH   4   6
ATOM      6  C   UNL A   1      31.368  24.169  25.389  1.00  0.00     0.092 A 
ATOM      7  C   UNL A   1      31.616  23.930  24.038  1.00  0.00     0.111 A 
ATOM      8  N   UNL A   1      30.951  24.674  23.099  1.00  0.00    -0.249 NA
ATOM      9  C   UNL A   1      30.074  25.627  23.481  1.00  0.00     0.112 A 
ATOM     10  C   UNL A   1      30.430  25.157  25.761  1.00  0.00     0.020 A 
ATOM     11  C   UNL A   1      29.773  25.898  24.794  1.00  0.00     0.021 A 
BRANCH   7  12
ATOM     12  S   UNL A   1      32.651  22.780  23.158  1.00  0.00    -0.101 SA
BRANCH  12  13
ATOM     13  C   UNL A   1      31.781  21.207  22.923  1.00  0.00     0.112 C 
BRANCH  13  14
ATOM     14  C   UNL A   1      32.301  20.022  23.694  1.00  0.00    -0.037 A 
ATOM     15  C   UNL A   1      32.931  17.660  25.075  1.00  0.00     0.118 A 
ATOM     16  C   UNL A   1      32.897  18.878  25.751  1.00  0.00     0.047 A 
ATOM     17  C   UNL A   1      32.789  17.637  23.689  1.00  0.00     0.047 A 
ATOM     18  C   UNL A   1      32.591  20.055  25.065  1.00  0.00     0.008 A 
ATOM     19  C   UNL A   1      32.491  18.814  23.002  1.00  0.00     0.008 A 
BRANCH  15  20
ATOM     20  O   UNL A   1      33.121  16.546  25.848  1.00  0.00    -0.497 OA
ATOM     21  C   UNL A   1      32.561  15.357  25.290  1.00  0.00     0.278 C 
ENDBRANCH  15  20
ENDBRANCH  13  14
ENDBRANCH  12  13
ENDBRANCH   7  12
ENDBRANCH   4   6
ENDBRANCH   3   4
ENDBRANCH   2   3
ENDBRANCH   1   2
BRANCH   1  22
ATOM     22  O   UNL A   1      35.996  22.239  26.170  1.00  0.00    -0.374 OA
BRANCH  22  23
ATOM     23  C   UNL A   1      36.089  21.185  25.207  1.00  0.00     0.202 C 
BRANCH  23  24
ATOM     24  C   UNL A   1      37.384  20.373  25.161  1.00  0.00     0.261 C 
BRANCH  24  25
ATOM     25  O   UNL A   1      38.541  21.220  25.066  1.00  0.00    -0.460 OA
BRANCH  25  26
ATOM     26  C   UNL A   1      39.453  21.038  26.052  1.00  0.00     0.338 C 
ATOM     27  O   UNL A   1      40.034  20.005  26.338  1.00  0.00    -0.246 OA
BRANCH  26  28
ATOM     28  C   UNL A   1      39.815  22.341  26.634  1.00  0.00     0.060 A 
ATOM     29  C   UNL A   1      39.190  23.480  26.110  1.00  0.00     0.016 A 
ATOM     30  C   UNL A   1      40.795  22.454  27.622  1.00  0.00     0.016 A 
ATOM     31  C   UNL A   1      39.579  24.745  26.538  1.00  0.00     0.010 A 
ATOM     32  C   UNL A   1      41.194  23.725  28.040  1.00  0.00     0.010 A 
ATOM     33  C   UNL A   1      40.614  24.874  27.472  1.00  0.00    -0.014 A 
BRANCH  33  34
ATOM     34  C   UNL A   1      41.202  26.206  27.727  1.00  0.00     0.031 A 
ATOM     35  C   UNL A   1      42.613  26.468  27.278  1.00  0.00     0.074 A 
ATOM     36  C   UNL A   1      40.493  27.161  28.352  1.00  0.00     0.049 A 
ATOM     37  N   UNL A   1      43.335  27.548  27.409  1.00  0.00    -0.248 NA
ATOM     38  C   UNL A   1      43.302  25.362  26.591  1.00  0.00     0.031 C 
ATOM     39  C   UNL A   1      39.119  27.018  28.828  1.00  0.00     0.029 A 
ATOM     40  N   UNL A   1      40.845  28.437  28.714  1.00  0.00    -0.354 N 
ATOM     41  C   UNL A   1      44.567  27.250  26.843  1.00  0.00     0.074 A 
ATOM     42  C   UNL A   1      44.500  25.882  26.376  1.00  0.00     0.031 C 
ATOM     43  C   UNL A   1      38.754  28.150  29.453  1.00  0.00     0.029 A 
ATOM     44  C   UNL A   1      39.873  29.090  29.433  1.00  0.00     0.049 A 
ATOM     45  H   UNL A   1      41.711  28.844  28.482  1.00  0.00     0.167 HD
ATOM     46  C   UNL A   1      45.652  28.047  26.708  1.00  0.00     0.034 A 
ATOM     47  C   UNL A   1      39.896  30.303  30.021  1.00  0.00     0.034 A 
ATOM     48  C   UNL A   1      45.708  29.409  27.160  1.00  0.00     0.049 A 
ATOM     49  C   UNL A   1      41.124  31.164  29.876  1.00  0.00     0.074 A 
ATOM     50  C   UNL A   1      46.742  30.318  27.031  1.00  0.00     0.029 A 
ATOM     51  N   UNL A   1      44.689  30.055  27.843  1.00  0.00    -0.354 N 
ATOM     52  N   UNL A   1      42.234  30.915  29.223  1.00  0.00    -0.248 NA
ATOM     53  C   UNL A   1      41.092  32.484  30.523  1.00  0.00     0.031 C 
ATOM     54  C   UNL A   1      46.354  31.510  27.652  1.00  0.00     0.029 A 
ATOM     55  C   UNL A   1      45.072  31.347  28.154  1.00  0.00     0.049 A 
ATOM     56  H   UNL A   1      43.820  29.653  28.073  1.00  0.00     0.167 HD
ATOM     57  C   UNL A   1      43.017  32.057  29.351  1.00  0.00     0.074 A 
ATOM     58  C   UNL A   1      42.247  33.005  30.129  1.00  0.00     0.031 C 
ATOM     59  C   UNL A   1      44.268  32.295  28.882  1.00  0.00     0.034 A 
BRANCH  46  60
ATOM     60  C   UNL A   1      46.854  27.471  26.011  1.00  0.00     0.023 A 
ATOM     61  C   UNL A   1      46.977  27.610  24.614  1.00  0.00     0.012 A 
ATOM     62  C   UNL A   1      47.876  26.830  26.736  1.00  0.00     0.148 A 
ATOM     63  C   UNL A   1      48.086  27.095  23.945  1.00  0.00     0.002 A 
ATOM     64  C   UNL A   1      48.996  26.352  26.066  1.00  0.00     0.091 A 
ATOM     65  F   UNL A   1      47.726  26.682  28.060  1.00  0.00    -0.205 F 
ATOM     66  C   UNL A   1      49.099  26.475  24.671  1.00  0.00     0.022 A 
BRANCH  64  67
ATOM     67  S   UNL A   1      50.382  25.595  26.924  1.00  0.00     0.127 S 
ATOM     68  O   UNL A   1      50.792  26.670  27.826  1.00  0.00    -0.237 OA
ATOM     69  O   UNL A   1      49.751  24.452  27.585  1.00  0.00    -0.237 OA
ATOM     70  O   UNL A   1      51.345  25.241  25.891  1.00  0.00    -0.744 OA
ENDBRANCH  64  67
ENDBRANCH  46  60
BRANCH  47  71
ATOM     71  C   UNL A   1      38.700  30.790  30.764  1.00  0.00     0.023 A 
ATOM     72  C   UNL A   1      38.614  30.581  32.154  1.00  0.00     0.012 A 
ATOM     73  C   UNL A   1      37.664  31.483  30.108  1.00  0.00     0.148 A 
ATOM     74  C   UNL A   1      37.507  31.033  32.874  1.00  0.00     0.002 A 
ATOM     75  C   UNL A   1      36.590  31.976  30.839  1.00  0.00     0.091 A 
ATOM     76  F   UNL A   1      37.754  31.653  28.782  1.00  0.00    -0.205 F 
ATOM     77  C   UNL A   1      36.501  31.740  32.219  1.00  0.00     0.022 A 
BRANCH  75  78
ATOM     78  S   UNL A   1      35.320  33.008  30.096  1.00  0.00     0.127 S 
ATOM     79  O   UNL A   1      36.116  33.927  29.287  1.00  0.00    -0.237 OA
ATOM     80  O   UNL A   1      34.540  32.031  29.335  1.00  0.00    -0.237 OA
ATOM     81  O   UNL A   1      34.601  33.604  31.215  1.00  0.00    -0.744 OA
ENDBRANCH  75  78
ENDBRANCH  47  71
BRANCH  59  82
ATOM     82  C   UNL A   1      44.880  33.639  29.173  1.00  0.00     0.023 A 
ATOM     83  C   UNL A   1      45.644  33.817  30.342  1.00  0.00     0.012 A 
ATOM     84  C   UNL A   1      44.776  34.695  28.245  1.00  0.00     0.148 A 
ATOM     85  C   UNL A   1      46.277  35.033  30.596  1.00  0.00     0.002 A 
ATOM     86  C   UNL A   1      45.446  35.889  28.484  1.00  0.00     0.091 A 
ATOM     87  F   UNL A   1      44.027  34.511  27.147  1.00  0.00    -0.205 F 
ATOM     88  C   UNL A   1      46.189  36.063  29.662  1.00  0.00     0.022 A 
BRANCH  86  89
ATOM     89  S   UNL A   1      45.463  37.232  27.291  1.00  0.00     0.127 S 
ATOM     90  O   UNL A   1      46.159  38.281  28.032  1.00  0.00    -0.237 OA
ATOM     91  O   UNL A   1      46.227  36.658  26.183  1.00  0.00    -0.237 OA
ATOM     92  O   UNL A   1      44.066  37.504  26.979  1.00  0.00    -0.744 OA
ENDBRANCH  86  89
ENDBRANCH  59  82
ENDBRANCH  33  34
ENDBRANCH  26  28
ENDBRANCH  25  26
ENDBRANCH  24  25
ENDBRANCH  23  24
ENDBRANCH  22  23
ENDBRANCH   1  22
TORSDOF 21
ENDMDL
