MODEL 1
REMARK VINA RESULT:     -11.4      0.000      0.000
REMARK SMILES [H]/N=c1\ccc2c(C)c(CC(=O)OCCOCCOC(=O)c3ccc(-c4c5nc(c(-c6cccc(S(=O)(=O)[O-])c6F)c6ccc([nH]6)c(-c6cccc(S(=O)(=O)[O-])c6F)c6nc(c(-c7cccc(S(=O)(=O)[O-])c7F)c7ccc4[nH]7)C=C6)C=C5)cc3)c(O)oc-2c1
REMARK SMILES IDX 17 1 16 2 15 3 14 4 13 5 11 6 12 7 10 8 9 9 8 10 7 11 6 12
REMARK SMILES IDX 5 13 88 14 85 15 4 16 89 17 87 18 3 19 2 20 1 21 86 22 18 24
REMARK SMILES IDX 19 25 20 26 21 27 22 28 23 29 84 30 24 31 83 32 25 33 26 34
REMARK SMILES IDX 27 35 77 36 28 37 82 38 76 39 78 40 29 41 81 42 75 43 74 44
REMARK SMILES IDX 30 46 62 47 42 48 61 49 43 50 46 51 60 52 79 53 44 54 45 55
REMARK SMILES IDX 59 57 80 58 47 59 31 60 32 61 40 62 33 63 35 64 41 65 34 66
REMARK SMILES IDX 36 67 37 68 38 69 39 70 63 71 64 72 72 73 65 74 67 75 73 76
REMARK SMILES IDX 66 77 68 78 69 79 70 80 71 81 48 82 49 83 57 84 50 85 52 86
REMARK SMILES IDX 58 87 51 88 53 89 54 90 55 91 56 92
REMARK H PARENT 86 23 78 45 46 56
REMARK Flexibility Score: inf
ROOT
ATOM      1  C   UNL A   1      35.802  20.902  25.008  1.00  0.00     0.202 C 
ENDROOT
BRANCH   1   2
ATOM      2  O   UNL A   1      35.717  22.183  25.622  1.00  0.00    -0.374 OA
BRANCH   2   3
ATOM      3  C   UNL A   1      35.610  23.309  24.752  1.00  0.00     0.202 C 
BRANCH   3   4
ATOM      4  C   UNL A   1      34.855  23.129  23.426  1.00  0.00     0.261 C 
BRANCH   4   5
ATOM      5  O   UNL A   1      33.811  24.103  23.189  1.00  0.00    -0.463 OA
BRANCH   5   6
ATOM      6  C   UNL A   1      32.717  23.996  23.991  1.00  0.00     0.310 C 
ATOM      7  O   UNL A   1      32.503  24.703  24.971  1.00  0.00    -0.252 OA
BRANCH   6   8
ATOM      8  C   UNL A   1      31.763  22.859  23.623  1.00  0.00     0.166 C 
BRANCH   8   9
ATOM      9  C   UNL A   1      32.066  21.450  24.104  1.00  0.00     0.048 A 
ATOM     10  C   UNL A   1      31.892  20.613  21.681  1.00  0.00     0.046 C 
ATOM     11  C   UNL A   1      32.251  20.343  23.127  1.00  0.00    -0.029 A 
ATOM     12  C   UNL A   1      32.659  19.123  23.576  1.00  0.00     0.021 A 
ATOM     13  C   UNL A   1      33.026  18.018  22.688  1.00  0.00     0.014 A 
ATOM     14  C   UNL A   1      32.691  18.866  25.020  1.00  0.00     0.140 A 
ATOM     15  C   UNL A   1      32.082  21.150  25.424  1.00  0.00     0.286 A 
ATOM     16  C   UNL A   1      33.391  16.818  23.164  1.00  0.00     0.028 A 
ATOM     17  C   UNL A   1      32.999  17.660  25.515  1.00  0.00     0.075 A 
ATOM     18  O   UNL A   1      32.305  19.870  25.887  1.00  0.00    -0.425 OA
ATOM     19  C   UNL A   1      33.375  16.545  24.621  1.00  0.00     0.058 A 
ATOM     20  N   UNL A   1      33.670  15.389  25.119  1.00  0.00    -0.301 NA
ATOM     21  H   UNL A   1      33.921  14.647  24.524  1.00  0.00     0.188 HD
BRANCH  15  22
ATOM     22  O   UNL A   1      31.849  22.086  26.408  1.00  0.00    -0.480 OA
ATOM     23  H   UNL A   1      32.127  22.972  26.288  1.00  0.00     0.297 HD
ENDBRANCH  15  22
ENDBRANCH   8   9
ENDBRANCH   6   8
ENDBRANCH   5   6
ENDBRANCH   4   5
ENDBRANCH   3   4
ENDBRANCH   2   3
ENDBRANCH   1   2
BRANCH   1  24
ATOM     24  C   UNL A   1      37.155  20.183  25.017  1.00  0.00     0.261 C 
BRANCH  24  25
ATOM     25  O   UNL A   1      38.257  21.098  25.064  1.00  0.00    -0.460 OA
BRANCH  25  26
ATOM     26  C   UNL A   1      39.218  20.779  25.968  1.00  0.00     0.338 C 
ATOM     27  O   UNL A   1      39.728  19.684  26.145  1.00  0.00    -0.246 OA
BRANCH  26  28
ATOM     28  C   UNL A   1      39.723  22.022  26.576  1.00  0.00     0.060 A 
ATOM     29  C   UNL A   1      40.750  22.006  27.521  1.00  0.00     0.016 A 
ATOM     30  C   UNL A   1      39.142  23.229  26.168  1.00  0.00     0.016 A 
ATOM     31  C   UNL A   1      41.220  23.216  28.035  1.00  0.00     0.010 A 
ATOM     32  C   UNL A   1      39.603  24.433  26.690  1.00  0.00     0.010 A 
ATOM     33  C   UNL A   1      40.664  24.435  27.606  1.00  0.00    -0.014 A 
BRANCH  33  34
ATOM     34  C   UNL A   1      41.298  25.725  27.962  1.00  0.00     0.031 A 
ATOM     35  C   UNL A   1      40.541  26.800  28.682  1.00  0.00     0.074 A 
ATOM     36  C   UNL A   1      42.553  25.942  27.524  1.00  0.00     0.049 A 
ATOM     37  N   UNL A   1      40.936  28.007  28.988  1.00  0.00    -0.248 NA
ATOM     38  C   UNL A   1      39.167  26.489  29.108  1.00  0.00     0.031 C 
ATOM     39  C   UNL A   1      43.353  24.980  26.761  1.00  0.00     0.029 A 
ATOM     40  N   UNL A   1      43.363  27.044  27.623  1.00  0.00    -0.354 N 
ATOM     41  C   UNL A   1      39.861  28.610  29.627  1.00  0.00     0.074 A 
ATOM     42  C   UNL A   1      38.791  27.636  29.665  1.00  0.00     0.031 C 
ATOM     43  C   UNL A   1      44.531  25.539  26.447  1.00  0.00     0.029 A 
ATOM     44  C   UNL A   1      44.557  26.904  26.956  1.00  0.00     0.049 A 
ATOM     45  H   UNL A   1      43.113  27.855  28.122  1.00  0.00     0.167 HD
ATOM     46  C   UNL A   1      39.788  29.861  30.139  1.00  0.00     0.034 A 
ATOM     47  C   UNL A   1      45.555  27.785  26.754  1.00  0.00     0.034 A 
ATOM     48  C   UNL A   1      40.864  30.816  30.102  1.00  0.00     0.049 A 
ATOM     49  C   UNL A   1      45.448  29.156  27.349  1.00  0.00     0.074 A 
ATOM     50  C   UNL A   1      40.895  32.089  30.645  1.00  0.00     0.029 A 
ATOM     51  N   UNL A   1      42.086  30.615  29.482  1.00  0.00    -0.354 N 
ATOM     52  N   UNL A   1      44.460  29.674  28.038  1.00  0.00    -0.248 NA
ATOM     53  C   UNL A   1      46.597  30.054  27.172  1.00  0.00     0.031 C 
ATOM     54  C   UNL A   1      42.129  32.666  30.334  1.00  0.00     0.029 A 
ATOM     55  C   UNL A   1      42.879  31.738  29.630  1.00  0.00     0.049 A 
ATOM     56  H   UNL A   1      42.351  29.794  29.008  1.00  0.00     0.167 HD
ATOM     57  C   UNL A   1      44.883  30.942  28.410  1.00  0.00     0.074 A 
ATOM     58  C   UNL A   1      46.216  31.115  27.870  1.00  0.00     0.031 C 
ATOM     59  C   UNL A   1      44.221  31.878  29.130  1.00  0.00     0.034 A 
BRANCH  46  60
ATOM     60  C   UNL A   1      38.526  30.287  30.836  1.00  0.00     0.023 A 
ATOM     61  C   UNL A   1      38.421  30.117  32.231  1.00  0.00     0.012 A 
ATOM     62  C   UNL A   1      37.536  31.016  30.148  1.00  0.00     0.148 A 
ATOM     63  C   UNL A   1      37.354  30.676  32.933  1.00  0.00     0.002 A 
ATOM     64  C   UNL A   1      36.490  31.593  30.859  1.00  0.00     0.091 A 
ATOM     65  F   UNL A   1      37.659  31.159  28.821  1.00  0.00    -0.205 F 
ATOM     66  C   UNL A   1      36.398  31.425  32.250  1.00  0.00     0.022 A 
BRANCH  64  67
ATOM     67  S   UNL A   1      35.238  32.623  30.085  1.00  0.00     0.127 S 
ATOM     68  O   UNL A   1      36.040  33.750  29.606  1.00  0.00    -0.237 OA
ATOM     69  O   UNL A   1      34.729  31.746  29.032  1.00  0.00    -0.237 OA
ATOM     70  O   UNL A   1      34.281  32.954  31.132  1.00  0.00    -0.744 OA
ENDBRANCH  64  67
ENDBRANCH  46  60
BRANCH  47  71
ATOM     71  C   UNL A   1      46.753  27.364  25.982  1.00  0.00     0.023 A 
ATOM     72  C   UNL A   1      46.836  27.662  24.611  1.00  0.00     0.012 A 
ATOM     73  C   UNL A   1      47.839  26.734  26.623  1.00  0.00     0.148 A 
ATOM     74  C   UNL A   1      47.976  27.326  23.881  1.00  0.00     0.002 A 
ATOM     75  C   UNL A   1      48.987  26.438  25.899  1.00  0.00     0.091 A 
ATOM     76  F   UNL A   1      47.733  26.464  27.930  1.00  0.00    -0.205 F 
ATOM     77  C   UNL A   1      49.053  26.723  24.526  1.00  0.00     0.022 A 
BRANCH  75  78
ATOM     78  S   UNL A   1      50.460  25.753  26.663  1.00  0.00     0.127 S 
ATOM     79  O   UNL A   1      51.353  25.612  25.515  1.00  0.00    -0.237 OA
ATOM     80  O   UNL A   1      50.829  26.812  27.604  1.00  0.00    -0.237 OA
ATOM     81  O   UNL A   1      50.041  24.506  27.289  1.00  0.00    -0.744 OA
ENDBRANCH  75  78
ENDBRANCH  47  71
BRANCH  59  82
ATOM     82  C   UNL A   1      44.936  33.163  29.438  1.00  0.00     0.023 A 
ATOM     83  C   UNL A   1      45.762  33.254  30.574  1.00  0.00     0.012 A 
ATOM     84  C   UNL A   1      44.866  34.243  28.535  1.00  0.00     0.148 A 
ATOM     85  C   UNL A   1      46.499  34.413  30.815  1.00  0.00     0.002 A 
ATOM     86  C   UNL A   1      45.632  35.378  28.762  1.00  0.00     0.091 A 
ATOM     87  F   UNL A   1      44.062  34.130  27.468  1.00  0.00    -0.205 F 
ATOM     88  C   UNL A   1      46.445  35.467  29.904  1.00  0.00     0.022 A 
BRANCH  86  89
ATOM     89  S   UNL A   1      45.680  36.754  27.610  1.00  0.00     0.127 S 
ATOM     90  O   UNL A   1      46.602  37.670  28.281  1.00  0.00    -0.237 OA
ATOM     91  O   UNL A   1      46.213  36.127  26.402  1.00  0.00    -0.237 OA
ATOM     92  O   UNL A   1      44.308  37.231  27.492  1.00  0.00    -0.744 OA
ENDBRANCH  86  89
ENDBRANCH  59  82
ENDBRANCH  33  34
ENDBRANCH  26  28
ENDBRANCH  25  26
ENDBRANCH  24  25
ENDBRANCH   1  24
TORSDOF 19
ENDMDL
MODEL 2
REMARK VINA RESULT:     -11.4      2.447      3.816
REMARK SMILES [H]/N=c1\ccc2c(C)c(CC(=O)OCCOCCOC(=O)c3ccc(-c4c5nc(c(-c6cccc(S(=O)(=O)[O-])c6F)c6ccc([nH]6)c(-c6cccc(S(=O)(=O)[O-])c6F)c6nc(c(-c7cccc(S(=O)(=O)[O-])c7F)c7ccc4[nH]7)C=C6)C=C5)cc3)c(O)oc-2c1
REMARK SMILES IDX 17 1 16 2 15 3 14 4 13 5 11 6 12 7 10 8 9 9 8 10 7 11 6 12
REMARK SMILES IDX 5 13 88 14 85 15 4 16 89 17 87 18 3 19 2 20 1 21 86 22 18 24
REMARK SMILES IDX 19 25 20 26 21 27 22 28 23 29 84 30 24 31 83 32 25 33 26 34
REMARK SMILES IDX 27 35 77 36 28 37 82 38 76 39 78 40 29 41 81 42 75 43 74 44
REMARK SMILES IDX 30 46 62 47 42 48 61 49 43 50 46 51 60 52 79 53 44 54 45 55
REMARK SMILES IDX 59 57 80 58 47 59 31 60 32 61 40 62 33 63 35 64 41 65 34 66
REMARK SMILES IDX 36 67 37 68 38 69 39 70 63 71 64 72 72 73 65 74 67 75 73 76
REMARK SMILES IDX 66 77 68 78 69 79 70 80 71 81 48 82 49 83 57 84 50 85 52 86
REMARK SMILES IDX 58 87 51 88 53 89 54 90 55 91 56 92
REMARK H PARENT 86 23 78 45 46 56
REMARK Flexibility Score: inf
ROOT
ATOM      1  C   UNL A   1      36.318  20.241  25.013  1.00  0.00     0.202 C 
ENDROOT
BRANCH   1   2
ATOM      2  O   UNL A   1      35.860  21.588  25.055  1.00  0.00    -0.374 OA
BRANCH   2   3
ATOM      3  C   UNL A   1      35.153  21.992  26.226  1.00  0.00     0.202 C 
BRANCH   3   4
ATOM      4  C   UNL A   1      33.719  21.476  26.420  1.00  0.00     0.261 C 
BRANCH   4   5
ATOM      5  O   UNL A   1      32.953  21.350  25.198  1.00  0.00    -0.463 OA
BRANCH   5   6
ATOM      6  C   UNL A   1      31.727  21.939  25.212  1.00  0.00     0.310 C 
ATOM      7  O   UNL A   1      30.731  21.458  25.744  1.00  0.00    -0.252 OA
BRANCH   6   8
ATOM      8  C   UNL A   1      31.642  23.258  24.442  1.00  0.00     0.166 C 
BRANCH   8   9
ATOM      9  C   UNL A   1      31.764  24.569  25.199  1.00  0.00     0.048 A 
ATOM     10  C   UNL A   1      34.131  24.870  24.247  1.00  0.00     0.046 C 
ATOM     11  C   UNL A   1      32.956  25.439  25.013  1.00  0.00    -0.029 A 
ATOM     12  C   UNL A   1      32.975  26.672  25.594  1.00  0.00     0.021 A 
ATOM     13  C   UNL A   1      34.021  27.666  25.342  1.00  0.00     0.014 A 
ATOM     14  C   UNL A   1      31.931  27.022  26.563  1.00  0.00     0.140 A 
ATOM     15  C   UNL A   1      30.845  24.930  26.124  1.00  0.00     0.286 A 
ATOM     16  C   UNL A   1      34.027  28.858  25.958  1.00  0.00     0.028 A 
ATOM     17  C   UNL A   1      31.949  28.184  27.230  1.00  0.00     0.075 A 
ATOM     18  O   UNL A   1      30.955  26.091  26.861  1.00  0.00    -0.425 OA
ATOM     19  C   UNL A   1      33.000  29.191  26.974  1.00  0.00     0.058 A 
ATOM     20  N   UNL A   1      32.998  30.307  27.627  1.00  0.00    -0.301 NA
ATOM     21  H   UNL A   1      33.697  30.978  27.456  1.00  0.00     0.188 HD
BRANCH  15  22
ATOM     22  O   UNL A   1      29.743  24.160  26.426  1.00  0.00    -0.480 OA
ATOM     23  H   UNL A   1      28.998  24.165  25.859  1.00  0.00     0.297 HD
ENDBRANCH  15  22
ENDBRANCH   8   9
ENDBRANCH   6   8
ENDBRANCH   5   6
ENDBRANCH   4   5
ENDBRANCH   3   4
ENDBRANCH   2   3
ENDBRANCH   1   2
BRANCH   1  24
ATOM     24  C   UNL A   1      37.830  19.992  25.001  1.00  0.00     0.261 C 
BRANCH  24  25
ATOM     25  O   UNL A   1      38.578  21.153  25.381  1.00  0.00    -0.460 OA
BRANCH  25  26
ATOM     26  C   UNL A   1      39.647  20.902  26.178  1.00  0.00     0.338 C 
ATOM     27  O   UNL A   1      40.270  19.856  26.265  1.00  0.00    -0.246 OA
BRANCH  26  28
ATOM     28  C   UNL A   1      40.092  22.170  26.781  1.00  0.00     0.060 A 
ATOM     29  C   UNL A   1      41.082  22.200  27.765  1.00  0.00     0.016 A 
ATOM     30  C   UNL A   1      39.492  23.352  26.329  1.00  0.00     0.016 A 
ATOM     31  C   UNL A   1      41.496  23.433  28.274  1.00  0.00     0.010 A 
ATOM     32  C   UNL A   1      39.897  24.577  26.847  1.00  0.00     0.010 A 
ATOM     33  C   UNL A   1      40.922  24.627  27.802  1.00  0.00    -0.014 A 
BRANCH  33  34
ATOM     34  C   UNL A   1      41.504  25.941  28.158  1.00  0.00     0.031 A 
ATOM     35  C   UNL A   1      40.685  27.012  28.812  1.00  0.00     0.074 A 
ATOM     36  C   UNL A   1      42.774  26.182  27.779  1.00  0.00     0.049 A 
ATOM     37  N   UNL A   1      41.032  28.236  29.109  1.00  0.00    -0.248 NA
ATOM     38  C   UNL A   1      39.299  26.674  29.176  1.00  0.00     0.031 C 
ATOM     39  C   UNL A   1      43.636  25.223  27.081  1.00  0.00     0.029 A 
ATOM     40  N   UNL A   1      43.550  27.306  27.891  1.00  0.00    -0.354 N 
ATOM     41  C   UNL A   1      39.912  28.825  29.678  1.00  0.00     0.074 A 
ATOM     42  C   UNL A   1      38.866  27.823  29.686  1.00  0.00     0.031 C 
ATOM     43  C   UNL A   1      44.814  25.806  26.812  1.00  0.00     0.029 A 
ATOM     44  C   UNL A   1      44.779  27.183  27.289  1.00  0.00     0.049 A 
ATOM     45  H   UNL A   1      43.255  28.122  28.357  1.00  0.00     0.167 HD
ATOM     46  C   UNL A   1      39.781  30.084  30.155  1.00  0.00     0.034 A 
ATOM     47  C   UNL A   1      45.764  28.086  27.116  1.00  0.00     0.034 A 
ATOM     48  C   UNL A   1      40.832  31.067  30.149  1.00  0.00     0.049 A 
ATOM     49  C   UNL A   1      45.591  29.467  27.671  1.00  0.00     0.074 A 
ATOM     50  C   UNL A   1      40.804  32.352  30.662  1.00  0.00     0.029 A 
ATOM     51  N   UNL A   1      42.089  30.884  29.596  1.00  0.00    -0.354 N 
ATOM     52  N   UNL A   1      44.558  29.974  28.297  1.00  0.00    -0.248 NA
ATOM     53  C   UNL A   1      46.726  30.390  27.530  1.00  0.00     0.031 C 
ATOM     54  C   UNL A   1      42.037  32.954  30.400  1.00  0.00     0.029 A 
ATOM     55  C   UNL A   1      42.845  32.031  29.757  1.00  0.00     0.049 A 
ATOM     56  H   UNL A   1      42.399  30.059  29.156  1.00  0.00     0.167 HD
ATOM     57  C   UNL A   1      44.928  31.261  28.658  1.00  0.00     0.074 A 
ATOM     58  C   UNL A   1      46.282  31.457  28.183  1.00  0.00     0.031 C 
ATOM     59  C   UNL A   1      44.207  32.195  29.322  1.00  0.00     0.034 A 
BRANCH  46  60
ATOM     60  C   UNL A   1      38.474  30.493  30.777  1.00  0.00     0.023 A 
ATOM     61  C   UNL A   1      38.264  30.256  32.150  1.00  0.00     0.012 A 
ATOM     62  C   UNL A   1      37.546  31.269  30.055  1.00  0.00     0.148 A 
ATOM     63  C   UNL A   1      37.153  30.794  32.798  1.00  0.00     0.002 A 
ATOM     64  C   UNL A   1      36.456  31.824  30.714  1.00  0.00     0.091 A 
ATOM     65  F   UNL A   1      37.769  31.475  28.749  1.00  0.00    -0.205 F 
ATOM     66  C   UNL A   1      36.258  31.588  32.084  1.00  0.00     0.022 A 
BRANCH  64  67
ATOM     67  S   UNL A   1      35.276  32.908  29.902  1.00  0.00     0.127 S 
ATOM     68  O   UNL A   1      34.301  33.134  30.970  1.00  0.00    -0.237 OA
ATOM     69  O   UNL A   1      36.102  34.069  29.574  1.00  0.00    -0.237 OA
ATOM     70  O   UNL A   1      34.767  32.168  28.756  1.00  0.00    -0.744 OA
ENDBRANCH  64  67
ENDBRANCH  46  60
BRANCH  47  71
ATOM     71  C   UNL A   1      47.010  27.678  26.416  1.00  0.00     0.023 A 
ATOM     72  C   UNL A   1      48.030  27.032  27.136  1.00  0.00     0.012 A 
ATOM     73  C   UNL A   1      47.152  27.867  25.028  1.00  0.00     0.148 A 
ATOM     74  C   UNL A   1      49.183  26.591  26.487  1.00  0.00     0.002 A 
ATOM     75  C   UNL A   1      48.285  27.390  24.381  1.00  0.00     0.091 A 
ATOM     76  F   UNL A   1      46.163  28.484  24.368  1.00  0.00    -0.205 F 
ATOM     77  C   UNL A   1      49.307  26.762  25.110  1.00  0.00     0.022 A 
BRANCH  75  78
ATOM     78  S   UNL A   1      48.488  27.475  22.599  1.00  0.00     0.127 S 
ATOM     79  O   UNL A   1      49.762  28.178  22.478  1.00  0.00    -0.237 OA
ATOM     80  O   UNL A   1      48.529  26.058  22.234  1.00  0.00    -0.237 OA
ATOM     81  O   UNL A   1      47.324  28.195  22.100  1.00  0.00    -0.744 OA
ENDBRANCH  75  78
ENDBRANCH  47  71
BRANCH  59  82
ATOM     82  C   UNL A   1      44.872  33.505  29.634  1.00  0.00     0.023 A 
ATOM     83  C   UNL A   1      45.637  33.645  30.807  1.00  0.00     0.012 A 
ATOM     84  C   UNL A   1      44.821  34.561  28.703  1.00  0.00     0.148 A 
ATOM     85  C   UNL A   1      46.331  34.827  31.057  1.00  0.00     0.002 A 
ATOM     86  C   UNL A   1      45.546  35.721  28.940  1.00  0.00     0.091 A 
ATOM     87  F   UNL A   1      44.076  34.403  27.599  1.00  0.00    -0.205 F 
ATOM     88  C   UNL A   1      46.297  35.859  30.119  1.00  0.00     0.022 A 
BRANCH  86  89
ATOM     89  S   UNL A   1      45.617  37.072  27.759  1.00  0.00     0.127 S 
ATOM     90  O   UNL A   1      46.422  38.055  28.482  1.00  0.00    -0.237 OA
ATOM     91  O   UNL A   1      46.291  36.450  26.620  1.00  0.00    -0.237 OA
ATOM     92  O   UNL A   1      44.236  37.464  27.508  1.00  0.00    -0.744 OA
ENDBRANCH  86  89
ENDBRANCH  59  82
ENDBRANCH  33  34
ENDBRANCH  26  28
ENDBRANCH  25  26
ENDBRANCH  24  25
ENDBRANCH   1  24
TORSDOF 19
ENDMDL
MODEL 3
REMARK VINA RESULT:     -11.2      5.079     10.085
REMARK SMILES [H]/N=c1\ccc2c(C)c(CC(=O)OCCOCCOC(=O)c3ccc(-c4c5nc(c(-c6cccc(S(=O)(=O)[O-])c6F)c6ccc([nH]6)c(-c6cccc(S(=O)(=O)[O-])c6F)c6nc(c(-c7cccc(S(=O)(=O)[O-])c7F)c7ccc4[nH]7)C=C6)C=C5)cc3)c(O)oc-2c1
REMARK SMILES IDX 17 1 16 2 15 3 14 4 13 5 11 6 12 7 10 8 9 9 8 10 7 11 6 12
REMARK SMILES IDX 5 13 88 14 85 15 4 16 89 17 87 18 3 19 2 20 1 21 86 22 18 24
REMARK SMILES IDX 19 25 20 26 21 27 22 28 23 29 84 30 24 31 83 32 25 33 26 34
REMARK SMILES IDX 27 35 77 36 28 37 82 38 76 39 78 40 29 41 81 42 75 43 74 44
REMARK SMILES IDX 30 46 62 47 42 48 61 49 43 50 46 51 60 52 79 53 44 54 45 55
REMARK SMILES IDX 59 57 80 58 47 59 31 60 32 61 40 62 33 63 35 64 41 65 34 66
REMARK SMILES IDX 36 67 37 68 38 69 39 70 63 71 64 72 72 73 65 74 67 75 73 76
REMARK SMILES IDX 66 77 68 78 69 79 70 80 71 81 48 82 49 83 57 84 50 85 52 86
REMARK SMILES IDX 58 87 51 88 53 89 54 90 55 91 56 92
REMARK H PARENT 86 23 78 45 46 56
REMARK Flexibility Score: inf
ROOT
ATOM      1  C   UNL A   1      32.146  29.861  25.412  1.00  0.00     0.202 C 
ENDROOT
BRANCH   1   2
ATOM      2  O   UNL A   1      31.128  28.932  25.059  1.00  0.00    -0.374 OA
BRANCH   2   3
ATOM      3  C   UNL A   1      30.442  29.162  23.830  1.00  0.00     0.202 C 
BRANCH   3   4
ATOM      4  C   UNL A   1      29.854  27.948  23.092  1.00  0.00     0.261 C 
BRANCH   4   5
ATOM      5  O   UNL A   1      30.647  27.478  21.977  1.00  0.00    -0.463 OA
BRANCH   5   6
ATOM      6  C   UNL A   1      31.830  26.892  22.305  1.00  0.00     0.310 C 
ATOM      7  O   UNL A   1      32.934  27.354  22.032  1.00  0.00    -0.252 OA
BRANCH   6   8
ATOM      8  C   UNL A   1      31.701  25.539  23.006  1.00  0.00     0.166 C 
BRANCH   8   9
ATOM      9  C   UNL A   1      32.872  25.006  23.814  1.00  0.00     0.048 A 
ATOM     10  C   UNL A   1      33.343  23.295  21.955  1.00  0.00     0.046 C 
ATOM     11  C   UNL A   1      33.770  23.966  23.244  1.00  0.00    -0.029 A 
ATOM     12  C   UNL A   1      34.891  23.607  23.931  1.00  0.00     0.021 A 
ATOM     13  C   UNL A   1      35.921  22.720  23.387  1.00  0.00     0.014 A 
ATOM     14  C   UNL A   1      35.070  24.084  25.307  1.00  0.00     0.140 A 
ATOM     15  C   UNL A   1      33.070  25.390  25.097  1.00  0.00     0.286 A 
ATOM     16  C   UNL A   1      36.996  22.360  24.105  1.00  0.00     0.028 A 
ATOM     17  C   UNL A   1      36.107  23.694  26.059  1.00  0.00     0.075 A 
ATOM     18  O   UNL A   1      34.095  24.886  25.869  1.00  0.00    -0.425 OA
ATOM     19  C   UNL A   1      37.151  22.803  25.511  1.00  0.00     0.058 A 
ATOM     20  N   UNL A   1      38.144  22.439  26.254  1.00  0.00    -0.301 NA
ATOM     21  H   UNL A   1      38.840  21.845  25.889  1.00  0.00     0.188 HD
BRANCH  15  22
ATOM     22  O   UNL A   1      32.252  26.291  25.743  1.00  0.00    -0.480 OA
ATOM     23  H   UNL A   1      32.035  27.105  25.334  1.00  0.00     0.297 HD
ENDBRANCH  15  22
ENDBRANCH   8   9
ENDBRANCH   6   8
ENDBRANCH   5   6
ENDBRANCH   4   5
ENDBRANCH   3   4
ENDBRANCH   2   3
ENDBRANCH   1   2
BRANCH   1  24
ATOM     24  C   UNL A   1      31.753  31.082  26.250  1.00  0.00     0.261 C 
BRANCH  24  25
ATOM     25  O   UNL A   1      32.524  31.189  27.452  1.00  0.00    -0.460 OA
BRANCH  25  26
ATOM     26  C   UNL A   1      33.379  32.243  27.483  1.00  0.00     0.338 C 
ATOM     27  O   UNL A   1      33.101  33.421  27.329  1.00  0.00    -0.246 OA
BRANCH  26  28
ATOM     28  C   UNL A   1      34.691  31.769  27.956  1.00  0.00     0.060 A 
ATOM     29  C   UNL A   1      35.767  32.645  28.117  1.00  0.00     0.016 A 
ATOM     30  C   UNL A   1      34.825  30.405  28.247  1.00  0.00     0.016 A 
ATOM     31  C   UNL A   1      36.978  32.150  28.607  1.00  0.00     0.010 A 
ATOM     32  C   UNL A   1      36.036  29.914  28.723  1.00  0.00     0.010 A 
ATOM     33  C   UNL A   1      37.111  30.788  28.932  1.00  0.00    -0.014 A 
BRANCH  33  34
ATOM     34  C   UNL A   1      38.301  30.296  29.663  1.00  0.00     0.031 A 
ATOM     35  C   UNL A   1      39.260  29.328  29.039  1.00  0.00     0.074 A 
ATOM     36  C   UNL A   1      38.438  30.668  30.950  1.00  0.00     0.049 A 
ATOM     37  N   UNL A   1      40.298  28.748  29.581  1.00  0.00    -0.248 NA
ATOM     38  C   UNL A   1      39.027  28.956  27.635  1.00  0.00     0.031 C 
ATOM     39  C   UNL A   1      37.522  31.560  31.667  1.00  0.00     0.029 A 
ATOM     40  N   UNL A   1      39.372  30.322  31.893  1.00  0.00    -0.354 N 
ATOM     41  C   UNL A   1      40.836  27.930  28.597  1.00  0.00     0.074 A 
ATOM     42  C   UNL A   1      40.009  28.086  27.419  1.00  0.00     0.031 C 
ATOM     43  C   UNL A   1      37.928  31.677  32.940  1.00  0.00     0.029 A 
ATOM     44  C   UNL A   1      39.110  30.847  33.136  1.00  0.00     0.049 A 
ATOM     45  H   UNL A   1      40.151  29.754  31.698  1.00  0.00     0.167 HD
ATOM     46  C   UNL A   1      41.927  27.133  28.676  1.00  0.00     0.034 A 
ATOM     47  C   UNL A   1      39.738  30.663  34.313  1.00  0.00     0.034 A 
ATOM     48  C   UNL A   1      42.746  26.995  29.852  1.00  0.00     0.049 A 
ATOM     49  C   UNL A   1      40.952  29.786  34.362  1.00  0.00     0.074 A 
ATOM     50  C   UNL A   1      43.903  26.251  30.005  1.00  0.00     0.029 A 
ATOM     51  N   UNL A   1      42.494  27.599  31.073  1.00  0.00    -0.354 N 
ATOM     52  N   UNL A   1      41.504  29.099  33.392  1.00  0.00    -0.248 NA
ATOM     53  C   UNL A   1      41.650  29.682  35.651  1.00  0.00     0.031 C 
ATOM     54  C   UNL A   1      44.338  26.386  31.326  1.00  0.00     0.029 A 
ATOM     55  C   UNL A   1      43.472  27.245  31.983  1.00  0.00     0.049 A 
ATOM     56  H   UNL A   1      41.732  28.192  31.263  1.00  0.00     0.167 HD
ATOM     57  C   UNL A   1      42.635  28.512  33.941  1.00  0.00     0.074 A 
ATOM     58  C   UNL A   1      42.691  28.924  35.328  1.00  0.00     0.031 C 
ATOM     59  C   UNL A   1      43.542  27.701  33.346  1.00  0.00     0.034 A 
BRANCH  46  60
ATOM     60  C   UNL A   1      42.357  26.366  27.457  1.00  0.00     0.023 A 
ATOM     61  C   UNL A   1      43.227  26.978  26.533  1.00  0.00     0.012 A 
ATOM     62  C   UNL A   1      42.052  24.997  27.325  1.00  0.00     0.148 A 
ATOM     63  C   UNL A   1      43.798  26.233  25.501  1.00  0.00     0.002 A 
ATOM     64  C   UNL A   1      42.646  24.256  26.310  1.00  0.00     0.091 A 
ATOM     65  F   UNL A   1      41.217  24.443  28.216  1.00  0.00    -0.205 F 
ATOM     66  C   UNL A   1      43.518  24.872  25.398  1.00  0.00     0.022 A 
BRANCH  64  67
ATOM     67  S   UNL A   1      42.399  22.487  26.123  1.00  0.00     0.127 S 
ATOM     68  O   UNL A   1      43.137  22.216  24.888  1.00  0.00    -0.237 OA
ATOM     69  O   UNL A   1      43.026  21.961  27.335  1.00  0.00    -0.237 OA
ATOM     70  O   UNL A   1      40.960  22.285  26.033  1.00  0.00    -0.744 OA
ENDBRANCH  64  67
ENDBRANCH  46  60
BRANCH  47  71
ATOM     71  C   UNL A   1      39.236  31.364  35.524  1.00  0.00     0.023 A 
ATOM     72  C   UNL A   1      38.220  30.774  36.296  1.00  0.00     0.012 A 
ATOM     73  C   UNL A   1      39.815  32.577  35.947  1.00  0.00     0.148 A 
ATOM     74  C   UNL A   1      37.775  31.389  37.467  1.00  0.00     0.002 A 
ATOM     75  C   UNL A   1      39.395  33.163  37.134  1.00  0.00     0.091 A 
ATOM     76  F   UNL A   1      40.782  33.114  35.192  1.00  0.00    -0.205 F 
ATOM     77  C   UNL A   1      38.368  32.577  37.890  1.00  0.00     0.022 A 
BRANCH  75  78
ATOM     78  S   UNL A   1      40.166  34.637  37.809  1.00  0.00     0.127 S 
ATOM     79  O   UNL A   1      41.574  34.251  37.836  1.00  0.00    -0.237 OA
ATOM     80  O   UNL A   1      39.822  35.642  36.801  1.00  0.00    -0.237 OA
ATOM     81  O   UNL A   1      39.548  34.850  39.110  1.00  0.00    -0.744 OA
ENDBRANCH  75  78
ENDBRANCH  47  71
BRANCH  59  82
ATOM     82  C   UNL A   1      44.715  27.240  34.164  1.00  0.00     0.023 A 
ATOM     83  C   UNL A   1      45.897  28.003  34.193  1.00  0.00     0.012 A 
ATOM     84  C   UNL A   1      44.597  26.102  34.986  1.00  0.00     0.148 A 
ATOM     85  C   UNL A   1      46.955  27.630  35.020  1.00  0.00     0.002 A 
ATOM     86  C   UNL A   1      45.640  25.758  35.835  1.00  0.00     0.091 A 
ATOM     87  F   UNL A   1      43.463  25.388  34.929  1.00  0.00    -0.205 F 
ATOM     88  C   UNL A   1      46.822  26.517  35.850  1.00  0.00     0.022 A 
BRANCH  86  89
ATOM     89  S   UNL A   1      45.532  24.385  36.988  1.00  0.00     0.127 S 
ATOM     90  O   UNL A   1      46.884  24.358  37.544  1.00  0.00    -0.237 OA
ATOM     91  O   UNL A   1      44.498  24.843  37.916  1.00  0.00    -0.237 OA
ATOM     92  O   UNL A   1      45.163  23.219  36.195  1.00  0.00    -0.744 OA
ENDBRANCH  86  89
ENDBRANCH  59  82
ENDBRANCH  33  34
ENDBRANCH  26  28
ENDBRANCH  25  26
ENDBRANCH  24  25
ENDBRANCH   1  24
TORSDOF 19
ENDMDL
