MODEL 1
REMARK VINA RESULT:     -10.2      0.000      0.000
REMARK SMILES O=C(OCCOCCOC(=O)c1ccc(-n2cc(CSc3nc4ccccc4c(=O)n3-c3ccccc3)nn2)cc1)c1ccc(-c2c3nc(c(-c4cccc(S(=O)(=O)[O-])c4F)c4ccc([nH]4)c(-c4cccc(S(=O)(=O)[O-])c4F)c4nc(c(-c5cccc(S(=O)(=O)[O-])c5F)c5ccc2[nH]5)C=C4)C=C3)cc1
REMARK SMILES IDX 7 1 6 2 5 3 4 4 3 5 2 6 1 7 42 8 43 9 104 10 44 11 103 12
REMARK SMILES IDX 45 13 46 14 47 15 97 16 48 17 102 18 96 19 98 20 49 21
REMARK SMILES IDX 101 22 95 23 94 24 50 26 82 27 62 28 81 29 63 30 66 31 80 32
REMARK SMILES IDX 99 33 64 34 65 35 79 37 100 38 67 39 51 40 52 41 60 42 53 43
REMARK SMILES IDX 55 44 61 45 54 46 56 47 57 48 58 49 59 50 83 51 84 52 92 53
REMARK SMILES IDX 85 54 87 55 93 56 86 57 88 58 89 59 90 60 91 61 68 62 69 63
REMARK SMILES IDX 77 64 70 65 72 66 78 67 71 68 73 69 74 70 75 71 76 72 8 73
REMARK SMILES IDX 9 74 10 75 11 76 12 77 13 78 41 79 14 80 40 81 15 82 16 83
REMARK SMILES IDX 17 84 39 85 18 86 38 87 19 88 20 89 21 90 22 91 31 92 23 93
REMARK SMILES IDX 29 94 24 95 28 96 30 97 25 98 27 99 26 100 32 101 33 102
REMARK SMILES IDX 37 103 34 104 36 105 35 106
REMARK H PARENT 98 25 66 36
REMARK Flexibility Score: inf
ROOT
ATOM      1  C   UNL A   1      35.995  22.762  24.634  1.00  0.00     0.202 C 
ENDROOT
BRANCH   1   2
ATOM      2  O   UNL A   1      37.254  22.102  24.448  1.00  0.00    -0.374 OA
BRANCH   2   3
ATOM      3  C   UNL A   1      37.719  21.280  25.511  1.00  0.00     0.202 C 
BRANCH   3   4
ATOM      4  C   UNL A   1      39.180  21.373  25.941  1.00  0.00     0.261 C 
BRANCH   4   5
ATOM      5  O   UNL A   1      39.385  22.243  27.067  1.00  0.00    -0.460 OA
BRANCH   5   6
ATOM      6  C   UNL A   1      39.461  23.592  27.027  1.00  0.00     0.338 C 
ATOM      7  O   UNL A   1      38.435  24.259  27.140  1.00  0.00    -0.246 OA
BRANCH   6   8
ATOM      8  C   UNL A   1      40.780  24.266  27.111  1.00  0.00     0.060 A 
ATOM      9  C   UNL A   1      41.701  24.111  28.144  1.00  0.00     0.016 A 
ATOM     10  C   UNL A   1      41.026  25.223  26.112  1.00  0.00     0.016 A 
ATOM     11  C   UNL A   1      42.663  25.078  28.349  1.00  0.00     0.010 A 
ATOM     12  C   UNL A   1      42.040  26.149  26.266  1.00  0.00     0.010 A 
ATOM     13  C   UNL A   1      42.780  26.127  27.438  1.00  0.00    -0.014 A 
BRANCH  13  14
ATOM     14  C   UNL A   1      43.829  27.097  27.680  1.00  0.00     0.031 A 
ATOM     15  C   UNL A   1      45.182  26.512  27.521  1.00  0.00     0.074 A 
ATOM     16  C   UNL A   1      43.581  28.388  27.968  1.00  0.00     0.049 A 
ATOM     17  N   UNL A   1      46.021  26.230  28.460  1.00  0.00    -0.248 NA
ATOM     18  C   UNL A   1      45.549  25.968  26.204  1.00  0.00     0.031 C 
ATOM     19  C   UNL A   1      42.303  29.101  27.893  1.00  0.00     0.029 A 
ATOM     20  N   UNL A   1      44.463  29.379  28.272  1.00  0.00    -0.354 N 
ATOM     21  C   UNL A   1      47.140  25.717  27.810  1.00  0.00     0.074 A 
ATOM     22  C   UNL A   1      46.708  25.368  26.483  1.00  0.00     0.031 C 
ATOM     23  C   UNL A   1      42.542  30.433  27.874  1.00  0.00     0.029 A 
ATOM     24  C   UNL A   1      43.962  30.662  28.075  1.00  0.00     0.049 A 
ATOM     25  H   UNL A   1      45.374  29.202  28.600  1.00  0.00     0.167 HD
ATOM     26  C   UNL A   1      48.384  25.896  28.329  1.00  0.00     0.034 A 
ATOM     27  C   UNL A   1      44.689  31.807  27.997  1.00  0.00     0.034 A 
ATOM     28  C   UNL A   1      48.313  26.286  29.716  1.00  0.00     0.049 A 
ATOM     29  C   UNL A   1      46.001  31.537  28.632  1.00  0.00     0.074 A 
ATOM     30  C   UNL A   1      47.790  25.728  30.865  1.00  0.00     0.029 A 
ATOM     31  N   UNL A   1      48.487  27.623  29.983  1.00  0.00    -0.354 N 
ATOM     32  N   UNL A   1      46.144  31.309  29.907  1.00  0.00    -0.248 NA
ATOM     33  C   UNL A   1      47.083  31.063  27.783  1.00  0.00     0.031 C 
ATOM     34  C   UNL A   1      47.246  26.827  31.590  1.00  0.00     0.029 A 
ATOM     35  C   UNL A   1      47.538  27.999  30.890  1.00  0.00     0.049 A 
ATOM     36  H   UNL A   1      49.176  28.206  29.590  1.00  0.00     0.167 HD
ATOM     37  C   UNL A   1      47.052  30.261  29.961  1.00  0.00     0.074 A 
ATOM     38  C   UNL A   1      47.675  30.225  28.637  1.00  0.00     0.031 C 
ATOM     39  C   UNL A   1      46.992  29.336  30.963  1.00  0.00     0.034 A 
BRANCH  26  40
ATOM     40  C   UNL A   1      49.632  26.151  27.511  1.00  0.00     0.023 A 
ATOM     41  C   UNL A   1      50.785  25.411  27.861  1.00  0.00     0.012 A 
ATOM     42  C   UNL A   1      49.823  27.259  26.652  1.00  0.00     0.148 A 
ATOM     43  C   UNL A   1      52.063  25.800  27.448  1.00  0.00     0.002 A 
ATOM     44  C   UNL A   1      51.086  27.599  26.184  1.00  0.00     0.091 A 
ATOM     45  F   UNL A   1      48.809  28.078  26.372  1.00  0.00    -0.205 F 
ATOM     46  C   UNL A   1      52.214  26.894  26.608  1.00  0.00     0.022 A 
BRANCH  44  47
ATOM     47  S   UNL A   1      51.341  28.982  25.063  1.00  0.00     0.127 S 
ATOM     48  O   UNL A   1      52.785  28.924  24.852  1.00  0.00    -0.237 OA
ATOM     49  O   UNL A   1      50.529  28.581  23.914  1.00  0.00    -0.237 OA
ATOM     50  O   UNL A   1      50.848  30.160  25.763  1.00  0.00    -0.744 OA
ENDBRANCH  44  47
ENDBRANCH  26  40
BRANCH  27  51
ATOM     51  C   UNL A   1      44.469  33.020  27.172  1.00  0.00     0.023 A 
ATOM     52  C   UNL A   1      44.272  32.893  25.781  1.00  0.00     0.012 A 
ATOM     53  C   UNL A   1      44.153  34.258  27.775  1.00  0.00     0.148 A 
ATOM     54  C   UNL A   1      43.743  33.946  25.024  1.00  0.00     0.002 A 
ATOM     55  C   UNL A   1      43.630  35.303  27.018  1.00  0.00     0.091 A 
ATOM     56  F   UNL A   1      44.271  34.377  29.103  1.00  0.00    -0.205 F 
ATOM     57  C   UNL A   1      43.412  35.147  25.644  1.00  0.00     0.022 A 
BRANCH  55  58
ATOM     58  S   UNL A   1      43.142  36.869  27.757  1.00  0.00     0.127 S 
ATOM     59  O   UNL A   1      43.102  36.531  29.180  1.00  0.00    -0.237 OA
ATOM     60  O   UNL A   1      44.245  37.743  27.366  1.00  0.00    -0.237 OA
ATOM     61  O   UNL A   1      41.845  37.194  27.180  1.00  0.00    -0.744 OA
ENDBRANCH  55  58
ENDBRANCH  27  51
BRANCH  39  62
ATOM     62  C   UNL A   1      46.115  29.631  32.150  1.00  0.00     0.023 A 
ATOM     63  C   UNL A   1      46.515  30.460  33.219  1.00  0.00     0.012 A 
ATOM     64  C   UNL A   1      44.783  29.188  32.093  1.00  0.00     0.148 A 
ATOM     65  C   UNL A   1      45.606  30.820  34.219  1.00  0.00     0.002 A 
ATOM     66  C   UNL A   1      43.873  29.589  33.060  1.00  0.00     0.091 A 
ATOM     67  F   UNL A   1      44.422  28.400  31.069  1.00  0.00    -0.205 F 
ATOM     68  C   UNL A   1      44.282  30.397  34.132  1.00  0.00     0.022 A 
BRANCH  66  69
ATOM     69  S   UNL A   1      42.133  29.178  32.921  1.00  0.00     0.127 S 
ATOM     70  O   UNL A   1      41.751  29.883  31.701  1.00  0.00    -0.237 OA
ATOM     71  O   UNL A   1      42.163  27.719  32.805  1.00  0.00    -0.237 OA
ATOM     72  O   UNL A   1      41.509  29.660  34.148  1.00  0.00    -0.744 OA
ENDBRANCH  66  69
ENDBRANCH  39  62
ENDBRANCH  13  14
ENDBRANCH   6   8
ENDBRANCH   5   6
ENDBRANCH   4   5
ENDBRANCH   3   4
ENDBRANCH   2   3
ENDBRANCH   1   2
BRANCH   1  73
ATOM     73  C   UNL A   1      35.394  23.600  23.489  1.00  0.00     0.261 C 
BRANCH  73  74
ATOM     74  O   UNL A   1      34.185  24.287  23.865  1.00  0.00    -0.460 OA
BRANCH  74  75
ATOM     75  C   UNL A   1      33.934  25.431  23.188  1.00  0.00     0.338 C 
ATOM     76  O   UNL A   1      33.807  25.567  21.978  1.00  0.00    -0.246 OA
BRANCH  75  77
ATOM     77  C   UNL A   1      33.598  26.500  24.148  1.00  0.00     0.060 A 
ATOM     78  C   UNL A   1      33.121  27.720  23.637  1.00  0.00     0.018 A 
ATOM     79  C   UNL A   1      33.782  26.328  25.519  1.00  0.00     0.018 A 
ATOM     80  C   UNL A   1      32.809  28.776  24.488  1.00  0.00     0.029 A 
ATOM     81  C   UNL A   1      33.573  27.418  26.367  1.00  0.00     0.029 A 
ATOM     82  C   UNL A   1      33.094  28.636  25.843  1.00  0.00     0.066 A 
BRANCH  82  83
ATOM     83  N   UNL A   1      33.199  29.810  26.608  1.00  0.00    -0.220 N 
ATOM     84  C   UNL A   1      34.357  30.202  27.217  1.00  0.00     0.141 A 
ATOM     85  N   UNL A   1      32.312  30.823  26.631  1.00  0.00    -0.062 NA
ATOM     86  C   UNL A   1      34.142  31.483  27.658  1.00  0.00     0.093 A 
ATOM     87  N   UNL A   1      32.844  31.814  27.345  1.00  0.00    -0.134 NA
BRANCH  86  88
ATOM     88  C   UNL A   1      34.977  32.305  28.561  1.00  0.00     0.138 C 
BRANCH  88  89
ATOM     89  S   UNL A   1      35.295  31.932  30.284  1.00  0.00    -0.081 SA
BRANCH  89  90
ATOM     90  C   UNL A   1      36.591  30.801  30.573  1.00  0.00     0.176 A 
ATOM     91  N   UNL A   1      36.926  30.163  29.486  1.00  0.00    -0.223 NA
ATOM     92  N   UNL A   1      37.240  30.564  31.773  1.00  0.00    -0.255 N 
ATOM     93  C   UNL A   1      37.857  29.121  29.582  1.00  0.00     0.079 A 
ATOM     94  C   UNL A   1      37.570  29.218  31.980  1.00  0.00     0.266 A 
ATOM     95  C   UNL A   1      38.499  28.614  28.452  1.00  0.00     0.029 A 
ATOM     96  C   UNL A   1      38.066  28.495  30.801  1.00  0.00     0.066 A 
ATOM     97  O   UNL A   1      37.477  28.606  33.043  1.00  0.00    -0.268 OA
ATOM     98  C   UNL A   1      39.276  27.451  28.544  1.00  0.00     0.002 A 
ATOM     99  C   UNL A   1      38.787  27.303  30.903  1.00  0.00     0.016 A 
ATOM    100  C   UNL A   1      39.385  26.773  29.761  1.00  0.00     0.001 A 
BRANCH  92 101
ATOM    101  C   UNL A   1      37.586  31.522  32.801  1.00  0.00     0.051 A 
ATOM    102  C   UNL A   1      38.940  31.846  33.032  1.00  0.00     0.027 A 
ATOM    103  C   UNL A   1      36.661  32.180  33.618  1.00  0.00     0.027 A 
ATOM    104  C   UNL A   1      39.355  32.562  34.159  1.00  0.00     0.002 A 
ATOM    105  C   UNL A   1      37.067  32.833  34.794  1.00  0.00     0.002 A 
ATOM    106  C   UNL A   1      38.416  32.989  35.083  1.00  0.00     0.000 A 
ENDBRANCH  92 101
ENDBRANCH  89  90
ENDBRANCH  88  89
ENDBRANCH  86  88
ENDBRANCH  82  83
ENDBRANCH  75  77
ENDBRANCH  74  75
ENDBRANCH  73  74
ENDBRANCH   1  73
TORSDOF 22
ENDMDL
MODEL 2
REMARK VINA RESULT:      -9.9      1.610      2.981
REMARK SMILES O=C(OCCOCCOC(=O)c1ccc(-n2cc(CSc3nc4ccccc4c(=O)n3-c3ccccc3)nn2)cc1)c1ccc(-c2c3nc(c(-c4cccc(S(=O)(=O)[O-])c4F)c4ccc([nH]4)c(-c4cccc(S(=O)(=O)[O-])c4F)c4nc(c(-c5cccc(S(=O)(=O)[O-])c5F)c5ccc2[nH]5)C=C4)C=C3)cc1
REMARK SMILES IDX 7 1 6 2 5 3 4 4 3 5 2 6 1 7 42 8 43 9 104 10 44 11 103 12
REMARK SMILES IDX 45 13 46 14 47 15 97 16 48 17 102 18 96 19 98 20 49 21
REMARK SMILES IDX 101 22 95 23 94 24 50 26 82 27 62 28 81 29 63 30 66 31 80 32
REMARK SMILES IDX 99 33 64 34 65 35 79 37 100 38 67 39 51 40 52 41 60 42 53 43
REMARK SMILES IDX 55 44 61 45 54 46 56 47 57 48 58 49 59 50 83 51 84 52 92 53
REMARK SMILES IDX 85 54 87 55 93 56 86 57 88 58 89 59 90 60 91 61 68 62 69 63
REMARK SMILES IDX 77 64 70 65 72 66 78 67 71 68 73 69 74 70 75 71 76 72 8 73
REMARK SMILES IDX 9 74 10 75 11 76 12 77 13 78 41 79 14 80 40 81 15 82 16 83
REMARK SMILES IDX 17 84 39 85 18 86 38 87 19 88 20 89 21 90 22 91 31 92 23 93
REMARK SMILES IDX 29 94 24 95 28 96 30 97 25 98 27 99 26 100 32 101 33 102
REMARK SMILES IDX 37 103 34 104 36 105 35 106
REMARK H PARENT 98 25 66 36
REMARK Flexibility Score: inf
ROOT
ATOM      1  C   UNL A   1      35.388  21.438  26.081  1.00  0.00     0.202 C 
ENDROOT
BRANCH   1   2
ATOM      2  O   UNL A   1      36.573  22.117  25.642  1.00  0.00    -0.374 OA
BRANCH   2   3
ATOM      3  C   UNL A   1      37.668  21.309  25.229  1.00  0.00     0.202 C 
BRANCH   3   4
ATOM      4  C   UNL A   1      38.933  21.277  26.081  1.00  0.00     0.261 C 
BRANCH   4   5
ATOM      5  O   UNL A   1      39.783  22.418  25.877  1.00  0.00    -0.460 OA
BRANCH   5   6
ATOM      6  C   UNL A   1      39.947  23.451  26.733  1.00  0.00     0.338 C 
ATOM      7  O   UNL A   1      39.104  23.653  27.606  1.00  0.00    -0.246 OA
BRANCH   6   8
ATOM      8  C   UNL A   1      41.243  24.169  26.794  1.00  0.00     0.060 A 
ATOM      9  C   UNL A   1      42.142  24.122  27.857  1.00  0.00     0.016 A 
ATOM     10  C   UNL A   1      41.488  25.052  25.729  1.00  0.00     0.016 A 
ATOM     11  C   UNL A   1      43.071  25.132  28.008  1.00  0.00     0.010 A 
ATOM     12  C   UNL A   1      42.471  26.017  25.833  1.00  0.00     0.010 A 
ATOM     13  C   UNL A   1      43.182  26.109  27.020  1.00  0.00    -0.014 A 
BRANCH  13  14
ATOM     14  C   UNL A   1      44.196  27.126  27.209  1.00  0.00     0.031 A 
ATOM     15  C   UNL A   1      45.553  26.635  26.868  1.00  0.00     0.074 A 
ATOM     16  C   UNL A   1      43.912  28.381  27.603  1.00  0.00     0.049 A 
ATOM     17  N   UNL A   1      46.505  26.352  27.692  1.00  0.00    -0.248 NA
ATOM     18  C   UNL A   1      45.802  26.190  25.489  1.00  0.00     0.031 C 
ATOM     19  C   UNL A   1      42.597  29.018  27.710  1.00  0.00     0.029 A 
ATOM     20  N   UNL A   1      44.766  29.405  27.871  1.00  0.00    -0.354 N 
ATOM     21  C   UNL A   1      47.571  25.945  26.895  1.00  0.00     0.074 A 
ATOM     22  C   UNL A   1      47.015  25.647  25.603  1.00  0.00     0.031 C 
ATOM     23  C   UNL A   1      42.759  30.361  27.749  1.00  0.00     0.029 A 
ATOM     24  C   UNL A   1      44.178  30.664  27.810  1.00  0.00     0.049 A 
ATOM     25  H   UNL A   1      45.716  29.266  28.088  1.00  0.00     0.167 HD
ATOM     26  C   UNL A   1      48.854  26.170  27.288  1.00  0.00     0.034 A 
ATOM     27  C   UNL A   1      44.828  31.854  27.728  1.00  0.00     0.034 A 
ATOM     28  C   UNL A   1      48.915  26.476  28.697  1.00  0.00     0.049 A 
ATOM     29  C   UNL A   1      46.215  31.630  28.200  1.00  0.00     0.074 A 
ATOM     30  C   UNL A   1      48.555  25.823  29.858  1.00  0.00     0.029 A 
ATOM     31  N   UNL A   1      49.045  27.804  29.027  1.00  0.00    -0.354 N 
ATOM     32  N   UNL A   1      46.510  31.339  29.435  1.00  0.00    -0.248 NA
ATOM     33  C   UNL A   1      47.220  31.271  27.212  1.00  0.00     0.031 C 
ATOM     34  C   UNL A   1      48.035  26.844  30.705  1.00  0.00     0.029 A 
ATOM     35  C   UNL A   1      48.183  28.070  30.053  1.00  0.00     0.049 A 
ATOM     36  H   UNL A   1      49.654  28.450  28.600  1.00  0.00     0.167 HD
ATOM     37  C   UNL A   1      47.475  30.347  29.325  1.00  0.00     0.074 A 
ATOM     38  C   UNL A   1      47.948  30.424  27.943  1.00  0.00     0.031 C 
ATOM     39  C   UNL A   1      47.577  29.364  30.268  1.00  0.00     0.034 A 
BRANCH  26  40
ATOM     40  C   UNL A   1      49.988  26.548  26.359  1.00  0.00     0.023 A 
ATOM     41  C   UNL A   1      49.675  27.429  25.298  1.00  0.00     0.012 A 
ATOM     42  C   UNL A   1      51.228  25.871  26.282  1.00  0.00     0.148 A 
ATOM     43  C   UNL A   1      50.510  27.565  24.184  1.00  0.00     0.002 A 
ATOM     44  C   UNL A   1      52.089  26.065  25.208  1.00  0.00     0.091 A 
ATOM     45  F   UNL A   1      51.544  24.936  27.178  1.00  0.00    -0.205 F 
ATOM     46  C   UNL A   1      51.718  26.883  24.140  1.00  0.00     0.022 A 
BRANCH  44  47
ATOM     47  S   UNL A   1      53.684  25.241  25.111  1.00  0.00     0.127 S 
ATOM     48  O   UNL A   1      54.357  25.767  26.296  1.00  0.00    -0.237 OA
ATOM     49  O   UNL A   1      53.292  23.834  25.192  1.00  0.00    -0.237 OA
ATOM     50  O   UNL A   1      54.258  25.630  23.830  1.00  0.00    -0.744 OA
ENDBRANCH  44  47
ENDBRANCH  26  40
BRANCH  27  51
ATOM     51  C   UNL A   1      44.452  33.096  27.008  1.00  0.00     0.023 A 
ATOM     52  C   UNL A   1      44.235  33.059  25.615  1.00  0.00     0.012 A 
ATOM     53  C   UNL A   1      44.014  34.238  27.716  1.00  0.00     0.148 A 
ATOM     54  C   UNL A   1      43.572  34.102  24.956  1.00  0.00     0.002 A 
ATOM     55  C   UNL A   1      43.358  35.274  27.057  1.00  0.00     0.091 A 
ATOM     56  F   UNL A   1      44.152  34.263  29.048  1.00  0.00    -0.205 F 
ATOM     57  C   UNL A   1      43.124  35.204  25.679  1.00  0.00     0.022 A 
BRANCH  55  58
ATOM     58  S   UNL A   1      42.716  36.709  27.931  1.00  0.00     0.127 S 
ATOM     59  O   UNL A   1      43.945  37.361  28.384  1.00  0.00    -0.237 OA
ATOM     60  O   UNL A   1      42.004  37.414  26.868  1.00  0.00    -0.237 OA
ATOM     61  O   UNL A   1      41.885  36.182  29.005  1.00  0.00    -0.744 OA
ENDBRANCH  55  58
ENDBRANCH  27  51
BRANCH  39  62
ATOM     62  C   UNL A   1      46.821  29.538  31.558  1.00  0.00     0.023 A 
ATOM     63  C   UNL A   1      47.308  30.298  32.642  1.00  0.00     0.012 A 
ATOM     64  C   UNL A   1      45.504  29.051  31.605  1.00  0.00     0.148 A 
ATOM     65  C   UNL A   1      46.499  30.550  33.755  1.00  0.00     0.002 A 
ATOM     66  C   UNL A   1      44.690  29.345  32.689  1.00  0.00     0.091 A 
ATOM     67  F   UNL A   1      45.060  28.328  30.565  1.00  0.00    -0.205 F 
ATOM     68  C   UNL A   1      45.186  30.085  33.773  1.00  0.00     0.022 A 
BRANCH  66  69
ATOM     69  S   UNL A   1      42.958  28.881  32.698  1.00  0.00     0.127 S 
ATOM     70  O   UNL A   1      43.020  27.482  33.112  1.00  0.00    -0.237 OA
ATOM     71  O   UNL A   1      42.394  29.793  33.695  1.00  0.00    -0.237 OA
ATOM     72  O   UNL A   1      42.474  29.114  31.342  1.00  0.00    -0.744 OA
ENDBRANCH  66  69
ENDBRANCH  39  62
ENDBRANCH  13  14
ENDBRANCH   6   8
ENDBRANCH   5   6
ENDBRANCH   4   5
ENDBRANCH   3   4
ENDBRANCH   2   3
ENDBRANCH   1   2
BRANCH   1  73
ATOM     73  C   UNL A   1      34.346  20.972  25.047  1.00  0.00     0.261 C 
BRANCH  73  74
ATOM     74  O   UNL A   1      33.114  21.716  25.111  1.00  0.00    -0.460 OA
BRANCH  74  75
ATOM     75  C   UNL A   1      32.963  22.671  24.165  1.00  0.00     0.338 C 
ATOM     76  O   UNL A   1      32.577  22.522  23.012  1.00  0.00    -0.246 OA
BRANCH  75  77
ATOM     77  C   UNL A   1      33.115  24.000  24.787  1.00  0.00     0.060 A 
ATOM     78  C   UNL A   1      32.096  24.446  25.648  1.00  0.00     0.018 A 
ATOM     79  C   UNL A   1      34.212  24.812  24.505  1.00  0.00     0.018 A 
ATOM     80  C   UNL A   1      32.168  25.699  26.248  1.00  0.00     0.029 A 
ATOM     81  C   UNL A   1      34.236  26.110  25.019  1.00  0.00     0.029 A 
ATOM     82  C   UNL A   1      33.210  26.546  25.882  1.00  0.00     0.066 A 
BRANCH  82  83
ATOM     83  N   UNL A   1      33.045  27.919  26.128  1.00  0.00    -0.220 N 
ATOM     84  C   UNL A   1      33.790  28.607  27.045  1.00  0.00     0.141 A 
ATOM     85  N   UNL A   1      32.370  28.789  25.353  1.00  0.00    -0.062 NA
ATOM     86  C   UNL A   1      33.517  29.935  26.839  1.00  0.00     0.093 A 
ATOM     87  N   UNL A   1      32.581  30.014  25.834  1.00  0.00    -0.134 NA
BRANCH  86  88
ATOM     88  C   UNL A   1      33.882  31.097  27.679  1.00  0.00     0.138 C 
BRANCH  88  89
ATOM     89  S   UNL A   1      35.552  31.694  27.932  1.00  0.00    -0.081 SA
BRANCH  89  90
ATOM     90  C   UNL A   1      36.062  31.788  29.597  1.00  0.00     0.176 A 
ATOM     91  N   UNL A   1      35.164  32.366  30.345  1.00  0.00    -0.223 NA
ATOM     92  N   UNL A   1      37.250  31.319  30.133  1.00  0.00    -0.255 N 
ATOM     93  C   UNL A   1      35.484  32.641  31.681  1.00  0.00     0.079 A 
ATOM     94  C   UNL A   1      37.785  32.146  31.129  1.00  0.00     0.266 A 
ATOM     95  C   UNL A   1      34.496  32.954  32.615  1.00  0.00     0.029 A 
ATOM     96  C   UNL A   1      36.813  32.723  32.068  1.00  0.00     0.066 A 
ATOM     97  O   UNL A   1      38.974  32.424  31.277  1.00  0.00    -0.268 OA
ATOM     98  C   UNL A   1      34.851  33.411  33.891  1.00  0.00     0.002 A 
ATOM     99  C   UNL A   1      37.187  33.234  33.313  1.00  0.00     0.016 A 
ATOM    100  C   UNL A   1      36.196  33.591  34.225  1.00  0.00     0.001 A 
BRANCH  92 101
ATOM    101  C   UNL A   1      37.975  30.118  29.775  1.00  0.00     0.051 A 
ATOM    102  C   UNL A   1      38.564  30.008  28.497  1.00  0.00     0.027 A 
ATOM    103  C   UNL A   1      38.147  29.014  30.616  1.00  0.00     0.027 A 
ATOM    104  C   UNL A   1      39.055  28.796  28.003  1.00  0.00     0.002 A 
ATOM    105  C   UNL A   1      38.565  27.773  30.107  1.00  0.00     0.002 A 
ATOM    106  C   UNL A   1      38.982  27.657  28.787  1.00  0.00     0.000 A 
ENDBRANCH  92 101
ENDBRANCH  89  90
ENDBRANCH  88  89
ENDBRANCH  86  88
ENDBRANCH  82  83
ENDBRANCH  75  77
ENDBRANCH  74  75
ENDBRANCH  73  74
ENDBRANCH   1  73
TORSDOF 22
ENDMDL
MODEL 3
REMARK VINA RESULT:      -9.7      3.370      6.256
REMARK SMILES O=C(OCCOCCOC(=O)c1ccc(-n2cc(CSc3nc4ccccc4c(=O)n3-c3ccccc3)nn2)cc1)c1ccc(-c2c3nc(c(-c4cccc(S(=O)(=O)[O-])c4F)c4ccc([nH]4)c(-c4cccc(S(=O)(=O)[O-])c4F)c4nc(c(-c5cccc(S(=O)(=O)[O-])c5F)c5ccc2[nH]5)C=C4)C=C3)cc1
REMARK SMILES IDX 7 1 6 2 5 3 4 4 3 5 2 6 1 7 42 8 43 9 104 10 44 11 103 12
REMARK SMILES IDX 45 13 46 14 47 15 97 16 48 17 102 18 96 19 98 20 49 21
REMARK SMILES IDX 101 22 95 23 94 24 50 26 82 27 62 28 81 29 63 30 66 31 80 32
REMARK SMILES IDX 99 33 64 34 65 35 79 37 100 38 67 39 51 40 52 41 60 42 53 43
REMARK SMILES IDX 55 44 61 45 54 46 56 47 57 48 58 49 59 50 83 51 84 52 92 53
REMARK SMILES IDX 85 54 87 55 93 56 86 57 88 58 89 59 90 60 91 61 68 62 69 63
REMARK SMILES IDX 77 64 70 65 72 66 78 67 71 68 73 69 74 70 75 71 76 72 8 73
REMARK SMILES IDX 9 74 10 75 11 76 12 77 13 78 41 79 14 80 40 81 15 82 16 83
REMARK SMILES IDX 17 84 39 85 18 86 38 87 19 88 20 89 21 90 22 91 31 92 23 93
REMARK SMILES IDX 29 94 24 95 28 96 30 97 25 98 27 99 26 100 32 101 33 102
REMARK SMILES IDX 37 103 34 104 36 105 35 106
REMARK H PARENT 98 25 66 36
REMARK Flexibility Score: inf
ROOT
ATOM      1  C   UNL A   1      35.011  22.019  24.050  1.00  0.00     0.202 C 
ENDROOT
BRANCH   1   2
ATOM      2  O   UNL A   1      35.856  23.131  24.378  1.00  0.00    -0.374 OA
BRANCH   2   3
ATOM      3  C   UNL A   1      36.343  23.204  25.711  1.00  0.00     0.202 C 
BRANCH   3   4
ATOM      4  C   UNL A   1      37.808  22.882  25.988  1.00  0.00     0.261 C 
BRANCH   4   5
ATOM      5  O   UNL A   1      38.480  23.903  26.743  1.00  0.00    -0.460 OA
BRANCH   5   6
ATOM      6  C   UNL A   1      39.710  23.806  27.295  1.00  0.00     0.338 C 
ATOM      7  O   UNL A   1      40.316  22.737  27.237  1.00  0.00    -0.246 OA
BRANCH   6   8
ATOM      8  C   UNL A   1      40.431  25.027  27.730  1.00  0.00     0.060 A 
ATOM      9  C   UNL A   1      41.749  25.070  28.177  1.00  0.00     0.016 A 
ATOM     10  C   UNL A   1      39.647  26.192  27.797  1.00  0.00     0.016 A 
ATOM     11  C   UNL A   1      42.172  26.133  28.949  1.00  0.00     0.010 A 
ATOM     12  C   UNL A   1      40.093  27.295  28.499  1.00  0.00     0.010 A 
ATOM     13  C   UNL A   1      41.311  27.211  29.156  1.00  0.00    -0.014 A 
BRANCH  13  14
ATOM     14  C   UNL A   1      41.815  28.316  29.944  1.00  0.00     0.031 A 
ATOM     15  C   UNL A   1      42.813  29.124  29.202  1.00  0.00     0.074 A 
ATOM     16  C   UNL A   1      41.379  28.589  31.187  1.00  0.00     0.049 A 
ATOM     17  N   UNL A   1      44.088  29.156  29.400  1.00  0.00    -0.248 NA
ATOM     18  C   UNL A   1      42.382  29.788  27.962  1.00  0.00     0.031 C 
ATOM     19  C   UNL A   1      40.230  28.011  31.889  1.00  0.00     0.029 A 
ATOM     20  N   UNL A   1      41.806  29.551  32.049  1.00  0.00    -0.354 N 
ATOM     21  C   UNL A   1      44.582  30.063  28.468  1.00  0.00     0.074 A 
ATOM     22  C   UNL A   1      43.546  30.231  27.484  1.00  0.00     0.031 C 
ATOM     23  C   UNL A   1      39.898  28.813  32.927  1.00  0.00     0.029 A 
ATOM     24  C   UNL A   1      40.886  29.871  33.042  1.00  0.00     0.049 A 
ATOM     25  H   UNL A   1      42.688  29.983  31.975  1.00  0.00     0.167 HD
ATOM     26  C   UNL A   1      45.682  30.812  28.747  1.00  0.00     0.034 A 
ATOM     27  C   UNL A   1      40.905  30.976  33.832  1.00  0.00     0.034 A 
ATOM     28  C   UNL A   1      46.411  30.262  29.864  1.00  0.00     0.049 A 
ATOM     29  C   UNL A   1      42.287  31.511  33.805  1.00  0.00     0.074 A 
ATOM     30  C   UNL A   1      47.024  29.056  30.136  1.00  0.00     0.029 A 
ATOM     31  N   UNL A   1      46.222  30.879  31.078  1.00  0.00    -0.354 N 
ATOM     32  N   UNL A   1      43.304  30.889  34.329  1.00  0.00    -0.248 NA
ATOM     33  C   UNL A   1      42.610  32.507  32.795  1.00  0.00     0.031 C 
ATOM     34  C   UNL A   1      46.749  28.807  31.512  1.00  0.00     0.029 A 
ATOM     35  C   UNL A   1      46.059  29.908  32.025  1.00  0.00     0.049 A 
ATOM     36  H   UNL A   1      46.209  31.851  31.237  1.00  0.00     0.167 HD
ATOM     37  C   UNL A   1      44.315  31.049  33.391  1.00  0.00     0.074 A 
ATOM     38  C   UNL A   1      43.866  32.140  32.526  1.00  0.00     0.031 C 
ATOM     39  C   UNL A   1      45.268  30.087  33.221  1.00  0.00     0.034 A 
BRANCH  26  40
ATOM     40  C   UNL A   1      45.875  32.254  28.326  1.00  0.00     0.023 A 
ATOM     41  C   UNL A   1      47.151  32.605  27.828  1.00  0.00     0.012 A 
ATOM     42  C   UNL A   1      45.007  33.318  28.666  1.00  0.00     0.148 A 
ATOM     43  C   UNL A   1      47.569  33.937  27.752  1.00  0.00     0.002 A 
ATOM     44  C   UNL A   1      45.401  34.643  28.519  1.00  0.00     0.091 A 
ATOM     45  F   UNL A   1      43.836  33.073  29.254  1.00  0.00    -0.205 F 
ATOM     46  C   UNL A   1      46.693  34.957  28.097  1.00  0.00     0.022 A 
BRANCH  44  47
ATOM     47  S   UNL A   1      44.298  36.008  28.913  1.00  0.00     0.127 S 
ATOM     48  O   UNL A   1      43.173  35.742  28.021  1.00  0.00    -0.237 OA
ATOM     49  O   UNL A   1      44.036  35.772  30.333  1.00  0.00    -0.237 OA
ATOM     50  O   UNL A   1      45.053  37.223  28.638  1.00  0.00    -0.744 OA
ENDBRANCH  44  47
ENDBRANCH  26  40
BRANCH  27  51
ATOM     51  C   UNL A   1      39.780  31.778  34.373  1.00  0.00     0.023 A 
ATOM     52  C   UNL A   1      38.867  32.389  33.488  1.00  0.00     0.012 A 
ATOM     53  C   UNL A   1      39.425  31.698  35.738  1.00  0.00     0.148 A 
ATOM     54  C   UNL A   1      37.629  32.867  33.938  1.00  0.00     0.002 A 
ATOM     55  C   UNL A   1      38.196  32.178  36.182  1.00  0.00     0.091 A 
ATOM     56  F   UNL A   1      40.249  31.064  36.583  1.00  0.00    -0.205 F 
ATOM     57  C   UNL A   1      37.290  32.752  35.283  1.00  0.00     0.022 A 
BRANCH  55  58
ATOM     58  S   UNL A   1      37.672  32.027  37.896  1.00  0.00     0.127 S 
ATOM     59  O   UNL A   1      36.515  32.921  37.938  1.00  0.00    -0.237 OA
ATOM     60  O   UNL A   1      37.353  30.605  37.990  1.00  0.00    -0.237 OA
ATOM     61  O   UNL A   1      38.804  32.473  38.699  1.00  0.00    -0.744 OA
ENDBRANCH  55  58
ENDBRANCH  27  51
BRANCH  39  62
ATOM     62  C   UNL A   1      45.366  28.994  34.251  1.00  0.00     0.023 A 
ATOM     63  C   UNL A   1      46.111  29.121  35.443  1.00  0.00     0.012 A 
ATOM     64  C   UNL A   1      44.541  27.871  34.081  1.00  0.00     0.148 A 
ATOM     65  C   UNL A   1      46.044  28.135  36.432  1.00  0.00     0.002 A 
ATOM     66  C   UNL A   1      44.439  26.921  35.086  1.00  0.00     0.091 A 
ATOM     67  F   UNL A   1      43.841  27.768  32.940  1.00  0.00    -0.205 F 
ATOM     68  C   UNL A   1      45.197  27.042  36.261  1.00  0.00     0.022 A 
BRANCH  66  69
ATOM     69  S   UNL A   1      43.268  25.568  34.967  1.00  0.00     0.127 S 
ATOM     70  O   UNL A   1      42.053  26.254  34.537  1.00  0.00    -0.237 OA
ATOM     71  O   UNL A   1      43.881  24.710  33.951  1.00  0.00    -0.237 OA
ATOM     72  O   UNL A   1      43.215  24.967  36.294  1.00  0.00    -0.744 OA
ENDBRANCH  66  69
ENDBRANCH  39  62
ENDBRANCH  13  14
ENDBRANCH   6   8
ENDBRANCH   5   6
ENDBRANCH   4   5
ENDBRANCH   3   4
ENDBRANCH   2   3
ENDBRANCH   1   2
BRANCH   1  73
ATOM     73  C   UNL A   1      33.499  22.239  23.856  1.00  0.00     0.261 C 
BRANCH  73  74
ATOM     74  O   UNL A   1      33.195  23.353  22.995  1.00  0.00    -0.460 OA
BRANCH  74  75
ATOM     75  C   UNL A   1      31.985  23.926  23.192  1.00  0.00     0.338 C 
ATOM     76  O   UNL A   1      30.887  23.387  23.128  1.00  0.00    -0.246 OA
BRANCH  75  77
ATOM     77  C   UNL A   1      32.173  25.285  23.733  1.00  0.00     0.060 A 
ATOM     78  C   UNL A   1      33.435  25.888  23.580  1.00  0.00     0.018 A 
ATOM     79  C   UNL A   1      31.149  25.945  24.411  1.00  0.00     0.018 A 
ATOM     80  C   UNL A   1      33.685  27.158  24.089  1.00  0.00     0.029 A 
ATOM     81  C   UNL A   1      31.426  27.173  25.015  1.00  0.00     0.029 A 
ATOM     82  C   UNL A   1      32.694  27.767  24.855  1.00  0.00     0.066 A 
BRANCH  82  83
ATOM     83  N   UNL A   1      33.088  28.808  25.712  1.00  0.00    -0.220 N 
ATOM     84  C   UNL A   1      32.361  29.954  25.875  1.00  0.00     0.141 A 
ATOM     85  N   UNL A   1      34.034  28.734  26.667  1.00  0.00    -0.062 NA
ATOM     86  C   UNL A   1      32.920  30.611  26.942  1.00  0.00     0.093 A 
ATOM     87  N   UNL A   1      33.998  29.869  27.366  1.00  0.00    -0.134 NA
BRANCH  86  88
ATOM     88  C   UNL A   1      32.668  31.989  27.417  1.00  0.00     0.138 C 
BRANCH  88  89
ATOM     89  S   UNL A   1      33.930  33.236  27.661  1.00  0.00    -0.081 SA
BRANCH  89  90
ATOM     90  C   UNL A   1      34.293  33.611  29.325  1.00  0.00     0.176 A 
ATOM     91  N   UNL A   1      33.409  34.419  29.841  1.00  0.00    -0.223 NA
ATOM     92  N   UNL A   1      35.357  33.139  30.074  1.00  0.00    -0.255 N 
ATOM     93  C   UNL A   1      33.636  34.924  31.128  1.00  0.00     0.079 A 
ATOM     94  C   UNL A   1      35.898  34.090  30.950  1.00  0.00     0.266 A 
ATOM     95  C   UNL A   1      32.613  35.522  31.865  1.00  0.00     0.029 A 
ATOM     96  C   UNL A   1      34.923  34.943  31.643  1.00  0.00     0.066 A 
ATOM     97  O   UNL A   1      37.094  34.266  31.178  1.00  0.00    -0.268 OA
ATOM     98  C   UNL A   1      32.903  36.189  33.063  1.00  0.00     0.002 A 
ATOM     99  C   UNL A   1      35.242  35.654  32.803  1.00  0.00     0.016 A 
ATOM    100  C   UNL A   1      34.223  36.291  33.509  1.00  0.00     0.001 A 
BRANCH  92 101
ATOM    101  C   UNL A   1      35.956  31.821  30.038  1.00  0.00     0.051 A 
ATOM    102  C   UNL A   1      35.836  30.964  31.153  1.00  0.00     0.027 A 
ATOM    103  C   UNL A   1      36.671  31.303  28.953  1.00  0.00     0.027 A 
ATOM    104  C   UNL A   1      36.591  29.795  31.279  1.00  0.00     0.002 A 
ATOM    105  C   UNL A   1      37.492  30.173  29.099  1.00  0.00     0.002 A 
ATOM    106  C   UNL A   1      37.480  29.441  30.279  1.00  0.00     0.000 A 
ENDBRANCH  92 101
ENDBRANCH  89  90
ENDBRANCH  88  89
ENDBRANCH  86  88
ENDBRANCH  82  83
ENDBRANCH  75  77
ENDBRANCH  74  75
ENDBRANCH  73  74
ENDBRANCH   1  73
TORSDOF 22
ENDMDL
