MODEL 1
REMARK VINA RESULT:     -12.2      0.000      0.000
REMARK SMILES Cc1nn([C@H]2CCS(=O)(=O)C2)c(C)c1/C=C(\CC(=O)OCCOCCOC(=O)c1ccc(-c2c3nc(c(-c4cccc(S(=O)(=O)[O-])c4F)c4ccc([nH]4)c(-c4cccc(S(=O)(=O)[O-])c4F)c4nc(c(-c5cccc(S(=O)(=O)[O-])c5F)c5ccc2[nH]5)C=C4)C=C3)cc1)c1nc2ccccc2s1
REMARK SMILES IDX 23 1 22 2 21 3 20 4 18 5 19 6 17 7 16 8 15 9 14 10 1 11 2 12
REMARK SMILES IDX 3 13 4 14 12 15 13 16 5 17 6 18 11 19 7 20 8 21 9 22 10 23
REMARK SMILES IDX 92 24 93 25 100 26 94 27 99 28 95 29 98 30 96 31 97 32 24 33
REMARK SMILES IDX 25 34 26 35 27 36 28 37 29 38 30 39 91 40 31 41 90 42 32 43
REMARK SMILES IDX 33 44 34 45 84 46 35 47 89 48 83 49 85 50 36 51 88 52 82 53
REMARK SMILES IDX 81 54 37 56 69 57 49 58 68 59 50 60 53 61 67 62 86 63 51 64
REMARK SMILES IDX 52 65 66 67 87 68 54 69 38 70 39 71 47 72 40 73 42 74 48 75
REMARK SMILES IDX 41 76 43 77 44 78 45 79 46 80 70 81 71 82 79 83 72 84 74 85
REMARK SMILES IDX 80 86 73 87 75 88 76 89 77 90 78 91 55 92 56 93 64 94 57 95
REMARK SMILES IDX 59 96 65 97 58 98 60 99 61 100 62 101 63 102
REMARK H PARENT 85 55 53 66
REMARK Flexibility Score: inf
ROOT
ATOM      1  O   UNL A   1      36.432  22.056  25.357  1.00  0.00    -0.374 OA
ENDROOT
BRANCH   1   2
ATOM      2  C   UNL A   1      36.605  23.060  24.363  1.00  0.00     0.202 C 
BRANCH   2   3
ATOM      3  C   UNL A   1      35.690  23.069  23.131  1.00  0.00     0.261 C 
BRANCH   3   4
ATOM      4  O   UNL A   1      35.143  24.373  22.821  1.00  0.00    -0.463 OA
BRANCH   4   5
ATOM      5  C   UNL A   1      33.906  24.323  22.303  1.00  0.00     0.310 C 
ATOM      6  O   UNL A   1      33.548  25.016  21.342  1.00  0.00    -0.252 OA
BRANCH   5   7
ATOM      7  C   UNL A   1      32.915  23.298  22.828  1.00  0.00     0.161 C 
BRANCH   7   8
ATOM      8  C   UNL A   1      32.517  22.623  24.136  1.00  0.00    -0.000 C 
ATOM      9  C   UNL A   1      32.103  23.348  25.218  1.00  0.00     0.019 C 
BRANCH   9  10
ATOM     10  C   UNL A   1      32.060  24.788  25.282  1.00  0.00     0.019 A 
ATOM     11  C   UNL A   1      34.474  25.453  26.023  1.00  0.00     0.069 C 
ATOM     12  C   UNL A   1      33.106  25.722  25.503  1.00  0.00     0.067 A 
ATOM     13  N   UNL A   1      32.712  26.973  25.184  1.00  0.00    -0.177 NA
ATOM     14  N   UNL A   1      31.412  26.827  24.875  1.00  0.00    -0.265 N 
ATOM     15  C   UNL A   1      30.926  25.585  25.218  1.00  0.00     0.043 A 
ATOM     16  C   UNL A   1      29.461  25.278  25.299  1.00  0.00     0.067 C 
BRANCH  14  17
ATOM     17  C   UNL A   1      30.604  27.894  24.337  1.00  0.00     0.123 C 
ATOM     18  C   UNL A   1      31.025  29.363  24.514  1.00  0.00     0.044 C 
ATOM     19  C   UNL A   1      30.374  27.789  22.825  1.00  0.00     0.164 C 
ATOM     20  C   UNL A   1      29.881  30.165  23.871  1.00  0.00     0.139 C 
ATOM     21  S   UNL A   1      29.238  29.128  22.555  1.00  0.00     0.152 S 
ATOM     22  O   UNL A   1      27.914  28.663  22.955  1.00  0.00    -0.229 OA
ATOM     23  O   UNL A   1      29.481  29.742  21.279  1.00  0.00    -0.229 OA
ENDBRANCH  14  17
ENDBRANCH   9  10
BRANCH   8  24
ATOM     24  C   UNL A   1      32.209  21.207  24.137  1.00  0.00     0.121 A 
ATOM     25  N   UNL A   1      32.145  20.434  25.193  1.00  0.00    -0.236 NA
ATOM     26  S   UNL A   1      32.197  20.302  22.650  1.00  0.00    -0.114 S 
ATOM     27  C   UNL A   1      32.387  19.108  24.882  1.00  0.00     0.082 A 
ATOM     28  C   UNL A   1      32.509  18.843  23.523  1.00  0.00     0.055 A 
ATOM     29  C   UNL A   1      32.651  18.074  25.808  1.00  0.00     0.030 A 
ATOM     30  C   UNL A   1      32.886  17.571  23.058  1.00  0.00     0.021 A 
ATOM     31  C   UNL A   1      33.142  16.848  25.363  1.00  0.00     0.002 A 
ATOM     32  C   UNL A   1      33.253  16.601  24.002  1.00  0.00     0.002 A 
ENDBRANCH   8  24
ENDBRANCH   7   8
ENDBRANCH   5   7
ENDBRANCH   4   5
ENDBRANCH   3   4
ENDBRANCH   2   3
ENDBRANCH   1   2
BRANCH   1  33
ATOM     33  C   UNL A   1      36.516  20.685  25.011  1.00  0.00     0.202 C 
BRANCH  33  34
ATOM     34  C   UNL A   1      37.860  19.961  25.045  1.00  0.00     0.261 C 
BRANCH  34  35
ATOM     35  O   UNL A   1      39.021  20.780  25.202  1.00  0.00    -0.460 OA
BRANCH  35  36
ATOM     36  C   UNL A   1      40.100  20.134  25.703  1.00  0.00     0.338 C 
ATOM     37  O   UNL A   1      40.241  18.919  25.736  1.00  0.00    -0.246 OA
BRANCH  36  38
ATOM     38  C   UNL A   1      41.012  21.045  26.426  1.00  0.00     0.060 A 
ATOM     39  C   UNL A   1      40.836  21.096  27.807  1.00  0.00     0.016 A 
ATOM     40  C   UNL A   1      41.746  22.039  25.774  1.00  0.00     0.016 A 
ATOM     41  C   UNL A   1      41.172  22.252  28.483  1.00  0.00     0.010 A 
ATOM     42  C   UNL A   1      42.002  23.236  26.425  1.00  0.00     0.010 A 
ATOM     43  C   UNL A   1      41.663  23.353  27.770  1.00  0.00    -0.014 A 
BRANCH  43  44
ATOM     44  C   UNL A   1      42.108  24.498  28.550  1.00  0.00     0.031 A 
ATOM     45  C   UNL A   1      41.247  25.670  28.262  1.00  0.00     0.074 A 
ATOM     46  C   UNL A   1      43.122  24.500  29.438  1.00  0.00     0.049 A 
ATOM     47  N   UNL A   1      41.553  26.705  27.551  1.00  0.00    -0.248 NA
ATOM     48  C   UNL A   1      39.812  25.563  28.577  1.00  0.00     0.031 C 
ATOM     49  C   UNL A   1      43.843  23.339  29.964  1.00  0.00     0.029 A 
ATOM     50  N   UNL A   1      43.647  25.539  30.159  1.00  0.00    -0.354 N 
ATOM     51  C   UNL A   1      40.415  27.505  27.588  1.00  0.00     0.074 A 
ATOM     52  C   UNL A   1      39.331  26.652  27.978  1.00  0.00     0.031 C 
ATOM     53  C   UNL A   1      44.522  23.704  31.076  1.00  0.00     0.029 A 
ATOM     54  C   UNL A   1      44.381  25.136  31.276  1.00  0.00     0.049 A 
ATOM     55  H   UNL A   1      43.520  26.484  29.911  1.00  0.00     0.167 HD
ATOM     56  C   UNL A   1      40.542  28.856  27.676  1.00  0.00     0.034 A 
ATOM     57  C   UNL A   1      44.763  25.913  32.324  1.00  0.00     0.034 A 
ATOM     58  C   UNL A   1      41.858  29.273  27.256  1.00  0.00     0.049 A 
ATOM     59  C   UNL A   1      44.730  27.317  31.867  1.00  0.00     0.074 A 
ATOM     60  C   UNL A   1      42.611  29.198  26.104  1.00  0.00     0.029 A 
ATOM     61  N   UNL A   1      42.726  29.517  28.287  1.00  0.00    -0.354 N 
ATOM     62  N   UNL A   1      45.562  27.813  30.997  1.00  0.00    -0.248 NA
ATOM     63  C   UNL A   1      43.535  28.107  32.116  1.00  0.00     0.031 C 
ATOM     64  C   UNL A   1      43.966  29.091  26.539  1.00  0.00     0.029 A 
ATOM     65  C   UNL A   1      43.996  29.169  27.933  1.00  0.00     0.049 A 
ATOM     66  H   UNL A   1      42.469  29.892  29.160  1.00  0.00     0.167 HD
ATOM     67  C   UNL A   1      44.781  28.680  30.250  1.00  0.00     0.074 A 
ATOM     68  C   UNL A   1      43.616  28.952  31.086  1.00  0.00     0.031 C 
ATOM     69  C   UNL A   1      45.006  28.826  28.911  1.00  0.00     0.034 A 
BRANCH  56  70
ATOM     70  C   UNL A   1      39.723  29.713  28.636  1.00  0.00     0.023 A 
ATOM     71  C   UNL A   1      40.153  29.741  29.983  1.00  0.00     0.012 A 
ATOM     72  C   UNL A   1      38.421  30.213  28.382  1.00  0.00     0.148 A 
ATOM     73  C   UNL A   1      39.313  30.167  31.018  1.00  0.00     0.002 A 
ATOM     74  C   UNL A   1      37.618  30.708  29.403  1.00  0.00     0.091 A 
ATOM     75  F   UNL A   1      37.874  30.104  27.172  1.00  0.00    -0.205 F 
ATOM     76  C   UNL A   1      38.044  30.654  30.728  1.00  0.00     0.022 A 
BRANCH  74  77
ATOM     77  S   UNL A   1      35.980  31.378  29.073  1.00  0.00     0.127 S 
ATOM     78  O   UNL A   1      35.472  31.581  30.426  1.00  0.00    -0.237 OA
ATOM     79  O   UNL A   1      36.307  32.600  28.339  1.00  0.00    -0.237 OA
ATOM     80  O   UNL A   1      35.289  30.371  28.277  1.00  0.00    -0.744 OA
ENDBRANCH  74  77
ENDBRANCH  56  70
BRANCH  57  81
ATOM     81  C   UNL A   1      44.929  25.593  33.765  1.00  0.00     0.023 A 
ATOM     82  C   UNL A   1      46.222  25.361  34.289  1.00  0.00     0.012 A 
ATOM     83  C   UNL A   1      43.880  25.819  34.680  1.00  0.00     0.148 A 
ATOM     84  C   UNL A   1      46.467  25.402  35.668  1.00  0.00     0.002 A 
ATOM     85  C   UNL A   1      44.125  25.852  36.051  1.00  0.00     0.091 A 
ATOM     86  F   UNL A   1      42.660  26.099  34.206  1.00  0.00    -0.205 F 
ATOM     87  C   UNL A   1      45.420  25.660  36.549  1.00  0.00     0.022 A 
BRANCH  85  88
ATOM     88  S   UNL A   1      42.828  26.206  37.245  1.00  0.00     0.127 S 
ATOM     89  O   UNL A   1      42.345  27.511  36.789  1.00  0.00    -0.237 OA
ATOM     90  O   UNL A   1      41.902  25.100  37.026  1.00  0.00    -0.237 OA
ATOM     91  O   UNL A   1      43.482  26.235  38.547  1.00  0.00    -0.744 OA
ENDBRANCH  85  88
ENDBRANCH  57  81
BRANCH  69  92
ATOM     92  C   UNL A   1      46.360  28.430  28.385  1.00  0.00     0.023 A 
ATOM     93  C   UNL A   1      47.505  29.246  28.485  1.00  0.00     0.012 A 
ATOM     94  C   UNL A   1      46.490  27.137  27.851  1.00  0.00     0.148 A 
ATOM     95  C   UNL A   1      48.746  28.789  28.031  1.00  0.00     0.002 A 
ATOM     96  C   UNL A   1      47.731  26.668  27.450  1.00  0.00     0.091 A 
ATOM     97  F   UNL A   1      45.387  26.378  27.754  1.00  0.00    -0.205 F 
ATOM     98  C   UNL A   1      48.862  27.495  27.525  1.00  0.00     0.022 A 
BRANCH  96  99
ATOM     99  S   UNL A   1      47.947  24.975  26.899  1.00  0.00     0.127 S 
ATOM    100  O   UNL A   1      49.385  24.779  27.072  1.00  0.00    -0.237 OA
ATOM    101  O   UNL A   1      47.109  24.229  27.838  1.00  0.00    -0.237 OA
ATOM    102  O   UNL A   1      47.467  24.940  25.523  1.00  0.00    -0.744 OA
ENDBRANCH  96  99
ENDBRANCH  69  92
ENDBRANCH  43  44
ENDBRANCH  36  38
ENDBRANCH  35  36
ENDBRANCH  34  35
ENDBRANCH  33  34
ENDBRANCH   1  33
TORSDOF 21
ENDMDL
MODEL 2
REMARK VINA RESULT:     -11.6      2.989      6.445
REMARK SMILES Cc1nn([C@H]2CCS(=O)(=O)C2)c(C)c1/C=C(\CC(=O)OCCOCCOC(=O)c1ccc(-c2c3nc(c(-c4cccc(S(=O)(=O)[O-])c4F)c4ccc([nH]4)c(-c4cccc(S(=O)(=O)[O-])c4F)c4nc(c(-c5cccc(S(=O)(=O)[O-])c5F)c5ccc2[nH]5)C=C4)C=C3)cc1)c1nc2ccccc2s1
REMARK SMILES IDX 23 1 22 2 21 3 20 4 18 5 19 6 17 7 16 8 15 9 14 10 1 11 2 12
REMARK SMILES IDX 3 13 4 14 12 15 13 16 5 17 6 18 11 19 7 20 8 21 9 22 10 23
REMARK SMILES IDX 92 24 93 25 100 26 94 27 99 28 95 29 98 30 96 31 97 32 24 33
REMARK SMILES IDX 25 34 26 35 27 36 28 37 29 38 30 39 91 40 31 41 90 42 32 43
REMARK SMILES IDX 33 44 34 45 84 46 35 47 89 48 83 49 85 50 36 51 88 52 82 53
REMARK SMILES IDX 81 54 37 56 69 57 49 58 68 59 50 60 53 61 67 62 86 63 51 64
REMARK SMILES IDX 52 65 66 67 87 68 54 69 38 70 39 71 47 72 40 73 42 74 48 75
REMARK SMILES IDX 41 76 43 77 44 78 45 79 46 80 70 81 71 82 79 83 72 84 74 85
REMARK SMILES IDX 80 86 73 87 75 88 76 89 77 90 78 91 55 92 56 93 64 94 57 95
REMARK SMILES IDX 59 96 65 97 58 98 60 99 61 100 62 101 63 102
REMARK H PARENT 85 55 53 66
REMARK Flexibility Score: inf
ROOT
ATOM      1  O   UNL A   1      37.074  22.288  25.134  1.00  0.00    -0.374 OA
ENDROOT
BRANCH   1   2
ATOM      2  C   UNL A   1      37.002  22.903  23.852  1.00  0.00     0.202 C 
BRANCH   2   3
ATOM      3  C   UNL A   1      35.657  22.965  23.118  1.00  0.00     0.261 C 
BRANCH   3   4
ATOM      4  O   UNL A   1      35.239  24.308  22.778  1.00  0.00    -0.463 OA
BRANCH   4   5
ATOM      5  C   UNL A   1      33.961  24.384  22.376  1.00  0.00     0.310 C 
ATOM      6  O   UNL A   1      33.564  25.208  21.542  1.00  0.00    -0.252 OA
BRANCH   5   7
ATOM      7  C   UNL A   1      32.959  23.353  22.864  1.00  0.00     0.161 C 
BRANCH   7   8
ATOM      8  C   UNL A   1      32.513  22.681  24.160  1.00  0.00    -0.000 C 
ATOM      9  C   UNL A   1      32.063  23.409  25.224  1.00  0.00     0.019 C 
BRANCH   9  10
ATOM     10  C   UNL A   1      32.020  24.849  25.284  1.00  0.00     0.019 A 
ATOM     11  C   UNL A   1      34.430  25.516  26.033  1.00  0.00     0.069 C 
ATOM     12  C   UNL A   1      33.066  25.784  25.506  1.00  0.00     0.067 A 
ATOM     13  N   UNL A   1      32.673  27.033  25.182  1.00  0.00    -0.177 NA
ATOM     14  N   UNL A   1      31.375  26.888  24.868  1.00  0.00    -0.265 N 
ATOM     15  C   UNL A   1      30.886  25.646  25.212  1.00  0.00     0.043 A 
ATOM     16  C   UNL A   1      29.421  25.340  25.288  1.00  0.00     0.067 C 
BRANCH  14  17
ATOM     17  C   UNL A   1      30.570  27.953  24.323  1.00  0.00     0.123 C 
ATOM     18  C   UNL A   1      30.989  29.422  24.499  1.00  0.00     0.044 C 
ATOM     19  C   UNL A   1      30.347  27.844  22.810  1.00  0.00     0.164 C 
ATOM     20  C   UNL A   1      29.849  30.223  23.848  1.00  0.00     0.139 C 
ATOM     21  S   UNL A   1      29.212  29.182  22.532  1.00  0.00     0.152 S 
ATOM     22  O   UNL A   1      27.886  28.718  22.925  1.00  0.00    -0.229 OA
ATOM     23  O   UNL A   1      29.461  29.794  21.255  1.00  0.00    -0.229 OA
ENDBRANCH  14  17
ENDBRANCH   9  10
BRANCH   8  24
ATOM     24  C   UNL A   1      32.203  21.265  24.152  1.00  0.00     0.121 A 
ATOM     25  N   UNL A   1      32.164  20.481  25.200  1.00  0.00    -0.236 NA
ATOM     26  S   UNL A   1      32.153  20.377  22.655  1.00  0.00    -0.114 S 
ATOM     27  C   UNL A   1      32.396  19.158  24.869  1.00  0.00     0.082 A 
ATOM     28  C   UNL A   1      32.484  18.908  23.504  1.00  0.00     0.055 A 
ATOM     29  C   UNL A   1      32.681  18.114  25.777  1.00  0.00     0.030 A 
ATOM     30  C   UNL A   1      32.847  17.641  23.017  1.00  0.00     0.021 A 
ATOM     31  C   UNL A   1      33.158  16.892  25.306  1.00  0.00     0.002 A 
ATOM     32  C   UNL A   1      33.236  16.660  23.940  1.00  0.00     0.002 A 
ENDBRANCH   8  24
ENDBRANCH   7   8
ENDBRANCH   5   7
ENDBRANCH   4   5
ENDBRANCH   3   4
ENDBRANCH   2   3
ENDBRANCH   1   2
BRANCH   1  33
ATOM     33  C   UNL A   1      37.937  21.184  25.350  1.00  0.00     0.202 C 
BRANCH  33  34
ATOM     34  C   UNL A   1      39.329  21.398  25.940  1.00  0.00     0.261 C 
BRANCH  34  35
ATOM     35  O   UNL A   1      39.551  22.636  26.619  1.00  0.00    -0.460 OA
BRANCH  35  36
ATOM     36  C   UNL A   1      40.830  22.840  27.011  1.00  0.00     0.338 C 
ATOM     37  O   UNL A   1      41.761  22.072  26.804  1.00  0.00    -0.246 OA
BRANCH  36  38
ATOM     38  C   UNL A   1      40.958  23.991  27.928  1.00  0.00     0.060 A 
ATOM     39  C   UNL A   1      39.933  24.932  27.855  1.00  0.00     0.016 A 
ATOM     40  C   UNL A   1      42.163  24.313  28.559  1.00  0.00     0.016 A 
ATOM     41  C   UNL A   1      40.203  26.245  28.183  1.00  0.00     0.010 A 
ATOM     42  C   UNL A   1      42.471  25.643  28.802  1.00  0.00     0.010 A 
ATOM     43  C   UNL A   1      41.501  26.611  28.561  1.00  0.00    -0.014 A 
BRANCH  43  44
ATOM     44  C   UNL A   1      41.696  27.983  29.006  1.00  0.00     0.031 A 
ATOM     45  C   UNL A   1      42.947  28.528  28.426  1.00  0.00     0.074 A 
ATOM     46  C   UNL A   1      40.854  28.683  29.791  1.00  0.00     0.049 A 
ATOM     47  N   UNL A   1      44.066  28.729  29.040  1.00  0.00    -0.248 NA
ATOM     48  C   UNL A   1      43.044  28.613  26.958  1.00  0.00     0.031 C 
ATOM     49  C   UNL A   1      39.494  28.312  30.187  1.00  0.00     0.029 A 
ATOM     50  N   UNL A   1      40.991  29.944  30.309  1.00  0.00    -0.354 N 
ATOM     51  C   UNL A   1      44.914  29.244  28.063  1.00  0.00     0.074 A 
ATOM     52  C   UNL A   1      44.338  28.894  26.798  1.00  0.00     0.031 C 
ATOM     53  C   UNL A   1      38.855  29.407  30.660  1.00  0.00     0.029 A 
ATOM     54  C   UNL A   1      39.786  30.522  30.711  1.00  0.00     0.049 A 
ATOM     55  H   UNL A   1      41.860  30.400  30.391  1.00  0.00     0.167 HD
ATOM     56  C   UNL A   1      45.788  30.235  28.383  1.00  0.00     0.034 A 
ATOM     57  C   UNL A   1      39.560  31.836  30.978  1.00  0.00     0.034 A 
ATOM     58  C   UNL A   1      46.012  30.279  29.808  1.00  0.00     0.049 A 
ATOM     59  C   UNL A   1      40.868  32.457  31.270  1.00  0.00     0.074 A 
ATOM     60  C   UNL A   1      46.506  29.423  30.769  1.00  0.00     0.029 A 
ATOM     61  N   UNL A   1      45.288  31.241  30.462  1.00  0.00    -0.354 N 
ATOM     62  N   UNL A   1      41.567  32.200  32.337  1.00  0.00    -0.248 NA
ATOM     63  C   UNL A   1      41.586  33.117  30.192  1.00  0.00     0.031 C 
ATOM     64  C   UNL A   1      45.790  29.736  31.964  1.00  0.00     0.029 A 
ATOM     65  C   UNL A   1      44.935  30.808  31.705  1.00  0.00     0.049 A 
ATOM     66  H   UNL A   1      45.058  32.121  30.086  1.00  0.00     0.167 HD
ATOM     67  C   UNL A   1      42.876  32.206  31.885  1.00  0.00     0.074 A 
ATOM     68  C   UNL A   1      42.836  32.945  30.626  1.00  0.00     0.031 C 
ATOM     69  C   UNL A   1      43.789  31.340  32.413  1.00  0.00     0.034 A 
BRANCH  56  70
ATOM     70  C   UNL A   1      45.994  31.479  27.525  1.00  0.00     0.023 A 
ATOM     71  C   UNL A   1      47.331  31.816  27.212  1.00  0.00     0.012 A 
ATOM     72  C   UNL A   1      45.022  32.482  27.286  1.00  0.00     0.148 A 
ATOM     73  C   UNL A   1      47.685  33.095  26.764  1.00  0.00     0.002 A 
ATOM     74  C   UNL A   1      45.366  33.725  26.769  1.00  0.00     0.091 A 
ATOM     75  F   UNL A   1      43.758  32.312  27.675  1.00  0.00    -0.205 F 
ATOM     76  C   UNL A   1      46.702  34.050  26.539  1.00  0.00     0.022 A 
BRANCH  74  77
ATOM     77  S   UNL A   1      44.125  34.983  26.430  1.00  0.00     0.127 S 
ATOM     78  O   UNL A   1      44.950  36.182  26.315  1.00  0.00    -0.237 OA
ATOM     79  O   UNL A   1      43.552  34.498  25.175  1.00  0.00    -0.237 OA
ATOM     80  O   UNL A   1      43.204  34.950  27.560  1.00  0.00    -0.744 OA
ENDBRANCH  74  77
ENDBRANCH  56  70
BRANCH  57  81
ATOM     81  C   UNL A   1      38.353  32.678  30.777  1.00  0.00     0.023 A 
ATOM     82  C   UNL A   1      37.782  32.791  29.488  1.00  0.00     0.012 A 
ATOM     83  C   UNL A   1      37.585  33.113  31.877  1.00  0.00     0.148 A 
ATOM     84  C   UNL A   1      36.477  33.271  29.309  1.00  0.00     0.002 A 
ATOM     85  C   UNL A   1      36.292  33.598  31.695  1.00  0.00     0.091 A 
ATOM     86  F   UNL A   1      38.082  32.962  33.110  1.00  0.00    -0.205 F 
ATOM     87  C   UNL A   1      35.728  33.664  30.415  1.00  0.00     0.022 A 
BRANCH  85  88
ATOM     88  S   UNL A   1      35.256  34.096  33.077  1.00  0.00     0.127 S 
ATOM     89  O   UNL A   1      35.262  32.892  33.910  1.00  0.00    -0.237 OA
ATOM     90  O   UNL A   1      36.002  35.224  33.626  1.00  0.00    -0.237 OA
ATOM     91  O   UNL A   1      33.955  34.419  32.504  1.00  0.00    -0.744 OA
ENDBRANCH  85  88
ENDBRANCH  57  81
BRANCH  69  92
ATOM     92  C   UNL A   1      43.491  30.753  33.767  1.00  0.00     0.023 A 
ATOM     93  C   UNL A   1      43.651  31.460  34.976  1.00  0.00     0.012 A 
ATOM     94  C   UNL A   1      42.936  29.463  33.801  1.00  0.00     0.148 A 
ATOM     95  C   UNL A   1      43.294  30.875  36.194  1.00  0.00     0.002 A 
ATOM     96  C   UNL A   1      42.535  28.906  35.005  1.00  0.00     0.091 A 
ATOM     97  F   UNL A   1      42.800  28.800  32.641  1.00  0.00    -0.205 F 
ATOM     98  C   UNL A   1      42.724  29.603  36.209  1.00  0.00     0.022 A 
BRANCH  96  99
ATOM     99  S   UNL A   1      41.696  27.322  35.060  1.00  0.00     0.127 S 
ATOM    100  O   UNL A   1      42.757  26.400  34.660  1.00  0.00    -0.237 OA
ATOM    101  O   UNL A   1      41.296  27.226  36.464  1.00  0.00    -0.237 OA
ATOM    102  O   UNL A   1      40.576  27.434  34.134  1.00  0.00    -0.744 OA
ENDBRANCH  96  99
ENDBRANCH  69  92
ENDBRANCH  43  44
ENDBRANCH  36  38
ENDBRANCH  35  36
ENDBRANCH  34  35
ENDBRANCH  33  34
ENDBRANCH   1  33
TORSDOF 21
ENDMDL
MODEL 3
REMARK VINA RESULT:     -11.5      3.530      8.473
REMARK SMILES Cc1nn([C@H]2CCS(=O)(=O)C2)c(C)c1/C=C(\CC(=O)OCCOCCOC(=O)c1ccc(-c2c3nc(c(-c4cccc(S(=O)(=O)[O-])c4F)c4ccc([nH]4)c(-c4cccc(S(=O)(=O)[O-])c4F)c4nc(c(-c5cccc(S(=O)(=O)[O-])c5F)c5ccc2[nH]5)C=C4)C=C3)cc1)c1nc2ccccc2s1
REMARK SMILES IDX 23 1 22 2 21 3 20 4 18 5 19 6 17 7 16 8 15 9 14 10 1 11 2 12
REMARK SMILES IDX 3 13 4 14 12 15 13 16 5 17 6 18 11 19 7 20 8 21 9 22 10 23
REMARK SMILES IDX 92 24 93 25 100 26 94 27 99 28 95 29 98 30 96 31 97 32 24 33
REMARK SMILES IDX 25 34 26 35 27 36 28 37 29 38 30 39 91 40 31 41 90 42 32 43
REMARK SMILES IDX 33 44 34 45 84 46 35 47 89 48 83 49 85 50 36 51 88 52 82 53
REMARK SMILES IDX 81 54 37 56 69 57 49 58 68 59 50 60 53 61 67 62 86 63 51 64
REMARK SMILES IDX 52 65 66 67 87 68 54 69 38 70 39 71 47 72 40 73 42 74 48 75
REMARK SMILES IDX 41 76 43 77 44 78 45 79 46 80 70 81 71 82 79 83 72 84 74 85
REMARK SMILES IDX 80 86 73 87 75 88 76 89 77 90 78 91 55 92 56 93 64 94 57 95
REMARK SMILES IDX 59 96 65 97 58 98 60 99 61 100 62 101 63 102
REMARK H PARENT 85 55 53 66
REMARK Flexibility Score: inf
ROOT
ATOM      1  O   UNL A   1      35.655  22.191  25.100  1.00  0.00    -0.374 OA
ENDROOT
BRANCH   1   2
ATOM      2  C   UNL A   1      35.224  23.451  25.604  1.00  0.00     0.202 C 
BRANCH   2   3
ATOM      3  C   UNL A   1      34.730  24.527  24.628  1.00  0.00     0.261 C 
BRANCH   3   4
ATOM      4  O   UNL A   1      34.526  25.821  25.242  1.00  0.00    -0.463 OA
BRANCH   4   5
ATOM      5  C   UNL A   1      33.309  26.336  25.008  1.00  0.00     0.310 C 
ATOM      6  O   UNL A   1      32.784  27.188  25.737  1.00  0.00    -0.252 OA
BRANCH   5   7
ATOM      7  C   UNL A   1      32.567  25.959  23.737  1.00  0.00     0.161 C 
BRANCH   7   8
ATOM      8  C   UNL A   1      31.161  25.594  23.271  1.00  0.00    -0.000 C 
ATOM      9  C   UNL A   1      30.604  24.381  23.562  1.00  0.00     0.019 C 
BRANCH   9  10
ATOM     10  C   UNL A   1      31.272  23.308  24.255  1.00  0.00     0.019 A 
ATOM     11  C   UNL A   1      31.219  24.049  26.758  1.00  0.00     0.069 C 
ATOM     12  C   UNL A   1      31.435  23.083  25.648  1.00  0.00     0.067 A 
ATOM     13  N   UNL A   1      31.846  21.820  25.888  1.00  0.00    -0.177 NA
ATOM     14  N   UNL A   1      32.037  21.308  24.660  1.00  0.00    -0.265 N 
ATOM     15  C   UNL A   1      31.992  22.271  23.676  1.00  0.00     0.043 A 
ATOM     16  C   UNL A   1      32.501  22.040  22.286  1.00  0.00     0.067 C 
BRANCH  14  17
ATOM     17  C   UNL A   1      32.353  19.921  24.424  1.00  0.00     0.123 C 
ATOM     18  C   UNL A   1      32.326  19.342  22.999  1.00  0.00     0.044 C 
ATOM     19  C   UNL A   1      33.743  19.512  24.928  1.00  0.00     0.164 C 
ATOM     20  C   UNL A   1      32.647  17.850  23.190  1.00  0.00     0.139 C 
ATOM     21  S   UNL A   1      33.716  17.761  24.629  1.00  0.00     0.152 S 
ATOM     22  O   UNL A   1      32.960  17.146  25.714  1.00  0.00    -0.229 OA
ATOM     23  O   UNL A   1      35.021  17.298  24.247  1.00  0.00    -0.229 OA
ENDBRANCH  14  17
ENDBRANCH   9  10
BRANCH   8  24
ATOM     24  C   UNL A   1      30.260  26.647  22.848  1.00  0.00     0.121 A 
ATOM     25  N   UNL A   1      30.576  27.675  22.101  1.00  0.00    -0.236 NA
ATOM     26  S   UNL A   1      28.687  26.814  23.577  1.00  0.00    -0.114 S 
ATOM     27  C   UNL A   1      29.733  28.751  22.313  1.00  0.00     0.082 A 
ATOM     28  C   UNL A   1      28.657  28.490  23.155  1.00  0.00     0.055 A 
ATOM     29  C   UNL A   1      29.952  30.076  21.874  1.00  0.00     0.030 A 
ATOM     30  C   UNL A   1      27.790  29.514  23.571  1.00  0.00     0.021 A 
ATOM     31  C   UNL A   1      29.172  31.115  22.377  1.00  0.00     0.002 A 
ATOM     32  C   UNL A   1      28.101  30.834  23.213  1.00  0.00     0.002 A 
ENDBRANCH   8  24
ENDBRANCH   7   8
ENDBRANCH   5   7
ENDBRANCH   4   5
ENDBRANCH   3   4
ENDBRANCH   2   3
ENDBRANCH   1   2
BRANCH   1  33
ATOM     33  C   UNL A   1      36.992  22.014  24.668  1.00  0.00     0.202 C 
BRANCH  33  34
ATOM     34  C   UNL A   1      38.129  21.944  25.685  1.00  0.00     0.261 C 
BRANCH  34  35
ATOM     35  O   UNL A   1      38.776  23.178  26.004  1.00  0.00    -0.460 OA
BRANCH  35  36
ATOM     36  C   UNL A   1      39.875  23.050  26.783  1.00  0.00     0.338 C 
ATOM     37  O   UNL A   1      40.557  22.039  26.878  1.00  0.00    -0.246 OA
BRANCH  36  38
ATOM     38  C   UNL A   1      40.048  24.197  27.700  1.00  0.00     0.060 A 
ATOM     39  C   UNL A   1      39.037  25.155  27.658  1.00  0.00     0.016 A 
ATOM     40  C   UNL A   1      41.275  24.496  28.297  1.00  0.00     0.016 A 
ATOM     41  C   UNL A   1      39.339  26.463  27.981  1.00  0.00     0.010 A 
ATOM     42  C   UNL A   1      41.613  25.820  28.536  1.00  0.00     0.010 A 
ATOM     43  C   UNL A   1      40.653  26.805  28.324  1.00  0.00    -0.014 A 
BRANCH  43  44
ATOM     44  C   UNL A   1      40.884  28.172  28.767  1.00  0.00     0.031 A 
ATOM     45  C   UNL A   1      42.196  28.649  28.268  1.00  0.00     0.074 A 
ATOM     46  C   UNL A   1      40.026  28.923  29.486  1.00  0.00     0.049 A 
ATOM     47  N   UNL A   1      43.280  28.805  28.954  1.00  0.00    -0.248 NA
ATOM     48  C   UNL A   1      42.397  28.710  26.809  1.00  0.00     0.031 C 
ATOM     49  C   UNL A   1      38.625  28.622  29.792  1.00  0.00     0.029 A 
ATOM     50  N   UNL A   1      40.188  30.182  29.999  1.00  0.00    -0.354 N 
ATOM     51  C   UNL A   1      44.215  29.266  28.033  1.00  0.00     0.074 A 
ATOM     52  C   UNL A   1      43.710  28.926  26.735  1.00  0.00     0.031 C 
ATOM     53  C   UNL A   1      38.010  29.752  30.209  1.00  0.00     0.029 A 
ATOM     54  C   UNL A   1      38.988  30.822  30.311  1.00  0.00     0.049 A 
ATOM     55  H   UNL A   1      41.071  30.597  30.135  1.00  0.00     0.167 HD
ATOM     56  C   UNL A   1      45.113  30.218  28.401  1.00  0.00     0.034 A 
ATOM     57  C   UNL A   1      38.809  32.149  30.549  1.00  0.00     0.034 A 
ATOM     58  C   UNL A   1      45.242  30.270  29.838  1.00  0.00     0.049 A 
ATOM     59  C   UNL A   1      40.123  32.711  30.922  1.00  0.00     0.074 A 
ATOM     60  C   UNL A   1      45.628  29.405  30.839  1.00  0.00     0.029 A 
ATOM     61  N   UNL A   1      44.524  31.275  30.430  1.00  0.00    -0.354 N 
ATOM     62  N   UNL A   1      40.735  32.436  32.038  1.00  0.00    -0.248 NA
ATOM     63  C   UNL A   1      40.943  33.321  29.889  1.00  0.00     0.031 C 
ATOM     64  C   UNL A   1      44.849  29.769  31.979  1.00  0.00     0.029 A 
ATOM     65  C   UNL A   1      44.066  30.877  31.651  1.00  0.00     0.049 A 
ATOM     66  H   UNL A   1      44.362  32.160  30.030  1.00  0.00     0.167 HD
ATOM     67  C   UNL A   1      42.070  32.374  31.675  1.00  0.00     0.074 A 
ATOM     68  C   UNL A   1      42.151  33.096  30.410  1.00  0.00     0.031 C 
ATOM     69  C   UNL A   1      42.902  31.472  32.274  1.00  0.00     0.034 A 
BRANCH  56  70
ATOM     70  C   UNL A   1      45.437  31.439  27.546  1.00  0.00     0.023 A 
ATOM     71  C   UNL A   1      46.801  31.651  27.238  1.00  0.00     0.012 A 
ATOM     72  C   UNL A   1      44.562  32.528  27.306  1.00  0.00     0.148 A 
ATOM     73  C   UNL A   1      47.273  32.892  26.794  1.00  0.00     0.002 A 
ATOM     74  C   UNL A   1      45.023  33.734  26.792  1.00  0.00     0.091 A 
ATOM     75  F   UNL A   1      43.287  32.475  27.690  1.00  0.00    -0.205 F 
ATOM     76  C   UNL A   1      46.384  33.934  26.567  1.00  0.00     0.022 A 
BRANCH  74  77
ATOM     77  S   UNL A   1      43.905  35.103  26.452  1.00  0.00     0.127 S 
ATOM     78  O   UNL A   1      43.177  35.204  27.713  1.00  0.00    -0.237 OA
ATOM     79  O   UNL A   1      44.847  36.190  26.186  1.00  0.00    -0.237 OA
ATOM     80  O   UNL A   1      43.118  34.699  25.293  1.00  0.00    -0.744 OA
ENDBRANCH  74  77
ENDBRANCH  56  70
BRANCH  57  81
ATOM     81  C   UNL A   1      37.661  33.045  30.257  1.00  0.00     0.023 A 
ATOM     82  C   UNL A   1      37.297  33.306  28.916  1.00  0.00     0.012 A 
ATOM     83  C   UNL A   1      36.739  33.390  31.267  1.00  0.00     0.148 A 
ATOM     84  C   UNL A   1      36.043  33.843  28.593  1.00  0.00     0.002 A 
ATOM     85  C   UNL A   1      35.497  33.931  30.944  1.00  0.00     0.091 A 
ATOM     86  F   UNL A   1      37.038  33.098  32.539  1.00  0.00    -0.205 F 
ATOM     87  C   UNL A   1      35.138  34.145  29.607  1.00  0.00     0.022 A 
BRANCH  85  88
ATOM     88  S   UNL A   1      34.268  34.318  32.198  1.00  0.00     0.127 S 
ATOM     89  O   UNL A   1      34.990  35.268  33.046  1.00  0.00    -0.237 OA
ATOM     90  O   UNL A   1      33.194  34.902  31.402  1.00  0.00    -0.237 OA
ATOM     91  O   UNL A   1      33.955  33.054  32.853  1.00  0.00    -0.744 OA
ENDBRANCH  85  88
ENDBRANCH  57  81
BRANCH  69  92
ATOM     92  C   UNL A   1      42.485  30.919  33.610  1.00  0.00     0.023 A 
ATOM     93  C   UNL A   1      41.863  29.665  33.775  1.00  0.00     0.012 A 
ATOM     94  C   UNL A   1      42.825  31.666  34.751  1.00  0.00     0.148 A 
ATOM     95  C   UNL A   1      41.560  29.184  35.053  1.00  0.00     0.002 A 
ATOM     96  C   UNL A   1      42.569  31.163  36.017  1.00  0.00     0.091 A 
ATOM     97  F   UNL A   1      43.408  32.862  34.574  1.00  0.00    -0.205 F 
ATOM     98  C   UNL A   1      41.924  29.928  36.174  1.00  0.00     0.022 A 
BRANCH  96  99
ATOM     99  S   UNL A   1      43.121  32.031  37.486  1.00  0.00     0.127 S 
ATOM    100  O   UNL A   1      42.672  31.140  38.554  1.00  0.00    -0.237 OA
ATOM    101  O   UNL A   1      44.571  32.080  37.297  1.00  0.00    -0.237 OA
ATOM    102  O   UNL A   1      42.475  33.337  37.443  1.00  0.00    -0.744 OA
ENDBRANCH  96  99
ENDBRANCH  69  92
ENDBRANCH  43  44
ENDBRANCH  36  38
ENDBRANCH  35  36
ENDBRANCH  34  35
ENDBRANCH  33  34
ENDBRANCH   1  33
TORSDOF 21
ENDMDL
