MODEL 1
REMARK VINA RESULT:     -11.5      0.000      0.000
REMARK SMILES Cc1c(NCc2ccccn2)cccc1C(=O)N1CCOC[C@@H]1CC(=O)OCCOCCOC(=O)c1ccc(-c2c3nc(c(-c4cccc(S(=O)(=O)[O-])c4F)c4ccc([nH]4)c(-c4cccc(S(=O)(=O)[O-])c4F)c4nc(c(-c5cccc(S(=O)(=O)[O-])c5F)c5ccc2[nH]5)C=C4)C=C3)cc1
REMARK SMILES IDX 28 1 27 2 25 3 26 4 24 5 23 6 18 7 19 8 20 9 22 10 21 11
REMARK SMILES IDX 16 12 17 13 15 14 1 15 2 16 3 17 12 18 14 19 13 20 4 21 5 23
REMARK SMILES IDX 6 24 7 25 11 26 8 27 10 28 9 29 29 30 30 31 31 32 32 33
REMARK SMILES IDX 33 34 34 35 35 36 36 37 37 38 98 39 38 40 97 41 39 42 40 43
REMARK SMILES IDX 41 44 91 45 42 46 96 47 90 48 92 49 43 50 95 51 89 52 88 53
REMARK SMILES IDX 44 55 76 56 56 57 75 58 57 59 60 60 74 61 93 62 58 63 59 64
REMARK SMILES IDX 73 66 94 67 61 68 45 69 46 70 54 71 47 72 49 73 55 74 48 75
REMARK SMILES IDX 50 76 51 77 52 78 53 79 77 80 78 81 86 82 79 83 81 84 87 85
REMARK SMILES IDX 80 86 82 87 83 88 84 89 85 90 62 91 63 92 71 93 64 94 66 95
REMARK SMILES IDX 72 96 65 97 67 98 68 99 69 100 70 101
REMARK H PARENT 4 22 92 54 60 65
REMARK Flexibility Score: inf
ROOT
ATOM      1  C   UNL A   1      34.505  24.295  23.808  1.00  0.00     0.261 C 
ENDROOT
BRANCH   1   2
ATOM      2  O   UNL A   1      33.854  24.226  25.075  1.00  0.00    -0.463 OA
BRANCH   2   3
ATOM      3  C   UNL A   1      32.509  24.072  25.097  1.00  0.00     0.308 C 
ATOM      4  O   UNL A   1      31.846  23.156  24.663  1.00  0.00    -0.252 OA
BRANCH   3   5
ATOM      5  C   UNL A   1      31.935  25.220  25.862  1.00  0.00     0.150 C 
BRANCH   5   6
ATOM      6  C   UNL A   1      31.525  26.439  25.009  1.00  0.00     0.122 C 
ATOM      7  N   UNL A   1      31.218  27.794  25.602  1.00  0.00    -0.330 N 
ATOM      8  C   UNL A   1      31.062  28.793  24.552  1.00  0.00     0.148 C 
ATOM      9  C   UNL A   1      30.023  28.377  23.508  1.00  0.00     0.181 C 
ATOM     10  C   UNL A   1      30.350  26.088  24.059  1.00  0.00     0.185 C 
ATOM     11  O   UNL A   1      30.264  27.060  22.996  1.00  0.00    -0.377 OA
BRANCH   7  12
ATOM     12  C   UNL A   1      31.746  28.278  26.800  1.00  0.00     0.254 C 
ATOM     13  O   UNL A   1      31.187  28.016  27.867  1.00  0.00    -0.269 OA
BRANCH  12  14
ATOM     14  C   UNL A   1      32.995  29.190  26.811  1.00  0.00     0.045 A 
ATOM     15  C   UNL A   1      32.029  31.568  26.798  1.00  0.00     0.047 C 
ATOM     16  C   UNL A   1      33.079  30.564  27.182  1.00  0.00    -0.015 A 
ATOM     17  C   UNL A   1      34.288  31.086  27.739  1.00  0.00     0.038 A 
ATOM     18  C   UNL A   1      35.431  30.284  27.718  1.00  0.00     0.026 A 
ATOM     19  C   UNL A   1      34.207  28.498  26.667  1.00  0.00     0.014 A 
ATOM     20  C   UNL A   1      35.417  29.043  27.095  1.00  0.00     0.003 A 
BRANCH  17  21
ATOM     21  N   UNL A   1      34.350  32.409  28.169  1.00  0.00    -0.379 N 
ATOM     22  H   UNL A   1      34.376  33.111  27.478  1.00  0.00     0.160 HD
BRANCH  21  23
ATOM     23  C   UNL A   1      34.378  32.839  29.570  1.00  0.00     0.169 C 
BRANCH  23  24
ATOM     24  C   UNL A   1      33.868  34.259  29.809  1.00  0.00     0.059 A 
ATOM     25  C   UNL A   1      33.681  35.177  28.773  1.00  0.00     0.026 A 
ATOM     26  N   UNL A   1      33.653  34.623  31.102  1.00  0.00    -0.259 NA
ATOM     27  C   UNL A   1      33.305  36.486  29.050  1.00  0.00     0.004 A 
ATOM     28  C   UNL A   1      33.273  35.898  31.345  1.00  0.00     0.111 A 
ATOM     29  C   UNL A   1      33.095  36.858  30.364  1.00  0.00     0.020 A 
ENDBRANCH  23  24
ENDBRANCH  21  23
ENDBRANCH  17  21
ENDBRANCH  12  14
ENDBRANCH   7  12
ENDBRANCH   5   6
ENDBRANCH   3   5
ENDBRANCH   2   3
ENDBRANCH   1   2
BRANCH   1  30
ATOM     30  C   UNL A   1      35.394  23.099  23.542  1.00  0.00     0.202 C 
BRANCH  30  31
ATOM     31  O   UNL A   1      36.080  22.748  24.724  1.00  0.00    -0.374 OA
BRANCH  31  32
ATOM     32  C   UNL A   1      37.125  21.808  24.652  1.00  0.00     0.202 C 
BRANCH  32  33
ATOM     33  C   UNL A   1      38.316  22.044  25.585  1.00  0.00     0.261 C 
BRANCH  33  34
ATOM     34  O   UNL A   1      38.997  20.910  26.222  1.00  0.00    -0.460 OA
BRANCH  34  35
ATOM     35  C   UNL A   1      40.327  20.597  26.212  1.00  0.00     0.338 C 
ATOM     36  O   UNL A   1      40.754  19.578  25.683  1.00  0.00    -0.246 OA
BRANCH  35  37
ATOM     37  C   UNL A   1      41.253  21.629  26.743  1.00  0.00     0.060 A 
ATOM     38  C   UNL A   1      41.273  21.952  28.112  1.00  0.00     0.016 A 
ATOM     39  C   UNL A   1      42.007  22.379  25.860  1.00  0.00     0.016 A 
ATOM     40  C   UNL A   1      41.858  23.150  28.550  1.00  0.00     0.010 A 
ATOM     41  C   UNL A   1      42.426  23.635  26.267  1.00  0.00     0.010 A 
ATOM     42  C   UNL A   1      42.328  24.055  27.612  1.00  0.00    -0.014 A 
BRANCH  42  43
ATOM     43  C   UNL A   1      42.788  25.431  27.874  1.00  0.00     0.031 A 
ATOM     44  C   UNL A   1      41.694  26.435  27.980  1.00  0.00     0.074 A 
ATOM     45  C   UNL A   1      43.992  25.770  28.418  1.00  0.00     0.049 A 
ATOM     46  N   UNL A   1      41.853  27.650  28.370  1.00  0.00    -0.248 NA
ATOM     47  C   UNL A   1      40.308  26.139  27.609  1.00  0.00     0.031 C 
ATOM     48  C   UNL A   1      44.153  26.702  29.538  1.00  0.00     0.029 A 
ATOM     49  N   UNL A   1      45.317  25.484  28.058  1.00  0.00    -0.354 N 
ATOM     50  C   UNL A   1      40.607  28.161  28.633  1.00  0.00     0.074 A 
ATOM     51  C   UNL A   1      39.685  27.245  28.019  1.00  0.00     0.031 C 
ATOM     52  C   UNL A   1      45.433  27.061  29.657  1.00  0.00     0.029 A 
ATOM     53  C   UNL A   1      46.152  26.514  28.534  1.00  0.00     0.049 A 
ATOM     54  H   UNL A   1      45.615  24.692  27.555  1.00  0.00     0.167 HD
ATOM     55  C   UNL A   1      40.520  29.235  29.460  1.00  0.00     0.034 A 
ATOM     56  C   UNL A   1      47.129  27.151  27.826  1.00  0.00     0.034 A 
ATOM     57  C   UNL A   1      41.855  29.798  29.727  1.00  0.00     0.049 A 
ATOM     58  C   UNL A   1      47.060  28.634  27.842  1.00  0.00     0.074 A 
ATOM     59  C   UNL A   1      42.714  29.771  30.810  1.00  0.00     0.029 A 
ATOM     60  N   UNL A   1      42.586  30.314  28.661  1.00  0.00    -0.354 N 
ATOM     61  N   UNL A   1      46.225  29.306  28.574  1.00  0.00    -0.248 NA
ATOM     62  C   UNL A   1      47.829  29.484  26.936  1.00  0.00     0.031 C 
ATOM     63  C   UNL A   1      43.978  30.259  30.375  1.00  0.00     0.029 A 
ATOM     64  C   UNL A   1      43.886  30.614  29.037  1.00  0.00     0.049 A 
ATOM     65  H   UNL A   1      42.225  30.448  27.755  1.00  0.00     0.167 HD
ATOM     66  C   UNL A   1      46.024  30.505  27.951  1.00  0.00     0.074 A 
ATOM     67  C   UNL A   1      47.187  30.652  27.095  1.00  0.00     0.031 C 
ATOM     68  C   UNL A   1      44.827  31.158  28.052  1.00  0.00     0.034 A 
BRANCH  55  69
ATOM     69  C   UNL A   1      39.273  29.743  30.158  1.00  0.00     0.023 A 
ATOM     70  C   UNL A   1      38.206  28.824  30.276  1.00  0.00     0.012 A 
ATOM     71  C   UNL A   1      39.019  31.050  30.643  1.00  0.00     0.148 A 
ATOM     72  C   UNL A   1      36.971  29.169  30.835  1.00  0.00     0.002 A 
ATOM     73  C   UNL A   1      37.805  31.381  31.255  1.00  0.00     0.091 A 
ATOM     74  F   UNL A   1      39.909  32.025  30.461  1.00  0.00    -0.205 F 
ATOM     75  C   UNL A   1      36.775  30.444  31.341  1.00  0.00     0.022 A 
BRANCH  73  76
ATOM     76  S   UNL A   1      37.479  33.009  31.960  1.00  0.00     0.127 S 
ATOM     77  O   UNL A   1      38.625  33.195  32.850  1.00  0.00    -0.237 OA
ATOM     78  O   UNL A   1      37.484  33.869  30.778  1.00  0.00    -0.237 OA
ATOM     79  O   UNL A   1      36.191  32.920  32.639  1.00  0.00    -0.744 OA
ENDBRANCH  73  76
ENDBRANCH  55  69
BRANCH  56  80
ATOM     80  C   UNL A   1      47.813  26.353  26.781  1.00  0.00     0.023 A 
ATOM     81  C   UNL A   1      47.393  26.766  25.510  1.00  0.00     0.012 A 
ATOM     82  C   UNL A   1      49.151  25.975  27.008  1.00  0.00     0.148 A 
ATOM     83  C   UNL A   1      48.355  27.258  24.656  1.00  0.00     0.002 A 
ATOM     84  C   UNL A   1      50.107  26.405  26.108  1.00  0.00     0.091 A 
ATOM     85  F   UNL A   1      49.462  25.355  28.153  1.00  0.00    -0.205 F 
ATOM     86  C   UNL A   1      49.700  27.148  24.999  1.00  0.00     0.022 A 
BRANCH  84  87
ATOM     87  S   UNL A   1      51.867  26.247  26.401  1.00  0.00     0.127 S 
ATOM     88  O   UNL A   1      52.070  24.814  26.209  1.00  0.00    -0.237 OA
ATOM     89  O   UNL A   1      52.454  27.080  25.349  1.00  0.00    -0.237 OA
ATOM     90  O   UNL A   1      52.081  26.750  27.750  1.00  0.00    -0.744 OA
ENDBRANCH  84  87
ENDBRANCH  56  80
BRANCH  68  91
ATOM     91  C   UNL A   1      44.431  32.325  27.169  1.00  0.00     0.023 A 
ATOM     92  C   UNL A   1      44.248  32.203  25.777  1.00  0.00     0.012 A 
ATOM     93  C   UNL A   1      44.133  33.586  27.736  1.00  0.00     0.148 A 
ATOM     94  C   UNL A   1      43.920  33.296  24.970  1.00  0.00     0.002 A 
ATOM     95  C   UNL A   1      43.671  34.633  26.946  1.00  0.00     0.091 A 
ATOM     96  F   UNL A   1      44.323  33.793  29.046  1.00  0.00    -0.205 F 
ATOM     97  C   UNL A   1      43.615  34.511  25.557  1.00  0.00     0.022 A 
BRANCH  95  98
ATOM     98  S   UNL A   1      42.994  36.118  27.694  1.00  0.00     0.127 S 
ATOM     99  O   UNL A   1      42.625  36.904  26.519  1.00  0.00    -0.237 OA
ATOM    100  O   UNL A   1      41.860  35.592  28.457  1.00  0.00    -0.237 OA
ATOM    101  O   UNL A   1      44.071  36.650  28.517  1.00  0.00    -0.744 OA
ENDBRANCH  95  98
ENDBRANCH  68  91
ENDBRANCH  42  43
ENDBRANCH  35  37
ENDBRANCH  34  35
ENDBRANCH  33  34
ENDBRANCH  32  33
ENDBRANCH  31  32
ENDBRANCH  30  31
ENDBRANCH   1  30
TORSDOF 23
ENDMDL
MODEL 2
REMARK VINA RESULT:     -10.9      4.442     10.203
REMARK SMILES Cc1c(NCc2ccccn2)cccc1C(=O)N1CCOC[C@@H]1CC(=O)OCCOCCOC(=O)c1ccc(-c2c3nc(c(-c4cccc(S(=O)(=O)[O-])c4F)c4ccc([nH]4)c(-c4cccc(S(=O)(=O)[O-])c4F)c4nc(c(-c5cccc(S(=O)(=O)[O-])c5F)c5ccc2[nH]5)C=C4)C=C3)cc1
REMARK SMILES IDX 28 1 27 2 25 3 26 4 24 5 23 6 18 7 19 8 20 9 22 10 21 11
REMARK SMILES IDX 16 12 17 13 15 14 1 15 2 16 3 17 12 18 14 19 13 20 4 21 5 23
REMARK SMILES IDX 6 24 7 25 11 26 8 27 10 28 9 29 29 30 30 31 31 32 32 33
REMARK SMILES IDX 33 34 34 35 35 36 36 37 37 38 98 39 38 40 97 41 39 42 40 43
REMARK SMILES IDX 41 44 91 45 42 46 96 47 90 48 92 49 43 50 95 51 89 52 88 53
REMARK SMILES IDX 44 55 76 56 56 57 75 58 57 59 60 60 74 61 93 62 58 63 59 64
REMARK SMILES IDX 73 66 94 67 61 68 45 69 46 70 54 71 47 72 49 73 55 74 48 75
REMARK SMILES IDX 50 76 51 77 52 78 53 79 77 80 78 81 86 82 79 83 81 84 87 85
REMARK SMILES IDX 80 86 82 87 83 88 84 89 85 90 62 91 63 92 71 93 64 94 66 95
REMARK SMILES IDX 72 96 65 97 67 98 68 99 69 100 70 101
REMARK H PARENT 4 22 92 54 60 65
REMARK Flexibility Score: inf
ROOT
ATOM      1  C   UNL A   1      33.894  28.369  24.524  1.00  0.00     0.261 C 
ENDROOT
BRANCH   1   2
ATOM      2  O   UNL A   1      33.300  27.091  24.733  1.00  0.00    -0.463 OA
BRANCH   2   3
ATOM      3  C   UNL A   1      33.988  25.992  24.343  1.00  0.00     0.308 C 
ATOM      4  O   UNL A   1      34.265  25.632  23.220  1.00  0.00    -0.252 OA
BRANCH   3   5
ATOM      5  C   UNL A   1      34.465  25.295  25.576  1.00  0.00     0.150 C 
BRANCH   5   6
ATOM      6  C   UNL A   1      34.337  23.757  25.554  1.00  0.00     0.122 C 
ATOM      7  N   UNL A   1      33.229  23.012  26.260  1.00  0.00    -0.330 N 
ATOM      8  C   UNL A   1      33.245  21.599  25.898  1.00  0.00     0.148 C 
ATOM      9  C   UNL A   1      34.613  20.957  26.141  1.00  0.00     0.181 C 
ATOM     10  C   UNL A   1      35.669  23.079  25.967  1.00  0.00     0.185 C 
ATOM     11  O   UNL A   1      35.679  21.702  25.538  1.00  0.00    -0.377 OA
BRANCH   7  12
ATOM     12  C   UNL A   1      31.964  23.535  26.531  1.00  0.00     0.254 C 
ATOM     13  O   UNL A   1      31.507  23.474  27.674  1.00  0.00    -0.269 OA
BRANCH  12  14
ATOM     14  C   UNL A   1      31.092  24.141  25.406  1.00  0.00     0.045 A 
ATOM     15  C   UNL A   1      30.294  26.380  26.373  1.00  0.00     0.047 C 
ATOM     16  C   UNL A   1      30.706  25.501  25.227  1.00  0.00    -0.015 A 
ATOM     17  C   UNL A   1      30.472  26.014  23.913  1.00  0.00     0.038 A 
ATOM     18  C   UNL A   1      30.428  25.116  22.845  1.00  0.00     0.026 A 
ATOM     19  C   UNL A   1      30.872  23.272  24.326  1.00  0.00     0.014 A 
ATOM     20  C   UNL A   1      30.523  23.748  23.062  1.00  0.00     0.003 A 
BRANCH  17  21
ATOM     21  N   UNL A   1      30.165  27.360  23.729  1.00  0.00    -0.379 N 
ATOM     22  H   UNL A   1      29.976  27.898  24.533  1.00  0.00     0.160 HD
BRANCH  21  23
ATOM     23  C   UNL A   1      30.101  28.040  22.431  1.00  0.00     0.169 C 
BRANCH  23  24
ATOM     24  C   UNL A   1      29.358  29.375  22.450  1.00  0.00     0.059 A 
ATOM     25  C   UNL A   1      28.634  29.820  23.559  1.00  0.00     0.026 A 
ATOM     26  N   UNL A   1      29.379  30.103  21.301  1.00  0.00    -0.259 NA
ATOM     27  C   UNL A   1      27.898  30.996  23.495  1.00  0.00     0.004 A 
ATOM     28  C   UNL A   1      28.667  31.253  21.268  1.00  0.00     0.111 A 
ATOM     29  C   UNL A   1      27.913  31.732  22.325  1.00  0.00     0.020 A 
ENDBRANCH  23  24
ENDBRANCH  21  23
ENDBRANCH  17  21
ENDBRANCH  12  14
ENDBRANCH   7  12
ENDBRANCH   5   6
ENDBRANCH   3   5
ENDBRANCH   2   3
ENDBRANCH   1   2
BRANCH   1  30
ATOM     30  C   UNL A   1      32.873  29.485  24.457  1.00  0.00     0.202 C 
BRANCH  30  31
ATOM     31  O   UNL A   1      32.356  29.730  25.747  1.00  0.00    -0.374 OA
BRANCH  31  32
ATOM     32  C   UNL A   1      33.040  29.213  26.864  1.00  0.00     0.202 C 
BRANCH  32  33
ATOM     33  C   UNL A   1      33.832  30.220  27.701  1.00  0.00     0.261 C 
BRANCH  33  34
ATOM     34  O   UNL A   1      33.847  31.642  27.334  1.00  0.00    -0.460 OA
BRANCH  34  35
ATOM     35  C   UNL A   1      34.144  32.723  28.115  1.00  0.00     0.338 C 
ATOM     36  O   UNL A   1      33.361  33.653  28.268  1.00  0.00    -0.246 OA
BRANCH  35  37
ATOM     37  C   UNL A   1      35.405  32.649  28.895  1.00  0.00     0.060 A 
ATOM     38  C   UNL A   1      36.639  32.994  28.313  1.00  0.00     0.016 A 
ATOM     39  C   UNL A   1      35.385  32.104  30.164  1.00  0.00     0.016 A 
ATOM     40  C   UNL A   1      37.843  32.583  28.906  1.00  0.00     0.010 A 
ATOM     41  C   UNL A   1      36.557  31.550  30.652  1.00  0.00     0.010 A 
ATOM     42  C   UNL A   1      37.800  31.753  30.014  1.00  0.00    -0.014 A 
BRANCH  42  43
ATOM     43  C   UNL A   1      38.945  31.069  30.644  1.00  0.00     0.031 A 
ATOM     44  C   UNL A   1      39.210  29.702  30.117  1.00  0.00     0.074 A 
ATOM     45  C   UNL A   1      39.970  31.687  31.298  1.00  0.00     0.049 A 
ATOM     46  N   UNL A   1      40.250  29.000  30.397  1.00  0.00    -0.248 NA
ATOM     47  C   UNL A   1      38.273  28.996  29.239  1.00  0.00     0.031 C 
ATOM     48  C   UNL A   1      41.388  31.415  31.045  1.00  0.00     0.029 A 
ATOM     49  N   UNL A   1      40.011  32.576  32.382  1.00  0.00    -0.354 N 
ATOM     50  C   UNL A   1      40.293  27.959  29.503  1.00  0.00     0.074 A 
ATOM     51  C   UNL A   1      38.987  27.920  28.905  1.00  0.00     0.031 C 
ATOM     52  C   UNL A   1      42.137  31.937  32.020  1.00  0.00     0.029 A 
ATOM     53  C   UNL A   1      41.250  32.437  33.040  1.00  0.00     0.049 A 
ATOM     54  H   UNL A   1      39.292  33.196  32.641  1.00  0.00     0.167 HD
ATOM     55  C   UNL A   1      41.489  27.349  29.294  1.00  0.00     0.034 A 
ATOM     56  C   UNL A   1      41.440  32.325  34.386  1.00  0.00     0.034 A 
ATOM     57  C   UNL A   1      42.483  27.792  30.286  1.00  0.00     0.049 A 
ATOM     58  C   UNL A   1      42.276  31.175  34.815  1.00  0.00     0.074 A 
ATOM     59  C   UNL A   1      43.573  28.642  30.245  1.00  0.00     0.029 A 
ATOM     60  N   UNL A   1      42.251  27.520  31.630  1.00  0.00    -0.354 N 
ATOM     61  N   UNL A   1      42.905  30.396  33.989  1.00  0.00    -0.248 NA
ATOM     62  C   UNL A   1      42.368  30.721  36.200  1.00  0.00     0.031 C 
ATOM     63  C   UNL A   1      43.981  28.892  31.585  1.00  0.00     0.029 A 
ATOM     64  C   UNL A   1      43.163  28.173  32.444  1.00  0.00     0.049 A 
ATOM     65  H   UNL A   1      41.531  26.936  31.961  1.00  0.00     0.167 HD
ATOM     66  C   UNL A   1      43.060  29.192  34.615  1.00  0.00     0.074 A 
ATOM     67  C   UNL A   1      42.925  29.514  36.025  1.00  0.00     0.031 C 
ATOM     68  C   UNL A   1      43.082  28.026  33.901  1.00  0.00     0.034 A 
BRANCH  55  69
ATOM     69  C   UNL A   1      41.851  26.439  28.136  1.00  0.00     0.023 A 
ATOM     70  C   UNL A   1      42.640  27.014  27.114  1.00  0.00     0.012 A 
ATOM     71  C   UNL A   1      41.437  25.101  27.917  1.00  0.00     0.148 A 
ATOM     72  C   UNL A   1      42.997  26.319  25.954  1.00  0.00     0.002 A 
ATOM     73  C   UNL A   1      41.841  24.386  26.786  1.00  0.00     0.091 A 
ATOM     74  F   UNL A   1      40.585  24.511  28.754  1.00  0.00    -0.205 F 
ATOM     75  C   UNL A   1      42.612  24.998  25.796  1.00  0.00     0.022 A 
BRANCH  73  76
ATOM     76  S   UNL A   1      41.404  22.656  26.516  1.00  0.00     0.127 S 
ATOM     77  O   UNL A   1      42.170  22.328  25.313  1.00  0.00    -0.237 OA
ATOM     78  O   UNL A   1      41.890  22.016  27.737  1.00  0.00    -0.237 OA
ATOM     79  O   UNL A   1      39.956  22.613  26.344  1.00  0.00    -0.744 OA
ENDBRANCH  73  76
ENDBRANCH  55  69
BRANCH  56  80
ATOM     80  C   UNL A   1      40.454  33.016  35.251  1.00  0.00     0.023 A 
ATOM     81  C   UNL A   1      40.852  34.340  35.471  1.00  0.00     0.012 A 
ATOM     82  C   UNL A   1      39.093  32.692  35.089  1.00  0.00     0.148 A 
ATOM     83  C   UNL A   1      40.000  35.335  35.044  1.00  0.00     0.002 A 
ATOM     84  C   UNL A   1      38.224  33.706  34.736  1.00  0.00     0.091 A 
ATOM     85  F   UNL A   1      38.725  31.406  35.130  1.00  0.00    -0.205 F 
ATOM     86  C   UNL A   1      38.722  35.003  34.602  1.00  0.00     0.022 A 
BRANCH  84  87
ATOM     87  S   UNL A   1      36.532  33.411  34.226  1.00  0.00     0.127 S 
ATOM     88  O   UNL A   1      36.588  32.010  33.816  1.00  0.00    -0.237 OA
ATOM     89  O   UNL A   1      35.770  33.644  35.456  1.00  0.00    -0.237 OA
ATOM     90  O   UNL A   1      36.272  34.378  33.170  1.00  0.00    -0.744 OA
ENDBRANCH  84  87
ENDBRANCH  56  80
BRANCH  68  91
ATOM     91  C   UNL A   1      42.957  26.654  34.534  1.00  0.00     0.023 A 
ATOM     92  C   UNL A   1      41.744  26.156  35.048  1.00  0.00     0.012 A 
ATOM     93  C   UNL A   1      44.059  25.767  34.547  1.00  0.00     0.148 A 
ATOM     94  C   UNL A   1      41.652  24.904  35.662  1.00  0.00     0.002 A 
ATOM     95  C   UNL A   1      43.925  24.470  35.032  1.00  0.00     0.091 A 
ATOM     96  F   UNL A   1      45.258  26.181  34.114  1.00  0.00    -0.205 F 
ATOM     97  C   UNL A   1      42.742  24.052  35.640  1.00  0.00     0.022 A 
BRANCH  95  98
ATOM     98  S   UNL A   1      45.214  23.250  34.759  1.00  0.00     0.127 S 
ATOM     99  O   UNL A   1      44.672  22.082  35.447  1.00  0.00    -0.237 OA
ATOM    100  O   UNL A   1      45.236  23.143  33.298  1.00  0.00    -0.237 OA
ATOM    101  O   UNL A   1      46.417  23.839  35.331  1.00  0.00    -0.744 OA
ENDBRANCH  95  98
ENDBRANCH  68  91
ENDBRANCH  42  43
ENDBRANCH  35  37
ENDBRANCH  34  35
ENDBRANCH  33  34
ENDBRANCH  32  33
ENDBRANCH  31  32
ENDBRANCH  30  31
ENDBRANCH   1  30
TORSDOF 23
ENDMDL
MODEL 3
REMARK VINA RESULT:     -10.9      4.153     10.640
REMARK SMILES Cc1c(NCc2ccccn2)cccc1C(=O)N1CCOC[C@@H]1CC(=O)OCCOCCOC(=O)c1ccc(-c2c3nc(c(-c4cccc(S(=O)(=O)[O-])c4F)c4ccc([nH]4)c(-c4cccc(S(=O)(=O)[O-])c4F)c4nc(c(-c5cccc(S(=O)(=O)[O-])c5F)c5ccc2[nH]5)C=C4)C=C3)cc1
REMARK SMILES IDX 28 1 27 2 25 3 26 4 24 5 23 6 18 7 19 8 20 9 22 10 21 11
REMARK SMILES IDX 16 12 17 13 15 14 1 15 2 16 3 17 12 18 14 19 13 20 4 21 5 23
REMARK SMILES IDX 6 24 7 25 11 26 8 27 10 28 9 29 29 30 30 31 31 32 32 33
REMARK SMILES IDX 33 34 34 35 35 36 36 37 37 38 98 39 38 40 97 41 39 42 40 43
REMARK SMILES IDX 41 44 91 45 42 46 96 47 90 48 92 49 43 50 95 51 89 52 88 53
REMARK SMILES IDX 44 55 76 56 56 57 75 58 57 59 60 60 74 61 93 62 58 63 59 64
REMARK SMILES IDX 73 66 94 67 61 68 45 69 46 70 54 71 47 72 49 73 55 74 48 75
REMARK SMILES IDX 50 76 51 77 52 78 53 79 77 80 78 81 86 82 79 83 81 84 87 85
REMARK SMILES IDX 80 86 82 87 83 88 84 89 85 90 62 91 63 92 71 93 64 94 66 95
REMARK SMILES IDX 72 96 65 97 67 98 68 99 69 100 70 101
REMARK H PARENT 4 22 92 54 60 65
REMARK Flexibility Score: inf
ROOT
ATOM      1  C   UNL A   1      31.246  27.409  25.483  1.00  0.00     0.261 C 
ENDROOT
BRANCH   1   2
ATOM      2  O   UNL A   1      32.133  26.396  25.013  1.00  0.00    -0.463 OA
BRANCH   2   3
ATOM      3  C   UNL A   1      32.255  25.262  25.743  1.00  0.00     0.308 C 
ATOM      4  O   UNL A   1      31.625  24.920  26.719  1.00  0.00    -0.252 OA
BRANCH   3   5
ATOM      5  C   UNL A   1      33.276  24.401  25.074  1.00  0.00     0.150 C 
BRANCH   5   6
ATOM      6  C   UNL A   1      32.754  23.046  24.550  1.00  0.00     0.122 C 
ATOM      7  N   UNL A   1      33.554  21.768  24.630  1.00  0.00    -0.330 N 
ATOM      8  C   UNL A   1      32.735  20.622  24.251  1.00  0.00     0.148 C 
ATOM      9  C   UNL A   1      32.088  20.806  22.876  1.00  0.00     0.181 C 
ATOM     10  C   UNL A   1      32.248  23.168  23.089  1.00  0.00     0.185 C 
ATOM     11  O   UNL A   1      31.390  22.054  22.767  1.00  0.00    -0.377 OA
BRANCH   7  12
ATOM     12  C   UNL A   1      34.531  21.498  25.589  1.00  0.00     0.254 C 
ATOM     13  O   UNL A   1      34.242  21.536  26.787  1.00  0.00    -0.269 OA
BRANCH  12  14
ATOM     14  C   UNL A   1      35.995  21.209  25.180  1.00  0.00     0.045 A 
ATOM     15  C   UNL A   1      37.087  23.530  25.086  1.00  0.00     0.047 C 
ATOM     16  C   UNL A   1      37.136  22.049  25.336  1.00  0.00    -0.015 A 
ATOM     17  C   UNL A   1      38.433  21.475  25.512  1.00  0.00     0.038 A 
ATOM     18  C   UNL A   1      38.583  20.100  25.323  1.00  0.00     0.026 A 
ATOM     19  C   UNL A   1      36.237  19.868  24.842  1.00  0.00     0.014 A 
ATOM     20  C   UNL A   1      37.518  19.320  24.890  1.00  0.00     0.003 A 
BRANCH  17  21
ATOM     21  N   UNL A   1      39.539  22.291  25.736  1.00  0.00    -0.379 N 
ATOM     22  H   UNL A   1      39.774  22.941  25.034  1.00  0.00     0.160 HD
BRANCH  21  23
ATOM     23  C   UNL A   1      40.380  22.259  26.936  1.00  0.00     0.169 C 
BRANCH  23  24
ATOM     24  C   UNL A   1      40.550  23.611  27.628  1.00  0.00     0.059 A 
ATOM     25  C   UNL A   1      39.529  24.563  27.686  1.00  0.00     0.026 A 
ATOM     26  N   UNL A   1      41.779  23.884  28.144  1.00  0.00    -0.259 NA
ATOM     27  C   UNL A   1      39.762  25.814  28.243  1.00  0.00     0.004 A 
ATOM     28  C   UNL A   1      41.977  25.103  28.695  1.00  0.00     0.111 A 
ATOM     29  C   UNL A   1      41.012  26.094  28.760  1.00  0.00     0.020 A 
ENDBRANCH  23  24
ENDBRANCH  21  23
ENDBRANCH  17  21
ENDBRANCH  12  14
ENDBRANCH   7  12
ENDBRANCH   5   6
ENDBRANCH   3   5
ENDBRANCH   2   3
ENDBRANCH   1   2
BRANCH   1  30
ATOM     30  C   UNL A   1      31.970  28.548  26.168  1.00  0.00     0.202 C 
BRANCH  30  31
ATOM     31  O   UNL A   1      33.095  28.920  25.402  1.00  0.00    -0.374 OA
BRANCH  31  32
ATOM     32  C   UNL A   1      34.158  29.593  26.035  1.00  0.00     0.202 C 
BRANCH  32  33
ATOM     33  C   UNL A   1      33.898  30.080  27.463  1.00  0.00     0.261 C 
BRANCH  33  34
ATOM     34  O   UNL A   1      32.975  31.195  27.711  1.00  0.00    -0.460 OA
BRANCH  34  35
ATOM     35  C   UNL A   1      33.260  32.520  27.877  1.00  0.00     0.338 C 
ATOM     36  O   UNL A   1      32.468  33.403  27.568  1.00  0.00    -0.246 OA
BRANCH  35  37
ATOM     37  C   UNL A   1      34.520  32.841  28.595  1.00  0.00     0.060 A 
ATOM     38  C   UNL A   1      35.578  33.502  27.944  1.00  0.00     0.016 A 
ATOM     39  C   UNL A   1      34.709  32.361  29.877  1.00  0.00     0.016 A 
ATOM     40  C   UNL A   1      36.872  33.475  28.486  1.00  0.00     0.010 A 
ATOM     41  C   UNL A   1      36.010  32.185  30.320  1.00  0.00     0.010 A 
ATOM     42  C   UNL A   1      37.115  32.710  29.615  1.00  0.00    -0.014 A 
BRANCH  42  43
ATOM     43  C   UNL A   1      38.433  32.407  30.204  1.00  0.00     0.031 A 
ATOM     44  C   UNL A   1      39.087  31.188  29.653  1.00  0.00     0.074 A 
ATOM     45  C   UNL A   1      39.239  33.307  30.837  1.00  0.00     0.049 A 
ATOM     46  N   UNL A   1      40.300  30.837  29.894  1.00  0.00    -0.248 NA
ATOM     47  C   UNL A   1      38.384  30.233  28.792  1.00  0.00     0.031 C 
ATOM     48  C   UNL A   1      40.664  33.483  30.540  1.00  0.00     0.029 A 
ATOM     49  N   UNL A   1      39.040  34.162  31.931  1.00  0.00    -0.354 N 
ATOM     50  C   UNL A   1      40.632  29.863  28.986  1.00  0.00     0.074 A 
ATOM     51  C   UNL A   1      39.382  29.428  28.424  1.00  0.00     0.031 C 
ATOM     52  C   UNL A   1      41.248  34.205  31.500  1.00  0.00     0.029 A 
ATOM     53  C   UNL A   1      40.282  34.407  32.551  1.00  0.00     0.049 A 
ATOM     54  H   UNL A   1      38.174  34.532  32.218  1.00  0.00     0.167 HD
ATOM     55  C   UNL A   1      41.949  29.648  28.736  1.00  0.00     0.034 A 
ATOM     56  C   UNL A   1      40.538  34.354  33.890  1.00  0.00     0.034 A 
ATOM     57  C   UNL A   1      42.790  30.371  29.705  1.00  0.00     0.049 A 
ATOM     58  C   UNL A   1      41.698  33.513  34.281  1.00  0.00     0.074 A 
ATOM     59  C   UNL A   1      43.566  31.514  29.644  1.00  0.00     0.029 A 
ATOM     60  N   UNL A   1      42.695  30.036  31.052  1.00  0.00    -0.354 N 
ATOM     61  N   UNL A   1      42.509  32.967  33.427  1.00  0.00    -0.248 NA
ATOM     62  C   UNL A   1      41.967  33.104  35.657  1.00  0.00     0.031 C 
ATOM     63  C   UNL A   1      43.920  31.872  30.975  1.00  0.00     0.029 A 
ATOM     64  C   UNL A   1      43.388  30.934  31.848  1.00  0.00     0.049 A 
ATOM     65  H   UNL A   1      42.198  29.259  31.396  1.00  0.00     0.167 HD
ATOM     66  C   UNL A   1      43.044  31.866  34.033  1.00  0.00     0.074 A 
ATOM     67  C   UNL A   1      42.861  32.126  35.450  1.00  0.00     0.031 C 
ATOM     68  C   UNL A   1      43.400  30.765  33.305  1.00  0.00     0.034 A 
BRANCH  55  69
ATOM     69  C   UNL A   1      42.537  28.897  27.557  1.00  0.00     0.023 A 
ATOM     70  C   UNL A   1      41.767  28.895  26.372  1.00  0.00     0.012 A 
ATOM     71  C   UNL A   1      43.731  28.136  27.517  1.00  0.00     0.148 A 
ATOM     72  C   UNL A   1      42.147  28.191  25.225  1.00  0.00     0.002 A 
ATOM     73  C   UNL A   1      44.143  27.478  26.353  1.00  0.00     0.091 A 
ATOM     74  F   UNL A   1      44.461  27.964  28.619  1.00  0.00    -0.205 F 
ATOM     75  C   UNL A   1      43.345  27.495  25.209  1.00  0.00     0.022 A 
BRANCH  73  76
ATOM     76  S   UNL A   1      45.699  26.571  26.242  1.00  0.00     0.127 S 
ATOM     77  O   UNL A   1      45.648  26.039  24.880  1.00  0.00    -0.237 OA
ATOM     78  O   UNL A   1      46.691  27.625  26.445  1.00  0.00    -0.237 OA
ATOM     79  O   UNL A   1      45.668  25.557  27.290  1.00  0.00    -0.744 OA
ENDBRANCH  73  76
ENDBRANCH  55  69
BRANCH  56  80
ATOM     80  C   UNL A   1      39.415  34.707  34.791  1.00  0.00     0.023 A 
ATOM     81  C   UNL A   1      38.568  33.604  34.958  1.00  0.00     0.012 A 
ATOM     82  C   UNL A   1      39.680  35.579  35.865  1.00  0.00     0.148 A 
ATOM     83  C   UNL A   1      38.411  33.117  36.237  1.00  0.00     0.002 A 
ATOM     84  C   UNL A   1      39.448  35.118  37.146  1.00  0.00     0.091 A 
ATOM     85  F   UNL A   1      40.282  36.748  35.614  1.00  0.00    -0.205 F 
ATOM     86  C   UNL A   1      38.923  33.836  37.314  1.00  0.00     0.022 A 
BRANCH  84  87
ATOM     87  S   UNL A   1      39.989  35.992  38.612  1.00  0.00     0.127 S 
ATOM     88  O   UNL A   1      39.523  35.104  39.674  1.00  0.00    -0.237 OA
ATOM     89  O   UNL A   1      41.446  36.025  38.459  1.00  0.00    -0.237 OA
ATOM     90  O   UNL A   1      39.352  37.298  38.542  1.00  0.00    -0.744 OA
ENDBRANCH  84  87
ENDBRANCH  56  80
BRANCH  68  91
ATOM     91  C   UNL A   1      43.720  29.418  33.923  1.00  0.00     0.023 A 
ATOM     92  C   UNL A   1      45.036  28.933  34.062  1.00  0.00     0.012 A 
ATOM     93  C   UNL A   1      42.693  28.622  34.480  1.00  0.00     0.148 A 
ATOM     94  C   UNL A   1      45.313  27.673  34.599  1.00  0.00     0.002 A 
ATOM     95  C   UNL A   1      42.988  27.434  35.140  1.00  0.00     0.091 A 
ATOM     96  F   UNL A   1      41.412  28.995  34.352  1.00  0.00    -0.205 F 
ATOM     97  C   UNL A   1      44.288  26.927  35.154  1.00  0.00     0.022 A 
BRANCH  95  98
ATOM     98  S   UNL A   1      41.740  26.591  36.118  1.00  0.00     0.127 S 
ATOM     99  O   UNL A   1      42.542  25.615  36.851  1.00  0.00    -0.237 OA
ATOM    100  O   UNL A   1      41.201  27.678  36.937  1.00  0.00    -0.237 OA
ATOM    101  O   UNL A   1      40.798  26.056  35.145  1.00  0.00    -0.744 OA
ENDBRANCH  95  98
ENDBRANCH  68  91
ENDBRANCH  42  43
ENDBRANCH  35  37
ENDBRANCH  34  35
ENDBRANCH  33  34
ENDBRANCH  32  33
ENDBRANCH  31  32
ENDBRANCH  30  31
ENDBRANCH   1  30
TORSDOF 23
ENDMDL
