MODEL 1
REMARK VINA RESULT:     -12.3      0.000      0.000
REMARK SMILES Cc1cc(C(=O)OCCOCCOC(=O)c2ccc(-c3c4nc(c(-c5cccc(S(=O)(=O)[O-])c5F)c5ccc([nH]5)c(-c5cccc(S(=O)(=O)[O-])c5F)c5nc(c(-c6cccc(S(=O)(=O)[O-])c6F)c6ccc3[nH]6)C=C5)C=C4)cc2)c(C)n1[C@@H]1C[N@H+]2CC[C@@H]1CC2
REMARK SMILES IDX 11 1 10 2 9 3 8 4 7 5 5 6 6 7 4 8 1 9 2 10 3 11 81 12 79 13
REMARK SMILES IDX 80 14 82 15 83 16 87 17 84 18 88 19 86 20 89 21 85 22 12 24
REMARK SMILES IDX 13 25 14 26 15 27 16 28 17 29 78 30 18 31 77 32 19 33 20 34
REMARK SMILES IDX 21 35 71 36 22 37 76 38 70 39 72 40 23 41 75 42 69 43 68 44
REMARK SMILES IDX 24 46 56 47 36 48 55 49 37 50 40 51 54 52 73 53 38 54 39 55
REMARK SMILES IDX 53 57 74 58 41 59 25 60 26 61 34 62 27 63 29 64 35 65 28 66
REMARK SMILES IDX 30 67 31 68 32 69 33 70 57 71 58 72 66 73 59 74 61 75 67 76
REMARK SMILES IDX 60 77 62 78 63 79 64 80 65 81 42 82 43 83 51 84 44 85 46 86
REMARK SMILES IDX 52 87 45 88 47 89 48 90 49 91 50 92
REMARK H PARENT 84 23 72 45 40 56
REMARK Flexibility Score: inf
ROOT
ATOM      1  C   UNL A   1      36.481  21.018  25.076  1.00  0.00     0.202 C 
ENDROOT
BRANCH   1   2
ATOM      2  O   UNL A   1      35.055  20.991  25.277  1.00  0.00    -0.374 OA
BRANCH   2   3
ATOM      3  C   UNL A   1      34.338  19.945  24.626  1.00  0.00     0.202 C 
BRANCH   3   4
ATOM      4  C   UNL A   1      32.829  20.193  24.444  1.00  0.00     0.261 C 
BRANCH   4   5
ATOM      5  O   UNL A   1      32.532  21.581  24.270  1.00  0.00    -0.460 OA
BRANCH   5   6
ATOM      6  C   UNL A   1      31.574  22.101  25.088  1.00  0.00     0.340 C 
ATOM      7  O   UNL A   1      30.804  21.428  25.786  1.00  0.00    -0.246 OA
BRANCH   6   8
ATOM      8  C   UNL A   1      31.584  23.561  25.074  1.00  0.00     0.081 A 
ATOM      9  C   UNL A   1      30.228  26.812  23.991  1.00  0.00     0.064 C 
ATOM     10  C   UNL A   1      31.033  25.698  24.560  1.00  0.00     0.016 A 
ATOM     11  C   UNL A   1      30.861  24.382  24.188  1.00  0.00     0.038 A 
ATOM     12  N   UNL A   1      32.017  25.742  25.542  1.00  0.00    -0.339 N 
ATOM     13  C   UNL A   1      32.336  24.415  25.880  1.00  0.00     0.030 A 
ATOM     14  C   UNL A   1      33.349  23.975  26.894  1.00  0.00     0.065 C 
BRANCH  12  15
ATOM     15  C   UNL A   1      32.593  26.920  26.205  1.00  0.00     0.145 C 
ATOM     16  C   UNL A   1      31.597  27.832  26.958  1.00  0.00     0.288 C 
ATOM     17  C   UNL A   1      33.592  27.810  25.407  1.00  0.00     0.029 C 
ATOM     18  N   UNL A   1      31.879  29.276  26.734  1.00  0.00    -0.333 N 
ATOM     19  C   UNL A   1      34.304  28.714  26.450  1.00  0.00     0.067 C 
ATOM     20  C   UNL A   1      32.872  28.801  24.486  1.00  0.00     0.067 C 
ATOM     21  C   UNL A   1      33.257  29.579  27.179  1.00  0.00     0.262 C 
ATOM     22  C   UNL A   1      31.793  29.557  25.281  1.00  0.00     0.262 C 
ATOM     23  H   UNL A   1      31.207  29.842  27.252  1.00  0.00     0.348 HD
ENDBRANCH  12  15
ENDBRANCH   6   8
ENDBRANCH   5   6
ENDBRANCH   4   5
ENDBRANCH   3   4
ENDBRANCH   2   3
ENDBRANCH   1   2
BRANCH   1  24
ATOM     24  C   UNL A   1      37.283  22.211  25.679  1.00  0.00     0.261 C 
BRANCH  24  25
ATOM     25  O   UNL A   1      38.752  22.267  25.495  1.00  0.00    -0.460 OA
BRANCH  25  26
ATOM     26  C   UNL A   1      39.520  22.429  26.634  1.00  0.00     0.338 C 
ATOM     27  O   UNL A   1      40.000  21.468  27.224  1.00  0.00    -0.246 OA
BRANCH  26  28
ATOM     28  C   UNL A   1      39.847  23.884  27.060  1.00  0.00     0.060 A 
ATOM     29  C   UNL A   1      39.260  24.387  28.211  1.00  0.00     0.016 A 
ATOM     30  C   UNL A   1      40.492  24.878  26.285  1.00  0.00     0.016 A 
ATOM     31  C   UNL A   1      39.402  25.776  28.600  1.00  0.00     0.010 A 
ATOM     32  C   UNL A   1      40.558  26.330  26.653  1.00  0.00     0.010 A 
ATOM     33  C   UNL A   1      40.028  26.855  27.846  1.00  0.00    -0.014 A 
BRANCH  33  34
ATOM     34  C   UNL A   1      39.657  28.450  28.310  1.00  0.00     0.031 A 
ATOM     35  C   UNL A   1      41.022  28.946  28.646  1.00  0.00     0.074 A 
ATOM     36  C   UNL A   1      38.649  29.393  28.666  1.00  0.00     0.049 A 
ATOM     37  N   UNL A   1      41.718  28.267  29.515  1.00  0.00    -0.248 NA
ATOM     38  C   UNL A   1      41.835  29.829  27.805  1.00  0.00     0.031 C 
ATOM     39  C   UNL A   1      37.207  29.150  28.888  1.00  0.00     0.029 A 
ATOM     40  N   UNL A   1      38.646  30.835  28.955  1.00  0.00    -0.354 N 
ATOM     41  C   UNL A   1      42.913  28.905  29.641  1.00  0.00     0.074 A 
ATOM     42  C   UNL A   1      43.030  29.636  28.384  1.00  0.00     0.031 C 
ATOM     43  C   UNL A   1      36.486  30.304  29.069  1.00  0.00     0.029 A 
ATOM     44  C   UNL A   1      37.333  31.501  29.049  1.00  0.00     0.049 A 
ATOM     45  H   UNL A   1      39.485  31.336  29.079  1.00  0.00     0.167 HD
ATOM     46  C   UNL A   1      43.167  29.324  30.915  1.00  0.00     0.034 A 
ATOM     47  C   UNL A   1      36.936  32.852  29.206  1.00  0.00     0.034 A 
ATOM     48  C   UNL A   1      42.954  30.738  31.061  1.00  0.00     0.049 A 
ATOM     49  C   UNL A   1      38.034  33.484  29.942  1.00  0.00     0.074 A 
ATOM     50  C   UNL A   1      43.209  31.816  30.230  1.00  0.00     0.029 A 
ATOM     51  N   UNL A   1      41.974  31.138  31.938  1.00  0.00    -0.354 N 
ATOM     52  N   UNL A   1      38.119  33.385  31.235  1.00  0.00    -0.248 NA
ATOM     53  C   UNL A   1      38.992  34.386  29.315  1.00  0.00     0.031 C 
ATOM     54  C   UNL A   1      42.036  32.593  30.283  1.00  0.00     0.029 A 
ATOM     55  C   UNL A   1      41.358  32.272  31.446  1.00  0.00     0.049 A 
ATOM     56  H   UNL A   1      41.749  30.688  32.785  1.00  0.00     0.167 HD
ATOM     57  C   UNL A   1      39.428  33.681  31.456  1.00  0.00     0.074 A 
ATOM     58  C   UNL A   1      39.823  34.535  30.349  1.00  0.00     0.031 C 
ATOM     59  C   UNL A   1      40.138  32.707  32.071  1.00  0.00     0.034 A 
BRANCH  46  60
ATOM     60  C   UNL A   1      42.874  28.259  31.961  1.00  0.00     0.023 A 
ATOM     61  C   UNL A   1      41.765  28.479  32.795  1.00  0.00     0.012 A 
ATOM     62  C   UNL A   1      43.784  27.219  32.307  1.00  0.00     0.148 A 
ATOM     63  C   UNL A   1      41.606  27.747  33.975  1.00  0.00     0.002 A 
ATOM     64  C   UNL A   1      43.686  26.581  33.540  1.00  0.00     0.091 A 
ATOM     65  F   UNL A   1      44.754  26.887  31.439  1.00  0.00    -0.205 F 
ATOM     66  C   UNL A   1      42.586  26.835  34.369  1.00  0.00     0.022 A 
BRANCH  64  67
ATOM     67  S   UNL A   1      45.038  25.606  34.237  1.00  0.00     0.127 S 
ATOM     68  O   UNL A   1      46.177  26.524  34.136  1.00  0.00    -0.237 OA
ATOM     69  O   UNL A   1      44.589  25.362  35.604  1.00  0.00    -0.237 OA
ATOM     70  O   UNL A   1      45.173  24.420  33.398  1.00  0.00    -0.744 OA
ENDBRANCH  64  67
ENDBRANCH  46  60
BRANCH  47  71
ATOM     71  C   UNL A   1      35.760  33.958  29.176  1.00  0.00     0.023 A 
ATOM     72  C   UNL A   1      34.877  34.025  28.023  1.00  0.00     0.012 A 
ATOM     73  C   UNL A   1      35.211  34.565  30.329  1.00  0.00     0.148 A 
ATOM     74  C   UNL A   1      33.550  34.515  28.039  1.00  0.00     0.002 A 
ATOM     75  C   UNL A   1      33.876  35.080  30.336  1.00  0.00     0.091 A 
ATOM     76  F   UNL A   1      35.944  34.565  31.448  1.00  0.00    -0.205 F 
ATOM     77  C   UNL A   1      33.040  35.027  29.208  1.00  0.00     0.022 A 
BRANCH  75  78
ATOM     78  S   UNL A   1      33.062  35.746  31.812  1.00  0.00     0.127 S 
ATOM     79  O   UNL A   1      32.786  34.543  32.601  1.00  0.00    -0.237 OA
ATOM     80  O   UNL A   1      34.107  36.603  32.370  1.00  0.00    -0.237 OA
ATOM     81  O   UNL A   1      31.875  36.429  31.320  1.00  0.00    -0.744 OA
ENDBRANCH  75  78
ENDBRANCH  47  71
BRANCH  59  82
ATOM     82  C   UNL A   1      39.507  32.007  33.250  1.00  0.00     0.023 A 
ATOM     83  C   UNL A   1      38.877  30.744  33.217  1.00  0.00     0.012 A 
ATOM     84  C   UNL A   1      39.578  32.677  34.479  1.00  0.00     0.148 A 
ATOM     85  C   UNL A   1      38.322  30.184  34.373  1.00  0.00     0.002 A 
ATOM     86  C   UNL A   1      39.085  32.094  35.636  1.00  0.00     0.091 A 
ATOM     87  F   UNL A   1      40.136  33.897  34.496  1.00  0.00    -0.205 F 
ATOM     88  C   UNL A   1      38.444  30.851  35.590  1.00  0.00     0.022 A 
BRANCH  86  89
ATOM     89  S   UNL A   1      39.328  32.906  37.214  1.00  0.00     0.127 S 
ATOM     90  O   UNL A   1      38.723  31.952  38.140  1.00  0.00    -0.237 OA
ATOM     91  O   UNL A   1      40.781  33.020  37.312  1.00  0.00    -0.237 OA
ATOM     92  O   UNL A   1      38.636  34.186  37.093  1.00  0.00    -0.744 OA
ENDBRANCH  86  89
ENDBRANCH  59  82
ENDBRANCH  33  34
ENDBRANCH  26  28
ENDBRANCH  25  26
ENDBRANCH  24  25
ENDBRANCH   1  24
TORSDOF 18
ENDMDL
MODEL 2
REMARK VINA RESULT:     -12.0      4.585     10.402
REMARK SMILES Cc1cc(C(=O)OCCOCCOC(=O)c2ccc(-c3c4nc(c(-c5cccc(S(=O)(=O)[O-])c5F)c5ccc([nH]5)c(-c5cccc(S(=O)(=O)[O-])c5F)c5nc(c(-c6cccc(S(=O)(=O)[O-])c6F)c6ccc3[nH]6)C=C5)C=C4)cc2)c(C)n1[C@@H]1C[N@H+]2CC[C@@H]1CC2
REMARK SMILES IDX 11 1 10 2 9 3 8 4 7 5 5 6 6 7 4 8 1 9 2 10 3 11 81 12 79 13
REMARK SMILES IDX 80 14 82 15 83 16 87 17 84 18 88 19 86 20 89 21 85 22 12 24
REMARK SMILES IDX 13 25 14 26 15 27 16 28 17 29 78 30 18 31 77 32 19 33 20 34
REMARK SMILES IDX 21 35 71 36 22 37 76 38 70 39 72 40 23 41 75 42 69 43 68 44
REMARK SMILES IDX 24 46 56 47 36 48 55 49 37 50 40 51 54 52 73 53 38 54 39 55
REMARK SMILES IDX 53 57 74 58 41 59 25 60 26 61 34 62 27 63 29 64 35 65 28 66
REMARK SMILES IDX 30 67 31 68 32 69 33 70 57 71 58 72 66 73 59 74 61 75 67 76
REMARK SMILES IDX 60 77 62 78 63 79 64 80 65 81 42 82 43 83 51 84 44 85 46 86
REMARK SMILES IDX 52 87 45 88 47 89 48 90 49 91 50 92
REMARK H PARENT 84 23 72 45 40 56
REMARK Flexibility Score: inf
ROOT
ATOM      1  C   UNL A   1      31.435  30.591  26.310  1.00  0.00     0.202 C 
ENDROOT
BRANCH   1   2
ATOM      2  O   UNL A   1      31.738  29.364  25.620  1.00  0.00    -0.374 OA
BRANCH   2   3
ATOM      3  C   UNL A   1      30.845  28.981  24.577  1.00  0.00     0.202 C 
BRANCH   3   4
ATOM      4  C   UNL A   1      31.516  28.539  23.263  1.00  0.00     0.261 C 
BRANCH   4   5
ATOM      5  O   UNL A   1      32.936  28.709  23.303  1.00  0.00    -0.460 OA
BRANCH   5   6
ATOM      6  C   UNL A   1      33.668  27.855  22.535  1.00  0.00     0.340 C 
ATOM      7  O   UNL A   1      34.401  28.203  21.599  1.00  0.00    -0.246 OA
BRANCH   6   8
ATOM      8  C   UNL A   1      33.517  26.470  22.970  1.00  0.00     0.081 A 
ATOM      9  C   UNL A   1      33.053  22.879  22.284  1.00  0.00     0.064 C 
ATOM     10  C   UNL A   1      33.191  24.228  22.894  1.00  0.00     0.016 A 
ATOM     11  C   UNL A   1      33.096  25.394  22.164  1.00  0.00     0.038 A 
ATOM     12  N   UNL A   1      33.471  24.568  24.213  1.00  0.00    -0.339 N 
ATOM     13  C   UNL A   1      33.702  25.955  24.252  1.00  0.00     0.030 A 
ATOM     14  C   UNL A   1      34.036  26.766  25.468  1.00  0.00     0.065 C 
BRANCH  12  15
ATOM     15  C   UNL A   1      33.602  23.680  25.376  1.00  0.00     0.145 C 
ATOM     16  C   UNL A   1      34.429  22.392  25.159  1.00  0.00     0.288 C 
ATOM     17  C   UNL A   1      32.323  23.330  26.195  1.00  0.00     0.029 C 
ATOM     18  N   UNL A   1      33.797  21.205  25.799  1.00  0.00    -0.333 N 
ATOM     19  C   UNL A   1      32.814  22.720  27.536  1.00  0.00     0.067 C 
ATOM     20  C   UNL A   1      31.515  22.201  25.546  1.00  0.00     0.067 C 
ATOM     21  C   UNL A   1      33.648  21.455  27.249  1.00  0.00     0.262 C 
ATOM     22  C   UNL A   1      32.445  21.018  25.222  1.00  0.00     0.262 C 
ATOM     23  H   UNL A   1      34.376  20.381  25.640  1.00  0.00     0.348 HD
ENDBRANCH  12  15
ENDBRANCH   6   8
ENDBRANCH   5   6
ENDBRANCH   4   5
ENDBRANCH   3   4
ENDBRANCH   2   3
ENDBRANCH   1   2
BRANCH   1  24
ATOM     24  C   UNL A   1      32.623  31.413  26.899  1.00  0.00     0.261 C 
BRANCH  24  25
ATOM     25  O   UNL A   1      33.812  30.701  27.422  1.00  0.00    -0.460 OA
BRANCH  25  26
ATOM     26  C   UNL A   1      34.721  31.449  28.147  1.00  0.00     0.338 C 
ATOM     27  O   UNL A   1      34.454  32.582  28.532  1.00  0.00    -0.246 OA
BRANCH  26  28
ATOM     28  C   UNL A   1      36.043  30.748  28.555  1.00  0.00     0.060 A 
ATOM     29  C   UNL A   1      36.916  30.344  27.555  1.00  0.00     0.016 A 
ATOM     30  C   UNL A   1      36.380  30.233  29.830  1.00  0.00     0.016 A 
ATOM     31  C   UNL A   1      38.100  29.560  27.845  1.00  0.00     0.010 A 
ATOM     32  C   UNL A   1      37.560  29.349  30.103  1.00  0.00     0.010 A 
ATOM     33  C   UNL A   1      38.497  28.978  29.121  1.00  0.00    -0.014 A 
BRANCH  33  34
ATOM     34  C   UNL A   1      39.665  27.740  29.086  1.00  0.00     0.031 A 
ATOM     35  C   UNL A   1      40.657  28.292  30.052  1.00  0.00     0.074 A 
ATOM     36  C   UNL A   1      40.154  26.569  28.436  1.00  0.00     0.049 A 
ATOM     37  N   UNL A   1      41.119  29.492  29.829  1.00  0.00    -0.248 NA
ATOM     38  C   UNL A   1      40.836  27.843  31.435  1.00  0.00     0.031 C 
ATOM     39  C   UNL A   1      39.695  25.971  27.164  1.00  0.00     0.029 A 
ATOM     40  N   UNL A   1      41.223  25.602  28.727  1.00  0.00    -0.354 N 
ATOM     41  C   UNL A   1      41.986  29.769  30.840  1.00  0.00     0.074 A 
ATOM     42  C   UNL A   1      41.540  28.883  31.908  1.00  0.00     0.031 C 
ATOM     43  C   UNL A   1      40.277  24.756  26.896  1.00  0.00     0.029 A 
ATOM     44  C   UNL A   1      41.255  24.369  27.919  1.00  0.00     0.049 A 
ATOM     45  H   UNL A   1      41.889  25.770  29.433  1.00  0.00     0.167 HD
ATOM     46  C   UNL A   1      43.253  30.033  30.405  1.00  0.00     0.034 A 
ATOM     47  C   UNL A   1      42.043  23.193  27.968  1.00  0.00     0.034 A 
ATOM     48  C   UNL A   1      44.131  28.915  30.617  1.00  0.00     0.049 A 
ATOM     49  C   UNL A   1      43.321  23.620  28.543  1.00  0.00     0.074 A 
ATOM     50  C   UNL A   1      44.249  27.997  31.646  1.00  0.00     0.029 A 
ATOM     51  N   UNL A   1      44.688  28.335  29.502  1.00  0.00    -0.354 N 
ATOM     52  N   UNL A   1      44.237  24.172  27.805  1.00  0.00    -0.248 NA
ATOM     53  C   UNL A   1      43.716  23.314  29.912  1.00  0.00     0.031 C 
ATOM     54  C   UNL A   1      44.362  26.751  31.001  1.00  0.00     0.029 A 
ATOM     55  C   UNL A   1      44.799  26.973  29.706  1.00  0.00     0.049 A 
ATOM     56  H   UNL A   1      44.965  28.814  28.688  1.00  0.00     0.167 HD
ATOM     57  C   UNL A   1      45.007  24.800  28.733  1.00  0.00     0.074 A 
ATOM     58  C   UNL A   1      44.837  24.038  29.958  1.00  0.00     0.031 C 
ATOM     59  C   UNL A   1      45.113  26.140  28.577  1.00  0.00     0.034 A 
BRANCH  46  60
ATOM     60  C   UNL A   1      43.287  30.991  29.223  1.00  0.00     0.023 A 
ATOM     61  C   UNL A   1      43.507  30.426  27.956  1.00  0.00     0.012 A 
ATOM     62  C   UNL A   1      43.373  32.408  29.356  1.00  0.00     0.148 A 
ATOM     63  C   UNL A   1      43.878  31.229  26.873  1.00  0.00     0.002 A 
ATOM     64  C   UNL A   1      43.860  33.183  28.308  1.00  0.00     0.091 A 
ATOM     65  F   UNL A   1      43.008  32.976  30.516  1.00  0.00    -0.205 F 
ATOM     66  C   UNL A   1      44.099  32.594  27.059  1.00  0.00     0.022 A 
BRANCH  64  67
ATOM     67  S   UNL A   1      44.428  34.882  28.541  1.00  0.00     0.127 S 
ATOM     68  O   UNL A   1      43.280  35.512  29.204  1.00  0.00    -0.237 OA
ATOM     69  O   UNL A   1      45.595  34.718  29.401  1.00  0.00    -0.237 OA
ATOM     70  O   UNL A   1      44.695  35.419  27.211  1.00  0.00    -0.744 OA
ENDBRANCH  64  67
ENDBRANCH  46  60
BRANCH  47  71
ATOM     71  C   UNL A   1      42.291  21.675  27.477  1.00  0.00     0.023 A 
ATOM     72  C   UNL A   1      41.170  20.750  27.434  1.00  0.00     0.012 A 
ATOM     73  C   UNL A   1      43.373  21.271  26.661  1.00  0.00     0.148 A 
ATOM     74  C   UNL A   1      41.073  19.625  26.581  1.00  0.00     0.002 A 
ATOM     75  C   UNL A   1      43.280  20.120  25.815  1.00  0.00     0.091 A 
ATOM     76  F   UNL A   1      44.461  22.048  26.631  1.00  0.00    -0.205 F 
ATOM     77  C   UNL A   1      42.127  19.321  25.752  1.00  0.00     0.022 A 
BRANCH  75  78
ATOM     78  S   UNL A   1      44.573  19.624  24.646  1.00  0.00     0.127 S 
ATOM     79  O   UNL A   1      45.786  19.665  25.466  1.00  0.00    -0.237 OA
ATOM     80  O   UNL A   1      44.142  18.278  24.276  1.00  0.00    -0.237 OA
ATOM     81  O   UNL A   1      44.529  20.619  23.584  1.00  0.00    -0.744 OA
ENDBRANCH  75  78
ENDBRANCH  47  71
BRANCH  59  82
ATOM     82  C   UNL A   1      45.350  26.675  27.185  1.00  0.00     0.023 A 
ATOM     83  C   UNL A   1      44.353  27.126  26.295  1.00  0.00     0.012 A 
ATOM     84  C   UNL A   1      46.686  26.735  26.765  1.00  0.00     0.148 A 
ATOM     85  C   UNL A   1      44.684  27.604  25.022  1.00  0.00     0.002 A 
ATOM     86  C   UNL A   1      47.020  27.268  25.530  1.00  0.00     0.091 A 
ATOM     87  F   UNL A   1      47.627  26.262  27.597  1.00  0.00    -0.205 F 
ATOM     88  C   UNL A   1      46.022  27.695  24.645  1.00  0.00     0.022 A 
BRANCH  86  89
ATOM     89  S   UNL A   1      48.742  27.474  25.085  1.00  0.00     0.127 S 
ATOM     90  O   UNL A   1      48.648  27.828  23.670  1.00  0.00    -0.237 OA
ATOM     91  O   UNL A   1      49.186  28.556  25.959  1.00  0.00    -0.237 OA
ATOM     92  O   UNL A   1      49.364  26.184  25.368  1.00  0.00    -0.744 OA
ENDBRANCH  86  89
ENDBRANCH  59  82
ENDBRANCH  33  34
ENDBRANCH  26  28
ENDBRANCH  25  26
ENDBRANCH  24  25
ENDBRANCH   1  24
TORSDOF 18
ENDMDL
MODEL 3
REMARK VINA RESULT:     -11.4      3.828      9.783
REMARK SMILES Cc1cc(C(=O)OCCOCCOC(=O)c2ccc(-c3c4nc(c(-c5cccc(S(=O)(=O)[O-])c5F)c5ccc([nH]5)c(-c5cccc(S(=O)(=O)[O-])c5F)c5nc(c(-c6cccc(S(=O)(=O)[O-])c6F)c6ccc3[nH]6)C=C5)C=C4)cc2)c(C)n1[C@@H]1C[N@H+]2CC[C@@H]1CC2
REMARK SMILES IDX 11 1 10 2 9 3 8 4 7 5 5 6 6 7 4 8 1 9 2 10 3 11 81 12 79 13
REMARK SMILES IDX 80 14 82 15 83 16 87 17 84 18 88 19 86 20 89 21 85 22 12 24
REMARK SMILES IDX 13 25 14 26 15 27 16 28 17 29 78 30 18 31 77 32 19 33 20 34
REMARK SMILES IDX 21 35 71 36 22 37 76 38 70 39 72 40 23 41 75 42 69 43 68 44
REMARK SMILES IDX 24 46 56 47 36 48 55 49 37 50 40 51 54 52 73 53 38 54 39 55
REMARK SMILES IDX 53 57 74 58 41 59 25 60 26 61 34 62 27 63 29 64 35 65 28 66
REMARK SMILES IDX 30 67 31 68 32 69 33 70 57 71 58 72 66 73 59 74 61 75 67 76
REMARK SMILES IDX 60 77 62 78 63 79 64 80 65 81 42 82 43 83 51 84 44 85 46 86
REMARK SMILES IDX 52 87 45 88 47 89 48 90 49 91 50 92
REMARK H PARENT 84 23 72 45 40 56
REMARK Flexibility Score: inf
ROOT
ATOM      1  C   UNL A   1      33.489  30.094  26.996  1.00  0.00     0.202 C 
ENDROOT
BRANCH   1   2
ATOM      2  O   UNL A   1      32.929  29.818  25.698  1.00  0.00    -0.374 OA
BRANCH   2   3
ATOM      3  C   UNL A   1      31.631  29.231  25.675  1.00  0.00     0.202 C 
BRANCH   3   4
ATOM      4  C   UNL A   1      30.881  29.340  24.334  1.00  0.00     0.261 C 
BRANCH   4   5
ATOM      5  O   UNL A   1      30.158  28.145  24.026  1.00  0.00    -0.460 OA
BRANCH   5   6
ATOM      6  C   UNL A   1      30.607  27.424  22.961  1.00  0.00     0.340 C 
ATOM      7  O   UNL A   1      30.440  27.742  21.776  1.00  0.00    -0.246 OA
BRANCH   6   8
ATOM      8  C   UNL A   1      31.348  26.239  23.382  1.00  0.00     0.081 A 
ATOM      9  C   UNL A   1      31.542  22.660  24.240  1.00  0.00     0.064 C 
ATOM     10  C   UNL A   1      31.794  24.108  24.012  1.00  0.00     0.016 A 
ATOM     11  C   UNL A   1      30.783  25.024  23.814  1.00  0.00     0.038 A 
ATOM     12  N   UNL A   1      33.008  24.780  23.912  1.00  0.00    -0.339 N 
ATOM     13  C   UNL A   1      32.730  26.093  23.492  1.00  0.00     0.030 A 
ATOM     14  C   UNL A   1      33.735  27.180  23.252  1.00  0.00     0.065 C 
BRANCH  12  15
ATOM     15  C   UNL A   1      34.364  24.249  24.108  1.00  0.00     0.145 C 
ATOM     16  C   UNL A   1      34.657  22.876  23.460  1.00  0.00     0.288 C 
ATOM     17  C   UNL A   1      34.974  24.275  25.541  1.00  0.00     0.029 C 
ATOM     18  N   UNL A   1      35.445  21.989  24.359  1.00  0.00    -0.333 N 
ATOM     19  C   UNL A   1      36.498  24.024  25.373  1.00  0.00     0.067 C 
ATOM     20  C   UNL A   1      34.494  23.095  26.393  1.00  0.00     0.067 C 
ATOM     21  C   UNL A   1      36.721  22.652  24.704  1.00  0.00     0.262 C 
ATOM     22  C   UNL A   1      34.680  21.782  25.612  1.00  0.00     0.262 C 
ATOM     23  H   UNL A   1      35.623  21.099  23.893  1.00  0.00     0.348 HD
ENDBRANCH  12  15
ENDBRANCH   6   8
ENDBRANCH   5   6
ENDBRANCH   4   5
ENDBRANCH   3   4
ENDBRANCH   2   3
ENDBRANCH   1   2
BRANCH   1  24
ATOM     24  C   UNL A   1      33.282  31.518  27.596  1.00  0.00     0.261 C 
BRANCH  24  25
ATOM     25  O   UNL A   1      34.452  32.408  27.778  1.00  0.00    -0.460 OA
BRANCH  25  26
ATOM     26  C   UNL A   1      34.949  32.534  29.062  1.00  0.00     0.338 C 
ATOM     27  O   UNL A   1      34.424  33.279  29.882  1.00  0.00    -0.246 OA
BRANCH  26  28
ATOM     28  C   UNL A   1      36.125  31.602  29.455  1.00  0.00     0.060 A 
ATOM     29  C   UNL A   1      37.283  31.635  28.692  1.00  0.00     0.016 A 
ATOM     30  C   UNL A   1      36.090  30.519  30.365  1.00  0.00     0.016 A 
ATOM     31  C   UNL A   1      38.368  30.699  28.907  1.00  0.00     0.010 A 
ATOM     32  C   UNL A   1      37.182  29.502  30.518  1.00  0.00     0.010 A 
ATOM     33  C   UNL A   1      38.394  29.550  29.804  1.00  0.00    -0.014 A 
BRANCH  33  34
ATOM     34  C   UNL A   1      39.589  28.370  29.529  1.00  0.00     0.031 A 
ATOM     35  C   UNL A   1      40.368  28.491  30.794  1.00  0.00     0.074 A 
ATOM     36  C   UNL A   1      40.228  27.504  28.594  1.00  0.00     0.049 A 
ATOM     37  N   UNL A   1      40.823  29.671  31.117  1.00  0.00    -0.248 NA
ATOM     38  C   UNL A   1      40.306  27.558  31.922  1.00  0.00     0.031 C 
ATOM     39  C   UNL A   1      40.030  27.433  27.130  1.00  0.00     0.029 A 
ATOM     40  N   UNL A   1      41.258  26.459  28.699  1.00  0.00    -0.354 N 
ATOM     41  C   UNL A   1      41.480  29.525  32.298  1.00  0.00     0.074 A 
ATOM     42  C   UNL A   1      40.876  28.324  32.865  1.00  0.00     0.031 C 
ATOM     43  C   UNL A   1      40.692  26.382  26.546  1.00  0.00     0.029 A 
ATOM     44  C   UNL A   1      41.478  25.610  27.513  1.00  0.00     0.049 A 
ATOM     45  H   UNL A   1      41.777  26.331  29.526  1.00  0.00     0.167 HD
ATOM     46  C   UNL A   1      42.795  29.884  32.231  1.00  0.00     0.034 A 
ATOM     47  C   UNL A   1      42.284  24.470  27.269  1.00  0.00     0.034 A 
ATOM     48  C   UNL A   1      43.657  28.735  32.172  1.00  0.00     0.049 A 
ATOM     49  C   UNL A   1      43.420  24.608  28.183  1.00  0.00     0.074 A 
ATOM     50  C   UNL A   1      43.616  27.499  32.794  1.00  0.00     0.029 A 
ATOM     51  N   UNL A   1      44.428  28.585  31.044  1.00  0.00    -0.354 N 
ATOM     52  N   UNL A   1      44.436  25.359  27.881  1.00  0.00    -0.248 NA
ATOM     53  C   UNL A   1      43.567  23.806  29.391  1.00  0.00     0.031 C 
ATOM     54  C   UNL A   1      43.887  26.574  31.768  1.00  0.00     0.029 A 
ATOM     55  C   UNL A   1      44.546  27.241  30.749  1.00  0.00     0.049 A 
ATOM     56  H   UNL A   1      44.833  29.321  30.529  1.00  0.00     0.167 HD
ATOM     57  C   UNL A   1      45.002  25.573  29.099  1.00  0.00     0.074 A 
ATOM     58  C   UNL A   1      44.636  24.420  29.904  1.00  0.00     0.031 C 
ATOM     59  C   UNL A   1      45.089  26.872  29.470  1.00  0.00     0.034 A 
BRANCH  46  60
ATOM     60  C   UNL A   1      43.013  31.208  31.512  1.00  0.00     0.023 A 
ATOM     61  C   UNL A   1      43.537  31.143  30.211  1.00  0.00     0.012 A 
ATOM     62  C   UNL A   1      42.969  32.476  32.162  1.00  0.00     0.148 A 
ATOM     63  C   UNL A   1      44.072  32.282  29.602  1.00  0.00     0.002 A 
ATOM     64  C   UNL A   1      43.612  33.574  31.600  1.00  0.00     0.091 A 
ATOM     65  F   UNL A   1      42.326  32.584  33.335  1.00  0.00    -0.205 F 
ATOM     66  C   UNL A   1      44.152  33.481  30.311  1.00  0.00     0.022 A 
BRANCH  64  67
ATOM     67  S   UNL A   1      43.996  35.063  32.550  1.00  0.00     0.127 S 
ATOM     68  O   UNL A   1      44.872  35.805  31.637  1.00  0.00    -0.237 OA
ATOM     69  O   UNL A   1      42.684  35.671  32.742  1.00  0.00    -0.237 OA
ATOM     70  O   UNL A   1      44.669  34.620  33.767  1.00  0.00    -0.744 OA
ENDBRANCH  64  67
ENDBRANCH  46  60
BRANCH  47  71
ATOM     71  C   UNL A   1      42.669  23.231  26.307  1.00  0.00     0.023 A 
ATOM     72  C   UNL A   1      43.902  23.285  25.540  1.00  0.00     0.012 A 
ATOM     73  C   UNL A   1      42.176  21.916  26.471  1.00  0.00     0.148 A 
ATOM     74  C   UNL A   1      44.638  22.160  25.098  1.00  0.00     0.002 A 
ATOM     75  C   UNL A   1      42.912  20.781  26.004  1.00  0.00     0.091 A 
ATOM     76  F   UNL A   1      41.041  21.751  27.159  1.00  0.00    -0.205 F 
ATOM     77  C   UNL A   1      44.149  20.900  25.349  1.00  0.00     0.022 A 
BRANCH  75  78
ATOM     78  S   UNL A   1      42.409  19.065  26.298  1.00  0.00     0.127 S 
ATOM     79  O   UNL A   1      43.498  18.298  25.689  1.00  0.00    -0.237 OA
ATOM     80  O   UNL A   1      42.378  19.008  27.758  1.00  0.00    -0.237 OA
ATOM     81  O   UNL A   1      41.124  18.923  25.630  1.00  0.00    -0.744 OA
ENDBRANCH  75  78
ENDBRANCH  47  71
BRANCH  59  82
ATOM     82  C   UNL A   1      45.559  27.872  28.441  1.00  0.00     0.023 A 
ATOM     83  C   UNL A   1      44.734  28.565  27.529  1.00  0.00     0.012 A 
ATOM     84  C   UNL A   1      46.936  28.134  28.417  1.00  0.00     0.148 A 
ATOM     85  C   UNL A   1      45.276  29.474  26.613  1.00  0.00     0.002 A 
ATOM     86  C   UNL A   1      47.464  29.082  27.554  1.00  0.00     0.091 A 
ATOM     87  F   UNL A   1      47.721  27.439  29.254  1.00  0.00    -0.205 F 
ATOM     88  C   UNL A   1      46.641  29.749  26.639  1.00  0.00     0.022 A 
BRANCH  86  89
ATOM     89  S   UNL A   1      49.201  29.506  27.653  1.00  0.00     0.127 S 
ATOM     90  O   UNL A   1      49.323  30.523  26.611  1.00  0.00    -0.237 OA
ATOM     91  O   UNL A   1      49.346  30.006  29.018  1.00  0.00    -0.237 OA
ATOM     92  O   UNL A   1      49.912  28.257  27.396  1.00  0.00    -0.744 OA
ENDBRANCH  86  89
ENDBRANCH  59  82
ENDBRANCH  33  34
ENDBRANCH  26  28
ENDBRANCH  25  26
ENDBRANCH  24  25
ENDBRANCH   1  24
TORSDOF 18
ENDMDL
