MODEL 1
REMARK VINA RESULT:     -10.6      0.000      0.000
REMARK SMILES NS(=O)(=O)c1ccc(-n2nc(C(F)(F)F)cc2-c2ccc(C(=O)OCCOCCOC(=O)c3ccc(-c4c5nc(c(-c6cccc(S(=O)(=O)[O-])c6F)c6ccc([nH]6)c(-c6cccc(S(=O)(=O)[O-])c6F)c6nc(c(-c7cccc(S(=O)(=O)[O-])c7F)c7ccc4[nH]7)C=C6)C=C5)cc3)cc2)cc1
REMARK SMILES IDX 26 1 25 2 24 3 22 4 23 5 21 6 18 7 19 8 97 9 20 10 96 11
REMARK SMILES IDX 17 12 9 13 10 14 11 15 16 16 8 17 5 18 6 19 99 20 7 21 98 22
REMARK SMILES IDX 2 23 3 24 4 25 1 26 12 29 13 30 14 31 15 32 27 33 28 34
REMARK SMILES IDX 29 35 30 36 31 37 32 38 33 39 34 40 95 41 35 42 94 43 36 44
REMARK SMILES IDX 37 45 38 46 88 47 39 48 93 49 87 50 89 51 40 52 92 53 86 54
REMARK SMILES IDX 85 55 41 57 73 58 53 59 72 60 54 61 57 62 71 63 90 64 55 65
REMARK SMILES IDX 56 66 70 68 91 69 58 70 42 71 43 72 51 73 44 74 46 75 52 76
REMARK SMILES IDX 45 77 47 78 48 79 49 80 50 81 74 82 75 83 83 84 76 85 78 86
REMARK SMILES IDX 84 87 77 88 79 89 80 90 81 91 82 92 59 93 60 94 68 95 61 96
REMARK SMILES IDX 63 97 69 98 62 99 64 100 65 101 66 102 67 103
REMARK H PARENT 1 27 1 28 89 56 57 67
REMARK Flexibility Score: inf
ROOT
ATOM      1  C   UNL A   1      31.778  28.510  26.799  1.00  0.00     0.202 C 
ENDROOT
BRANCH   1   2
ATOM      2  C   UNL A   1      31.626  28.353  25.285  1.00  0.00     0.261 C 
BRANCH   2   3
ATOM      3  O   UNL A   1      31.564  26.983  24.866  1.00  0.00    -0.460 OA
BRANCH   3   4
ATOM      4  C   UNL A   1      32.328  26.701  23.785  1.00  0.00     0.338 C 
ATOM      5  O   UNL A   1      32.317  27.278  22.708  1.00  0.00    -0.246 OA
BRANCH   4   6
ATOM      6  C   UNL A   1      33.337  25.676  24.114  1.00  0.00     0.060 A 
ATOM      7  C   UNL A   1      35.435  23.980  24.836  1.00  0.00     0.000 A 
ATOM      8  C   UNL A   1      34.761  24.721  25.817  1.00  0.00     0.011 A 
ATOM      9  C   UNL A   1      35.007  24.043  23.504  1.00  0.00     0.011 A 
ATOM     10  C   UNL A   1      33.720  25.571  25.456  1.00  0.00     0.016 A 
ATOM     11  C   UNL A   1      33.947  24.881  23.141  1.00  0.00     0.016 A 
BRANCH   7  12
ATOM     12  C   UNL A   1      36.643  23.244  25.199  1.00  0.00     0.075 A 
ATOM     13  N   UNL A   1      36.725  21.879  25.442  1.00  0.00    -0.233 N 
ATOM     14  N   UNL A   1      37.839  21.567  26.158  1.00  0.00    -0.163 NA
ATOM     15  C   UNL A   1      38.600  22.680  26.108  1.00  0.00     0.167 A 
ATOM     16  C   UNL A   1      37.872  23.758  25.553  1.00  0.00     0.064 A 
BRANCH  13  17
ATOM     17  C   UNL A   1      35.797  20.877  25.058  1.00  0.00     0.065 A 
ATOM     18  C   UNL A   1      33.951  18.896  24.408  1.00  0.00     0.082 A 
ATOM     19  C   UNL A   1      33.513  20.209  24.595  1.00  0.00     0.024 A 
ATOM     20  C   UNL A   1      35.309  18.573  24.516  1.00  0.00     0.024 A 
ATOM     21  C   UNL A   1      34.436  21.197  24.936  1.00  0.00     0.030 A 
ATOM     22  C   UNL A   1      36.241  19.572  24.810  1.00  0.00     0.030 A 
BRANCH  18  23
ATOM     23  S   UNL A   1      32.777  17.613  24.084  1.00  0.00     0.238 S 
ATOM     24  O   UNL A   1      32.185  17.859  22.781  1.00  0.00    -0.207 OA
ATOM     25  O   UNL A   1      31.989  17.380  25.259  1.00  0.00    -0.207 OA
BRANCH  23  26
ATOM     26  N   UNL A   1      33.736  16.247  23.859  1.00  0.00    -0.225 NA
ATOM     27  H   UNL A   1      34.652  16.529  23.510  1.00  0.00     0.137 HD
ATOM     28  H   UNL A   1      33.291  15.627  23.181  1.00  0.00     0.137 HD
ENDBRANCH  23  26
ENDBRANCH  18  23
ENDBRANCH  13  17
BRANCH  15  29
ATOM     29  C   UNL A   1      40.009  22.752  26.632  1.00  0.00     0.435 C 
ATOM     30  F   UNL A   1      40.169  22.116  27.823  1.00  0.00    -0.164 F 
ATOM     31  F   UNL A   1      40.912  22.219  25.768  1.00  0.00    -0.164 F 
ATOM     32  F   UNL A   1      40.398  24.043  26.840  1.00  0.00    -0.164 F 
ENDBRANCH  15  29
ENDBRANCH   7  12
ENDBRANCH   4   6
ENDBRANCH   3   4
ENDBRANCH   2   3
ENDBRANCH   1   2
BRANCH   1  33
ATOM     33  O   UNL A   1      32.419  29.677  27.313  1.00  0.00    -0.374 OA
BRANCH  33  34
ATOM     34  C   UNL A   1      33.720  30.042  26.863  1.00  0.00     0.202 C 
BRANCH  34  35
ATOM     35  C   UNL A   1      34.929  29.328  27.447  1.00  0.00     0.261 C 
BRANCH  35  36
ATOM     36  O   UNL A   1      35.397  29.971  28.619  1.00  0.00    -0.460 OA
BRANCH  36  37
ATOM     37  C   UNL A   1      36.531  30.683  28.437  1.00  0.00     0.338 C 
ATOM     38  O   UNL A   1      36.811  31.401  27.492  1.00  0.00    -0.246 OA
BRANCH  37  39
ATOM     39  C   UNL A   1      37.466  30.328  29.505  1.00  0.00     0.060 A 
ATOM     40  C   UNL A   1      38.507  31.233  29.722  1.00  0.00     0.016 A 
ATOM     41  C   UNL A   1      37.533  28.987  29.907  1.00  0.00     0.016 A 
ATOM     42  C   UNL A   1      39.735  30.717  30.052  1.00  0.00     0.010 A 
ATOM     43  C   UNL A   1      38.763  28.471  30.199  1.00  0.00     0.010 A 
ATOM     44  C   UNL A   1      39.857  29.329  30.157  1.00  0.00    -0.014 A 
BRANCH  44  45
ATOM     45  C   UNL A   1      41.169  28.768  30.370  1.00  0.00     0.031 A 
ATOM     46  C   UNL A   1      41.513  28.828  31.806  1.00  0.00     0.074 A 
ATOM     47  C   UNL A   1      41.861  28.174  29.379  1.00  0.00     0.049 A 
ATOM     48  N   UNL A   1      42.255  29.705  32.398  1.00  0.00    -0.248 NA
ATOM     49  C   UNL A   1      40.684  28.028  32.728  1.00  0.00     0.031 C 
ATOM     50  C   UNL A   1      41.400  27.825  28.031  1.00  0.00     0.029 A 
ATOM     51  N   UNL A   1      43.101  27.628  29.417  1.00  0.00    -0.354 N 
ATOM     52  C   UNL A   1      42.208  29.334  33.738  1.00  0.00     0.074 A 
ATOM     53  C   UNL A   1      40.997  28.584  33.899  1.00  0.00     0.031 C 
ATOM     54  C   UNL A   1      42.239  26.905  27.499  1.00  0.00     0.029 A 
ATOM     55  C   UNL A   1      43.354  26.701  28.408  1.00  0.00     0.049 A 
ATOM     56  H   UNL A   1      43.769  27.867  30.101  1.00  0.00     0.167 HD
ATOM     57  C   UNL A   1      43.347  29.293  34.480  1.00  0.00     0.034 A 
ATOM     58  C   UNL A   1      44.355  25.780  28.403  1.00  0.00     0.034 A 
ATOM     59  C   UNL A   1      44.401  30.035  33.831  1.00  0.00     0.049 A 
ATOM     60  C   UNL A   1      45.347  26.218  29.414  1.00  0.00     0.074 A 
ATOM     61  C   UNL A   1      44.578  31.338  33.414  1.00  0.00     0.029 A 
ATOM     62  N   UNL A   1      45.317  29.276  33.143  1.00  0.00    -0.354 N 
ATOM     63  N   UNL A   1      46.047  27.314  29.311  1.00  0.00    -0.248 NA
ATOM     64  C   UNL A   1      45.215  25.681  30.760  1.00  0.00     0.031 C 
ATOM     65  C   UNL A   1      45.311  31.241  32.196  1.00  0.00     0.029 A 
ATOM     66  C   UNL A   1      45.618  29.898  31.966  1.00  0.00     0.049 A 
ATOM     67  H   UNL A   1      45.696  28.421  33.451  1.00  0.00     0.167 HD
ATOM     68  C   UNL A   1      46.039  27.845  30.594  1.00  0.00     0.074 A 
ATOM     69  C   UNL A   1      45.609  26.748  31.459  1.00  0.00     0.031 C 
ATOM     70  C   UNL A   1      46.073  29.195  30.784  1.00  0.00     0.034 A 
BRANCH  57  71
ATOM     71  C   UNL A   1      43.666  28.214  35.505  1.00  0.00     0.023 A 
ATOM     72  C   UNL A   1      44.147  28.661  36.755  1.00  0.00     0.012 A 
ATOM     73  C   UNL A   1      43.794  26.829  35.239  1.00  0.00     0.148 A 
ATOM     74  C   UNL A   1      44.780  27.794  37.652  1.00  0.00     0.002 A 
ATOM     75  C   UNL A   1      44.354  25.957  36.164  1.00  0.00     0.091 A 
ATOM     76  F   UNL A   1      43.498  26.331  34.040  1.00  0.00    -0.205 F 
ATOM     77  C   UNL A   1      44.882  26.440  37.359  1.00  0.00     0.022 A 
BRANCH  75  78
ATOM     78  S   UNL A   1      44.478  24.191  35.839  1.00  0.00     0.127 S 
ATOM     79  O   UNL A   1      45.410  24.166  34.718  1.00  0.00    -0.237 OA
ATOM     80  O   UNL A   1      45.012  23.696  37.108  1.00  0.00    -0.237 OA
ATOM     81  O   UNL A   1      43.121  23.740  35.549  1.00  0.00    -0.744 OA
ENDBRANCH  75  78
ENDBRANCH  57  71
BRANCH  58  82
ATOM     82  C   UNL A   1      44.366  24.387  27.884  1.00  0.00     0.023 A 
ATOM     83  C   UNL A   1      43.656  23.377  28.571  1.00  0.00     0.012 A 
ATOM     84  C   UNL A   1      44.799  24.110  26.568  1.00  0.00     0.148 A 
ATOM     85  C   UNL A   1      43.361  22.151  27.958  1.00  0.00     0.002 A 
ATOM     86  C   UNL A   1      44.505  22.890  25.964  1.00  0.00     0.091 A 
ATOM     87  F   UNL A   1      45.413  25.079  25.878  1.00  0.00    -0.205 F 
ATOM     88  C   UNL A   1      43.776  21.912  26.651  1.00  0.00     0.022 A 
BRANCH  86  89
ATOM     89  S   UNL A   1      44.970  22.527  24.264  1.00  0.00     0.127 S 
ATOM     90  O   UNL A   1      45.472  21.157  24.378  1.00  0.00    -0.237 OA
ATOM     91  O   UNL A   1      43.692  22.655  23.569  1.00  0.00    -0.237 OA
ATOM     92  O   UNL A   1      45.981  23.514  23.908  1.00  0.00    -0.744 OA
ENDBRANCH  86  89
ENDBRANCH  58  82
BRANCH  70  93
ATOM     93  C   UNL A   1      46.444  30.066  29.612  1.00  0.00     0.023 A 
ATOM     94  C   UNL A   1      47.755  30.161  29.098  1.00  0.00     0.012 A 
ATOM     95  C   UNL A   1      45.384  30.640  28.896  1.00  0.00     0.148 A 
ATOM     96  C   UNL A   1      47.993  30.820  27.886  1.00  0.00     0.002 A 
ATOM     97  C   UNL A   1      45.616  31.241  27.670  1.00  0.00     0.091 A 
ATOM     98  F   UNL A   1      44.149  30.538  29.413  1.00  0.00    -0.205 F 
ATOM     99  C   UNL A   1      46.920  31.342  27.163  1.00  0.00     0.022 A 
BRANCH  97 100
ATOM    100  S   UNL A   1      44.260  31.791  26.635  1.00  0.00     0.127 S 
ATOM    101  O   UNL A   1      44.958  32.239  25.432  1.00  0.00    -0.237 OA
ATOM    102  O   UNL A   1      43.478  30.566  26.470  1.00  0.00    -0.237 OA
ATOM    103  O   UNL A   1      43.577  32.838  27.385  1.00  0.00    -0.744 OA
ENDBRANCH  97 100
ENDBRANCH  70  93
ENDBRANCH  44  45
ENDBRANCH  37  39
ENDBRANCH  36  37
ENDBRANCH  35  36
ENDBRANCH  34  35
ENDBRANCH  33  34
ENDBRANCH   1  33
TORSDOF 22
ENDMDL
MODEL 2
REMARK VINA RESULT:     -10.5      3.520      5.420
REMARK SMILES NS(=O)(=O)c1ccc(-n2nc(C(F)(F)F)cc2-c2ccc(C(=O)OCCOCCOC(=O)c3ccc(-c4c5nc(c(-c6cccc(S(=O)(=O)[O-])c6F)c6ccc([nH]6)c(-c6cccc(S(=O)(=O)[O-])c6F)c6nc(c(-c7cccc(S(=O)(=O)[O-])c7F)c7ccc4[nH]7)C=C6)C=C5)cc3)cc2)cc1
REMARK SMILES IDX 26 1 25 2 24 3 22 4 23 5 21 6 18 7 19 8 97 9 20 10 96 11
REMARK SMILES IDX 17 12 9 13 10 14 11 15 16 16 8 17 5 18 6 19 99 20 7 21 98 22
REMARK SMILES IDX 2 23 3 24 4 25 1 26 12 29 13 30 14 31 15 32 27 33 28 34
REMARK SMILES IDX 29 35 30 36 31 37 32 38 33 39 34 40 95 41 35 42 94 43 36 44
REMARK SMILES IDX 37 45 38 46 88 47 39 48 93 49 87 50 89 51 40 52 92 53 86 54
REMARK SMILES IDX 85 55 41 57 73 58 53 59 72 60 54 61 57 62 71 63 90 64 55 65
REMARK SMILES IDX 56 66 70 68 91 69 58 70 42 71 43 72 51 73 44 74 46 75 52 76
REMARK SMILES IDX 45 77 47 78 48 79 49 80 50 81 74 82 75 83 83 84 76 85 78 86
REMARK SMILES IDX 84 87 77 88 79 89 80 90 81 91 82 92 59 93 60 94 68 95 61 96
REMARK SMILES IDX 63 97 69 98 62 99 64 100 65 101 66 102 67 103
REMARK H PARENT 1 27 1 28 89 56 57 67
REMARK Flexibility Score: inf
ROOT
ATOM      1  C   UNL A   1      33.950  34.073  28.983  1.00  0.00     0.202 C 
ENDROOT
BRANCH   1   2
ATOM      2  C   UNL A   1      33.427  33.239  27.813  1.00  0.00     0.261 C 
BRANCH   2   3
ATOM      3  O   UNL A   1      33.310  31.845  28.124  1.00  0.00    -0.460 OA
BRANCH   3   4
ATOM      4  C   UNL A   1      34.266  31.071  27.558  1.00  0.00     0.338 C 
ATOM      5  O   UNL A   1      35.457  31.328  27.461  1.00  0.00    -0.246 OA
BRANCH   4   6
ATOM      6  C   UNL A   1      33.718  29.750  27.195  1.00  0.00     0.060 A 
ATOM      7  C   UNL A   1      32.762  27.320  26.203  1.00  0.00     0.000 A 
ATOM      8  C   UNL A   1      34.131  27.615  26.143  1.00  0.00     0.011 A 
ATOM      9  C   UNL A   1      31.887  28.222  26.823  1.00  0.00     0.011 A 
ATOM     10  C   UNL A   1      34.606  28.827  26.631  1.00  0.00     0.016 A 
ATOM     11  C   UNL A   1      32.364  29.433  27.334  1.00  0.00     0.016 A 
BRANCH   7  12
ATOM     12  C   UNL A   1      32.253  26.136  25.517  1.00  0.00     0.075 A 
ATOM     13  N   UNL A   1      31.113  26.078  24.725  1.00  0.00    -0.233 N 
ATOM     14  N   UNL A   1      30.668  24.800  24.588  1.00  0.00    -0.163 NA
ATOM     15  C   UNL A   1      31.683  24.034  25.037  1.00  0.00     0.167 A 
ATOM     16  C   UNL A   1      32.672  24.830  25.660  1.00  0.00     0.064 A 
BRANCH  13  17
ATOM     17  C   UNL A   1      30.421  27.163  24.128  1.00  0.00     0.065 A 
ATOM     18  C   UNL A   1      29.065  29.240  22.864  1.00  0.00     0.082 A 
ATOM     19  C   UNL A   1      28.346  28.146  23.352  1.00  0.00     0.024 A 
ATOM     20  C   UNL A   1      30.453  29.315  23.028  1.00  0.00     0.024 A 
ATOM     21  C   UNL A   1      29.028  27.100  23.971  1.00  0.00     0.030 A 
ATOM     22  C   UNL A   1      31.132  28.289  23.692  1.00  0.00     0.030 A 
BRANCH  18  23
ATOM     23  S   UNL A   1      28.227  30.522  21.979  1.00  0.00     0.238 S 
ATOM     24  O   UNL A   1      27.250  31.124  22.870  1.00  0.00    -0.207 OA
ATOM     25  O   UNL A   1      27.890  30.054  20.666  1.00  0.00    -0.207 OA
BRANCH  23  26
ATOM     26  N   UNL A   1      29.407  31.708  21.787  1.00  0.00    -0.225 NA
ATOM     27  H   UNL A   1      30.328  31.301  21.953  1.00  0.00     0.137 HD
ATOM     28  H   UNL A   1      29.244  32.462  22.455  1.00  0.00     0.137 HD
ENDBRANCH  23  26
ENDBRANCH  18  23
ENDBRANCH  13  17
BRANCH  15  29
ATOM     29  C   UNL A   1      31.708  22.533  24.929  1.00  0.00     0.435 C 
ATOM     30  F   UNL A   1      31.586  22.087  23.651  1.00  0.00    -0.164 F 
ATOM     31  F   UNL A   1      32.848  21.995  25.436  1.00  0.00    -0.164 F 
ATOM     32  F   UNL A   1      30.679  21.966  25.624  1.00  0.00    -0.164 F 
ENDBRANCH  15  29
ENDBRANCH   7  12
ENDBRANCH   4   6
ENDBRANCH   3   4
ENDBRANCH   2   3
ENDBRANCH   1   2
BRANCH   1  33
ATOM     33  O   UNL A   1      34.885  33.487  29.889  1.00  0.00    -0.374 OA
BRANCH  33  34
ATOM     34  C   UNL A   1      34.429  32.814  31.059  1.00  0.00     0.202 C 
BRANCH  34  35
ATOM     35  C   UNL A   1      35.304  32.823  32.302  1.00  0.00     0.261 C 
BRANCH  35  36
ATOM     36  O   UNL A   1      36.623  33.245  32.007  1.00  0.00    -0.460 OA
BRANCH  36  37
ATOM     37  C   UNL A   1      37.582  32.486  32.581  1.00  0.00     0.338 C 
ATOM     38  O   UNL A   1      37.865  32.422  33.766  1.00  0.00    -0.246 OA
BRANCH  37  39
ATOM     39  C   UNL A   1      38.356  31.849  31.516  1.00  0.00     0.060 A 
ATOM     40  C   UNL A   1      38.064  30.505  31.279  1.00  0.00     0.016 A 
ATOM     41  C   UNL A   1      39.571  32.438  31.139  1.00  0.00     0.016 A 
ATOM     42  C   UNL A   1      39.110  29.678  30.954  1.00  0.00     0.010 A 
ATOM     43  C   UNL A   1      40.617  31.609  30.851  1.00  0.00     0.010 A 
ATOM     44  C   UNL A   1      40.389  30.237  30.873  1.00  0.00    -0.014 A 
BRANCH  44  45
ATOM     45  C   UNL A   1      41.512  29.357  30.665  1.00  0.00     0.031 A 
ATOM     46  C   UNL A   1      42.056  28.922  31.968  1.00  0.00     0.074 A 
ATOM     47  C   UNL A   1      41.869  28.932  29.438  1.00  0.00     0.049 A 
ATOM     48  N   UNL A   1      43.086  29.400  32.586  1.00  0.00    -0.248 NA
ATOM     49  C   UNL A   1      41.177  28.101  32.822  1.00  0.00     0.031 C 
ATOM     50  C   UNL A   1      41.146  29.099  28.172  1.00  0.00     0.029 A 
ATOM     51  N   UNL A   1      42.904  28.132  29.083  1.00  0.00    -0.354 N 
ATOM     52  C   UNL A   1      43.126  28.681  33.777  1.00  0.00     0.074 A 
ATOM     53  C   UNL A   1      41.791  28.210  34.000  1.00  0.00     0.031 C 
ATOM     54  C   UNL A   1      41.618  28.206  27.271  1.00  0.00     0.029 A 
ATOM     55  C   UNL A   1      42.749  27.503  27.850  1.00  0.00     0.049 A 
ATOM     56  H   UNL A   1      43.700  28.007  29.649  1.00  0.00     0.167 HD
ATOM     57  C   UNL A   1      44.303  28.172  34.232  1.00  0.00     0.034 A 
ATOM     58  C   UNL A   1      43.447  26.420  27.413  1.00  0.00     0.034 A 
ATOM     59  C   UNL A   1      45.418  28.810  33.575  1.00  0.00     0.049 A 
ATOM     60  C   UNL A   1      44.653  26.313  28.270  1.00  0.00     0.074 A 
ATOM     61  C   UNL A   1      45.886  30.102  33.458  1.00  0.00     0.029 A 
ATOM     62  N   UNL A   1      45.985  28.094  32.549  1.00  0.00    -0.354 N 
ATOM     63  N   UNL A   1      45.605  27.203  28.290  1.00  0.00    -0.248 NA
ATOM     64  C   UNL A   1      44.568  25.455  29.443  1.00  0.00     0.031 C 
ATOM     65  C   UNL A   1      46.387  30.197  32.127  1.00  0.00     0.029 A 
ATOM     66  C   UNL A   1      46.278  28.943  31.520  1.00  0.00     0.049 A 
ATOM     67  H   UNL A   1      46.154  27.124  32.555  1.00  0.00     0.167 HD
ATOM     68  C   UNL A   1      45.923  27.331  29.637  1.00  0.00     0.074 A 
ATOM     69  C   UNL A   1      45.333  26.159  30.282  1.00  0.00     0.031 C 
ATOM     70  C   UNL A   1      46.353  28.525  30.136  1.00  0.00     0.034 A 
BRANCH  57  71
ATOM     71  C   UNL A   1      44.453  26.801  34.875  1.00  0.00     0.023 A 
ATOM     72  C   UNL A   1      45.023  26.775  36.167  1.00  0.00     0.012 A 
ATOM     73  C   UNL A   1      44.342  25.555  34.211  1.00  0.00     0.148 A 
ATOM     74  C   UNL A   1      45.516  25.593  36.730  1.00  0.00     0.002 A 
ATOM     75  C   UNL A   1      44.764  24.372  34.803  1.00  0.00     0.091 A 
ATOM     76  F   UNL A   1      43.948  25.488  32.940  1.00  0.00    -0.205 F 
ATOM     77  C   UNL A   1      45.385  24.390  36.050  1.00  0.00     0.022 A 
BRANCH  75  78
ATOM     78  S   UNL A   1      44.584  22.785  33.971  1.00  0.00     0.127 S 
ATOM     79  O   UNL A   1      44.460  21.876  35.105  1.00  0.00    -0.237 OA
ATOM     80  O   UNL A   1      43.358  22.996  33.201  1.00  0.00    -0.237 OA
ATOM     81  O   UNL A   1      45.780  22.623  33.153  1.00  0.00    -0.744 OA
ENDBRANCH  75  78
ENDBRANCH  57  71
BRANCH  58  82
ATOM     82  C   UNL A   1      43.003  25.270  26.582  1.00  0.00     0.023 A 
ATOM     83  C   UNL A   1      43.792  24.847  25.491  1.00  0.00     0.012 A 
ATOM     84  C   UNL A   1      41.988  24.400  27.039  1.00  0.00     0.148 A 
ATOM     85  C   UNL A   1      43.600  23.591  24.898  1.00  0.00     0.002 A 
ATOM     86  C   UNL A   1      41.799  23.154  26.446  1.00  0.00     0.091 A 
ATOM     87  F   UNL A   1      41.275  24.755  28.115  1.00  0.00    -0.205 F 
ATOM     88  C   UNL A   1      42.610  22.740  25.382  1.00  0.00     0.022 A 
BRANCH  86  89
ATOM     89  S   UNL A   1      40.570  21.985  27.046  1.00  0.00     0.127 S 
ATOM     90  O   UNL A   1      41.034  21.738  28.411  1.00  0.00    -0.237 OA
ATOM     91  O   UNL A   1      39.339  22.765  26.949  1.00  0.00    -0.237 OA
ATOM     92  O   UNL A   1      40.653  20.830  26.161  1.00  0.00    -0.744 OA
ENDBRANCH  86  89
ENDBRANCH  58  82
BRANCH  70  93
ATOM     93  C   UNL A   1      46.781  29.588  29.158  1.00  0.00     0.023 A 
ATOM     94  C   UNL A   1      48.095  29.700  28.657  1.00  0.00     0.012 A 
ATOM     95  C   UNL A   1      45.761  30.362  28.586  1.00  0.00     0.148 A 
ATOM     96  C   UNL A   1      48.377  30.573  27.599  1.00  0.00     0.002 A 
ATOM     97  C   UNL A   1      46.033  31.181  27.502  1.00  0.00     0.091 A 
ATOM     98  F   UNL A   1      44.522  30.238  29.088  1.00  0.00    -0.205 F 
ATOM     99  C   UNL A   1      47.341  31.298  27.009  1.00  0.00     0.022 A 
BRANCH  97 100
ATOM    100  S   UNL A   1      44.717  32.016  26.617  1.00  0.00     0.127 S 
ATOM    101  O   UNL A   1      43.649  31.020  26.652  1.00  0.00    -0.237 OA
ATOM    102  O   UNL A   1      44.484  33.196  27.449  1.00  0.00    -0.237 OA
ATOM    103  O   UNL A   1      45.247  32.315  25.292  1.00  0.00    -0.744 OA
ENDBRANCH  97 100
ENDBRANCH  70  93
ENDBRANCH  44  45
ENDBRANCH  37  39
ENDBRANCH  36  37
ENDBRANCH  35  36
ENDBRANCH  34  35
ENDBRANCH  33  34
ENDBRANCH   1  33
TORSDOF 22
ENDMDL
MODEL 3
REMARK VINA RESULT:     -10.3      4.898     10.982
REMARK SMILES NS(=O)(=O)c1ccc(-n2nc(C(F)(F)F)cc2-c2ccc(C(=O)OCCOCCOC(=O)c3ccc(-c4c5nc(c(-c6cccc(S(=O)(=O)[O-])c6F)c6ccc([nH]6)c(-c6cccc(S(=O)(=O)[O-])c6F)c6nc(c(-c7cccc(S(=O)(=O)[O-])c7F)c7ccc4[nH]7)C=C6)C=C5)cc3)cc2)cc1
REMARK SMILES IDX 26 1 25 2 24 3 22 4 23 5 21 6 18 7 19 8 97 9 20 10 96 11
REMARK SMILES IDX 17 12 9 13 10 14 11 15 16 16 8 17 5 18 6 19 99 20 7 21 98 22
REMARK SMILES IDX 2 23 3 24 4 25 1 26 12 29 13 30 14 31 15 32 27 33 28 34
REMARK SMILES IDX 29 35 30 36 31 37 32 38 33 39 34 40 95 41 35 42 94 43 36 44
REMARK SMILES IDX 37 45 38 46 88 47 39 48 93 49 87 50 89 51 40 52 92 53 86 54
REMARK SMILES IDX 85 55 41 57 73 58 53 59 72 60 54 61 57 62 71 63 90 64 55 65
REMARK SMILES IDX 56 66 70 68 91 69 58 70 42 71 43 72 51 73 44 74 46 75 52 76
REMARK SMILES IDX 45 77 47 78 48 79 49 80 50 81 74 82 75 83 83 84 76 85 78 86
REMARK SMILES IDX 84 87 77 88 79 89 80 90 81 91 82 92 59 93 60 94 68 95 61 96
REMARK SMILES IDX 63 97 69 98 62 99 64 100 65 101 66 102 67 103
REMARK H PARENT 1 27 1 28 89 56 57 67
REMARK Flexibility Score: inf
ROOT
ATOM      1  C   UNL A   1      39.577  34.582  33.650  1.00  0.00     0.202 C 
ENDROOT
BRANCH   1   2
ATOM      2  C   UNL A   1      40.690  33.797  32.953  1.00  0.00     0.261 C 
BRANCH   2   3
ATOM      3  O   UNL A   1      41.463  34.599  32.050  1.00  0.00    -0.460 OA
BRANCH   3   4
ATOM      4  C   UNL A   1      41.227  34.340  30.742  1.00  0.00     0.338 C 
ATOM      5  O   UNL A   1      40.221  33.840  30.263  1.00  0.00    -0.246 OA
BRANCH   4   6
ATOM      6  C   UNL A   1      42.302  34.899  29.900  1.00  0.00     0.060 A 
ATOM      7  C   UNL A   1      44.372  36.183  28.533  1.00  0.00     0.000 A 
ATOM      8  C   UNL A   1      44.621  35.564  29.767  1.00  0.00     0.011 A 
ATOM      9  C   UNL A   1      43.097  36.095  27.960  1.00  0.00     0.011 A 
ATOM     10  C   UNL A   1      43.589  34.930  30.450  1.00  0.00     0.016 A 
ATOM     11  C   UNL A   1      42.062  35.440  28.635  1.00  0.00     0.016 A 
BRANCH   7  12
ATOM     12  C   UNL A   1      45.412  37.005  27.922  1.00  0.00     0.075 A 
ATOM     13  N   UNL A   1      45.463  38.393  27.927  1.00  0.00    -0.233 N 
ATOM     14  N   UNL A   1      46.276  38.865  26.944  1.00  0.00    -0.163 NA
ATOM     15  C   UNL A   1      46.961  37.784  26.519  1.00  0.00     0.167 A 
ATOM     16  C   UNL A   1      46.424  36.601  27.077  1.00  0.00     0.064 A 
BRANCH  13  17
ATOM     17  C   UNL A   1      44.765  39.279  28.788  1.00  0.00     0.065 A 
ATOM     18  C   UNL A   1      43.344  40.933  30.520  1.00  0.00     0.082 A 
ATOM     19  C   UNL A   1      44.525  40.330  30.959  1.00  0.00     0.024 A 
ATOM     20  C   UNL A   1      42.884  40.736  29.213  1.00  0.00     0.024 A 
ATOM     21  C   UNL A   1      45.227  39.490  30.096  1.00  0.00     0.030 A 
ATOM     22  C   UNL A   1      43.613  39.933  28.331  1.00  0.00     0.030 A 
BRANCH  18  23
ATOM     23  S   UNL A   1      42.385  41.913  31.639  1.00  0.00     0.238 S 
ATOM     24  O   UNL A   1      43.163  42.111  32.849  1.00  0.00    -0.207 OA
ATOM     25  O   UNL A   1      41.036  41.429  31.658  1.00  0.00    -0.207 OA
BRANCH  23  26
ATOM     26  N   UNL A   1      42.351  43.429  30.908  1.00  0.00    -0.225 NA
ATOM     27  H   UNL A   1      43.268  43.869  30.995  1.00  0.00     0.137 HD
ATOM     28  H   UNL A   1      41.650  44.012  31.365  1.00  0.00     0.137 HD
ENDBRANCH  23  26
ENDBRANCH  18  23
ENDBRANCH  13  17
BRANCH  15  29
ATOM     29  C   UNL A   1      48.101  37.850  25.539  1.00  0.00     0.435 C 
ATOM     30  F   UNL A   1      47.852  38.669  24.483  1.00  0.00    -0.164 F 
ATOM     31  F   UNL A   1      49.256  38.276  26.114  1.00  0.00    -0.164 F 
ATOM     32  F   UNL A   1      48.373  36.623  25.006  1.00  0.00    -0.164 F 
ENDBRANCH  15  29
ENDBRANCH   7  12
ENDBRANCH   4   6
ENDBRANCH   3   4
ENDBRANCH   2   3
ENDBRANCH   1   2
BRANCH   1  33
ATOM     33  O   UNL A   1      38.227  34.393  33.228  1.00  0.00    -0.374 OA
BRANCH  33  34
ATOM     34  C   UNL A   1      37.747  33.090  32.911  1.00  0.00     0.202 C 
BRANCH  34  35
ATOM     35  C   UNL A   1      36.277  32.772  33.130  1.00  0.00     0.261 C 
BRANCH  35  36
ATOM     36  O   UNL A   1      35.896  31.584  32.461  1.00  0.00    -0.460 OA
BRANCH  36  37
ATOM     37  C   UNL A   1      35.439  31.785  31.206  1.00  0.00     0.338 C 
ATOM     38  O   UNL A   1      34.417  32.361  30.873  1.00  0.00    -0.246 OA
BRANCH  37  39
ATOM     39  C   UNL A   1      36.304  31.049  30.283  1.00  0.00     0.060 A 
ATOM     40  C   UNL A   1      36.433  29.683  30.536  1.00  0.00     0.016 A 
ATOM     41  C   UNL A   1      37.246  31.775  29.541  1.00  0.00     0.016 A 
ATOM     42  C   UNL A   1      37.663  29.113  30.319  1.00  0.00     0.010 A 
ATOM     43  C   UNL A   1      38.479  31.216  29.360  1.00  0.00     0.010 A 
ATOM     44  C   UNL A   1      38.694  29.933  29.853  1.00  0.00    -0.014 A 
BRANCH  44  45
ATOM     45  C   UNL A   1      40.020  29.378  29.749  1.00  0.00     0.031 A 
ATOM     46  C   UNL A   1      40.612  29.239  31.096  1.00  0.00     0.074 A 
ATOM     47  C   UNL A   1      40.525  28.947  28.577  1.00  0.00     0.049 A 
ATOM     48  N   UNL A   1      41.451  30.039  31.669  1.00  0.00    -0.248 NA
ATOM     49  C   UNL A   1      39.958  28.297  32.023  1.00  0.00     0.031 C 
ATOM     50  C   UNL A   1      39.832  28.784  27.294  1.00  0.00     0.029 A 
ATOM     51  N   UNL A   1      41.751  28.430  28.317  1.00  0.00    -0.354 N 
ATOM     52  C   UNL A   1      41.639  29.480  32.929  1.00  0.00     0.074 A 
ATOM     53  C   UNL A   1      40.475  28.687  33.189  1.00  0.00     0.031 C 
ATOM     54  C   UNL A   1      40.562  27.969  26.496  1.00  0.00     0.029 A 
ATOM     55  C   UNL A   1      41.818  27.663  27.157  1.00  0.00     0.049 A 
ATOM     56  H   UNL A   1      42.529  28.584  28.901  1.00  0.00     0.167 HD
ATOM     57  C   UNL A   1      42.892  29.359  33.446  1.00  0.00     0.034 A 
ATOM     58  C   UNL A   1      42.800  26.775  26.843  1.00  0.00     0.034 A 
ATOM     59  C   UNL A   1      43.817  30.210  32.736  1.00  0.00     0.049 A 
ATOM     60  C   UNL A   1      43.957  27.087  27.717  1.00  0.00     0.074 A 
ATOM     61  C   UNL A   1      43.921  31.563  32.488  1.00  0.00     0.029 A 
ATOM     62  N   UNL A   1      44.594  29.579  31.796  1.00  0.00    -0.354 N 
ATOM     63  N   UNL A   1      44.630  28.201  27.652  1.00  0.00    -0.248 NA
ATOM     64  C   UNL A   1      44.063  26.359  28.973  1.00  0.00     0.031 C 
ATOM     65  C   UNL A   1      44.427  31.659  31.159  1.00  0.00     0.029 A 
ATOM     66  C   UNL A   1      44.685  30.369  30.687  1.00  0.00     0.049 A 
ATOM     67  H   UNL A   1      45.019  28.697  31.906  1.00  0.00     0.167 HD
ATOM     68  C   UNL A   1      44.851  28.544  28.980  1.00  0.00     0.074 A 
ATOM     69  C   UNL A   1      44.577  27.324  29.740  1.00  0.00     0.031 C 
ATOM     70  C   UNL A   1      44.922  29.853  29.355  1.00  0.00     0.034 A 
BRANCH  57  71
ATOM     71  C   UNL A   1      43.384  28.153  34.232  1.00  0.00     0.023 A 
ATOM     72  C   UNL A   1      43.968  28.421  35.489  1.00  0.00     0.012 A 
ATOM     73  C   UNL A   1      43.566  26.845  33.718  1.00  0.00     0.148 A 
ATOM     74  C   UNL A   1      44.745  27.468  36.157  1.00  0.00     0.002 A 
ATOM     75  C   UNL A   1      44.275  25.878  34.419  1.00  0.00     0.091 A 
ATOM     76  F   UNL A   1      43.175  26.533  32.484  1.00  0.00    -0.205 F 
ATOM     77  C   UNL A   1      44.897  26.194  35.624  1.00  0.00     0.022 A 
BRANCH  75  78
ATOM     78  S   UNL A   1      44.470  24.206  33.781  1.00  0.00     0.127 S 
ATOM     79  O   UNL A   1      43.168  23.624  34.090  1.00  0.00    -0.237 OA
ATOM     80  O   UNL A   1      44.720  24.461  32.362  1.00  0.00    -0.237 OA
ATOM     81  O   UNL A   1      45.608  23.635  34.492  1.00  0.00    -0.744 OA
ENDBRANCH  75  78
ENDBRANCH  57  71
BRANCH  58  82
ATOM     82  C   UNL A   1      42.716  25.471  26.134  1.00  0.00     0.023 A 
ATOM     83  C   UNL A   1      43.716  25.112  25.204  1.00  0.00     0.012 A 
ATOM     84  C   UNL A   1      41.846  24.456  26.591  1.00  0.00     0.148 A 
ATOM     85  C   UNL A   1      43.865  23.786  24.771  1.00  0.00     0.002 A 
ATOM     86  C   UNL A   1      41.995  23.142  26.157  1.00  0.00     0.091 A 
ATOM     87  F   UNL A   1      40.935  24.764  27.523  1.00  0.00    -0.205 F 
ATOM     88  C   UNL A   1      43.011  22.799  25.255  1.00  0.00     0.022 A 
BRANCH  86  89
ATOM     89  S   UNL A   1      40.958  21.806  26.773  1.00  0.00     0.127 S 
ATOM     90  O   UNL A   1      41.199  21.883  28.215  1.00  0.00    -0.237 OA
ATOM     91  O   UNL A   1      39.629  22.237  26.350  1.00  0.00    -0.237 OA
ATOM     92  O   UNL A   1      41.456  20.591  26.140  1.00  0.00    -0.744 OA
ENDBRANCH  86  89
ENDBRANCH  58  82
BRANCH  70  93
ATOM     93  C   UNL A   1      45.083  30.890  28.274  1.00  0.00     0.023 A 
ATOM     94  C   UNL A   1      44.015  31.667  27.776  1.00  0.00     0.012 A 
ATOM     95  C   UNL A   1      46.397  31.216  27.909  1.00  0.00     0.148 A 
ATOM     96  C   UNL A   1      44.267  32.752  26.927  1.00  0.00     0.002 A 
ATOM     97  C   UNL A   1      46.645  32.325  27.116  1.00  0.00     0.091 A 
ATOM     98  F   UNL A   1      47.391  30.456  28.395  1.00  0.00    -0.205 F 
ATOM     99  C   UNL A   1      45.583  33.092  26.614  1.00  0.00     0.022 A 
BRANCH  97 100
ATOM    100  S   UNL A   1      48.318  32.891  26.808  1.00  0.00     0.127 S 
ATOM    101  O   UNL A   1      48.126  33.814  25.693  1.00  0.00    -0.237 OA
ATOM    102  O   UNL A   1      48.668  33.526  28.079  1.00  0.00    -0.237 OA
ATOM    103  O   UNL A   1      49.099  31.699  26.503  1.00  0.00    -0.744 OA
ENDBRANCH  97 100
ENDBRANCH  70  93
ENDBRANCH  44  45
ENDBRANCH  37  39
ENDBRANCH  36  37
ENDBRANCH  35  36
ENDBRANCH  34  35
ENDBRANCH  33  34
ENDBRANCH   1  33
TORSDOF 22
ENDMDL
