MODEL 1
REMARK VINA RESULT:     -12.9      0.000      0.000
REMARK SMILES O=C(OCCOCCOC(=O)[C@H]1Cc2c([nH]c3ccccc23)[C@@H](c2ccc(OC(F)(F)F)cc2)[NH2+]1)c1ccc(-c2c3nc(c(-c4cccc(S(=O)(=O)[O-])c4F)c4ccc([nH]4)c(-c4cccc(S(=O)(=O)[O-])c4F)c4nc(c(-c5cccc(S(=O)(=O)[O-])c5F)c5ccc2[nH]5)C=C4)C=C3)cc1
REMARK SMILES IDX 6 1 5 2 4 3 3 4 2 5 1 6 36 7 37 8 98 9 38 10 97 11 39 12
REMARK SMILES IDX 40 13 41 14 91 15 42 16 96 17 90 18 92 19 43 20 95 21 89 22
REMARK SMILES IDX 88 23 44 25 76 26 56 27 75 28 57 29 60 30 74 31 93 32 58 33
REMARK SMILES IDX 59 34 73 36 94 37 61 38 45 39 46 40 54 41 47 42 49 43 55 44
REMARK SMILES IDX 48 45 50 46 51 47 52 48 53 49 77 50 78 51 86 52 79 53 81 54
REMARK SMILES IDX 87 55 80 56 82 57 83 58 84 59 85 60 62 61 63 62 71 63 64 64
REMARK SMILES IDX 66 65 72 66 65 67 67 68 68 69 69 70 70 71 7 72 8 73 9 74
REMARK SMILES IDX 10 75 11 76 12 77 13 78 35 79 14 80 23 81 15 84 22 85 16 86
REMARK SMILES IDX 17 87 21 88 18 90 20 91 19 92 24 93 25 94 34 95 26 96 33 97
REMARK SMILES IDX 27 98 28 99 29 100 30 101 31 102 32 103
REMARK H PARENT 92 24 60 35 35 82 35 83 16 89
REMARK Flexibility Score: inf
ROOT
ATOM      1  O   UNL A   1      35.138  22.578  23.586  1.00  0.00    -0.374 OA
ENDROOT
BRANCH   1   2
ATOM      2  C   UNL A   1      35.797  21.791  24.579  1.00  0.00     0.202 C 
BRANCH   2   3
ATOM      3  C   UNL A   1      37.314  21.600  24.440  1.00  0.00     0.261 C 
BRANCH   3   4
ATOM      4  O   UNL A   1      37.894  21.238  25.706  1.00  0.00    -0.460 OA
BRANCH   4   5
ATOM      5  C   UNL A   1      39.174  21.411  26.118  1.00  0.00     0.338 C 
ATOM      6  O   UNL A   1      39.978  20.499  25.943  1.00  0.00    -0.246 OA
BRANCH   5   7
ATOM      7  C   UNL A   1      39.655  22.678  26.740  1.00  0.00     0.060 A 
ATOM      8  C   UNL A   1      39.084  23.927  26.514  1.00  0.00     0.016 A 
ATOM      9  C   UNL A   1      40.731  22.600  27.637  1.00  0.00     0.016 A 
ATOM     10  C   UNL A   1      39.610  25.078  27.047  1.00  0.00     0.010 A 
ATOM     11  C   UNL A   1      41.249  23.758  28.228  1.00  0.00     0.010 A 
ATOM     12  C   UNL A   1      40.703  25.001  27.895  1.00  0.00    -0.014 A 
BRANCH  12  13
ATOM     13  C   UNL A   1      41.314  26.288  28.242  1.00  0.00     0.031 A 
ATOM     14  C   UNL A   1      42.634  26.615  27.621  1.00  0.00     0.074 A 
ATOM     15  C   UNL A   1      40.568  27.203  28.884  1.00  0.00     0.049 A 
ATOM     16  N   UNL A   1      43.330  27.712  27.701  1.00  0.00    -0.248 NA
ATOM     17  C   UNL A   1      43.238  25.577  26.763  1.00  0.00     0.031 C 
ATOM     18  C   UNL A   1      39.196  26.987  29.358  1.00  0.00     0.029 A 
ATOM     19  N   UNL A   1      40.826  28.508  29.192  1.00  0.00    -0.354 N 
ATOM     20  C   UNL A   1      44.485  27.472  26.969  1.00  0.00     0.074 A 
ATOM     21  C   UNL A   1      44.381  26.144  26.415  1.00  0.00     0.031 C 
ATOM     22  C   UNL A   1      38.725  28.133  29.873  1.00  0.00     0.029 A 
ATOM     23  C   UNL A   1      39.783  29.134  29.832  1.00  0.00     0.049 A 
ATOM     24  H   UNL A   1      41.675  28.957  28.977  1.00  0.00     0.167 HD
ATOM     25  C   UNL A   1      45.543  28.294  26.799  1.00  0.00     0.034 A 
ATOM     26  C   UNL A   1      39.716  30.374  30.348  1.00  0.00     0.034 A 
ATOM     27  C   UNL A   1      45.594  29.616  27.355  1.00  0.00     0.049 A 
ATOM     28  C   UNL A   1      40.932  31.246  30.194  1.00  0.00     0.074 A 
ATOM     29  C   UNL A   1      46.627  30.530  27.322  1.00  0.00     0.029 A 
ATOM     30  N   UNL A   1      44.548  30.208  28.052  1.00  0.00    -0.354 N 
ATOM     31  N   UNL A   1      42.041  31.004  29.534  1.00  0.00    -0.248 NA
ATOM     32  C   UNL A   1      40.891  32.560  30.844  1.00  0.00     0.031 C 
ATOM     33  C   UNL A   1      46.213  31.668  28.024  1.00  0.00     0.029 A 
ATOM     34  C   UNL A   1      44.910  31.476  28.463  1.00  0.00     0.049 A 
ATOM     35  H   UNL A   1      43.676  29.786  28.227  1.00  0.00     0.167 HD
ATOM     36  C   UNL A   1      42.822  32.142  29.666  1.00  0.00     0.074 A 
ATOM     37  C   UNL A   1      42.045  33.083  30.452  1.00  0.00     0.031 C 
ATOM     38  C   UNL A   1      44.071  32.389  29.199  1.00  0.00     0.034 A 
BRANCH  25  39
ATOM     39  C   UNL A   1      46.728  27.737  26.061  1.00  0.00     0.023 A 
ATOM     40  C   UNL A   1      46.820  27.852  24.660  1.00  0.00     0.012 A 
ATOM     41  C   UNL A   1      47.730  27.043  26.766  1.00  0.00     0.148 A 
ATOM     42  C   UNL A   1      47.874  27.250  23.969  1.00  0.00     0.002 A 
ATOM     43  C   UNL A   1      48.796  26.480  26.076  1.00  0.00     0.091 A 
ATOM     44  F   UNL A   1      47.601  26.908  28.094  1.00  0.00    -0.205 F 
ATOM     45  C   UNL A   1      48.863  26.571  24.676  1.00  0.00     0.022 A 
BRANCH  43  46
ATOM     46  S   UNL A   1      50.140  25.629  26.907  1.00  0.00     0.127 S 
ATOM     47  O   UNL A   1      51.086  25.426  25.810  1.00  0.00    -0.237 OA
ATOM     48  O   UNL A   1      50.562  26.617  27.900  1.00  0.00    -0.237 OA
ATOM     49  O   UNL A   1      49.561  24.416  27.467  1.00  0.00    -0.744 OA
ENDBRANCH  43  46
ENDBRANCH  25  39
BRANCH  26  50
ATOM     50  C   UNL A   1      38.485  30.841  31.046  1.00  0.00     0.023 A 
ATOM     51  C   UNL A   1      38.368  30.692  32.441  1.00  0.00     0.012 A 
ATOM     52  C   UNL A   1      37.437  31.463  30.336  1.00  0.00     0.148 A 
ATOM     53  C   UNL A   1      37.224  31.131  33.111  1.00  0.00     0.002 A 
ATOM     54  C   UNL A   1      36.326  31.949  31.017  1.00  0.00     0.091 A 
ATOM     55  F   UNL A   1      37.550  31.578  29.006  1.00  0.00    -0.205 F 
ATOM     56  C   UNL A   1      36.209  31.769  32.401  1.00  0.00     0.022 A 
BRANCH  54  57
ATOM     57  S   UNL A   1      35.036  32.894  30.196  1.00  0.00     0.127 S 
ATOM     58  O   UNL A   1      34.128  33.184  31.303  1.00  0.00    -0.237 OA
ATOM     59  O   UNL A   1      35.780  34.050  29.691  1.00  0.00    -0.237 OA
ATOM     60  O   UNL A   1      34.511  32.020  29.157  1.00  0.00    -0.744 OA
ENDBRANCH  54  57
ENDBRANCH  26  50
BRANCH  38  61
ATOM     61  C   UNL A   1      44.648  33.745  29.488  1.00  0.00     0.023 A 
ATOM     62  C   UNL A   1      45.465  33.935  30.619  1.00  0.00     0.012 A 
ATOM     63  C   UNL A   1      44.450  34.803  28.581  1.00  0.00     0.148 A 
ATOM     64  C   UNL A   1      46.054  35.174  30.858  1.00  0.00     0.002 A 
ATOM     65  C   UNL A   1      45.084  36.017  28.798  1.00  0.00     0.091 A 
ATOM     66  F   UNL A   1      43.648  34.600  27.525  1.00  0.00    -0.205 F 
ATOM     67  C   UNL A   1      45.876  36.209  29.942  1.00  0.00     0.022 A 
BRANCH  65  68
ATOM     68  S   UNL A   1      44.996  37.356  27.606  1.00  0.00     0.127 S 
ATOM     69  O   UNL A   1      45.256  38.523  28.449  1.00  0.00    -0.237 OA
ATOM     70  O   UNL A   1      46.078  37.020  26.678  1.00  0.00    -0.237 OA
ATOM     71  O   UNL A   1      43.663  37.283  27.024  1.00  0.00    -0.744 OA
ENDBRANCH  65  68
ENDBRANCH  38  61
ENDBRANCH  12  13
ENDBRANCH   5   7
ENDBRANCH   4   5
ENDBRANCH   3   4
ENDBRANCH   2   3
ENDBRANCH   1   2
BRANCH   1  72
ATOM     72  C   UNL A   1      34.044  23.375  24.060  1.00  0.00     0.202 C 
BRANCH  72  73
ATOM     73  C   UNL A   1      33.205  23.874  22.887  1.00  0.00     0.261 C 
BRANCH  73  74
ATOM     74  O   UNL A   1      33.049  25.295  23.048  1.00  0.00    -0.459 OA
BRANCH  74  75
ATOM     75  C   UNL A   1      33.051  26.026  21.906  1.00  0.00     0.365 C 
ATOM     76  O   UNL A   1      33.288  25.576  20.788  1.00  0.00    -0.245 OA
BRANCH  75  77
ATOM     77  C   UNL A   1      32.717  27.508  22.141  1.00  0.00     0.298 C 
ATOM     78  C   UNL A   1      31.251  27.911  21.818  1.00  0.00     0.115 C 
ATOM     79  N   UNL A   1      33.329  27.967  23.417  1.00  0.00    -0.323 N 
ATOM     80  C   UNL A   1      30.764  28.986  22.699  1.00  0.00    -0.006 A 
ATOM     81  C   UNL A   1      32.428  28.335  24.510  1.00  0.00     0.262 C 
ATOM     82  H   UNL A   1      33.900  28.785  23.204  1.00  0.00     0.347 HD
ATOM     83  H   UNL A   1      33.839  27.156  23.766  1.00  0.00     0.347 HD
ATOM     84  C   UNL A   1      31.336  29.178  23.931  1.00  0.00     0.083 A 
ATOM     85  C   UNL A   1      29.735  29.938  22.521  1.00  0.00     0.003 A 
ATOM     86  N   UNL A   1      30.729  30.262  24.503  1.00  0.00    -0.353 N 
ATOM     87  C   UNL A   1      29.724  30.725  23.675  1.00  0.00     0.046 A 
ATOM     88  C   UNL A   1      28.809  30.208  21.494  1.00  0.00     0.010 A 
ATOM     89  H   UNL A   1      30.972  30.653  25.374  1.00  0.00     0.166 HD
ATOM     90  C   UNL A   1      28.815  31.774  23.851  1.00  0.00     0.026 A 
ATOM     91  C   UNL A   1      27.899  31.256  21.655  1.00  0.00     0.001 A 
ATOM     92  C   UNL A   1      27.902  32.024  22.819  1.00  0.00     0.002 A 
BRANCH  81  93
ATOM     93  C   UNL A   1      31.938  27.165  25.369  1.00  0.00     0.016 A 
ATOM     94  C   UNL A   1      32.836  26.264  25.972  1.00  0.00     0.014 A 
ATOM     95  C   UNL A   1      30.571  26.850  25.449  1.00  0.00     0.014 A 
ATOM     96  C   UNL A   1      32.391  25.080  26.565  1.00  0.00     0.047 A 
ATOM     97  C   UNL A   1      30.123  25.667  26.059  1.00  0.00     0.047 A 
ATOM     98  C   UNL A   1      31.036  24.757  26.588  1.00  0.00     0.129 A 
BRANCH  98  99
ATOM     99  O   UNL A   1      30.759  23.538  27.131  1.00  0.00    -0.406 OA
BRANCH  99 100
ATOM    100  C   UNL A   1      30.601  22.442  26.248  1.00  0.00     0.573 C 
ATOM    101  F   UNL A   1      29.465  21.767  26.516  1.00  0.00    -0.132 F 
ATOM    102  F   UNL A   1      30.601  22.839  24.957  1.00  0.00    -0.132 F 
ATOM    103  F   UNL A   1      31.644  21.598  26.419  1.00  0.00    -0.132 F 
ENDBRANCH  99 100
ENDBRANCH  98  99
ENDBRANCH  81  93
ENDBRANCH  75  77
ENDBRANCH  74  75
ENDBRANCH  73  74
ENDBRANCH  72  73
ENDBRANCH   1  72
TORSDOF 20
ENDMDL
MODEL 2
REMARK VINA RESULT:     -12.4      2.936      7.872
REMARK SMILES O=C(OCCOCCOC(=O)[C@H]1Cc2c([nH]c3ccccc23)[C@@H](c2ccc(OC(F)(F)F)cc2)[NH2+]1)c1ccc(-c2c3nc(c(-c4cccc(S(=O)(=O)[O-])c4F)c4ccc([nH]4)c(-c4cccc(S(=O)(=O)[O-])c4F)c4nc(c(-c5cccc(S(=O)(=O)[O-])c5F)c5ccc2[nH]5)C=C4)C=C3)cc1
REMARK SMILES IDX 6 1 5 2 4 3 3 4 2 5 1 6 36 7 37 8 98 9 38 10 97 11 39 12
REMARK SMILES IDX 40 13 41 14 91 15 42 16 96 17 90 18 92 19 43 20 95 21 89 22
REMARK SMILES IDX 88 23 44 25 76 26 56 27 75 28 57 29 60 30 74 31 93 32 58 33
REMARK SMILES IDX 59 34 73 36 94 37 61 38 45 39 46 40 54 41 47 42 49 43 55 44
REMARK SMILES IDX 48 45 50 46 51 47 52 48 53 49 77 50 78 51 86 52 79 53 81 54
REMARK SMILES IDX 87 55 80 56 82 57 83 58 84 59 85 60 62 61 63 62 71 63 64 64
REMARK SMILES IDX 66 65 72 66 65 67 67 68 68 69 69 70 70 71 7 72 8 73 9 74
REMARK SMILES IDX 10 75 11 76 12 77 13 78 35 79 14 80 23 81 15 84 22 85 16 86
REMARK SMILES IDX 17 87 21 88 18 90 20 91 19 92 24 93 25 94 34 95 26 96 33 97
REMARK SMILES IDX 27 98 28 99 29 100 30 101 31 102 32 103
REMARK H PARENT 92 24 60 35 35 82 35 83 16 89
REMARK Flexibility Score: inf
ROOT
ATOM      1  O   UNL A   1      35.153  22.788  26.005  1.00  0.00    -0.374 OA
ENDROOT
BRANCH   1   2
ATOM      2  C   UNL A   1      35.286  21.706  25.081  1.00  0.00     0.202 C 
BRANCH   2   3
ATOM      3  C   UNL A   1      36.672  21.061  24.942  1.00  0.00     0.261 C 
BRANCH   3   4
ATOM      4  O   UNL A   1      37.486  21.362  26.090  1.00  0.00    -0.460 OA
BRANCH   4   5
ATOM      5  C   UNL A   1      38.826  21.556  26.136  1.00  0.00     0.338 C 
ATOM      6  O   UNL A   1      39.567  20.640  25.787  1.00  0.00    -0.246 OA
BRANCH   5   7
ATOM      7  C   UNL A   1      39.439  22.848  26.556  1.00  0.00     0.060 A 
ATOM      8  C   UNL A   1      38.988  24.099  26.144  1.00  0.00     0.016 A 
ATOM      9  C   UNL A   1      40.519  22.802  27.451  1.00  0.00     0.016 A 
ATOM     10  C   UNL A   1      39.633  25.261  26.493  1.00  0.00     0.010 A 
ATOM     11  C   UNL A   1      41.158  23.979  27.857  1.00  0.00     0.010 A 
ATOM     12  C   UNL A   1      40.729  25.205  27.339  1.00  0.00    -0.014 A 
BRANCH  12  13
ATOM     13  C   UNL A   1      41.469  26.462  27.483  1.00  0.00     0.031 A 
ATOM     14  C   UNL A   1      40.915  27.487  28.421  1.00  0.00     0.074 A 
ATOM     15  C   UNL A   1      42.712  26.540  26.978  1.00  0.00     0.049 A 
ATOM     16  N   UNL A   1      41.422  28.630  28.781  1.00  0.00    -0.248 NA
ATOM     17  C   UNL A   1      39.628  27.166  29.068  1.00  0.00     0.031 C 
ATOM     18  C   UNL A   1      43.370  25.484  26.199  1.00  0.00     0.029 A 
ATOM     19  N   UNL A   1      43.664  27.512  27.093  1.00  0.00    -0.354 N 
ATOM     20  C   UNL A   1      40.486  29.198  29.636  1.00  0.00     0.074 A 
ATOM     21  C   UNL A   1      39.400  28.258  29.777  1.00  0.00     0.031 C 
ATOM     22  C   UNL A   1      44.630  25.859  25.930  1.00  0.00     0.029 A 
ATOM     23  C   UNL A   1      44.840  27.203  26.452  1.00  0.00     0.049 A 
ATOM     24  H   UNL A   1      43.522  28.352  27.585  1.00  0.00     0.167 HD
ATOM     25  C   UNL A   1      40.535  30.410  30.229  1.00  0.00     0.034 A 
ATOM     26  C   UNL A   1      45.946  27.949  26.288  1.00  0.00     0.034 A 
ATOM     27  C   UNL A   1      41.646  31.304  30.074  1.00  0.00     0.049 A 
ATOM     28  C   UNL A   1      45.949  29.317  26.912  1.00  0.00     0.074 A 
ATOM     29  C   UNL A   1      41.800  32.586  30.559  1.00  0.00     0.029 A 
ATOM     30  N   UNL A   1      42.803  30.993  29.370  1.00  0.00    -0.354 N 
ATOM     31  N   UNL A   1      45.045  29.869  27.688  1.00  0.00    -0.248 NA
ATOM     32  C   UNL A   1      47.116  30.164  26.647  1.00  0.00     0.031 C 
ATOM     33  C   UNL A   1      43.042  33.062  30.123  1.00  0.00     0.029 A 
ATOM     34  C   UNL A   1      43.676  32.062  29.398  1.00  0.00     0.049 A 
ATOM     35  H   UNL A   1      42.975  30.136  28.916  1.00  0.00     0.167 HD
ATOM     36  C   UNL A   1      45.543  31.118  28.029  1.00  0.00     0.074 A 
ATOM     37  C   UNL A   1      46.842  31.229  27.389  1.00  0.00     0.031 C 
ATOM     38  C   UNL A   1      44.982  32.094  28.784  1.00  0.00     0.034 A 
BRANCH  25  39
ATOM     39  C   UNL A   1      39.324  30.836  31.010  1.00  0.00     0.023 A 
ATOM     40  C   UNL A   1      38.128  31.180  30.349  1.00  0.00     0.012 A 
ATOM     41  C   UNL A   1      39.397  30.947  32.412  1.00  0.00     0.148 A 
ATOM     42  C   UNL A   1      37.036  31.666  31.071  1.00  0.00     0.002 A 
ATOM     43  C   UNL A   1      38.293  31.394  33.127  1.00  0.00     0.091 A 
ATOM     44  F   UNL A   1      40.557  30.655  33.017  1.00  0.00    -0.205 F 
ATOM     45  C   UNL A   1      37.117  31.767  32.458  1.00  0.00     0.022 A 
BRANCH  43  46
ATOM     46  S   UNL A   1      38.289  31.511  34.919  1.00  0.00     0.127 S 
ATOM     47  O   UNL A   1      38.443  30.110  35.308  1.00  0.00    -0.237 OA
ATOM     48  O   UNL A   1      39.462  32.347  35.174  1.00  0.00    -0.237 OA
ATOM     49  O   UNL A   1      37.018  32.124  35.278  1.00  0.00    -0.744 OA
ENDBRANCH  43  46
ENDBRANCH  25  39
BRANCH  26  50
ATOM     50  C   UNL A   1      47.107  27.427  25.511  1.00  0.00     0.023 A 
ATOM     51  C   UNL A   1      47.981  26.492  26.097  1.00  0.00     0.012 A 
ATOM     52  C   UNL A   1      47.332  27.830  24.178  1.00  0.00     0.148 A 
ATOM     53  C   UNL A   1      49.069  25.989  25.380  1.00  0.00     0.002 A 
ATOM     54  C   UNL A   1      48.383  27.282  23.452  1.00  0.00     0.091 A 
ATOM     55  F   UNL A   1      46.506  28.738  23.641  1.00  0.00    -0.205 F 
ATOM     56  C   UNL A   1      49.263  26.374  24.055  1.00  0.00     0.022 A 
BRANCH  54  57
ATOM     57  S   UNL A   1      48.625  27.629  21.705  1.00  0.00     0.127 S 
ATOM     58  O   UNL A   1      47.251  27.814  21.244  1.00  0.00    -0.237 OA
ATOM     59  O   UNL A   1      49.431  28.850  21.746  1.00  0.00    -0.237 OA
ATOM     60  O   UNL A   1      49.323  26.469  21.169  1.00  0.00    -0.744 OA
ENDBRANCH  54  57
ENDBRANCH  26  50
BRANCH  38  61
ATOM     61  C   UNL A   1      45.791  33.341  28.995  1.00  0.00     0.023 A 
ATOM     62  C   UNL A   1      46.718  33.407  30.053  1.00  0.00     0.012 A 
ATOM     63  C   UNL A   1      45.692  34.408  28.083  1.00  0.00     0.148 A 
ATOM     64  C   UNL A   1      47.517  34.536  30.216  1.00  0.00     0.002 A 
ATOM     65  C   UNL A   1      46.529  35.505  28.221  1.00  0.00     0.091 A 
ATOM     66  F   UNL A   1      44.784  34.328  27.098  1.00  0.00    -0.205 F 
ATOM     67  C   UNL A   1      47.433  35.577  29.292  1.00  0.00     0.022 A 
BRANCH  65  68
ATOM     68  S   UNL A   1      46.561  36.829  27.008  1.00  0.00     0.127 S 
ATOM     69  O   UNL A   1      47.399  37.824  27.676  1.00  0.00    -0.237 OA
ATOM     70  O   UNL A   1      47.184  36.180  25.853  1.00  0.00    -0.237 OA
ATOM     71  O   UNL A   1      45.171  37.212  26.802  1.00  0.00    -0.744 OA
ENDBRANCH  65  68
ENDBRANCH  38  61
ENDBRANCH  12  13
ENDBRANCH   5   7
ENDBRANCH   4   5
ENDBRANCH   3   4
ENDBRANCH   2   3
ENDBRANCH   1   2
BRANCH   1  72
ATOM     72  C   UNL A   1      34.225  22.569  27.077  1.00  0.00     0.202 C 
BRANCH  72  73
ATOM     73  C   UNL A   1      32.893  23.248  26.772  1.00  0.00     0.261 C 
BRANCH  73  74
ATOM     74  O   UNL A   1      33.185  24.450  26.039  1.00  0.00    -0.459 OA
BRANCH  74  75
ATOM     75  C   UNL A   1      32.281  25.454  26.161  1.00  0.00     0.365 C 
ATOM     76  O   UNL A   1      31.779  25.818  27.220  1.00  0.00    -0.245 OA
BRANCH  75  77
ATOM     77  C   UNL A   1      31.936  26.118  24.818  1.00  0.00     0.298 C 
ATOM     78  C   UNL A   1      30.526  26.769  24.749  1.00  0.00     0.115 C 
ATOM     79  N   UNL A   1      33.111  26.881  24.315  1.00  0.00    -0.323 N 
ATOM     80  C   UNL A   1      30.507  27.958  23.880  1.00  0.00    -0.006 A 
ATOM     81  C   UNL A   1      32.995  28.338  24.244  1.00  0.00     0.262 C 
ATOM     82  H   UNL A   1      33.313  26.545  23.374  1.00  0.00     0.347 HD
ATOM     83  H   UNL A   1      33.842  26.714  25.006  1.00  0.00     0.347 HD
ATOM     84  C   UNL A   1      31.662  28.657  23.643  1.00  0.00     0.083 A 
ATOM     85  C   UNL A   1      29.446  28.584  23.186  1.00  0.00     0.003 A 
ATOM     86  N   UNL A   1      31.363  29.669  22.774  1.00  0.00    -0.353 N 
ATOM     87  C   UNL A   1      30.007  29.666  22.504  1.00  0.00     0.046 A 
ATOM     88  C   UNL A   1      28.064  28.339  23.071  1.00  0.00     0.010 A 
ATOM     89  H   UNL A   1      32.015  30.304  22.397  1.00  0.00     0.166 HD
ATOM     90  C   UNL A   1      29.238  30.525  21.712  1.00  0.00     0.026 A 
ATOM     91  C   UNL A   1      27.285  29.187  22.279  1.00  0.00     0.001 A 
ATOM     92  C   UNL A   1      27.866  30.264  21.613  1.00  0.00     0.002 A 
BRANCH  81  93
ATOM     93  C   UNL A   1      33.295  29.077  25.553  1.00  0.00     0.016 A 
ATOM     94  C   UNL A   1      32.407  30.032  26.082  1.00  0.00     0.014 A 
ATOM     95  C   UNL A   1      34.544  28.950  26.184  1.00  0.00     0.014 A 
ATOM     96  C   UNL A   1      32.777  30.859  27.145  1.00  0.00     0.047 A 
ATOM     97  C   UNL A   1      34.910  29.772  27.263  1.00  0.00     0.047 A 
ATOM     98  C   UNL A   1      34.039  30.757  27.725  1.00  0.00     0.129 A 
BRANCH  98  99
ATOM     99  O   UNL A   1      34.285  31.677  28.700  1.00  0.00    -0.406 OA
BRANCH  99 100
ATOM    100  C   UNL A   1      34.820  32.929  28.308  1.00  0.00     0.573 C 
ATOM    101  F   UNL A   1      35.916  32.765  27.540  1.00  0.00    -0.132 F 
ATOM    102  F   UNL A   1      33.908  33.675  27.647  1.00  0.00    -0.132 F 
ATOM    103  F   UNL A   1      35.181  33.610  29.420  1.00  0.00    -0.132 F 
ENDBRANCH  99 100
ENDBRANCH  98  99
ENDBRANCH  81  93
ENDBRANCH  75  77
ENDBRANCH  74  75
ENDBRANCH  73  74
ENDBRANCH  72  73
ENDBRANCH   1  72
TORSDOF 20
ENDMDL
MODEL 3
REMARK VINA RESULT:     -12.2      2.524      3.564
REMARK SMILES O=C(OCCOCCOC(=O)[C@H]1Cc2c([nH]c3ccccc23)[C@@H](c2ccc(OC(F)(F)F)cc2)[NH2+]1)c1ccc(-c2c3nc(c(-c4cccc(S(=O)(=O)[O-])c4F)c4ccc([nH]4)c(-c4cccc(S(=O)(=O)[O-])c4F)c4nc(c(-c5cccc(S(=O)(=O)[O-])c5F)c5ccc2[nH]5)C=C4)C=C3)cc1
REMARK SMILES IDX 6 1 5 2 4 3 3 4 2 5 1 6 36 7 37 8 98 9 38 10 97 11 39 12
REMARK SMILES IDX 40 13 41 14 91 15 42 16 96 17 90 18 92 19 43 20 95 21 89 22
REMARK SMILES IDX 88 23 44 25 76 26 56 27 75 28 57 29 60 30 74 31 93 32 58 33
REMARK SMILES IDX 59 34 73 36 94 37 61 38 45 39 46 40 54 41 47 42 49 43 55 44
REMARK SMILES IDX 48 45 50 46 51 47 52 48 53 49 77 50 78 51 86 52 79 53 81 54
REMARK SMILES IDX 87 55 80 56 82 57 83 58 84 59 85 60 62 61 63 62 71 63 64 64
REMARK SMILES IDX 66 65 72 66 65 67 67 68 68 69 69 70 70 71 7 72 8 73 9 74
REMARK SMILES IDX 10 75 11 76 12 77 13 78 35 79 14 80 23 81 15 84 22 85 16 86
REMARK SMILES IDX 17 87 21 88 18 90 20 91 19 92 24 93 25 94 34 95 26 96 33 97
REMARK SMILES IDX 27 98 28 99 29 100 30 101 31 102 32 103
REMARK H PARENT 92 24 60 35 35 82 35 83 16 89
REMARK Flexibility Score: inf
ROOT
ATOM      1  O   UNL A   1      34.716  22.814  26.777  1.00  0.00    -0.374 OA
ENDROOT
BRANCH   1   2
ATOM      2  C   UNL A   1      35.616  22.566  25.696  1.00  0.00     0.202 C 
BRANCH   2   3
ATOM      3  C   UNL A   1      36.291  21.189  25.638  1.00  0.00     0.261 C 
BRANCH   3   4
ATOM      4  O   UNL A   1      37.630  21.305  25.125  1.00  0.00    -0.460 OA
BRANCH   4   5
ATOM      5  C   UNL A   1      38.794  21.316  25.820  1.00  0.00     0.338 C 
ATOM      6  O   UNL A   1      39.444  20.277  25.898  1.00  0.00    -0.246 OA
BRANCH   5   7
ATOM      7  C   UNL A   1      39.336  22.547  26.462  1.00  0.00     0.060 A 
ATOM      8  C   UNL A   1      38.846  23.830  26.236  1.00  0.00     0.016 A 
ATOM      9  C   UNL A   1      40.387  22.399  27.380  1.00  0.00     0.016 A 
ATOM     10  C   UNL A   1      39.429  24.944  26.789  1.00  0.00     0.010 A 
ATOM     11  C   UNL A   1      40.961  23.519  27.991  1.00  0.00     0.010 A 
ATOM     12  C   UNL A   1      40.498  24.795  27.658  1.00  0.00    -0.014 A 
BRANCH  12  13
ATOM     13  C   UNL A   1      41.178  26.040  28.027  1.00  0.00     0.031 A 
ATOM     14  C   UNL A   1      42.518  26.303  27.419  1.00  0.00     0.074 A 
ATOM     15  C   UNL A   1      40.480  26.986  28.679  1.00  0.00     0.049 A 
ATOM     16  N   UNL A   1      43.273  27.358  27.520  1.00  0.00    -0.248 NA
ATOM     17  C   UNL A   1      43.068  25.246  26.549  1.00  0.00     0.031 C 
ATOM     18  C   UNL A   1      39.095  26.840  29.143  1.00  0.00     0.029 A 
ATOM     19  N   UNL A   1      40.808  28.270  29.009  1.00  0.00    -0.354 N 
ATOM     20  C   UNL A   1      44.418  27.065  26.791  1.00  0.00     0.074 A 
ATOM     21  C   UNL A   1      44.243  25.753  26.215  1.00  0.00     0.031 C 
ATOM     22  C   UNL A   1      38.685  28.002  29.673  1.00  0.00     0.029 A 
ATOM     23  C   UNL A   1      39.797  28.944  29.652  1.00  0.00     0.049 A 
ATOM     24  H   UNL A   1      41.682  28.673  28.806  1.00  0.00     0.167 HD
ATOM     25  C   UNL A   1      45.521  27.829  26.639  1.00  0.00     0.034 A 
ATOM     26  C   UNL A   1      39.797  30.177  30.187  1.00  0.00     0.034 A 
ATOM     27  C   UNL A   1      45.642  29.137  27.215  1.00  0.00     0.049 A 
ATOM     28  C   UNL A   1      41.060  30.982  30.053  1.00  0.00     0.074 A 
ATOM     29  C   UNL A   1      46.725  29.993  27.202  1.00  0.00     0.029 A 
ATOM     30  N   UNL A   1      44.626  29.777  27.915  1.00  0.00    -0.354 N 
ATOM     31  N   UNL A   1      42.158  30.688  29.396  1.00  0.00    -0.248 NA
ATOM     32  C   UNL A   1      41.088  32.287  30.723  1.00  0.00     0.031 C 
ATOM     33  C   UNL A   1      46.370  31.141  27.919  1.00  0.00     0.029 A 
ATOM     34  C   UNL A   1      45.056  31.015  28.348  1.00  0.00     0.049 A 
ATOM     35  H   UNL A   1      43.731  29.401  28.079  1.00  0.00     0.167 HD
ATOM     36  C   UNL A   1      43.001  31.779  29.549  1.00  0.00     0.074 A 
ATOM     37  C   UNL A   1      42.272  32.751  30.345  1.00  0.00     0.031 C 
ATOM     38  C   UNL A   1      44.264  31.963  29.094  1.00  0.00     0.034 A 
BRANCH  25  39
ATOM     39  C   UNL A   1      46.677  27.217  25.899  1.00  0.00     0.023 A 
ATOM     40  C   UNL A   1      47.520  26.281  26.530  1.00  0.00     0.012 A 
ATOM     41  C   UNL A   1      46.959  27.624  24.580  1.00  0.00     0.148 A 
ATOM     42  C   UNL A   1      48.648  25.788  25.871  1.00  0.00     0.002 A 
ATOM     43  C   UNL A   1      48.060  27.099  23.917  1.00  0.00     0.091 A 
ATOM     44  F   UNL A   1      46.169  28.547  24.013  1.00  0.00    -0.205 F 
ATOM     45  C   UNL A   1      48.914  26.192  24.565  1.00  0.00     0.022 A 
BRANCH  43  46
ATOM     46  S   UNL A   1      48.454  27.523  22.217  1.00  0.00     0.127 S 
ATOM     47  O   UNL A   1      48.721  26.208  21.637  1.00  0.00    -0.237 OA
ATOM     48  O   UNL A   1      47.212  28.150  21.763  1.00  0.00    -0.237 OA
ATOM     49  O   UNL A   1      49.597  28.422  22.283  1.00  0.00    -0.744 OA
ENDBRANCH  43  46
ENDBRANCH  25  39
BRANCH  26  50
ATOM     50  C   UNL A   1      38.589  30.702  30.886  1.00  0.00     0.023 A 
ATOM     51  C   UNL A   1      38.472  30.571  32.282  1.00  0.00     0.012 A 
ATOM     52  C   UNL A   1      37.564  31.360  30.174  1.00  0.00     0.148 A 
ATOM     53  C   UNL A   1      37.350  31.064  32.952  1.00  0.00     0.002 A 
ATOM     54  C   UNL A   1      36.478  31.899  30.854  1.00  0.00     0.091 A 
ATOM     55  F   UNL A   1      37.676  31.457  28.842  1.00  0.00    -0.205 F 
ATOM     56  C   UNL A   1      36.359  31.736  32.241  1.00  0.00     0.022 A 
BRANCH  54  57
ATOM     57  S   UNL A   1      35.225  32.889  30.030  1.00  0.00     0.127 S 
ATOM     58  O   UNL A   1      34.665  31.931  29.078  1.00  0.00    -0.237 OA
ATOM     59  O   UNL A   1      34.338  33.244  31.140  1.00  0.00    -0.237 OA
ATOM     60  O   UNL A   1      35.937  34.018  29.449  1.00  0.00    -0.744 OA
ENDBRANCH  54  57
ENDBRANCH  26  50
BRANCH  38  61
ATOM     61  C   UNL A   1      44.914  33.280  29.406  1.00  0.00     0.023 A 
ATOM     62  C   UNL A   1      45.736  33.407  30.543  1.00  0.00     0.012 A 
ATOM     63  C   UNL A   1      44.777  34.362  28.517  1.00  0.00     0.148 A 
ATOM     64  C   UNL A   1      46.391  34.607  30.804  1.00  0.00     0.002 A 
ATOM     65  C   UNL A   1      45.477  35.536  28.755  1.00  0.00     0.091 A 
ATOM     66  F   UNL A   1      43.970  34.221  27.455  1.00  0.00    -0.205 F 
ATOM     67  C   UNL A   1      46.274  35.665  29.904  1.00  0.00     0.022 A 
BRANCH  65  68
ATOM     68  S   UNL A   1      45.467  36.897  27.585  1.00  0.00     0.127 S 
ATOM     69  O   UNL A   1      46.226  36.335  26.468  1.00  0.00    -0.237 OA
ATOM     70  O   UNL A   1      44.037  37.075  27.325  1.00  0.00    -0.237 OA
ATOM     71  O   UNL A   1      46.094  38.017  28.273  1.00  0.00    -0.744 OA
ENDBRANCH  65  68
ENDBRANCH  38  61
ENDBRANCH  12  13
ENDBRANCH   5   7
ENDBRANCH   4   5
ENDBRANCH   3   4
ENDBRANCH   2   3
ENDBRANCH   1   2
BRANCH   1  72
ATOM     72  C   UNL A   1      34.298  21.651  27.507  1.00  0.00     0.202 C 
BRANCH  72  73
ATOM     73  C   UNL A   1      32.939  21.894  28.157  1.00  0.00     0.261 C 
BRANCH  73  74
ATOM     74  O   UNL A   1      32.517  23.216  27.782  1.00  0.00    -0.459 OA
BRANCH  74  75
ATOM     75  C   UNL A   1      31.235  23.332  27.355  1.00  0.00     0.365 C 
ATOM     76  O   UNL A   1      30.298  22.653  27.764  1.00  0.00    -0.245 OA
BRANCH  75  77
ATOM     77  C   UNL A   1      31.054  24.422  26.286  1.00  0.00     0.298 C 
ATOM     78  C   UNL A   1      32.342  25.216  25.931  1.00  0.00     0.115 C 
ATOM     79  N   UNL A   1      30.193  23.911  25.186  1.00  0.00    -0.323 N 
ATOM     80  C   UNL A   1      32.363  25.636  24.519  1.00  0.00    -0.006 A 
ATOM     81  C   UNL A   1      30.805  23.733  23.868  1.00  0.00     0.262 C 
ATOM     82  H   UNL A   1      29.418  24.565  25.075  1.00  0.00     0.347 HD
ATOM     83  H   UNL A   1      29.932  22.969  25.478  1.00  0.00     0.347 HD
ATOM     84  C   UNL A   1      31.630  24.950  23.586  1.00  0.00     0.083 A 
ATOM     85  C   UNL A   1      33.050  26.689  23.874  1.00  0.00     0.003 A 
ATOM     86  N   UNL A   1      31.794  25.582  22.384  1.00  0.00    -0.353 N 
ATOM     87  C   UNL A   1      32.684  26.630  22.527  1.00  0.00     0.046 A 
ATOM     88  C   UNL A   1      33.947  27.687  24.301  1.00  0.00     0.010 A 
ATOM     89  H   UNL A   1      31.346  25.328  21.544  1.00  0.00     0.166 HD
ATOM     90  C   UNL A   1      33.188  27.528  21.580  1.00  0.00     0.026 A 
ATOM     91  C   UNL A   1      34.454  28.594  23.365  1.00  0.00     0.001 A 
ATOM     92  C   UNL A   1      34.080  28.510  22.025  1.00  0.00     0.002 A 
BRANCH  81  93
ATOM     93  C   UNL A   1      31.545  22.405  23.671  1.00  0.00     0.016 A 
ATOM     94  C   UNL A   1      31.706  21.832  22.396  1.00  0.00     0.014 A 
ATOM     95  C   UNL A   1      31.944  21.630  24.774  1.00  0.00     0.014 A 
ATOM     96  C   UNL A   1      32.180  20.527  22.240  1.00  0.00     0.047 A 
ATOM     97  C   UNL A   1      32.435  20.324  24.615  1.00  0.00     0.047 A 
ATOM     98  C   UNL A   1      32.520  19.752  23.347  1.00  0.00     0.129 A 
BRANCH  98  99
ATOM     99  O   UNL A   1      32.894  18.477  23.045  1.00  0.00    -0.406 OA
BRANCH  99 100
ATOM    100  C   UNL A   1      33.716  17.792  23.974  1.00  0.00     0.573 C 
ATOM    101  F   UNL A   1      34.133  16.613  23.472  1.00  0.00    -0.132 F 
ATOM    102  F   UNL A   1      34.784  18.536  24.336  1.00  0.00    -0.132 F 
ATOM    103  F   UNL A   1      32.990  17.544  25.089  1.00  0.00    -0.132 F 
ENDBRANCH  99 100
ENDBRANCH  98  99
ENDBRANCH  81  93
ENDBRANCH  75  77
ENDBRANCH  74  75
ENDBRANCH  73  74
ENDBRANCH  72  73
ENDBRANCH   1  72
TORSDOF 20
ENDMDL
