MODEL 1
REMARK VINA RESULT:     -10.9      0.000      0.000
REMARK SMILES CC(C)[C@H](NC(=O)Cn1ccc2c(Br)cccc21)C(=O)OCCOCCOC(=O)c1ccc(-c2c3nc(c(-c4cccc(S(=O)(=O)[O-])c4F)c4ccc([nH]4)c(-c4cccc(S(=O)(=O)[O-])c4F)c4nc(c(-c5cccc(S(=O)(=O)[O-])c5F)c5ccc2[nH]5)C=C4)C=C3)cc1
REMARK SMILES IDX 24 1 23 2 22 3 21 4 19 5 20 6 4 7 2 8 1 9 3 10 5 11 6 12
REMARK SMILES IDX 7 14 8 15 9 16 10 17 18 18 11 19 12 20 17 21 13 22 16 23
REMARK SMILES IDX 14 24 15 25 25 26 26 27 27 28 28 29 29 30 30 31 31 32 92 33
REMARK SMILES IDX 32 34 91 35 33 36 34 37 35 38 85 39 36 40 90 41 84 42 86 43
REMARK SMILES IDX 37 44 89 45 83 46 82 47 38 49 70 50 50 51 69 52 51 53 54 54
REMARK SMILES IDX 68 55 87 56 52 57 53 58 67 60 88 61 55 62 39 63 40 64 48 65
REMARK SMILES IDX 41 66 43 67 49 68 42 69 44 70 45 71 46 72 47 73 71 74 72 75
REMARK SMILES IDX 80 76 73 77 75 78 81 79 74 80 76 81 77 82 78 83 79 84 56 85
REMARK SMILES IDX 57 86 65 87 58 88 60 89 66 90 59 91 61 92 62 93 63 94 64 95
REMARK H PARENT 5 13 86 48 54 59
REMARK Flexibility Score: inf
ROOT
ATOM      1  O   UNL A   1      36.356  22.065  24.567  1.00  0.00    -0.374 OA
ENDROOT
BRANCH   1   2
ATOM      2  C   UNL A   1      35.705  20.875  25.016  1.00  0.00     0.202 C 
BRANCH   2   3
ATOM      3  C   UNL A   1      34.183  20.853  25.001  1.00  0.00     0.261 C 
BRANCH   3   4
ATOM      4  O   UNL A   1      33.628  22.173  25.110  1.00  0.00    -0.462 OA
BRANCH   4   5
ATOM      5  C   UNL A   1      32.917  22.578  24.027  1.00  0.00     0.328 C 
ATOM      6  O   UNL A   1      32.608  21.858  23.082  1.00  0.00    -0.250 OA
BRANCH   5   7
ATOM      7  C   UNL A   1      32.604  24.083  24.045  1.00  0.00     0.194 C 
BRANCH   7   8
ATOM      8  C   UNL A   1      31.440  24.377  25.013  1.00  0.00     0.017 C 
ATOM      9  C   UNL A   1      31.818  25.125  26.301  1.00  0.00     0.010 C 
ATOM     10  C   UNL A   1      30.314  25.107  24.285  1.00  0.00     0.010 C 
ENDBRANCH   7   8
BRANCH   7  11
ATOM     11  N   UNL A   1      32.595  24.719  22.703  1.00  0.00    -0.341 N 
ATOM     12  C   UNL A   1      33.174  25.769  22.067  1.00  0.00     0.240 C 
ATOM     13  H   UNL A   1      31.990  24.236  22.096  1.00  0.00     0.164 HD
ATOM     14  O   UNL A   1      33.162  25.711  20.831  1.00  0.00    -0.273 OA
BRANCH  12  15
ATOM     15  C   UNL A   1      33.801  26.969  22.742  1.00  0.00     0.222 C 
BRANCH  15  16
ATOM     16  N   UNL A   1      32.878  27.772  23.543  1.00  0.00    -0.338 N 
ATOM     17  C   UNL A   1      31.701  28.282  23.043  1.00  0.00     0.087 A 
ATOM     18  C   UNL A   1      33.108  28.283  24.806  1.00  0.00     0.050 A 
ATOM     19  C   UNL A   1      31.293  29.289  23.886  1.00  0.00     0.029 A 
ATOM     20  C   UNL A   1      32.192  29.326  24.991  1.00  0.00     0.014 A 
ATOM     21  C   UNL A   1      34.078  27.969  25.773  1.00  0.00     0.027 A 
ATOM     22  C   UNL A   1      32.328  30.139  26.137  1.00  0.00     0.027 A 
ATOM     23  C   UNL A   1      34.171  28.777  26.907  1.00  0.00     0.003 A 
ATOM     24  Br  UNL A   1      31.200  31.639  26.399  1.00  0.00    -0.050 Br
ATOM     25  C   UNL A   1      33.323  29.864  27.081  1.00  0.00     0.016 A 
ENDBRANCH  15  16
ENDBRANCH  12  15
ENDBRANCH   7  11
ENDBRANCH   5   7
ENDBRANCH   4   5
ENDBRANCH   3   4
ENDBRANCH   2   3
ENDBRANCH   1   2
BRANCH   1  26
ATOM     26  C   UNL A   1      37.296  22.732  25.405  1.00  0.00     0.202 C 
BRANCH  26  27
ATOM     27  C   UNL A   1      38.345  21.904  26.130  1.00  0.00     0.261 C 
BRANCH  27  28
ATOM     28  O   UNL A   1      39.315  21.411  25.225  1.00  0.00    -0.460 OA
BRANCH  28  29
ATOM     29  C   UNL A   1      40.072  20.426  25.760  1.00  0.00     0.338 C 
ATOM     30  O   UNL A   1      39.833  19.234  25.774  1.00  0.00    -0.246 OA
BRANCH  29  31
ATOM     31  C   UNL A   1      41.215  21.033  26.440  1.00  0.00     0.060 A 
ATOM     32  C   UNL A   1      41.174  20.950  27.833  1.00  0.00     0.016 A 
ATOM     33  C   UNL A   1      41.946  22.010  25.750  1.00  0.00     0.016 A 
ATOM     34  C   UNL A   1      41.581  22.053  28.534  1.00  0.00     0.010 A 
ATOM     35  C   UNL A   1      42.329  23.119  26.450  1.00  0.00     0.010 A 
ATOM     36  C   UNL A   1      42.031  23.159  27.807  1.00  0.00    -0.014 A 
BRANCH  36  37
ATOM     37  C   UNL A   1      42.242  24.380  28.532  1.00  0.00     0.031 A 
ATOM     38  C   UNL A   1      41.153  25.341  28.283  1.00  0.00     0.074 A 
ATOM     39  C   UNL A   1      43.292  24.544  29.355  1.00  0.00     0.049 A 
ATOM     40  N   UNL A   1      41.194  26.374  27.510  1.00  0.00    -0.248 NA
ATOM     41  C   UNL A   1      39.801  24.972  28.735  1.00  0.00     0.031 C 
ATOM     42  C   UNL A   1      44.226  23.539  29.869  1.00  0.00     0.029 A 
ATOM     43  N   UNL A   1      43.658  25.661  30.025  1.00  0.00    -0.354 N 
ATOM     44  C   UNL A   1      39.928  26.930  27.607  1.00  0.00     0.074 A 
ATOM     45  C   UNL A   1      39.065  25.912  28.144  1.00  0.00     0.031 C 
ATOM     46  C   UNL A   1      44.841  24.038  30.969  1.00  0.00     0.029 A 
ATOM     47  C   UNL A   1      44.432  25.421  31.154  1.00  0.00     0.049 A 
ATOM     48  H   UNL A   1      43.398  26.567  29.738  1.00  0.00     0.167 HD
ATOM     49  C   UNL A   1      39.748  28.275  27.551  1.00  0.00     0.034 A 
ATOM     50  C   UNL A   1      44.576  26.280  32.198  1.00  0.00     0.034 A 
ATOM     51  C   UNL A   1      40.902  28.955  27.031  1.00  0.00     0.049 A 
ATOM     52  C   UNL A   1      44.191  27.628  31.690  1.00  0.00     0.074 A 
ATOM     53  C   UNL A   1      41.625  28.869  25.858  1.00  0.00     0.029 A 
ATOM     54  N   UNL A   1      41.733  29.555  27.949  1.00  0.00    -0.354 N 
ATOM     55  N   UNL A   1      44.851  28.264  30.760  1.00  0.00    -0.248 NA
ATOM     56  C   UNL A   1      42.805  28.041  31.870  1.00  0.00     0.031 C 
ATOM     57  C   UNL A   1      42.988  28.965  26.262  1.00  0.00     0.029 A 
ATOM     58  C   UNL A   1      43.015  29.183  27.641  1.00  0.00     0.049 A 
ATOM     59  H   UNL A   1      41.457  30.143  28.690  1.00  0.00     0.167 HD
ATOM     60  C   UNL A   1      43.864  28.822  29.955  1.00  0.00     0.074 A 
ATOM     61  C   UNL A   1      42.628  28.716  30.731  1.00  0.00     0.031 C 
ATOM     62  C   UNL A   1      44.065  29.030  28.622  1.00  0.00     0.034 A 
BRANCH  49  63
ATOM     63  C   UNL A   1      38.685  28.982  28.336  1.00  0.00     0.023 A 
ATOM     64  C   UNL A   1      37.819  29.848  27.647  1.00  0.00     0.012 A 
ATOM     65  C   UNL A   1      38.658  29.017  29.751  1.00  0.00     0.148 A 
ATOM     66  C   UNL A   1      36.956  30.704  28.338  1.00  0.00     0.002 A 
ATOM     67  C   UNL A   1      37.740  29.800  30.430  1.00  0.00     0.091 A 
ATOM     68  F   UNL A   1      39.618  28.402  30.450  1.00  0.00    -0.205 F 
ATOM     69  C   UNL A   1      36.900  30.666  29.728  1.00  0.00     0.022 A 
BRANCH  67  70
ATOM     70  S   UNL A   1      37.607  29.744  32.219  1.00  0.00     0.127 S 
ATOM     71  O   UNL A   1      38.900  30.286  32.625  1.00  0.00    -0.237 OA
ATOM     72  O   UNL A   1      36.460  30.620  32.461  1.00  0.00    -0.237 OA
ATOM     73  O   UNL A   1      37.365  28.344  32.544  1.00  0.00    -0.744 OA
ENDBRANCH  67  70
ENDBRANCH  49  63
BRANCH  50  74
ATOM     74  C   UNL A   1      44.623  25.985  33.660  1.00  0.00     0.023 A 
ATOM     75  C   UNL A   1      45.874  25.998  34.319  1.00  0.00     0.012 A 
ATOM     76  C   UNL A   1      43.463  25.986  34.467  1.00  0.00     0.148 A 
ATOM     77  C   UNL A   1      45.963  26.073  35.716  1.00  0.00     0.002 A 
ATOM     78  C   UNL A   1      43.556  26.045  35.856  1.00  0.00     0.091 A 
ATOM     79  F   UNL A   1      42.260  26.029  33.883  1.00  0.00    -0.205 F 
ATOM     80  C   UNL A   1      44.805  26.108  36.485  1.00  0.00     0.022 A 
BRANCH  78  81
ATOM     81  S   UNL A   1      42.094  26.091  36.905  1.00  0.00     0.127 S 
ATOM     82  O   UNL A   1      42.674  26.285  38.234  1.00  0.00    -0.237 OA
ATOM     83  O   UNL A   1      41.375  27.246  36.376  1.00  0.00    -0.237 OA
ATOM     84  O   UNL A   1      41.439  24.799  36.726  1.00  0.00    -0.744 OA
ENDBRANCH  78  81
ENDBRANCH  50  74
BRANCH  62  85
ATOM     85  C   UNL A   1      45.455  28.868  28.066  1.00  0.00     0.023 A 
ATOM     86  C   UNL A   1      46.442  29.871  28.174  1.00  0.00     0.012 A 
ATOM     87  C   UNL A   1      45.828  27.582  27.645  1.00  0.00     0.148 A 
ATOM     88  C   UNL A   1      47.777  29.587  27.869  1.00  0.00     0.002 A 
ATOM     89  C   UNL A   1      47.159  27.296  27.382  1.00  0.00     0.091 A 
ATOM     90  F   UNL A   1      44.871  26.646  27.562  1.00  0.00    -0.205 F 
ATOM     91  C   UNL A   1      48.139  28.295  27.490  1.00  0.00     0.022 A 
BRANCH  89  92
ATOM     92  S   UNL A   1      47.700  25.628  27.001  1.00  0.00     0.127 S 
ATOM     93  O   UNL A   1      47.199  24.877  28.150  1.00  0.00    -0.237 OA
ATOM     94  O   UNL A   1      47.005  25.356  25.741  1.00  0.00    -0.237 OA
ATOM     95  O   UNL A   1      49.151  25.688  26.882  1.00  0.00    -0.744 OA
ENDBRANCH  89  92
ENDBRANCH  62  85
ENDBRANCH  36  37
ENDBRANCH  29  31
ENDBRANCH  28  29
ENDBRANCH  27  28
ENDBRANCH  26  27
ENDBRANCH   1  26
TORSDOF 21
ENDMDL
MODEL 2
REMARK VINA RESULT:     -10.5      2.406      3.969
REMARK SMILES CC(C)[C@H](NC(=O)Cn1ccc2c(Br)cccc21)C(=O)OCCOCCOC(=O)c1ccc(-c2c3nc(c(-c4cccc(S(=O)(=O)[O-])c4F)c4ccc([nH]4)c(-c4cccc(S(=O)(=O)[O-])c4F)c4nc(c(-c5cccc(S(=O)(=O)[O-])c5F)c5ccc2[nH]5)C=C4)C=C3)cc1
REMARK SMILES IDX 24 1 23 2 22 3 21 4 19 5 20 6 4 7 2 8 1 9 3 10 5 11 6 12
REMARK SMILES IDX 7 14 8 15 9 16 10 17 18 18 11 19 12 20 17 21 13 22 16 23
REMARK SMILES IDX 14 24 15 25 25 26 26 27 27 28 28 29 29 30 30 31 31 32 92 33
REMARK SMILES IDX 32 34 91 35 33 36 34 37 35 38 85 39 36 40 90 41 84 42 86 43
REMARK SMILES IDX 37 44 89 45 83 46 82 47 38 49 70 50 50 51 69 52 51 53 54 54
REMARK SMILES IDX 68 55 87 56 52 57 53 58 67 60 88 61 55 62 39 63 40 64 48 65
REMARK SMILES IDX 41 66 43 67 49 68 42 69 44 70 45 71 46 72 47 73 71 74 72 75
REMARK SMILES IDX 80 76 73 77 75 78 81 79 74 80 76 81 77 82 78 83 79 84 56 85
REMARK SMILES IDX 57 86 65 87 58 88 60 89 66 90 59 91 61 92 62 93 63 94 64 95
REMARK H PARENT 5 13 86 48 54 59
REMARK Flexibility Score: inf
ROOT
ATOM      1  O   UNL A   1      37.329  23.142  24.470  1.00  0.00    -0.374 OA
ENDROOT
BRANCH   1   2
ATOM      2  C   UNL A   1      36.827  23.723  25.674  1.00  0.00     0.202 C 
BRANCH   2   3
ATOM      3  C   UNL A   1      35.331  23.988  25.760  1.00  0.00     0.261 C 
BRANCH   3   4
ATOM      4  O   UNL A   1      34.998  25.318  25.336  1.00  0.00    -0.462 OA
BRANCH   4   5
ATOM      5  C   UNL A   1      33.676  25.620  25.406  1.00  0.00     0.328 C 
ATOM      6  O   UNL A   1      32.943  25.343  26.351  1.00  0.00    -0.250 OA
BRANCH   5   7
ATOM      7  C   UNL A   1      33.142  26.273  24.120  1.00  0.00     0.194 C 
BRANCH   7   8
ATOM      8  C   UNL A   1      33.080  27.805  24.284  1.00  0.00     0.017 C 
ATOM      9  C   UNL A   1      33.699  28.362  25.574  1.00  0.00     0.010 C 
ATOM     10  C   UNL A   1      33.684  28.496  23.063  1.00  0.00     0.010 C 
ENDBRANCH   7   8
BRANCH   7  11
ATOM     11  N   UNL A   1      31.980  25.572  23.518  1.00  0.00    -0.341 N 
ATOM     12  C   UNL A   1      31.622  24.314  23.156  1.00  0.00     0.240 C 
ATOM     13  H   UNL A   1      31.254  26.208  23.324  1.00  0.00     0.164 HD
ATOM     14  O   UNL A   1      30.405  24.124  23.031  1.00  0.00    -0.273 OA
BRANCH  12  15
ATOM     15  C   UNL A   1      32.576  23.169  22.894  1.00  0.00     0.222 C 
BRANCH  15  16
ATOM     16  N   UNL A   1      32.319  21.966  23.684  1.00  0.00    -0.338 N 
ATOM     17  C   UNL A   1      32.317  21.959  25.061  1.00  0.00     0.087 A 
ATOM     18  C   UNL A   1      32.226  20.671  23.211  1.00  0.00     0.050 A 
ATOM     19  C   UNL A   1      32.452  20.652  25.470  1.00  0.00     0.029 A 
ATOM     20  C   UNL A   1      32.429  19.826  24.309  1.00  0.00     0.014 A 
ATOM     21  C   UNL A   1      32.048  20.166  21.912  1.00  0.00     0.027 A 
ATOM     22  C   UNL A   1      32.562  18.441  24.071  1.00  0.00     0.027 A 
ATOM     23  C   UNL A   1      32.160  18.790  21.712  1.00  0.00     0.003 A 
ATOM     24  Br  UNL A   1      32.953  17.248  25.490  1.00  0.00    -0.050 Br
ATOM     25  C   UNL A   1      32.436  17.935  22.773  1.00  0.00     0.016 A 
ENDBRANCH  15  16
ENDBRANCH  12  15
ENDBRANCH   7  11
ENDBRANCH   5   7
ENDBRANCH   4   5
ENDBRANCH   3   4
ENDBRANCH   2   3
ENDBRANCH   1   2
BRANCH   1  26
ATOM     26  C   UNL A   1      37.051  21.779  24.156  1.00  0.00     0.202 C 
BRANCH  26  27
ATOM     27  C   UNL A   1      37.600  20.693  25.068  1.00  0.00     0.261 C 
BRANCH  27  28
ATOM     28  O   UNL A   1      38.747  21.146  25.761  1.00  0.00    -0.460 OA
BRANCH  28  29
ATOM     29  C   UNL A   1      39.747  20.235  25.761  1.00  0.00     0.338 C 
ATOM     30  O   UNL A   1      39.679  19.061  25.450  1.00  0.00    -0.246 OA
BRANCH  29  31
ATOM     31  C   UNL A   1      40.948  20.860  26.312  1.00  0.00     0.060 A 
ATOM     32  C   UNL A   1      41.109  20.697  27.689  1.00  0.00     0.016 A 
ATOM     33  C   UNL A   1      41.530  21.911  25.590  1.00  0.00     0.016 A 
ATOM     34  C   UNL A   1      41.564  21.778  28.394  1.00  0.00     0.010 A 
ATOM     35  C   UNL A   1      41.961  22.997  26.298  1.00  0.00     0.010 A 
ATOM     36  C   UNL A   1      41.858  22.945  27.683  1.00  0.00    -0.014 A 
BRANCH  36  37
ATOM     37  C   UNL A   1      42.117  24.133  28.447  1.00  0.00     0.031 A 
ATOM     38  C   UNL A   1      41.058  25.136  28.246  1.00  0.00     0.074 A 
ATOM     39  C   UNL A   1      43.181  24.233  29.262  1.00  0.00     0.049 A 
ATOM     40  N   UNL A   1      41.124  26.194  27.509  1.00  0.00    -0.248 NA
ATOM     41  C   UNL A   1      39.700  24.795  28.703  1.00  0.00     0.031 C 
ATOM     42  C   UNL A   1      44.088  23.181  29.729  1.00  0.00     0.029 A 
ATOM     43  N   UNL A   1      43.592  25.314  29.966  1.00  0.00    -0.354 N 
ATOM     44  C   UNL A   1      39.877  26.787  27.641  1.00  0.00     0.074 A 
ATOM     45  C   UNL A   1      38.987  25.779  28.154  1.00  0.00     0.031 C 
ATOM     46  C   UNL A   1      44.732  23.621  30.838  1.00  0.00     0.029 A 
ATOM     47  C   UNL A   1      44.371  25.009  31.076  1.00  0.00     0.049 A 
ATOM     48  H   UNL A   1      43.358  26.237  29.714  1.00  0.00     0.167 HD
ATOM     49  C   UNL A   1      39.741  28.138  27.634  1.00  0.00     0.034 A 
ATOM     50  C   UNL A   1      44.555  25.826  32.147  1.00  0.00     0.034 A 
ATOM     51  C   UNL A   1      40.911  28.798  27.124  1.00  0.00     0.049 A 
ATOM     52  C   UNL A   1      44.208  27.202  31.691  1.00  0.00     0.074 A 
ATOM     53  C   UNL A   1      41.616  28.730  25.939  1.00  0.00     0.029 A 
ATOM     54  N   UNL A   1      41.771  29.338  28.051  1.00  0.00    -0.354 N 
ATOM     55  N   UNL A   1      44.878  27.849  30.775  1.00  0.00    -0.248 NA
ATOM     56  C   UNL A   1      42.839  27.653  31.903  1.00  0.00     0.031 C 
ATOM     57  C   UNL A   1      42.987  28.768  26.328  1.00  0.00     0.029 A 
ATOM     58  C   UNL A   1      43.037  28.936  27.714  1.00  0.00     0.049 A 
ATOM     59  H   UNL A   1      41.524  29.908  28.815  1.00  0.00     0.167 HD
ATOM     60  C   UNL A   1      43.900  28.467  30.003  1.00  0.00     0.074 A 
ATOM     61  C   UNL A   1      42.670  28.374  30.790  1.00  0.00     0.031 C 
ATOM     62  C   UNL A   1      44.093  28.715  28.676  1.00  0.00     0.034 A 
BRANCH  49  63
ATOM     63  C   UNL A   1      38.711  28.851  28.457  1.00  0.00     0.023 A 
ATOM     64  C   UNL A   1      37.864  29.766  27.809  1.00  0.00     0.012 A 
ATOM     65  C   UNL A   1      38.703  28.840  29.872  1.00  0.00     0.148 A 
ATOM     66  C   UNL A   1      37.038  30.625  28.539  1.00  0.00     0.002 A 
ATOM     67  C   UNL A   1      37.819  29.628  30.589  1.00  0.00     0.091 A 
ATOM     68  F   UNL A   1      39.652  28.171  30.537  1.00  0.00    -0.205 F 
ATOM     69  C   UNL A   1      36.998  30.542  29.929  1.00  0.00     0.022 A 
BRANCH  67  70
ATOM     70  S   UNL A   1      37.707  29.515  32.377  1.00  0.00     0.127 S 
ATOM     71  O   UNL A   1      38.970  30.122  32.788  1.00  0.00    -0.237 OA
ATOM     72  O   UNL A   1      36.513  30.315  32.653  1.00  0.00    -0.237 OA
ATOM     73  O   UNL A   1      37.551  28.095  32.666  1.00  0.00    -0.744 OA
ENDBRANCH  67  70
ENDBRANCH  49  63
BRANCH  50  74
ATOM     74  C   UNL A   1      44.609  25.479  33.598  1.00  0.00     0.023 A 
ATOM     75  C   UNL A   1      43.428  25.578  34.368  1.00  0.00     0.012 A 
ATOM     76  C   UNL A   1      45.700  24.782  34.165  1.00  0.00     0.148 A 
ATOM     77  C   UNL A   1      43.318  24.955  35.619  1.00  0.00     0.002 A 
ATOM     78  C   UNL A   1      45.591  24.178  35.416  1.00  0.00     0.091 A 
ATOM     79  F   UNL A   1      46.817  24.619  33.447  1.00  0.00    -0.205 F 
ATOM     80  C   UNL A   1      44.395  24.245  36.139  1.00  0.00     0.022 A 
BRANCH  78  81
ATOM     81  S   UNL A   1      46.951  23.248  36.143  1.00  0.00     0.127 S 
ATOM     82  O   UNL A   1      46.404  22.872  37.447  1.00  0.00    -0.237 OA
ATOM     83  O   UNL A   1      47.103  22.143  35.200  1.00  0.00    -0.237 OA
ATOM     84  O   UNL A   1      48.071  24.179  36.215  1.00  0.00    -0.744 OA
ENDBRANCH  78  81
ENDBRANCH  50  74
BRANCH  62  85
ATOM     85  C   UNL A   1      45.470  28.528  28.097  1.00  0.00     0.023 A 
ATOM     86  C   UNL A   1      46.498  29.481  28.250  1.00  0.00     0.012 A 
ATOM     87  C   UNL A   1      45.785  27.253  27.601  1.00  0.00     0.148 A 
ATOM     88  C   UNL A   1      47.818  29.161  27.916  1.00  0.00     0.002 A 
ATOM     89  C   UNL A   1      47.102  26.928  27.308  1.00  0.00     0.091 A 
ATOM     90  F   UNL A   1      44.790  26.363  27.476  1.00  0.00    -0.205 F 
ATOM     91  C   UNL A   1      48.123  27.878  27.461  1.00  0.00     0.022 A 
BRANCH  89  92
ATOM     92  S   UNL A   1      47.570  25.263  26.829  1.00  0.00     0.127 S 
ATOM     93  O   UNL A   1      49.029  25.345  26.834  1.00  0.00    -0.237 OA
ATOM     94  O   UNL A   1      46.997  24.457  27.908  1.00  0.00    -0.237 OA
ATOM     95  O   UNL A   1      46.965  25.030  25.524  1.00  0.00    -0.744 OA
ENDBRANCH  89  92
ENDBRANCH  62  85
ENDBRANCH  36  37
ENDBRANCH  29  31
ENDBRANCH  28  29
ENDBRANCH  27  28
ENDBRANCH  26  27
ENDBRANCH   1  26
TORSDOF 21
ENDMDL
MODEL 3
REMARK VINA RESULT:     -10.5      4.547      9.357
REMARK SMILES CC(C)[C@H](NC(=O)Cn1ccc2c(Br)cccc21)C(=O)OCCOCCOC(=O)c1ccc(-c2c3nc(c(-c4cccc(S(=O)(=O)[O-])c4F)c4ccc([nH]4)c(-c4cccc(S(=O)(=O)[O-])c4F)c4nc(c(-c5cccc(S(=O)(=O)[O-])c5F)c5ccc2[nH]5)C=C4)C=C3)cc1
REMARK SMILES IDX 24 1 23 2 22 3 21 4 19 5 20 6 4 7 2 8 1 9 3 10 5 11 6 12
REMARK SMILES IDX 7 14 8 15 9 16 10 17 18 18 11 19 12 20 17 21 13 22 16 23
REMARK SMILES IDX 14 24 15 25 25 26 26 27 27 28 28 29 29 30 30 31 31 32 92 33
REMARK SMILES IDX 32 34 91 35 33 36 34 37 35 38 85 39 36 40 90 41 84 42 86 43
REMARK SMILES IDX 37 44 89 45 83 46 82 47 38 49 70 50 50 51 69 52 51 53 54 54
REMARK SMILES IDX 68 55 87 56 52 57 53 58 67 60 88 61 55 62 39 63 40 64 48 65
REMARK SMILES IDX 41 66 43 67 49 68 42 69 44 70 45 71 46 72 47 73 71 74 72 75
REMARK SMILES IDX 80 76 73 77 75 78 81 79 74 80 76 81 77 82 78 83 79 84 56 85
REMARK SMILES IDX 57 86 65 87 58 88 60 89 66 90 59 91 61 92 62 93 63 94 64 95
REMARK H PARENT 5 13 86 48 54 59
REMARK Flexibility Score: inf
ROOT
ATOM      1  O   UNL A   1      32.665  29.117  27.563  1.00  0.00    -0.374 OA
ENDROOT
BRANCH   1   2
ATOM      2  C   UNL A   1      33.827  28.530  26.976  1.00  0.00     0.202 C 
BRANCH   2   3
ATOM      3  C   UNL A   1      33.881  28.436  25.457  1.00  0.00     0.261 C 
BRANCH   3   4
ATOM      4  O   UNL A   1      33.032  27.394  24.954  1.00  0.00    -0.462 OA
BRANCH   4   5
ATOM      5  C   UNL A   1      32.894  27.379  23.604  1.00  0.00     0.328 C 
ATOM      6  O   UNL A   1      33.738  27.781  22.809  1.00  0.00    -0.250 OA
BRANCH   5   7
ATOM      7  C   UNL A   1      31.509  26.888  23.149  1.00  0.00     0.194 C 
BRANCH   7   8
ATOM      8  C   UNL A   1      30.398  27.644  23.907  1.00  0.00     0.017 C 
ATOM      9  C   UNL A   1      30.235  29.127  23.543  1.00  0.00     0.010 C 
ATOM     10  C   UNL A   1      29.065  26.913  23.765  1.00  0.00     0.010 C 
ENDBRANCH   7   8
BRANCH   7  11
ATOM     11  N   UNL A   1      31.402  25.414  23.008  1.00  0.00    -0.341 N 
ATOM     12  C   UNL A   1      31.286  24.318  23.800  1.00  0.00     0.240 C 
ATOM     13  H   UNL A   1      31.420  25.156  22.059  1.00  0.00     0.164 HD
ATOM     14  O   UNL A   1      30.852  23.303  23.240  1.00  0.00    -0.273 OA
BRANCH  12  15
ATOM     15  C   UNL A   1      31.649  24.252  25.267  1.00  0.00     0.222 C 
BRANCH  15  16
ATOM     16  N   UNL A   1      32.974  23.699  25.545  1.00  0.00    -0.338 N 
ATOM     17  C   UNL A   1      34.080  24.484  25.781  1.00  0.00     0.087 A 
ATOM     18  C   UNL A   1      33.356  22.376  25.439  1.00  0.00     0.050 A 
ATOM     19  C   UNL A   1      35.193  23.698  25.601  1.00  0.00     0.029 A 
ATOM     20  C   UNL A   1      34.753  22.366  25.350  1.00  0.00     0.014 A 
ATOM     21  C   UNL A   1      32.601  21.194  25.346  1.00  0.00     0.027 A 
ATOM     22  C   UNL A   1      35.396  21.145  25.054  1.00  0.00     0.027 A 
ATOM     23  C   UNL A   1      33.268  19.998  25.077  1.00  0.00     0.003 A 
ATOM     24  Br  UNL A   1      37.273  21.074  24.804  1.00  0.00    -0.050 Br
ATOM     25  C   UNL A   1      34.647  19.973  24.911  1.00  0.00     0.016 A 
ENDBRANCH  15  16
ENDBRANCH  12  15
ENDBRANCH   7  11
ENDBRANCH   5   7
ENDBRANCH   4   5
ENDBRANCH   3   4
ENDBRANCH   2   3
ENDBRANCH   1   2
BRANCH   1  26
ATOM     26  C   UNL A   1      31.793  29.928  26.779  1.00  0.00     0.202 C 
BRANCH  26  27
ATOM     27  C   UNL A   1      32.101  31.410  26.640  1.00  0.00     0.261 C 
BRANCH  27  28
ATOM     28  O   UNL A   1      33.079  31.814  27.579  1.00  0.00    -0.460 OA
BRANCH  28  29
ATOM     29  C   UNL A   1      32.959  33.115  27.928  1.00  0.00     0.338 C 
ATOM     30  O   UNL A   1      32.114  33.906  27.555  1.00  0.00    -0.246 OA
BRANCH  29  31
ATOM     31  C   UNL A   1      34.098  33.480  28.769  1.00  0.00     0.060 A 
ATOM     32  C   UNL A   1      35.103  34.190  28.110  1.00  0.00     0.016 A 
ATOM     33  C   UNL A   1      34.323  32.727  29.930  1.00  0.00     0.016 A 
ATOM     34  C   UNL A   1      36.397  33.864  28.416  1.00  0.00     0.010 A 
ATOM     35  C   UNL A   1      35.615  32.386  30.216  1.00  0.00     0.010 A 
ATOM     36  C   UNL A   1      36.611  32.873  29.379  1.00  0.00    -0.014 A 
BRANCH  36  37
ATOM     37  C   UNL A   1      37.951  32.382  29.530  1.00  0.00     0.031 A 
ATOM     38  C   UNL A   1      38.041  30.958  29.162  1.00  0.00     0.074 A 
ATOM     39  C   UNL A   1      38.960  33.183  29.913  1.00  0.00     0.049 A 
ATOM     40  N   UNL A   1      38.112  29.954  29.970  1.00  0.00    -0.248 NA
ATOM     41  C   UNL A   1      37.763  30.597  27.762  1.00  0.00     0.031 C 
ATOM     42  C   UNL A   1      38.995  34.646  29.999  1.00  0.00     0.029 A 
ATOM     43  N   UNL A   1      40.242  32.839  30.178  1.00  0.00    -0.354 N 
ATOM     44  C   UNL A   1      38.160  28.844  29.139  1.00  0.00     0.074 A 
ATOM     45  C   UNL A   1      37.688  29.269  27.848  1.00  0.00     0.031 C 
ATOM     46  C   UNL A   1      40.289  35.051  30.007  1.00  0.00     0.029 A 
ATOM     47  C   UNL A   1      41.151  33.882  30.047  1.00  0.00     0.049 A 
ATOM     48  H   UNL A   1      40.507  31.927  30.441  1.00  0.00     0.167 HD
ATOM     49  C   UNL A   1      38.886  27.748  29.477  1.00  0.00     0.034 A 
ATOM     50  C   UNL A   1      42.488  33.730  29.848  1.00  0.00     0.034 A 
ATOM     51  C   UNL A   1      39.249  27.745  30.868  1.00  0.00     0.049 A 
ATOM     52  C   UNL A   1      42.824  32.345  30.287  1.00  0.00     0.074 A 
ATOM     53  C   UNL A   1      38.537  27.801  32.049  1.00  0.00     0.029 A 
ATOM     54  N   UNL A   1      40.530  28.138  31.175  1.00  0.00    -0.354 N 
ATOM     55  N   UNL A   1      42.714  31.933  31.521  1.00  0.00    -0.248 NA
ATOM     56  C   UNL A   1      42.811  31.299  29.272  1.00  0.00     0.031 C 
ATOM     57  C   UNL A   1      39.284  28.681  32.884  1.00  0.00     0.029 A 
ATOM     58  C   UNL A   1      40.444  29.047  32.197  1.00  0.00     0.049 A 
ATOM     59  H   UNL A   1      41.357  27.824  30.741  1.00  0.00     0.167 HD
ATOM     60  C   UNL A   1      42.177  30.655  31.412  1.00  0.00     0.074 A 
ATOM     61  C   UNL A   1      42.331  30.290  30.004  1.00  0.00     0.031 C 
ATOM     62  C   UNL A   1      41.377  30.134  32.387  1.00  0.00     0.034 A 
BRANCH  49  63
ATOM     63  C   UNL A   1      39.593  26.903  28.461  1.00  0.00     0.023 A 
ATOM     64  C   UNL A   1      39.410  25.510  28.517  1.00  0.00     0.012 A 
ATOM     65  C   UNL A   1      40.614  27.396  27.614  1.00  0.00     0.148 A 
ATOM     66  C   UNL A   1      40.203  24.648  27.754  1.00  0.00     0.002 A 
ATOM     67  C   UNL A   1      41.335  26.546  26.793  1.00  0.00     0.091 A 
ATOM     68  F   UNL A   1      40.992  28.676  27.703  1.00  0.00    -0.205 F 
ATOM     69  C   UNL A   1      41.150  25.165  26.875  1.00  0.00     0.022 A 
BRANCH  67  70
ATOM     70  S   UNL A   1      42.533  27.180  25.615  1.00  0.00     0.127 S 
ATOM     71  O   UNL A   1      41.765  28.230  24.954  1.00  0.00    -0.237 OA
ATOM     72  O   UNL A   1      43.600  27.650  26.499  1.00  0.00    -0.237 OA
ATOM     73  O   UNL A   1      42.905  26.037  24.790  1.00  0.00    -0.744 OA
ENDBRANCH  67  70
ENDBRANCH  49  63
BRANCH  50  74
ATOM     74  C   UNL A   1      43.402  34.507  28.961  1.00  0.00     0.023 A 
ATOM     75  C   UNL A   1      43.739  33.976  27.695  1.00  0.00     0.012 A 
ATOM     76  C   UNL A   1      43.707  35.866  29.199  1.00  0.00     0.148 A 
ATOM     77  C   UNL A   1      44.295  34.780  26.690  1.00  0.00     0.002 A 
ATOM     78  C   UNL A   1      44.275  36.658  28.202  1.00  0.00     0.091 A 
ATOM     79  F   UNL A   1      43.355  36.422  30.364  1.00  0.00    -0.205 F 
ATOM     80  C   UNL A   1      44.552  36.124  26.939  1.00  0.00     0.022 A 
BRANCH  78  81
ATOM     81  S   UNL A   1      44.633  38.402  28.465  1.00  0.00     0.127 S 
ATOM     82  O   UNL A   1      45.628  38.354  29.537  1.00  0.00    -0.237 OA
ATOM     83  O   UNL A   1      45.156  38.806  27.162  1.00  0.00    -0.237 OA
ATOM     84  O   UNL A   1      43.367  39.011  28.857  1.00  0.00    -0.744 OA
ENDBRANCH  78  81
ENDBRANCH  50  74
BRANCH  62  85
ATOM     85  C   UNL A   1      41.266  30.863  33.699  1.00  0.00     0.023 A 
ATOM     86  C   UNL A   1      42.233  30.749  34.720  1.00  0.00     0.012 A 
ATOM     87  C   UNL A   1      40.286  31.864  33.792  1.00  0.00     0.148 A 
ATOM     88  C   UNL A   1      42.221  31.626  35.810  1.00  0.00     0.002 A 
ATOM     89  C   UNL A   1      40.302  32.755  34.855  1.00  0.00     0.091 A 
ATOM     90  F   UNL A   1      39.386  31.956  32.802  1.00  0.00    -0.205 F 
ATOM     91  C   UNL A   1      41.266  32.640  35.869  1.00  0.00     0.022 A 
BRANCH  89  92
ATOM     92  S   UNL A   1      39.171  34.147  34.926  1.00  0.00     0.127 S 
ATOM     93  O   UNL A   1      37.887  33.483  35.138  1.00  0.00    -0.237 OA
ATOM     94  O   UNL A   1      39.673  34.896  36.080  1.00  0.00    -0.237 OA
ATOM     95  O   UNL A   1      39.307  34.846  33.655  1.00  0.00    -0.744 OA
ENDBRANCH  89  92
ENDBRANCH  62  85
ENDBRANCH  36  37
ENDBRANCH  29  31
ENDBRANCH  28  29
ENDBRANCH  27  28
ENDBRANCH  26  27
ENDBRANCH   1  26
TORSDOF 21
ENDMDL
