MODEL 1
REMARK VINA RESULT:      -9.6      0.000      0.000
REMARK SMILES CCC1(CC)C[NH+]([C@H](CCS(C)(=O)=O)C(=O)OCCOCCOC(=O)c2ccc(-c3c4nc(c(-c5cccc(S(=O)(=O)[O-])c5F)c5ccc([nH]5)c(-c5cccc(S(=O)(=O)[O-])c5F)c5nc(c(-c6cccc(S(=O)(=O)[O-])c6F)c6ccc3[nH]6)C=C5)C=C4)cc2)C1
REMARK SMILES IDX 20 1 19 2 18 3 17 4 15 5 16 6 8 7 7 8 3 9 6 10 89 11 2 13
REMARK SMILES IDX 1 14 4 15 5 16 9 17 10 18 11 19 12 20 13 21 14 22 21 23
REMARK SMILES IDX 22 24 23 25 24 26 25 27 26 28 27 29 88 30 28 31 87 32 29 33
REMARK SMILES IDX 30 34 31 35 81 36 32 37 86 38 80 39 82 40 33 41 85 42 79 43
REMARK SMILES IDX 78 44 34 46 66 47 46 48 65 49 47 50 50 51 64 52 83 53 48 54
REMARK SMILES IDX 49 55 63 57 84 58 51 59 35 60 36 61 44 62 37 63 39 64 45 65
REMARK SMILES IDX 38 66 40 67 41 68 42 69 43 70 67 71 68 72 76 73 69 74 71 75
REMARK SMILES IDX 77 76 70 77 72 78 73 79 74 80 75 81 52 82 53 83 61 84 54 85
REMARK SMILES IDX 56 86 62 87 55 88 57 89 58 90 59 91 60 92
REMARK H PARENT 7 12 82 45 50 56
REMARK Flexibility Score: inf
ROOT
ATOM      1  O   UNL A   1      31.631  30.535  27.206  1.00  0.00    -0.374 OA
ENDROOT
BRANCH   1   2
ATOM      2  C   UNL A   1      32.293  29.396  26.647  1.00  0.00     0.202 C 
BRANCH   2   3
ATOM      3  C   UNL A   1      31.431  28.554  25.702  1.00  0.00     0.261 C 
BRANCH   3   4
ATOM      4  O   UNL A   1      32.266  27.863  24.754  1.00  0.00    -0.459 OA
BRANCH   4   5
ATOM      5  C   UNL A   1      32.186  28.212  23.449  1.00  0.00     0.365 C 
ATOM      6  O   UNL A   1      32.855  29.093  22.921  1.00  0.00    -0.245 OA
BRANCH   5   7
ATOM      7  C   UNL A   1      31.161  27.339  22.690  1.00  0.00     0.296 C 
BRANCH   7   8
ATOM      8  N   UNL A   1      30.149  28.219  22.069  1.00  0.00    -0.322 N 
ATOM      9  C   UNL A   1      29.040  29.993  22.440  1.00  0.00     0.068 C 
ATOM     10  C   UNL A   1      30.509  29.632  22.074  1.00  0.00     0.275 C 
ATOM     11  C   UNL A   1      28.941  28.485  22.865  1.00  0.00     0.275 C 
ATOM     12  H   UNL A   1      30.050  27.715  21.188  1.00  0.00     0.348 HD
BRANCH   9  13
ATOM     13  C   UNL A   1      28.953  31.006  23.596  1.00  0.00     0.015 C 
ATOM     14  C   UNL A   1      27.519  31.436  23.887  1.00  0.00     0.005 C 
ENDBRANCH   9  13
BRANCH   9  15
ATOM     15  C   UNL A   1      28.179  30.361  21.220  1.00  0.00     0.015 C 
ATOM     16  C   UNL A   1      28.323  31.828  20.840  1.00  0.00     0.005 C 
ENDBRANCH   9  15
ENDBRANCH   7   8
BRANCH   7  17
ATOM     17  C   UNL A   1      30.775  25.970  23.342  1.00  0.00     0.094 C 
BRANCH  17  18
ATOM     18  C   UNL A   1      31.490  24.642  23.101  1.00  0.00     0.143 C 
BRANCH  18  19
ATOM     19  S   UNL A   1      32.713  24.011  24.222  1.00  0.00     0.147 S 
ATOM     20  C   UNL A   1      34.188  24.938  23.913  1.00  0.00     0.158 C 
ATOM     21  O   UNL A   1      32.286  24.419  25.543  1.00  0.00    -0.229 OA
ATOM     22  O   UNL A   1      32.929  22.610  23.949  1.00  0.00    -0.229 OA
ENDBRANCH  18  19
ENDBRANCH  17  18
ENDBRANCH   7  17
ENDBRANCH   5   7
ENDBRANCH   4   5
ENDBRANCH   3   4
ENDBRANCH   2   3
ENDBRANCH   1   2
BRANCH   1  23
ATOM     23  C   UNL A   1      31.378  31.629  26.330  1.00  0.00     0.202 C 
BRANCH  23  24
ATOM     24  C   UNL A   1      31.981  32.981  26.752  1.00  0.00     0.261 C 
BRANCH  24  25
ATOM     25  O   UNL A   1      32.890  32.885  27.865  1.00  0.00    -0.460 OA
BRANCH  25  26
ATOM     26  C   UNL A   1      34.032  33.614  27.749  1.00  0.00     0.338 C 
ATOM     27  O   UNL A   1      34.144  34.709  27.224  1.00  0.00    -0.246 OA
BRANCH  26  28
ATOM     28  C   UNL A   1      35.127  32.967  28.502  1.00  0.00     0.060 A 
ATOM     29  C   UNL A   1      36.425  33.473  28.354  1.00  0.00     0.016 A 
ATOM     30  C   UNL A   1      34.897  31.868  29.328  1.00  0.00     0.016 A 
ATOM     31  C   UNL A   1      37.498  32.876  29.026  1.00  0.00     0.010 A 
ATOM     32  C   UNL A   1      35.971  31.294  30.024  1.00  0.00     0.010 A 
ATOM     33  C   UNL A   1      37.289  31.768  29.857  1.00  0.00    -0.014 A 
BRANCH  33  34
ATOM     34  C   UNL A   1      38.439  30.994  30.415  1.00  0.00     0.031 A 
ATOM     35  C   UNL A   1      38.874  31.284  31.832  1.00  0.00     0.074 A 
ATOM     36  C   UNL A   1      39.099  30.054  29.707  1.00  0.00     0.049 A 
ATOM     37  N   UNL A   1      39.882  30.801  32.512  1.00  0.00    -0.248 NA
ATOM     38  C   UNL A   1      38.073  32.271  32.577  1.00  0.00     0.031 C 
ATOM     39  C   UNL A   1      38.811  29.662  28.328  1.00  0.00     0.029 A 
ATOM     40  N   UNL A   1      40.174  29.264  30.057  1.00  0.00    -0.354 N 
ATOM     41  C   UNL A   1      39.864  31.462  33.734  1.00  0.00     0.074 A 
ATOM     42  C   UNL A   1      38.772  32.406  33.691  1.00  0.00     0.031 C 
ATOM     43  C   UNL A   1      39.684  28.710  27.949  1.00  0.00     0.029 A 
ATOM     44  C   UNL A   1      40.621  28.448  29.041  1.00  0.00     0.049 A 
ATOM     45  H   UNL A   1      40.585  29.282  30.951  1.00  0.00     0.167 HD
ATOM     46  C   UNL A   1      40.658  31.285  34.817  1.00  0.00     0.034 A 
ATOM     47  C   UNL A   1      41.674  27.603  28.989  1.00  0.00     0.034 A 
ATOM     48  C   UNL A   1      41.712  30.315  34.897  1.00  0.00     0.049 A 
ATOM     49  C   UNL A   1      42.557  27.430  30.205  1.00  0.00     0.074 A 
ATOM     50  C   UNL A   1      42.531  30.027  35.973  1.00  0.00     0.029 A 
ATOM     51  N   UNL A   1      42.097  29.479  33.863  1.00  0.00    -0.354 N 
ATOM     52  N   UNL A   1      42.459  27.989  31.387  1.00  0.00    -0.248 NA
ATOM     53  C   UNL A   1      43.681  26.485  30.089  1.00  0.00     0.031 C 
ATOM     54  C   UNL A   1      43.438  29.040  35.578  1.00  0.00     0.029 A 
ATOM     55  C   UNL A   1      43.149  28.680  34.272  1.00  0.00     0.049 A 
ATOM     56  H   UNL A   1      41.684  29.456  32.968  1.00  0.00     0.167 HD
ATOM     57  C   UNL A   1      43.469  27.429  32.164  1.00  0.00     0.074 A 
ATOM     58  C   UNL A   1      44.166  26.479  31.324  1.00  0.00     0.031 C 
ATOM     59  C   UNL A   1      43.793  27.685  33.455  1.00  0.00     0.034 A 
BRANCH  46  60
ATOM     60  C   UNL A   1      40.393  32.149  36.021  1.00  0.00     0.023 A 
ATOM     61  C   UNL A   1      41.252  33.229  36.314  1.00  0.00     0.012 A 
ATOM     62  C   UNL A   1      39.272  31.916  36.840  1.00  0.00     0.148 A 
ATOM     63  C   UNL A   1      41.023  34.036  37.426  1.00  0.00     0.002 A 
ATOM     64  C   UNL A   1      39.020  32.758  37.916  1.00  0.00     0.091 A 
ATOM     65  F   UNL A   1      38.479  30.873  36.556  1.00  0.00    -0.205 F 
ATOM     66  C   UNL A   1      39.902  33.808  38.219  1.00  0.00     0.022 A 
BRANCH  64  67
ATOM     67  S   UNL A   1      37.558  32.601  38.945  1.00  0.00     0.127 S 
ATOM     68  O   UNL A   1      37.677  31.224  39.421  1.00  0.00    -0.237 OA
ATOM     69  O   UNL A   1      37.793  33.622  39.967  1.00  0.00    -0.237 OA
ATOM     70  O   UNL A   1      36.420  32.862  38.074  1.00  0.00    -0.744 OA
ENDBRANCH  64  67
ENDBRANCH  46  60
BRANCH  47  71
ATOM     71  C   UNL A   1      41.956  26.816  27.750  1.00  0.00     0.023 A 
ATOM     72  C   UNL A   1      42.469  27.468  26.610  1.00  0.00     0.012 A 
ATOM     73  C   UNL A   1      41.692  25.433  27.683  1.00  0.00     0.148 A 
ATOM     74  C   UNL A   1      42.674  26.770  25.418  1.00  0.00     0.002 A 
ATOM     75  C   UNL A   1      41.952  24.732  26.511  1.00  0.00     0.091 A 
ATOM     76  F   UNL A   1      41.185  24.832  28.769  1.00  0.00    -0.205 F 
ATOM     77  C   UNL A   1      42.423  25.402  25.371  1.00  0.00     0.022 A 
BRANCH  75  78
ATOM     78  S   UNL A   1      41.766  22.950  26.389  1.00  0.00     0.127 S 
ATOM     79  O   UNL A   1      42.529  22.487  27.545  1.00  0.00    -0.237 OA
ATOM     80  O   UNL A   1      40.316  22.790  26.504  1.00  0.00    -0.237 OA
ATOM     81  O   UNL A   1      42.310  22.582  25.089  1.00  0.00    -0.744 OA
ENDBRANCH  75  78
ENDBRANCH  47  71
BRANCH  59  82
ATOM     82  C   UNL A   1      44.902  26.884  34.091  1.00  0.00     0.023 A 
ATOM     83  C   UNL A   1      46.192  27.433  34.226  1.00  0.00     0.012 A 
ATOM     84  C   UNL A   1      44.627  25.622  34.658  1.00  0.00     0.148 A 
ATOM     85  C   UNL A   1      47.195  26.729  34.893  1.00  0.00     0.002 A 
ATOM     86  C   UNL A   1      45.615  24.950  35.367  1.00  0.00     0.091 A 
ATOM     87  F   UNL A   1      43.396  25.110  34.508  1.00  0.00    -0.205 F 
ATOM     88  C   UNL A   1      46.903  25.497  35.474  1.00  0.00     0.022 A 
BRANCH  86  89
ATOM     89  S   UNL A   1      45.305  23.409  36.237  1.00  0.00     0.127 S 
ATOM     90  O   UNL A   1      46.600  22.742  36.131  1.00  0.00    -0.237 OA
ATOM     91  O   UNL A   1      44.967  23.877  37.581  1.00  0.00    -0.237 OA
ATOM     92  O   UNL A   1      44.211  22.757  35.528  1.00  0.00    -0.744 OA
ENDBRANCH  86  89
ENDBRANCH  59  82
ENDBRANCH  33  34
ENDBRANCH  26  28
ENDBRANCH  25  26
ENDBRANCH  24  25
ENDBRANCH  23  24
ENDBRANCH   1  23
TORSDOF 23
ENDMDL
MODEL 2
REMARK VINA RESULT:      -9.6      4.701      9.859
REMARK SMILES CCC1(CC)C[NH+]([C@H](CCS(C)(=O)=O)C(=O)OCCOCCOC(=O)c2ccc(-c3c4nc(c(-c5cccc(S(=O)(=O)[O-])c5F)c5ccc([nH]5)c(-c5cccc(S(=O)(=O)[O-])c5F)c5nc(c(-c6cccc(S(=O)(=O)[O-])c6F)c6ccc3[nH]6)C=C5)C=C4)cc2)C1
REMARK SMILES IDX 20 1 19 2 18 3 17 4 15 5 16 6 8 7 7 8 3 9 6 10 89 11 2 13
REMARK SMILES IDX 1 14 4 15 5 16 9 17 10 18 11 19 12 20 13 21 14 22 21 23
REMARK SMILES IDX 22 24 23 25 24 26 25 27 26 28 27 29 88 30 28 31 87 32 29 33
REMARK SMILES IDX 30 34 31 35 81 36 32 37 86 38 80 39 82 40 33 41 85 42 79 43
REMARK SMILES IDX 78 44 34 46 66 47 46 48 65 49 47 50 50 51 64 52 83 53 48 54
REMARK SMILES IDX 49 55 63 57 84 58 51 59 35 60 36 61 44 62 37 63 39 64 45 65
REMARK SMILES IDX 38 66 40 67 41 68 42 69 43 70 67 71 68 72 76 73 69 74 71 75
REMARK SMILES IDX 77 76 70 77 72 78 73 79 74 80 75 81 52 82 53 83 61 84 54 85
REMARK SMILES IDX 56 86 62 87 55 88 57 89 58 90 59 91 60 92
REMARK H PARENT 7 12 82 45 50 56
REMARK Flexibility Score: inf
ROOT
ATOM      1  O   UNL A   1      34.855  22.989  24.204  1.00  0.00    -0.374 OA
ENDROOT
BRANCH   1   2
ATOM      2  C   UNL A   1      34.248  23.914  23.295  1.00  0.00     0.202 C 
BRANCH   2   3
ATOM      3  C   UNL A   1      32.755  23.682  23.047  1.00  0.00     0.261 C 
BRANCH   3   4
ATOM      4  O   UNL A   1      32.194  24.795  22.325  1.00  0.00    -0.459 OA
BRANCH   4   5
ATOM      5  C   UNL A   1      31.272  25.567  22.944  1.00  0.00     0.365 C 
ATOM      6  O   UNL A   1      30.299  25.138  23.553  1.00  0.00    -0.245 OA
BRANCH   5   7
ATOM      7  C   UNL A   1      31.611  27.070  22.814  1.00  0.00     0.296 C 
BRANCH   7   8
ATOM      8  N   UNL A   1      32.592  27.431  23.859  1.00  0.00    -0.322 N 
ATOM      9  C   UNL A   1      32.749  28.501  25.688  1.00  0.00     0.068 C 
ATOM     10  C   UNL A   1      32.144  27.147  25.217  1.00  0.00     0.275 C 
ATOM     11  C   UNL A   1      32.722  28.865  24.162  1.00  0.00     0.275 C 
ATOM     12  H   UNL A   1      33.397  26.943  23.467  1.00  0.00     0.348 HD
BRANCH   9  13
ATOM     13  C   UNL A   1      31.779  29.305  26.573  1.00  0.00     0.015 C 
ATOM     14  C   UNL A   1      31.735  30.782  26.197  1.00  0.00     0.005 C 
ENDBRANCH   9  13
BRANCH   9  15
ATOM     15  C   UNL A   1      34.164  28.365  26.277  1.00  0.00     0.015 C 
ATOM     16  C   UNL A   1      34.421  29.374  27.387  1.00  0.00     0.005 C 
ENDBRANCH   9  15
ENDBRANCH   7   8
BRANCH   7  17
ATOM     17  C   UNL A   1      30.441  28.028  22.414  1.00  0.00     0.094 C 
BRANCH  17  18
ATOM     18  C   UNL A   1      29.364  28.553  23.360  1.00  0.00     0.143 C 
BRANCH  18  19
ATOM     19  S   UNL A   1      28.062  29.626  22.807  1.00  0.00     0.147 S 
ATOM     20  C   UNL A   1      28.395  31.211  23.519  1.00  0.00     0.158 C 
ATOM     21  O   UNL A   1      28.272  29.803  21.387  1.00  0.00    -0.229 OA
ATOM     22  O   UNL A   1      26.796  29.116  23.277  1.00  0.00    -0.229 OA
ENDBRANCH  18  19
ENDBRANCH  17  18
ENDBRANCH   7  17
ENDBRANCH   5   7
ENDBRANCH   4   5
ENDBRANCH   3   4
ENDBRANCH   2   3
ENDBRANCH   1   2
BRANCH   1  23
ATOM     23  C   UNL A   1      36.105  22.430  23.816  1.00  0.00     0.202 C 
BRANCH  23  24
ATOM     24  C   UNL A   1      37.069  22.078  24.963  1.00  0.00     0.261 C 
BRANCH  24  25
ATOM     25  O   UNL A   1      37.714  23.225  25.546  1.00  0.00    -0.460 OA
BRANCH  25  26
ATOM     26  C   UNL A   1      38.787  22.952  26.335  1.00  0.00     0.338 C 
ATOM     27  O   UNL A   1      39.298  21.859  26.514  1.00  0.00    -0.246 OA
BRANCH  26  28
ATOM     28  C   UNL A   1      39.378  24.208  26.843  1.00  0.00     0.060 A 
ATOM     29  C   UNL A   1      39.162  24.549  28.186  1.00  0.00     0.016 A 
ATOM     30  C   UNL A   1      40.116  25.056  26.020  1.00  0.00     0.016 A 
ATOM     31  C   UNL A   1      39.677  25.743  28.705  1.00  0.00     0.010 A 
ATOM     32  C   UNL A   1      40.659  26.234  26.554  1.00  0.00     0.010 A 
ATOM     33  C   UNL A   1      40.419  26.610  27.892  1.00  0.00    -0.014 A 
BRANCH  33  34
ATOM     34  C   UNL A   1      40.799  27.975  28.365  1.00  0.00     0.031 A 
ATOM     35  C   UNL A   1      42.268  28.300  28.500  1.00  0.00     0.074 A 
ATOM     36  C   UNL A   1      39.888  28.921  28.675  1.00  0.00     0.049 A 
ATOM     37  N   UNL A   1      42.845  29.382  28.956  1.00  0.00    -0.248 NA
ATOM     38  C   UNL A   1      43.215  27.251  28.084  1.00  0.00     0.031 C 
ATOM     39  C   UNL A   1      38.436  28.764  28.607  1.00  0.00     0.029 A 
ATOM     40  N   UNL A   1      40.060  30.210  29.132  1.00  0.00    -0.354 N 
ATOM     41  C   UNL A   1      44.210  29.122  28.929  1.00  0.00     0.074 A 
ATOM     42  C   UNL A   1      44.375  27.769  28.449  1.00  0.00     0.031 C 
ATOM     43  C   UNL A   1      37.850  29.909  29.007  1.00  0.00     0.029 A 
ATOM     44  C   UNL A   1      38.880  30.871  29.398  1.00  0.00     0.049 A 
ATOM     45  H   UNL A   1      40.945  30.622  29.257  1.00  0.00     0.167 HD
ATOM     46  C   UNL A   1      45.245  29.937  29.240  1.00  0.00     0.034 A 
ATOM     47  C   UNL A   1      38.655  32.099  29.915  1.00  0.00     0.034 A 
ATOM     48  C   UNL A   1      45.102  31.300  29.666  1.00  0.00     0.049 A 
ATOM     49  C   UNL A   1      39.826  32.988  30.268  1.00  0.00     0.074 A 
ATOM     50  C   UNL A   1      46.097  32.218  29.949  1.00  0.00     0.029 A 
ATOM     51  N   UNL A   1      43.892  31.940  29.875  1.00  0.00    -0.354 N 
ATOM     52  N   UNL A   1      41.110  32.760  30.137  1.00  0.00    -0.248 NA
ATOM     53  C   UNL A   1      39.515  34.320  30.815  1.00  0.00     0.031 C 
ATOM     54  C   UNL A   1      45.488  33.405  30.365  1.00  0.00     0.029 A 
ATOM     55  C   UNL A   1      44.114  33.239  30.292  1.00  0.00     0.049 A 
ATOM     56  H   UNL A   1      43.005  31.530  29.746  1.00  0.00     0.167 HD
ATOM     57  C   UNL A   1      41.753  33.929  30.534  1.00  0.00     0.074 A 
ATOM     58  C   UNL A   1      40.719  34.871  30.904  1.00  0.00     0.031 C 
ATOM     59  C   UNL A   1      43.081  34.195  30.592  1.00  0.00     0.034 A 
BRANCH  46  60
ATOM     60  C   UNL A   1      46.636  29.377  29.102  1.00  0.00     0.023 A 
ATOM     61  C   UNL A   1      47.332  28.932  30.246  1.00  0.00     0.012 A 
ATOM     62  C   UNL A   1      47.238  29.254  27.835  1.00  0.00     0.148 A 
ATOM     63  C   UNL A   1      48.621  28.416  30.136  1.00  0.00     0.002 A 
ATOM     64  C   UNL A   1      48.502  28.688  27.727  1.00  0.00     0.091 A 
ATOM     65  F   UNL A   1      46.569  29.700  26.763  1.00  0.00    -0.205 F 
ATOM     66  C   UNL A   1      49.200  28.283  28.877  1.00  0.00     0.022 A 
BRANCH  64  67
ATOM     67  S   UNL A   1      49.299  28.393  26.146  1.00  0.00     0.127 S 
ATOM     68  O   UNL A   1      50.183  29.554  26.040  1.00  0.00    -0.237 OA
ATOM     69  O   UNL A   1      49.986  27.123  26.382  1.00  0.00    -0.237 OA
ATOM     70  O   UNL A   1      48.230  28.333  25.159  1.00  0.00    -0.744 OA
ENDBRANCH  64  67
ENDBRANCH  46  60
BRANCH  47  71
ATOM     71  C   UNL A   1      37.260  32.596  30.112  1.00  0.00     0.023 A 
ATOM     72  C   UNL A   1      36.452  32.872  28.990  1.00  0.00     0.012 A 
ATOM     73  C   UNL A   1      36.739  32.827  31.400  1.00  0.00     0.148 A 
ATOM     74  C   UNL A   1      35.171  33.405  29.144  1.00  0.00     0.002 A 
ATOM     75  C   UNL A   1      35.441  33.304  31.550  1.00  0.00     0.091 A 
ATOM     76  F   UNL A   1      37.526  32.580  32.457  1.00  0.00    -0.205 F 
ATOM     77  C   UNL A   1      34.662  33.614  30.423  1.00  0.00     0.022 A 
BRANCH  75  78
ATOM     78  S   UNL A   1      34.661  33.499  33.156  1.00  0.00     0.127 S 
ATOM     79  O   UNL A   1      34.768  34.941  33.369  1.00  0.00    -0.237 OA
ATOM     80  O   UNL A   1      33.306  33.015  32.894  1.00  0.00    -0.237 OA
ATOM     81  O   UNL A   1      35.430  32.670  34.075  1.00  0.00    -0.744 OA
ENDBRANCH  75  78
ENDBRANCH  47  71
BRANCH  59  82
ATOM     82  C   UNL A   1      43.521  35.580  30.998  1.00  0.00     0.023 A 
ATOM     83  C   UNL A   1      43.868  36.533  30.022  1.00  0.00     0.012 A 
ATOM     84  C   UNL A   1      43.479  35.966  32.354  1.00  0.00     0.148 A 
ATOM     85  C   UNL A   1      44.189  37.840  30.390  1.00  0.00     0.002 A 
ATOM     86  C   UNL A   1      43.749  37.282  32.709  1.00  0.00     0.091 A 
ATOM     87  F   UNL A   1      43.159  35.040  33.271  1.00  0.00    -0.205 F 
ATOM     88  C   UNL A   1      44.117  38.216  31.729  1.00  0.00     0.022 A 
BRANCH  86  89
ATOM     89  S   UNL A   1      43.579  37.884  34.393  1.00  0.00     0.127 S 
ATOM     90  O   UNL A   1      43.370  39.314  34.178  1.00  0.00    -0.237 OA
ATOM     91  O   UNL A   1      42.399  37.158  34.863  1.00  0.00    -0.237 OA
ATOM     92  O   UNL A   1      44.819  37.534  35.075  1.00  0.00    -0.744 OA
ENDBRANCH  86  89
ENDBRANCH  59  82
ENDBRANCH  33  34
ENDBRANCH  26  28
ENDBRANCH  25  26
ENDBRANCH  24  25
ENDBRANCH  23  24
ENDBRANCH   1  23
TORSDOF 23
ENDMDL
MODEL 3
REMARK VINA RESULT:      -9.5      5.772     10.732
REMARK SMILES CCC1(CC)C[NH+]([C@H](CCS(C)(=O)=O)C(=O)OCCOCCOC(=O)c2ccc(-c3c4nc(c(-c5cccc(S(=O)(=O)[O-])c5F)c5ccc([nH]5)c(-c5cccc(S(=O)(=O)[O-])c5F)c5nc(c(-c6cccc(S(=O)(=O)[O-])c6F)c6ccc3[nH]6)C=C5)C=C4)cc2)C1
REMARK SMILES IDX 20 1 19 2 18 3 17 4 15 5 16 6 8 7 7 8 3 9 6 10 89 11 2 13
REMARK SMILES IDX 1 14 4 15 5 16 9 17 10 18 11 19 12 20 13 21 14 22 21 23
REMARK SMILES IDX 22 24 23 25 24 26 25 27 26 28 27 29 88 30 28 31 87 32 29 33
REMARK SMILES IDX 30 34 31 35 81 36 32 37 86 38 80 39 82 40 33 41 85 42 79 43
REMARK SMILES IDX 78 44 34 46 66 47 46 48 65 49 47 50 50 51 64 52 83 53 48 54
REMARK SMILES IDX 49 55 63 57 84 58 51 59 35 60 36 61 44 62 37 63 39 64 45 65
REMARK SMILES IDX 38 66 40 67 41 68 42 69 43 70 67 71 68 72 76 73 69 74 71 75
REMARK SMILES IDX 77 76 70 77 72 78 73 79 74 80 75 81 52 82 53 83 61 84 54 85
REMARK SMILES IDX 56 86 62 87 55 88 57 89 58 90 59 91 60 92
REMARK H PARENT 7 12 82 45 50 56
REMARK Flexibility Score: inf
ROOT
ATOM      1  O   UNL A   1      38.822  22.536  26.195  1.00  0.00    -0.374 OA
ENDROOT
BRANCH   1   2
ATOM      2  C   UNL A   1      37.639  23.318  26.006  1.00  0.00     0.202 C 
BRANCH   2   3
ATOM      3  C   UNL A   1      36.380  22.507  25.684  1.00  0.00     0.261 C 
BRANCH   3   4
ATOM      4  O   UNL A   1      35.326  22.841  26.607  1.00  0.00    -0.459 OA
BRANCH   4   5
ATOM      5  C   UNL A   1      34.079  22.380  26.358  1.00  0.00     0.365 C 
ATOM      6  O   UNL A   1      33.408  21.724  27.147  1.00  0.00    -0.245 OA
BRANCH   5   7
ATOM      7  C   UNL A   1      33.585  22.807  24.956  1.00  0.00     0.296 C 
BRANCH   7   8
ATOM      8  N   UNL A   1      32.739  24.011  25.093  1.00  0.00    -0.322 N 
ATOM      9  C   UNL A   1      32.792  26.117  24.818  1.00  0.00     0.068 C 
ATOM     10  C   UNL A   1      32.716  24.858  23.907  1.00  0.00     0.275 C 
ATOM     11  C   UNL A   1      33.290  25.104  25.909  1.00  0.00     0.275 C 
ATOM     12  H   UNL A   1      31.889  23.546  25.413  1.00  0.00     0.348 HD
BRANCH   9  13
ATOM     13  C   UNL A   1      33.846  27.131  24.336  1.00  0.00     0.015 C 
ATOM     14  C   UNL A   1      33.218  28.401  23.773  1.00  0.00     0.005 C 
ENDBRANCH   9  13
BRANCH   9  15
ATOM     15  C   UNL A   1      31.418  26.739  25.117  1.00  0.00     0.015 C 
ATOM     16  C   UNL A   1      31.317  27.244  26.549  1.00  0.00     0.005 C 
ENDBRANCH   9  15
ENDBRANCH   7   8
BRANCH   7  17
ATOM     17  C   UNL A   1      33.234  21.662  23.950  1.00  0.00     0.094 C 
BRANCH  17  18
ATOM     18  C   UNL A   1      32.319  20.475  24.243  1.00  0.00     0.143 C 
BRANCH  18  19
ATOM     19  S   UNL A   1      32.949  18.831  24.470  1.00  0.00     0.147 S 
ATOM     20  C   UNL A   1      32.673  17.983  22.941  1.00  0.00     0.158 C 
ATOM     21  O   UNL A   1      34.386  18.967  24.568  1.00  0.00    -0.229 OA
ATOM     22  O   UNL A   1      32.225  18.189  25.542  1.00  0.00    -0.229 OA
ENDBRANCH  18  19
ENDBRANCH  17  18
ENDBRANCH   7  17
ENDBRANCH   5   7
ENDBRANCH   4   5
ENDBRANCH   3   4
ENDBRANCH   2   3
ENDBRANCH   1   2
BRANCH   1  23
ATOM     23  C   UNL A   1      38.905  21.308  25.479  1.00  0.00     0.202 C 
BRANCH  23  24
ATOM     24  C   UNL A   1      39.646  20.162  26.193  1.00  0.00     0.261 C 
BRANCH  24  25
ATOM     25  O   UNL A   1      40.816  19.707  25.489  1.00  0.00    -0.460 OA
BRANCH  25  26
ATOM     26  C   UNL A   1      41.954  19.645  26.231  1.00  0.00     0.338 C 
ATOM     27  O   UNL A   1      42.577  18.638  26.524  1.00  0.00    -0.246 OA
BRANCH  26  28
ATOM     28  C   UNL A   1      42.450  21.009  26.515  1.00  0.00     0.060 A 
ATOM     29  C   UNL A   1      42.643  21.381  27.852  1.00  0.00     0.016 A 
ATOM     30  C   UNL A   1      42.706  21.922  25.493  1.00  0.00     0.016 A 
ATOM     31  C   UNL A   1      43.084  22.671  28.171  1.00  0.00     0.010 A 
ATOM     32  C   UNL A   1      43.179  23.202  25.818  1.00  0.00     0.010 A 
ATOM     33  C   UNL A   1      43.343  23.604  27.159  1.00  0.00    -0.014 A 
BRANCH  33  34
ATOM     34  C   UNL A   1      43.613  25.038  27.483  1.00  0.00     0.031 A 
ATOM     35  C   UNL A   1      45.039  25.530  27.406  1.00  0.00     0.074 A 
ATOM     36  C   UNL A   1      42.640  25.902  27.840  1.00  0.00     0.049 A 
ATOM     37  N   UNL A   1      45.535  26.702  27.707  1.00  0.00    -0.248 NA
ATOM     38  C   UNL A   1      46.046  24.559  26.945  1.00  0.00     0.031 C 
ATOM     39  C   UNL A   1      41.219  25.584  27.970  1.00  0.00     0.029 A 
ATOM     40  N   UNL A   1      42.712  27.237  28.179  1.00  0.00    -0.354 N 
ATOM     41  C   UNL A   1      46.908  26.590  27.523  1.00  0.00     0.074 A 
ATOM     42  C   UNL A   1      47.173  25.228  27.122  1.00  0.00     0.031 C 
ATOM     43  C   UNL A   1      40.554  26.688  28.361  1.00  0.00     0.029 A 
ATOM     44  C   UNL A   1      41.503  27.786  28.547  1.00  0.00     0.049 A 
ATOM     45  H   UNL A   1      43.551  27.751  28.160  1.00  0.00     0.167 HD
ATOM     46  C   UNL A   1      47.869  27.536  27.640  1.00  0.00     0.034 A 
ATOM     47  C   UNL A   1      41.199  29.021  29.001  1.00  0.00     0.034 A 
ATOM     48  C   UNL A   1      47.618  28.906  27.985  1.00  0.00     0.049 A 
ATOM     49  C   UNL A   1      42.290  30.059  29.138  1.00  0.00     0.074 A 
ATOM     50  C   UNL A   1      48.525  29.947  28.072  1.00  0.00     0.029 A 
ATOM     51  N   UNL A   1      46.375  29.427  28.302  1.00  0.00    -0.354 N 
ATOM     52  N   UNL A   1      43.568  29.960  28.860  1.00  0.00    -0.248 NA
ATOM     53  C   UNL A   1      41.892  31.391  29.626  1.00  0.00     0.031 C 
ATOM     54  C   UNL A   1      47.834  31.092  28.479  1.00  0.00     0.029 A 
ATOM     55  C   UNL A   1      46.491  30.773  28.595  1.00  0.00     0.049 A 
ATOM     56  H   UNL A   1      45.534  28.914  28.316  1.00  0.00     0.167 HD
ATOM     57  C   UNL A   1      44.111  31.222  29.088  1.00  0.00     0.074 A 
ATOM     58  C   UNL A   1      43.024  32.074  29.521  1.00  0.00     0.031 C 
ATOM     59  C   UNL A   1      45.395  31.634  28.956  1.00  0.00     0.034 A 
BRANCH  46  60
ATOM     60  C   UNL A   1      49.290  27.121  27.365  1.00  0.00     0.023 A 
ATOM     61  C   UNL A   1      49.703  26.861  26.041  1.00  0.00     0.012 A 
ATOM     62  C   UNL A   1      50.226  27.026  28.412  1.00  0.00     0.148 A 
ATOM     63  C   UNL A   1      51.013  26.473  25.770  1.00  0.00     0.002 A 
ATOM     64  C   UNL A   1      51.544  26.691  28.128  1.00  0.00     0.091 A 
ATOM     65  F   UNL A   1      49.810  27.258  29.665  1.00  0.00    -0.205 F 
ATOM     66  C   UNL A   1      51.935  26.399  26.810  1.00  0.00     0.022 A 
BRANCH  64  67
ATOM     67  S   UNL A   1      52.826  26.653  29.383  1.00  0.00     0.127 S 
ATOM     68  O   UNL A   1      53.957  26.108  28.634  1.00  0.00    -0.237 OA
ATOM     69  O   UNL A   1      52.953  28.069  29.734  1.00  0.00    -0.237 OA
ATOM     70  O   UNL A   1      52.320  25.804  30.453  1.00  0.00    -0.744 OA
ENDBRANCH  64  67
ENDBRANCH  46  60
BRANCH  47  71
ATOM     71  C   UNL A   1      39.788  29.380  29.340  1.00  0.00     0.023 A 
ATOM     72  C   UNL A   1      38.875  29.676  28.307  1.00  0.00     0.012 A 
ATOM     73  C   UNL A   1      39.352  29.459  30.678  1.00  0.00     0.148 A 
ATOM     74  C   UNL A   1      37.572  30.083  28.599  1.00  0.00     0.002 A 
ATOM     75  C   UNL A   1      38.037  29.809  30.961  1.00  0.00     0.091 A 
ATOM     76  F   UNL A   1      40.237  29.194  31.649  1.00  0.00    -0.205 F 
ATOM     77  C   UNL A   1      37.150  30.142  29.924  1.00  0.00     0.022 A 
BRANCH  75  78
ATOM     78  S   UNL A   1      37.372  29.805  32.629  1.00  0.00     0.127 S 
ATOM     79  O   UNL A   1      37.384  28.380  32.955  1.00  0.00    -0.237 OA
ATOM     80  O   UNL A   1      38.359  30.609  33.349  1.00  0.00    -0.237 OA
ATOM     81  O   UNL A   1      36.053  30.415  32.533  1.00  0.00    -0.744 OA
ENDBRANCH  75  78
ENDBRANCH  47  71
BRANCH  59  82
ATOM     82  C   UNL A   1      45.714  33.088  29.204  1.00  0.00     0.023 A 
ATOM     83  C   UNL A   1      46.224  33.504  30.449  1.00  0.00     0.012 A 
ATOM     84  C   UNL A   1      45.613  34.022  28.153  1.00  0.00     0.148 A 
ATOM     85  C   UNL A   1      46.602  34.831  30.652  1.00  0.00     0.002 A 
ATOM     86  C   UNL A   1      46.041  35.330  28.345  1.00  0.00     0.091 A 
ATOM     87  F   UNL A   1      45.113  33.610  26.978  1.00  0.00    -0.205 F 
ATOM     88  C   UNL A   1      46.524  35.739  29.598  1.00  0.00     0.022 A 
BRANCH  86  89
ATOM     89  S   UNL A   1      46.076  36.542  27.019  1.00  0.00     0.127 S 
ATOM     90  O   UNL A   1      44.654  36.699  26.722  1.00  0.00    -0.237 OA
ATOM     91  O   UNL A   1      46.694  37.696  27.673  1.00  0.00    -0.237 OA
ATOM     92  O   UNL A   1      46.872  35.951  25.951  1.00  0.00    -0.744 OA
ENDBRANCH  86  89
ENDBRANCH  59  82
ENDBRANCH  33  34
ENDBRANCH  26  28
ENDBRANCH  25  26
ENDBRANCH  24  25
ENDBRANCH  23  24
ENDBRANCH   1  23
TORSDOF 23
ENDMDL
