MODEL 1
REMARK VINA RESULT:     -11.3      0.000      0.000
REMARK SMILES CC(C)(C[N@H+]1C[C@@H]2C[NH2+]C[C@H]2C1(C)C)C(=O)OCCOCCOC(=O)c1ccc(-c2c3nc(c(-c4cccc(S(=O)(=O)[O-])c4F)c4ccc([nH]4)c(-c4cccc(S(=O)(=O)[O-])c4F)c4nc(c(-c5cccc(S(=O)(=O)[O-])c5F)c5ccc2[nH]5)C=C4)C=C3)cc1
REMARK SMILES IDX 21 1 20 2 19 3 18 4 17 5 15 6 16 7 2 8 1 9 3 10 4 11 5 12
REMARK SMILES IDX 6 13 12 14 7 16 11 17 13 18 14 19 8 20 10 21 9 22 22 25
REMARK SMILES IDX 23 26 24 27 25 28 26 29 27 30 88 31 28 32 87 33 29 34 30 35
REMARK SMILES IDX 31 36 81 37 32 38 86 39 80 40 82 41 33 42 85 43 79 44 78 45
REMARK SMILES IDX 34 47 66 48 46 49 65 50 47 51 50 52 64 53 83 54 48 55 49 56
REMARK SMILES IDX 63 58 84 59 51 60 35 61 36 62 44 63 37 64 39 65 45 66 38 67
REMARK SMILES IDX 40 68 41 69 42 70 43 71 67 72 68 73 76 74 69 75 71 76 77 77
REMARK SMILES IDX 70 78 72 79 73 80 74 81 75 82 52 83 53 84 61 85 54 86 56 87
REMARK SMILES IDX 62 88 55 89 57 90 58 91 59 92 60 93
REMARK H PARENT 5 15 9 23 9 24 82 46 50 57
REMARK Flexibility Score: inf
ROOT
ATOM      1  C   UNL A   1      36.275  19.864  24.976  1.00  0.00     0.202 C 
ENDROOT
BRANCH   1   2
ATOM      2  O   UNL A   1      35.768  21.106  25.477  1.00  0.00    -0.374 OA
BRANCH   2   3
ATOM      3  C   UNL A   1      34.644  21.665  24.804  1.00  0.00     0.202 C 
BRANCH   3   4
ATOM      4  C   UNL A   1      33.402  20.777  24.641  1.00  0.00     0.261 C 
BRANCH   4   5
ATOM      5  O   UNL A   1      32.316  21.109  25.524  1.00  0.00    -0.463 OA
BRANCH   5   6
ATOM      6  C   UNL A   1      31.741  22.315  25.274  1.00  0.00     0.317 C 
ATOM      7  O   UNL A   1      31.450  22.708  24.145  1.00  0.00    -0.251 OA
BRANCH   6   8
ATOM      8  C   UNL A   1      31.541  23.201  26.514  1.00  0.00     0.111 C 
ATOM      9  C   UNL A   1      32.504  22.647  27.568  1.00  0.00     0.029 C 
ATOM     10  C   UNL A   1      30.096  22.903  26.982  1.00  0.00     0.029 C 
BRANCH   8  11
ATOM     11  C   UNL A   1      31.630  24.754  26.304  1.00  0.00     0.280 C 
BRANCH  11  12
ATOM     12  N   UNL A   1      31.712  25.397  24.968  1.00  0.00    -0.329 N 
ATOM     13  C   UNL A   1      30.578  26.397  24.825  1.00  0.00     0.272 C 
ATOM     14  C   UNL A   1      32.986  26.117  24.559  1.00  0.00     0.101 C 
ATOM     15  H   UNL A   1      31.669  24.590  24.348  1.00  0.00     0.348 HD
ATOM     16  C   UNL A   1      31.248  27.716  24.548  1.00  0.00     0.114 C 
ATOM     17  C   UNL A   1      32.409  27.260  23.720  1.00  0.00     0.119 C 
ATOM     18  C   UNL A   1      33.877  26.651  25.697  1.00  0.00     0.079 C 
ATOM     19  C   UNL A   1      33.840  25.266  23.605  1.00  0.00     0.079 C 
ATOM     20  C   UNL A   1      30.693  28.807  23.669  1.00  0.00     0.270 C 
ATOM     21  C   UNL A   1      33.074  28.574  23.400  1.00  0.00     0.271 C 
ATOM     22  N   UNL A   1      31.924  29.489  23.172  1.00  0.00    -0.345 N 
ATOM     23  H   UNL A   1      32.067  30.360  23.682  1.00  0.00     0.346 HD
ATOM     24  H   UNL A   1      31.834  29.707  22.180  1.00  0.00     0.346 HD
ENDBRANCH  11  12
ENDBRANCH   8  11
ENDBRANCH   6   8
ENDBRANCH   5   6
ENDBRANCH   4   5
ENDBRANCH   3   4
ENDBRANCH   2   3
ENDBRANCH   1   2
BRANCH   1  25
ATOM     25  C   UNL A   1      37.795  19.689  25.032  1.00  0.00     0.261 C 
BRANCH  25  26
ATOM     26  O   UNL A   1      38.438  20.922  25.409  1.00  0.00    -0.460 OA
BRANCH  26  27
ATOM     27  C   UNL A   1      39.537  20.771  26.182  1.00  0.00     0.338 C 
ATOM     28  O   UNL A   1      40.224  19.767  26.300  1.00  0.00    -0.246 OA
BRANCH  27  29
ATOM     29  C   UNL A   1      39.921  22.076  26.746  1.00  0.00     0.060 A 
ATOM     30  C   UNL A   1      39.294  23.219  26.235  1.00  0.00     0.016 A 
ATOM     31  C   UNL A   1      40.939  22.186  27.695  1.00  0.00     0.016 A 
ATOM     32  C   UNL A   1      39.715  24.484  26.643  1.00  0.00     0.010 A 
ATOM     33  C   UNL A   1      41.363  23.458  28.096  1.00  0.00     0.010 A 
ATOM     34  C   UNL A   1      40.776  24.613  27.549  1.00  0.00    -0.014 A 
BRANCH  34  35
ATOM     35  C   UNL A   1      41.337  25.958  27.834  1.00  0.00     0.031 A 
ATOM     36  C   UNL A   1      42.730  26.293  27.375  1.00  0.00     0.074 A 
ATOM     37  C   UNL A   1      40.608  26.878  28.490  1.00  0.00     0.049 A 
ATOM     38  N   UNL A   1      43.394  27.412  27.502  1.00  0.00    -0.248 NA
ATOM     39  C   UNL A   1      43.472  25.229  26.678  1.00  0.00     0.031 C 
ATOM     40  C   UNL A   1      39.250  26.675  28.993  1.00  0.00     0.029 A 
ATOM     41  N   UNL A   1      40.919  28.162  28.865  1.00  0.00    -0.354 N 
ATOM     42  C   UNL A   1      44.634  27.187  26.916  1.00  0.00     0.074 A 
ATOM     43  C   UNL A   1      44.637  25.818  26.447  1.00  0.00     0.031 C 
ATOM     44  C   UNL A   1      38.854  27.788  29.634  1.00  0.00     0.029 A 
ATOM     45  C   UNL A   1      39.933  28.775  29.600  1.00  0.00     0.049 A 
ATOM     46  H   UNL A   1      41.767  28.602  28.628  1.00  0.00     0.167 HD
ATOM     47  C   UNL A   1      45.669  28.047  26.761  1.00  0.00     0.034 A 
ATOM     48  C   UNL A   1      39.909  29.984  30.195  1.00  0.00     0.034 A 
ATOM     49  C   UNL A   1      45.662  29.414  27.207  1.00  0.00     0.049 A 
ATOM     50  C   UNL A   1      41.090  30.906  30.046  1.00  0.00     0.074 A 
ATOM     51  C   UNL A   1      46.636  30.381  27.029  1.00  0.00     0.029 A 
ATOM     52  N   UNL A   1      44.643  30.004  27.938  1.00  0.00    -0.354 N 
ATOM     53  N   UNL A   1      42.192  30.732  29.357  1.00  0.00    -0.248 NA
ATOM     54  C   UNL A   1      41.016  32.204  30.736  1.00  0.00     0.031 C 
ATOM     55  C   UNL A   1      46.214  31.551  27.674  1.00  0.00     0.029 A 
ATOM     56  C   UNL A   1      44.974  31.313  28.243  1.00  0.00     0.049 A 
ATOM     57  H   UNL A   1      43.806  29.556  28.201  1.00  0.00     0.167 HD
ATOM     58  C   UNL A   1      42.932  31.900  29.514  1.00  0.00     0.074 A 
ATOM     59  C   UNL A   1      42.139  32.787  30.341  1.00  0.00     0.031 C 
ATOM     60  C   UNL A   1      44.163  32.202  29.035  1.00  0.00     0.034 A 
BRANCH  47  61
ATOM     61  C   UNL A   1      46.888  27.546  26.036  1.00  0.00     0.023 A 
ATOM     62  C   UNL A   1      47.812  26.733  26.720  1.00  0.00     0.012 A 
ATOM     63  C   UNL A   1      47.089  27.827  24.670  1.00  0.00     0.148 A 
ATOM     64  C   UNL A   1      48.932  26.222  26.064  1.00  0.00     0.002 A 
ATOM     65  C   UNL A   1      48.189  27.286  24.013  1.00  0.00     0.091 A 
ATOM     66  F   UNL A   1      46.212  28.625  24.045  1.00  0.00    -0.205 F 
ATOM     67  C   UNL A   1      49.114  26.491  24.710  1.00  0.00     0.022 A 
BRANCH  65  68
ATOM     68  S   UNL A   1      48.474  27.525  22.255  1.00  0.00     0.127 S 
ATOM     69  O   UNL A   1      49.593  28.465  22.264  1.00  0.00    -0.237 OA
ATOM     70  O   UNL A   1      48.816  26.174  21.809  1.00  0.00    -0.237 OA
ATOM     71  O   UNL A   1      47.223  28.040  21.717  1.00  0.00    -0.744 OA
ENDBRANCH  65  68
ENDBRANCH  47  61
BRANCH  48  72
ATOM     72  C   UNL A   1      38.705  30.406  30.964  1.00  0.00     0.023 A 
ATOM     73  C   UNL A   1      38.635  30.144  32.345  1.00  0.00     0.012 A 
ATOM     74  C   UNL A   1      37.643  31.090  30.339  1.00  0.00     0.148 A 
ATOM     75  C   UNL A   1      37.522  30.541  33.087  1.00  0.00     0.002 A 
ATOM     76  C   UNL A   1      36.563  31.530  31.094  1.00  0.00     0.091 A 
ATOM     77  F   UNL A   1      37.716  31.304  29.017  1.00  0.00    -0.205 F 
ATOM     78  C   UNL A   1      36.493  31.245  32.466  1.00  0.00     0.022 A 
BRANCH  76  79
ATOM     79  S   UNL A   1      35.265  32.555  30.396  1.00  0.00     0.127 S 
ATOM     80  O   UNL A   1      34.340  32.675  31.519  1.00  0.00    -0.237 OA
ATOM     81  O   UNL A   1      35.989  33.781  30.060  1.00  0.00    -0.237 OA
ATOM     82  O   UNL A   1      34.770  31.820  29.238  1.00  0.00    -0.744 OA
ENDBRANCH  76  79
ENDBRANCH  48  72
BRANCH  60  83
ATOM     83  C   UNL A   1      44.746  33.544  29.396  1.00  0.00     0.023 A 
ATOM     84  C   UNL A   1      45.513  33.669  30.573  1.00  0.00     0.012 A 
ATOM     85  C   UNL A   1      44.606  34.656  28.542  1.00  0.00     0.148 A 
ATOM     86  C   UNL A   1      46.110  34.883  30.906  1.00  0.00     0.002 A 
ATOM     87  C   UNL A   1      45.238  35.853  28.860  1.00  0.00     0.091 A 
ATOM     88  F   UNL A   1      43.859  34.523  27.436  1.00  0.00    -0.205 F 
ATOM     89  C   UNL A   1      45.983  35.971  30.046  1.00  0.00     0.022 A 
BRANCH  87  90
ATOM     90  S   UNL A   1      45.203  37.282  27.771  1.00  0.00     0.127 S 
ATOM     91  O   UNL A   1      45.882  36.767  26.583  1.00  0.00    -0.237 OA
ATOM     92  O   UNL A   1      43.768  37.512  27.603  1.00  0.00    -0.237 OA
ATOM     93  O   UNL A   1      45.904  38.343  28.482  1.00  0.00    -0.744 OA
ENDBRANCH  87  90
ENDBRANCH  60  83
ENDBRANCH  34  35
ENDBRANCH  27  29
ENDBRANCH  26  27
ENDBRANCH  25  26
ENDBRANCH   1  25
TORSDOF 19
ENDMDL
MODEL 2
REMARK VINA RESULT:     -11.3      1.416      1.736
REMARK SMILES CC(C)(C[N@H+]1C[C@@H]2C[NH2+]C[C@H]2C1(C)C)C(=O)OCCOCCOC(=O)c1ccc(-c2c3nc(c(-c4cccc(S(=O)(=O)[O-])c4F)c4ccc([nH]4)c(-c4cccc(S(=O)(=O)[O-])c4F)c4nc(c(-c5cccc(S(=O)(=O)[O-])c5F)c5ccc2[nH]5)C=C4)C=C3)cc1
REMARK SMILES IDX 21 1 20 2 19 3 18 4 17 5 15 6 16 7 2 8 1 9 3 10 4 11 5 12
REMARK SMILES IDX 6 13 12 14 7 16 11 17 13 18 14 19 8 20 10 21 9 22 22 25
REMARK SMILES IDX 23 26 24 27 25 28 26 29 27 30 88 31 28 32 87 33 29 34 30 35
REMARK SMILES IDX 31 36 81 37 32 38 86 39 80 40 82 41 33 42 85 43 79 44 78 45
REMARK SMILES IDX 34 47 66 48 46 49 65 50 47 51 50 52 64 53 83 54 48 55 49 56
REMARK SMILES IDX 63 58 84 59 51 60 35 61 36 62 44 63 37 64 39 65 45 66 38 67
REMARK SMILES IDX 40 68 41 69 42 70 43 71 67 72 68 73 76 74 69 75 71 76 77 77
REMARK SMILES IDX 70 78 72 79 73 80 74 81 75 82 52 83 53 84 61 85 54 86 56 87
REMARK SMILES IDX 62 88 55 89 57 90 58 91 59 92 60 93
REMARK H PARENT 5 15 9 23 9 24 82 46 50 57
REMARK Flexibility Score: inf
ROOT
ATOM      1  C   UNL A   1      35.784  20.357  24.957  1.00  0.00     0.202 C 
ENDROOT
BRANCH   1   2
ATOM      2  O   UNL A   1      34.914  19.274  24.610  1.00  0.00    -0.374 OA
BRANCH   2   3
ATOM      3  C   UNL A   1      33.531  19.431  24.918  1.00  0.00     0.202 C 
BRANCH   3   4
ATOM      4  C   UNL A   1      32.820  20.674  24.368  1.00  0.00     0.261 C 
BRANCH   4   5
ATOM      5  O   UNL A   1      32.182  21.485  25.371  1.00  0.00    -0.463 OA
BRANCH   5   6
ATOM      6  C   UNL A   1      31.636  22.636  24.895  1.00  0.00     0.317 C 
ATOM      7  O   UNL A   1      31.430  22.847  23.700  1.00  0.00    -0.251 OA
BRANCH   6   8
ATOM      8  C   UNL A   1      31.354  23.704  25.964  1.00  0.00     0.111 C 
ATOM      9  C   UNL A   1      32.610  23.743  26.840  1.00  0.00     0.029 C 
ATOM     10  C   UNL A   1      30.197  23.119  26.810  1.00  0.00     0.029 C 
BRANCH   8  11
ATOM     11  C   UNL A   1      30.870  25.108  25.458  1.00  0.00     0.280 C 
BRANCH  11  12
ATOM     12  N   UNL A   1      31.228  25.671  24.131  1.00  0.00    -0.329 N 
ATOM     13  C   UNL A   1      30.082  26.531  23.628  1.00  0.00     0.272 C 
ATOM     14  C   UNL A   1      32.495  26.497  23.983  1.00  0.00     0.101 C 
ATOM     15  H   UNL A   1      31.414  24.826  23.593  1.00  0.00     0.348 HD
ATOM     16  C   UNL A   1      30.679  27.894  23.407  1.00  0.00     0.114 C 
ATOM     17  C   UNL A   1      32.047  27.515  22.931  1.00  0.00     0.119 C 
ATOM     18  C   UNL A   1      33.019  27.195  25.252  1.00  0.00     0.079 C 
ATOM     19  C   UNL A   1      33.633  25.684  23.345  1.00  0.00     0.079 C 
ATOM     20  C   UNL A   1      30.269  28.861  22.326  1.00  0.00     0.270 C 
ATOM     21  C   UNL A   1      32.652  28.870  22.668  1.00  0.00     0.271 C 
ATOM     22  N   UNL A   1      31.520  29.639  22.086  1.00  0.00    -0.345 N 
ATOM     23  H   UNL A   1      31.452  30.551  22.536  1.00  0.00     0.346 HD
ATOM     24  H   UNL A   1      31.663  29.783  21.087  1.00  0.00     0.346 HD
ENDBRANCH  11  12
ENDBRANCH   8  11
ENDBRANCH   6   8
ENDBRANCH   5   6
ENDBRANCH   4   5
ENDBRANCH   3   4
ENDBRANCH   2   3
ENDBRANCH   1   2
BRANCH   1  25
ATOM     25  C   UNL A   1      37.273  20.014  25.057  1.00  0.00     0.261 C 
BRANCH  25  26
ATOM     26  O   UNL A   1      38.058  21.201  25.280  1.00  0.00    -0.460 OA
BRANCH  26  27
ATOM     27  C   UNL A   1      39.193  21.002  25.988  1.00  0.00     0.338 C 
ATOM     28  O   UNL A   1      39.871  19.986  26.026  1.00  0.00    -0.246 OA
BRANCH  27  29
ATOM     29  C   UNL A   1      39.621  22.276  26.591  1.00  0.00     0.060 A 
ATOM     30  C   UNL A   1      39.028  23.454  26.122  1.00  0.00     0.016 A 
ATOM     31  C   UNL A   1      40.648  22.323  27.535  1.00  0.00     0.016 A 
ATOM     32  C   UNL A   1      39.491  24.691  26.567  1.00  0.00     0.010 A 
ATOM     33  C   UNL A   1      41.115  23.567  27.974  1.00  0.00     0.010 A 
ATOM     34  C   UNL A   1      40.562  24.757  27.468  1.00  0.00    -0.014 A 
BRANCH  34  35
ATOM     35  C   UNL A   1      41.168  26.073  27.792  1.00  0.00     0.031 A 
ATOM     36  C   UNL A   1      42.580  26.365  27.364  1.00  0.00     0.074 A 
ATOM     37  C   UNL A   1      40.462  27.007  28.455  1.00  0.00     0.049 A 
ATOM     38  N   UNL A   1      43.283  27.456  27.527  1.00  0.00    -0.248 NA
ATOM     39  C   UNL A   1      43.294  25.289  26.658  1.00  0.00     0.031 C 
ATOM     40  C   UNL A   1      39.088  26.845  28.929  1.00  0.00     0.029 A 
ATOM     41  N   UNL A   1      40.813  28.270  28.862  1.00  0.00    -0.354 N 
ATOM     42  C   UNL A   1      44.524  27.196  26.959  1.00  0.00     0.074 A 
ATOM     43  C   UNL A   1      44.485  25.838  26.461  1.00  0.00     0.031 C 
ATOM     44  C   UNL A   1      38.722  27.959  29.587  1.00  0.00     0.029 A 
ATOM     45  C   UNL A   1      39.837  28.904  29.593  1.00  0.00     0.049 A 
ATOM     46  H   UNL A   1      41.681  28.682  28.650  1.00  0.00     0.167 HD
ATOM     47  C   UNL A   1      45.593  28.020  26.840  1.00  0.00     0.034 A 
ATOM     48  C   UNL A   1      39.848  30.101  30.213  1.00  0.00     0.034 A 
ATOM     49  C   UNL A   1      45.629  29.377  27.315  1.00  0.00     0.049 A 
ATOM     50  C   UNL A   1      41.065  30.981  30.105  1.00  0.00     0.074 A 
ATOM     51  C   UNL A   1      46.642  30.310  27.175  1.00  0.00     0.029 A 
ATOM     52  N   UNL A   1      44.620  29.989  28.041  1.00  0.00    -0.354 N 
ATOM     53  N   UNL A   1      42.172  30.779  29.431  1.00  0.00    -0.248 NA
ATOM     54  C   UNL A   1      41.026  32.265  30.821  1.00  0.00     0.031 C 
ATOM     55  C   UNL A   1      46.252  31.481  27.838  1.00  0.00     0.029 A 
ATOM     56  C   UNL A   1      44.994  31.278  28.380  1.00  0.00     0.049 A 
ATOM     57  H   UNL A   1      43.762  29.568  28.279  1.00  0.00     0.167 HD
ATOM     58  C   UNL A   1      42.952  31.915  29.627  1.00  0.00     0.074 A 
ATOM     59  C   UNL A   1      42.178  32.814  30.459  1.00  0.00     0.031 C 
ATOM     60  C   UNL A   1      44.202  32.180  29.176  1.00  0.00     0.034 A 
BRANCH  47  61
ATOM     61  C   UNL A   1      46.806  27.489  26.126  1.00  0.00     0.023 A 
ATOM     62  C   UNL A   1      46.936  27.700  24.739  1.00  0.00     0.012 A 
ATOM     63  C   UNL A   1      47.839  26.839  26.829  1.00  0.00     0.148 A 
ATOM     64  C   UNL A   1      48.068  27.253  24.056  1.00  0.00     0.002 A 
ATOM     65  C   UNL A   1      48.978  26.427  26.148  1.00  0.00     0.091 A 
ATOM     66  F   UNL A   1      47.682  26.625  28.143  1.00  0.00    -0.205 F 
ATOM     67  C   UNL A   1      49.091  26.626  24.762  1.00  0.00     0.022 A 
BRANCH  65  68
ATOM     68  S   UNL A   1      50.377  25.666  26.982  1.00  0.00     0.127 S 
ATOM     69  O   UNL A   1      49.782  24.430  27.488  1.00  0.00    -0.237 OA
ATOM     70  O   UNL A   1      51.329  25.481  25.886  1.00  0.00    -0.237 OA
ATOM     71  O   UNL A   1      50.801  26.622  27.996  1.00  0.00    -0.744 OA
ENDBRANCH  65  68
ENDBRANCH  47  61
BRANCH  48  72
ATOM     72  C   UNL A   1      38.646  30.551  30.970  1.00  0.00     0.023 A 
ATOM     73  C   UNL A   1      38.569  30.318  32.356  1.00  0.00     0.012 A 
ATOM     74  C   UNL A   1      37.595  31.235  30.328  1.00  0.00     0.148 A 
ATOM     75  C   UNL A   1      37.459  30.742  33.086  1.00  0.00     0.002 A 
ATOM     76  C   UNL A   1      36.517  31.703  31.071  1.00  0.00     0.091 A 
ATOM     77  F   UNL A   1      37.674  31.423  29.003  1.00  0.00    -0.205 F 
ATOM     78  C   UNL A   1      36.440  31.445  32.448  1.00  0.00     0.022 A 
BRANCH  76  79
ATOM     79  S   UNL A   1      35.233  32.729  30.348  1.00  0.00     0.127 S 
ATOM     80  O   UNL A   1      35.991  33.900  29.917  1.00  0.00    -0.237 OA
ATOM     81  O   UNL A   1      34.738  31.881  29.263  1.00  0.00    -0.237 OA
ATOM     82  O   UNL A   1      34.268  32.952  31.417  1.00  0.00    -0.744 OA
ENDBRANCH  76  79
ENDBRANCH  48  72
BRANCH  60  83
ATOM     83  C   UNL A   1      44.828  33.491  29.577  1.00  0.00     0.023 A 
ATOM     84  C   UNL A   1      45.630  33.548  30.734  1.00  0.00     0.012 A 
ATOM     85  C   UNL A   1      44.692  34.642  28.774  1.00  0.00     0.148 A 
ATOM     86  C   UNL A   1      46.266  34.733  31.101  1.00  0.00     0.002 A 
ATOM     87  C   UNL A   1      45.362  35.809  29.124  1.00  0.00     0.091 A 
ATOM     88  F   UNL A   1      43.911  34.574  27.686  1.00  0.00    -0.205 F 
ATOM     89  C   UNL A   1      46.143  35.859  30.291  1.00  0.00     0.022 A 
BRANCH  87  90
ATOM     90  S   UNL A   1      45.332  37.284  28.096  1.00  0.00     0.127 S 
ATOM     91  O   UNL A   1      46.159  38.205  28.874  1.00  0.00    -0.237 OA
ATOM     92  O   UNL A   1      45.945  36.812  26.854  1.00  0.00    -0.237 OA
ATOM     93  O   UNL A   1      43.928  37.655  27.972  1.00  0.00    -0.744 OA
ENDBRANCH  87  90
ENDBRANCH  60  83
ENDBRANCH  34  35
ENDBRANCH  27  29
ENDBRANCH  26  27
ENDBRANCH  25  26
ENDBRANCH   1  25
TORSDOF 19
ENDMDL
MODEL 3
REMARK VINA RESULT:     -11.3      1.356      7.704
REMARK SMILES CC(C)(C[N@H+]1C[C@@H]2C[NH2+]C[C@H]2C1(C)C)C(=O)OCCOCCOC(=O)c1ccc(-c2c3nc(c(-c4cccc(S(=O)(=O)[O-])c4F)c4ccc([nH]4)c(-c4cccc(S(=O)(=O)[O-])c4F)c4nc(c(-c5cccc(S(=O)(=O)[O-])c5F)c5ccc2[nH]5)C=C4)C=C3)cc1
REMARK SMILES IDX 21 1 20 2 19 3 18 4 17 5 15 6 16 7 2 8 1 9 3 10 4 11 5 12
REMARK SMILES IDX 6 13 12 14 7 16 11 17 13 18 14 19 8 20 10 21 9 22 22 25
REMARK SMILES IDX 23 26 24 27 25 28 26 29 27 30 88 31 28 32 87 33 29 34 30 35
REMARK SMILES IDX 31 36 81 37 32 38 86 39 80 40 82 41 33 42 85 43 79 44 78 45
REMARK SMILES IDX 34 47 66 48 46 49 65 50 47 51 50 52 64 53 83 54 48 55 49 56
REMARK SMILES IDX 63 58 84 59 51 60 35 61 36 62 44 63 37 64 39 65 45 66 38 67
REMARK SMILES IDX 40 68 41 69 42 70 43 71 67 72 68 73 76 74 69 75 71 76 77 77
REMARK SMILES IDX 70 78 72 79 73 80 74 81 75 82 52 83 53 84 61 85 54 86 56 87
REMARK SMILES IDX 62 88 55 89 57 90 58 91 59 92 60 93
REMARK H PARENT 5 15 9 23 9 24 82 46 50 57
REMARK Flexibility Score: inf
ROOT
ATOM      1  C   UNL A   1      35.422  20.362  24.879  1.00  0.00     0.202 C 
ENDROOT
BRANCH   1   2
ATOM      2  O   UNL A   1      34.634  19.197  24.615  1.00  0.00    -0.374 OA
BRANCH   2   3
ATOM      3  C   UNL A   1      33.245  19.271  24.926  1.00  0.00     0.202 C 
BRANCH   3   4
ATOM      4  C   UNL A   1      32.474  20.504  24.435  1.00  0.00     0.261 C 
BRANCH   4   5
ATOM      5  O   UNL A   1      32.238  21.498  25.448  1.00  0.00    -0.463 OA
BRANCH   5   6
ATOM      6  C   UNL A   1      31.609  22.616  24.997  1.00  0.00     0.317 C 
ATOM      7  O   UNL A   1      31.375  22.832  23.809  1.00  0.00    -0.251 OA
BRANCH   6   8
ATOM      8  C   UNL A   1      31.268  23.645  26.087  1.00  0.00     0.111 C 
ATOM      9  C   UNL A   1      32.471  23.645  27.036  1.00  0.00     0.029 C 
ATOM     10  C   UNL A   1      30.062  23.034  26.842  1.00  0.00     0.029 C 
BRANCH   8  11
ATOM     11  C   UNL A   1      30.818  25.070  25.607  1.00  0.00     0.280 C 
BRANCH  11  12
ATOM     12  N   UNL A   1      31.143  25.625  24.269  1.00  0.00    -0.329 N 
ATOM     13  C   UNL A   1      29.988  26.488  23.792  1.00  0.00     0.272 C 
ATOM     14  C   UNL A   1      32.409  26.445  24.085  1.00  0.00     0.101 C 
ATOM     15  H   UNL A   1      31.311  24.777  23.729  1.00  0.00     0.348 HD
ATOM     16  C   UNL A   1      30.585  27.848  23.550  1.00  0.00     0.114 C 
ATOM     17  C   UNL A   1      31.938  27.461  23.040  1.00  0.00     0.119 C 
ATOM     18  C   UNL A   1      32.970  27.147  25.336  1.00  0.00     0.079 C 
ATOM     19  C   UNL A   1      33.527  25.625  23.419  1.00  0.00     0.079 C 
ATOM     20  C   UNL A   1      30.150  28.812  22.476  1.00  0.00     0.270 C 
ATOM     21  C   UNL A   1      32.541  28.813  22.755  1.00  0.00     0.271 C 
ATOM     22  N   UNL A   1      31.397  29.584  22.201  1.00  0.00    -0.345 N 
ATOM     23  H   UNL A   1      31.345  30.498  22.649  1.00  0.00     0.346 HD
ATOM     24  H   UNL A   1      31.515  29.723  21.197  1.00  0.00     0.346 HD
ENDBRANCH  11  12
ENDBRANCH   8  11
ENDBRANCH   6   8
ENDBRANCH   5   6
ENDBRANCH   4   5
ENDBRANCH   3   4
ENDBRANCH   2   3
ENDBRANCH   1   2
BRANCH   1  25
ATOM     25  C   UNL A   1      36.930  20.135  25.010  1.00  0.00     0.261 C 
BRANCH  25  26
ATOM     26  O   UNL A   1      37.566  21.267  25.636  1.00  0.00    -0.460 OA
BRANCH  26  27
ATOM     27  C   UNL A   1      38.850  21.059  26.007  1.00  0.00     0.338 C 
ATOM     28  O   UNL A   1      39.530  20.067  25.787  1.00  0.00    -0.246 OA
BRANCH  27  29
ATOM     29  C   UNL A   1      39.402  22.301  26.573  1.00  0.00     0.060 A 
ATOM     30  C   UNL A   1      38.832  23.514  26.168  1.00  0.00     0.016 A 
ATOM     31  C   UNL A   1      40.513  22.283  27.416  1.00  0.00     0.016 A 
ATOM     32  C   UNL A   1      39.402  24.720  26.574  1.00  0.00     0.010 A 
ATOM     33  C   UNL A   1      41.087  23.496  27.816  1.00  0.00     0.010 A 
ATOM     34  C   UNL A   1      40.555  24.719  27.371  1.00  0.00    -0.014 A 
BRANCH  34  35
ATOM     35  C   UNL A   1      41.259  25.997  27.643  1.00  0.00     0.031 A 
ATOM     36  C   UNL A   1      40.554  27.085  28.405  1.00  0.00     0.074 A 
ATOM     37  C   UNL A   1      42.523  26.185  27.221  1.00  0.00     0.049 A 
ATOM     38  N   UNL A   1      40.997  28.262  28.765  1.00  0.00    -0.248 NA
ATOM     39  C   UNL A   1      39.168  26.812  28.819  1.00  0.00     0.031 C 
ATOM     40  C   UNL A   1      43.313  25.212  26.467  1.00  0.00     0.029 A 
ATOM     41  N   UNL A   1      43.355  27.270  27.348  1.00  0.00    -0.354 N 
ATOM     42  C   UNL A   1      39.946  28.876  29.434  1.00  0.00     0.074 A 
ATOM     43  C   UNL A   1      38.835  27.949  29.417  1.00  0.00     0.031 C 
ATOM     44  C   UNL A   1      44.508  25.755  26.177  1.00  0.00     0.029 A 
ATOM     45  C   UNL A   1      44.562  27.116  26.709  1.00  0.00     0.049 A 
ATOM     46  H   UNL A   1      43.110  28.080  27.851  1.00  0.00     0.167 HD
ATOM     47  C   UNL A   1      39.914  30.092  30.031  1.00  0.00     0.034 A 
ATOM     48  C   UNL A   1      45.585  27.979  26.554  1.00  0.00     0.034 A 
ATOM     49  C   UNL A   1      41.022  31.007  30.069  1.00  0.00     0.049 A 
ATOM     50  C   UNL A   1      45.507  29.343  27.189  1.00  0.00     0.074 A 
ATOM     51  C   UNL A   1      41.105  32.230  30.712  1.00  0.00     0.029 A 
ATOM     52  N   UNL A   1      42.231  30.814  29.421  1.00  0.00    -0.354 N 
ATOM     53  N   UNL A   1      44.565  29.847  27.949  1.00  0.00    -0.248 NA
ATOM     54  C   UNL A   1      46.645  30.249  26.965  1.00  0.00     0.031 C 
ATOM     55  C   UNL A   1      42.359  32.787  30.432  1.00  0.00     0.029 A 
ATOM     56  C   UNL A   1      43.059  31.905  29.625  1.00  0.00     0.049 A 
ATOM     57  H   UNL A   1      42.467  30.017  28.893  1.00  0.00     0.167 HD
ATOM     58  C   UNL A   1      45.003  31.118  28.309  1.00  0.00     0.074 A 
ATOM     59  C   UNL A   1      46.308  31.295  27.707  1.00  0.00     0.031 C 
ATOM     60  C   UNL A   1      44.372  32.059  29.053  1.00  0.00     0.034 A 
BRANCH  47  61
ATOM     61  C   UNL A   1      38.645  30.488  30.736  1.00  0.00     0.023 A 
ATOM     62  C   UNL A   1      38.487  30.173  32.099  1.00  0.00     0.012 A 
ATOM     63  C   UNL A   1      37.641  31.220  30.071  1.00  0.00     0.148 A 
ATOM     64  C   UNL A   1      37.338  30.562  32.789  1.00  0.00     0.002 A 
ATOM     65  C   UNL A   1      36.515  31.633  30.774  1.00  0.00     0.091 A 
ATOM     66  F   UNL A   1      37.800  31.485  28.767  1.00  0.00    -0.205 F 
ATOM     67  C   UNL A   1      36.359  31.299  32.129  1.00  0.00     0.022 A 
BRANCH  65  68
ATOM     68  S   UNL A   1      35.229  32.641  30.025  1.00  0.00     0.127 S 
ATOM     69  O   UNL A   1      34.728  31.749  28.980  1.00  0.00    -0.237 OA
ATOM     70  O   UNL A   1      34.307  32.849  31.142  1.00  0.00    -0.237 OA
ATOM     71  O   UNL A   1      35.894  33.849  29.556  1.00  0.00    -0.744 OA
ENDBRANCH  65  68
ENDBRANCH  47  61
BRANCH  48  72
ATOM     72  C   UNL A   1      46.792  27.564  25.785  1.00  0.00     0.023 A 
ATOM     73  C   UNL A   1      46.847  27.798  24.398  1.00  0.00     0.012 A 
ATOM     74  C   UNL A   1      47.894  26.965  26.426  1.00  0.00     0.148 A 
ATOM     75  C   UNL A   1      47.972  27.429  23.661  1.00  0.00     0.002 A 
ATOM     76  C   UNL A   1      49.032  26.649  25.695  1.00  0.00     0.091 A 
ATOM     77  F   UNL A   1      47.810  26.724  27.742  1.00  0.00    -0.205 F 
ATOM     78  C   UNL A   1      49.069  26.866  24.309  1.00  0.00     0.022 A 
BRANCH  76  79
ATOM     79  S   UNL A   1      50.533  26.046  26.477  1.00  0.00     0.127 S 
ATOM     80  O   UNL A   1      51.432  25.909  25.335  1.00  0.00    -0.237 OA
ATOM     81  O   UNL A   1      50.862  27.140  27.392  1.00  0.00    -0.237 OA
ATOM     82  O   UNL A   1      50.153  24.807  27.142  1.00  0.00    -0.744 OA
ENDBRANCH  76  79
ENDBRANCH  48  72
BRANCH  60  83
ATOM     83  C   UNL A   1      45.073  33.377  29.256  1.00  0.00     0.023 A 
ATOM     84  C   UNL A   1      45.893  33.555  30.389  1.00  0.00     0.012 A 
ATOM     85  C   UNL A   1      44.988  34.407  28.297  1.00  0.00     0.148 A 
ATOM     86  C   UNL A   1      46.597  34.743  30.576  1.00  0.00     0.002 A 
ATOM     87  C   UNL A   1      45.725  35.572  28.470  1.00  0.00     0.091 A 
ATOM     88  F   UNL A   1      44.190  34.226  27.234  1.00  0.00    -0.205 F 
ATOM     89  C   UNL A   1      46.523  35.746  29.613  1.00  0.00     0.022 A 
BRANCH  87  90
ATOM     90  S   UNL A   1      45.760  36.883  27.241  1.00  0.00     0.127 S 
ATOM     91  O   UNL A   1      46.618  37.875  27.889  1.00  0.00    -0.237 OA
ATOM     92  O   UNL A   1      46.363  36.215  26.088  1.00  0.00    -0.237 OA
ATOM     93  O   UNL A   1      44.373  37.286  27.048  1.00  0.00    -0.744 OA
ENDBRANCH  87  90
ENDBRANCH  60  83
ENDBRANCH  34  35
ENDBRANCH  27  29
ENDBRANCH  26  27
ENDBRANCH  25  26
ENDBRANCH   1  25
TORSDOF 19
ENDMDL
