MODEL 1
REMARK VINA RESULT:     -11.9      0.000      0.000
REMARK SMILES Nc1nccc(N2CCC[C@@](Cc3ccc(F)cc3F)(C(=O)OCCOCCOC(=O)c3ccc(-c4c5nc(c(-c6cccc(S(=O)(=O)[O-])c6F)c6ccc([nH]6)c(-c6cccc(S(=O)(=O)[O-])c6F)c6nc(c(-c7cccc(S(=O)(=O)[O-])c7F)c7ccc4[nH]7)C=C6)C=C5)cc3)C2)n1
REMARK SMILES IDX 27 1 26 2 25 3 24 4 23 5 21 6 22 7 11 8 7 9 8 10 95 11 9 12
REMARK SMILES IDX 10 13 6 14 2 15 3 16 96 17 4 18 5 19 1 20 12 23 13 24 14 25
REMARK SMILES IDX 19 26 15 27 18 28 20 29 16 30 17 31 28 32 29 33 30 34 31 35
REMARK SMILES IDX 32 36 33 37 94 38 34 39 93 40 35 41 36 42 37 43 87 44 38 45
REMARK SMILES IDX 92 46 86 47 88 48 39 49 91 50 85 51 84 52 40 54 72 55 52 56
REMARK SMILES IDX 71 57 53 58 56 59 70 60 89 61 54 62 55 63 69 65 90 66 57 67
REMARK SMILES IDX 41 68 42 69 50 70 43 71 45 72 51 73 44 74 46 75 47 76 48 77
REMARK SMILES IDX 49 78 73 79 74 80 82 81 75 82 77 83 83 84 76 85 78 86 79 87
REMARK SMILES IDX 80 88 81 89 58 90 59 91 67 92 60 93 62 94 68 95 61 96 63 97
REMARK SMILES IDX 64 98 65 99 66 100
REMARK H PARENT 1 21 1 22 88 53 56 64
REMARK Flexibility Score: inf
ROOT
ATOM      1  C   UNL A   1      37.310  20.609  24.506  1.00  0.00     0.202 C 
ENDROOT
BRANCH   1   2
ATOM      2  O   UNL A   1      36.211  20.906  25.366  1.00  0.00    -0.374 OA
BRANCH   2   3
ATOM      3  C   UNL A   1      36.184  22.182  25.995  1.00  0.00     0.202 C 
BRANCH   3   4
ATOM      4  C   UNL A   1      36.482  23.416  25.133  1.00  0.00     0.261 C 
BRANCH   4   5
ATOM      5  O   UNL A   1      35.336  24.240  24.862  1.00  0.00    -0.463 OA
BRANCH   5   6
ATOM      6  C   UNL A   1      34.784  24.063  23.631  1.00  0.00     0.314 C 
ATOM      7  O   UNL A   1      35.324  23.445  22.718  1.00  0.00    -0.252 OA
BRANCH   6   8
ATOM      8  C   UNL A   1      33.437  24.762  23.460  1.00  0.00     0.090 C 
ATOM      9  N   UNL A   1      32.414  26.908  24.054  1.00  0.00    -0.355 N 
ATOM     10  C   UNL A   1      32.021  27.297  22.710  1.00  0.00     0.118 C 
ATOM     11  C   UNL A   1      33.636  26.121  24.172  1.00  0.00     0.137 C 
ATOM     12  C   UNL A   1      31.838  26.027  21.873  1.00  0.00     0.023 C 
ATOM     13  C   UNL A   1      33.030  25.061  21.992  1.00  0.00     0.023 C 
BRANCH   9  14
ATOM     14  C   UNL A   1      32.206  27.813  25.086  1.00  0.00     0.134 A 
ATOM     15  C   UNL A   1      31.683  29.918  25.814  1.00  0.00     0.221 A 
ATOM     16  N   UNL A   1      32.120  29.691  27.056  1.00  0.00    -0.222 NA
ATOM     17  N   UNL A   1      31.714  29.033  24.813  1.00  0.00    -0.196 NA
ATOM     18  C   UNL A   1      32.604  28.462  27.294  1.00  0.00     0.119 A 
ATOM     19  C   UNL A   1      32.653  27.473  26.345  1.00  0.00     0.067 A 
BRANCH  15  20
ATOM     20  N   UNL A   1      31.206  31.169  25.536  1.00  0.00    -0.368 N 
ATOM     21  H   UNL A   1      31.796  31.840  25.124  1.00  0.00     0.159 HD
ATOM     22  H   UNL A   1      30.273  31.398  25.748  1.00  0.00     0.159 HD
ENDBRANCH  15  20
ENDBRANCH   9  14
BRANCH   8  23
ATOM     23  C   UNL A   1      32.374  23.923  24.234  1.00  0.00     0.059 C 
BRANCH  23  24
ATOM     24  C   UNL A   1      32.407  22.436  23.958  1.00  0.00    -0.011 A 
ATOM     25  C   UNL A   1      32.166  21.937  22.670  1.00  0.00     0.010 A 
ATOM     26  C   UNL A   1      32.646  21.522  24.996  1.00  0.00     0.129 A 
ATOM     27  C   UNL A   1      32.090  20.561  22.453  1.00  0.00     0.040 A 
ATOM     28  C   UNL A   1      32.582  20.152  24.785  1.00  0.00     0.078 A 
ATOM     29  F   UNL A   1      32.926  21.969  26.228  1.00  0.00    -0.207 F 
ATOM     30  C   UNL A   1      32.283  19.685  23.515  1.00  0.00     0.126 A 
ATOM     31  F   UNL A   1      32.164  18.369  23.308  1.00  0.00    -0.207 F 
ENDBRANCH  23  24
ENDBRANCH   8  23
ENDBRANCH   6   8
ENDBRANCH   5   6
ENDBRANCH   4   5
ENDBRANCH   3   4
ENDBRANCH   2   3
ENDBRANCH   1   2
BRANCH   1  32
ATOM     32  C   UNL A   1      38.430  19.708  25.044  1.00  0.00     0.261 C 
BRANCH  32  33
ATOM     33  O   UNL A   1      38.885  20.087  26.358  1.00  0.00    -0.460 OA
BRANCH  33  34
ATOM     34  C   UNL A   1      40.216  20.332  26.443  1.00  0.00     0.338 C 
ATOM     35  O   UNL A   1      41.121  19.628  26.013  1.00  0.00    -0.246 OA
BRANCH  34  36
ATOM     36  C   UNL A   1      40.477  21.674  26.988  1.00  0.00     0.060 A 
ATOM     37  C   UNL A   1      39.972  22.775  26.286  1.00  0.00     0.016 A 
ATOM     38  C   UNL A   1      41.338  21.857  28.073  1.00  0.00     0.016 A 
ATOM     39  C   UNL A   1      40.366  24.066  26.635  1.00  0.00     0.010 A 
ATOM     40  C   UNL A   1      41.738  23.155  28.415  1.00  0.00     0.010 A 
ATOM     41  C   UNL A   1      41.287  24.261  27.673  1.00  0.00    -0.014 A 
BRANCH  41  42
ATOM     42  C   UNL A   1      41.871  25.607  27.892  1.00  0.00     0.031 A 
ATOM     43  C   UNL A   1      41.051  26.670  28.571  1.00  0.00     0.074 A 
ATOM     44  C   UNL A   1      43.126  25.880  27.492  1.00  0.00     0.049 A 
ATOM     45  N   UNL A   1      41.368  27.907  28.852  1.00  0.00    -0.248 NA
ATOM     46  C   UNL A   1      39.690  26.289  28.986  1.00  0.00     0.031 C 
ATOM     47  C   UNL A   1      44.015  24.941  26.812  1.00  0.00     0.029 A 
ATOM     48  N   UNL A   1      43.856  27.039  27.576  1.00  0.00    -0.354 N 
ATOM     49  C   UNL A   1      40.246  28.458  29.460  1.00  0.00     0.074 A 
ATOM     50  C   UNL A   1      39.233  27.426  29.490  1.00  0.00     0.031 C 
ATOM     51  C   UNL A   1      45.160  25.572  26.506  1.00  0.00     0.029 A 
ATOM     52  C   UNL A   1      45.079  26.962  26.956  1.00  0.00     0.049 A 
ATOM     53  H   UNL A   1      43.534  27.847  28.037  1.00  0.00     0.167 HD
ATOM     54  C   UNL A   1      40.079  29.704  29.966  1.00  0.00     0.034 A 
ATOM     55  C   UNL A   1      46.017  27.908  26.753  1.00  0.00     0.034 A 
ATOM     56  C   UNL A   1      41.089  30.728  29.949  1.00  0.00     0.049 A 
ATOM     57  C   UNL A   1      45.806  29.292  27.311  1.00  0.00     0.074 A 
ATOM     58  C   UNL A   1      41.031  32.005  30.479  1.00  0.00     0.029 A 
ATOM     59  N   UNL A   1      42.338  30.597  29.362  1.00  0.00    -0.354 N 
ATOM     60  N   UNL A   1      44.794  29.756  28.003  1.00  0.00    -0.248 NA
ATOM     61  C   UNL A   1      46.881  30.270  27.092  1.00  0.00     0.031 C 
ATOM     62  C   UNL A   1      42.240  32.652  30.197  1.00  0.00     0.029 A 
ATOM     63  C   UNL A   1      43.057  31.772  29.505  1.00  0.00     0.049 A 
ATOM     64  H   UNL A   1      42.667  29.786  28.909  1.00  0.00     0.167 HD
ATOM     65  C   UNL A   1      45.117  31.071  28.320  1.00  0.00     0.074 A 
ATOM     66  C   UNL A   1      46.433  31.321  27.767  1.00  0.00     0.031 C 
ATOM     67  C   UNL A   1      44.385  31.994  28.993  1.00  0.00     0.034 A 
BRANCH  54  68
ATOM     68  C   UNL A   1      38.759  30.014  30.621  1.00  0.00     0.023 A 
ATOM     69  C   UNL A   1      38.492  29.506  31.909  1.00  0.00     0.012 A 
ATOM     70  C   UNL A   1      37.804  30.834  29.990  1.00  0.00     0.148 A 
ATOM     71  C   UNL A   1      37.282  29.782  32.545  1.00  0.00     0.002 A 
ATOM     72  C   UNL A   1      36.615  31.136  30.646  1.00  0.00     0.091 A 
ATOM     73  F   UNL A   1      38.063  31.287  28.755  1.00  0.00    -0.205 F 
ATOM     74  C   UNL A   1      36.349  30.603  31.919  1.00  0.00     0.022 A 
BRANCH  72  75
ATOM     75  S   UNL A   1      35.384  32.239  29.943  1.00  0.00     0.127 S 
ATOM     76  O   UNL A   1      34.890  31.451  28.816  1.00  0.00    -0.237 OA
ATOM     77  O   UNL A   1      34.433  32.390  31.045  1.00  0.00    -0.237 OA
ATOM     78  O   UNL A   1      36.100  33.460  29.597  1.00  0.00    -0.744 OA
ENDBRANCH  72  75
ENDBRANCH  54  68
BRANCH  55  79
ATOM     79  C   UNL A   1      47.260  27.560  26.009  1.00  0.00     0.023 A 
ATOM     80  C   UNL A   1      48.328  26.944  26.690  1.00  0.00     0.012 A 
ATOM     81  C   UNL A   1      47.368  27.791  24.623  1.00  0.00     0.148 A 
ATOM     82  C   UNL A   1      49.489  26.582  26.008  1.00  0.00     0.002 A 
ATOM     83  C   UNL A   1      48.505  27.378  23.940  1.00  0.00     0.091 A 
ATOM     84  F   UNL A   1      46.345  28.393  24.000  1.00  0.00    -0.205 F 
ATOM     85  C   UNL A   1      49.574  26.788  24.633  1.00  0.00     0.022 A 
BRANCH  83  86
ATOM     86  S   UNL A   1      48.653  27.486  22.153  1.00  0.00     0.127 S 
ATOM     87  O   UNL A   1      47.446  28.228  21.796  1.00  0.00    -0.237 OA
ATOM     88  O   UNL A   1      49.903  28.232  22.001  1.00  0.00    -0.237 OA
ATOM     89  O   UNL A   1      48.709  26.111  21.676  1.00  0.00    -0.744 OA
ENDBRANCH  83  86
ENDBRANCH  55  79
BRANCH  67  90
ATOM     90  C   UNL A   1      44.986  33.363  29.182  1.00  0.00     0.023 A 
ATOM     91  C   UNL A   1      45.749  33.631  30.335  1.00  0.00     0.012 A 
ATOM     92  C   UNL A   1      44.866  34.353  28.188  1.00  0.00     0.148 A 
ATOM     93  C   UNL A   1      46.362  34.873  30.508  1.00  0.00     0.002 A 
ATOM     94  C   UNL A   1      45.513  35.574  28.347  1.00  0.00     0.091 A 
ATOM     95  F   UNL A   1      44.119  34.087  27.106  1.00  0.00    -0.205 F 
ATOM     96  C   UNL A   1      46.254  35.838  29.510  1.00  0.00     0.022 A 
BRANCH  94  97
ATOM     97  S   UNL A   1      45.501  36.842  27.073  1.00  0.00     0.127 S 
ATOM     98  O   UNL A   1      46.116  36.140  25.948  1.00  0.00    -0.237 OA
ATOM     99  O   UNL A   1      44.071  37.112  26.915  1.00  0.00    -0.237 OA
ATOM    100  O   UNL A   1      46.267  37.956  27.614  1.00  0.00    -0.744 OA
ENDBRANCH  94  97
ENDBRANCH  67  90
ENDBRANCH  41  42
ENDBRANCH  34  36
ENDBRANCH  33  34
ENDBRANCH  32  33
ENDBRANCH   1  32
TORSDOF 21
ENDMDL
MODEL 2
REMARK VINA RESULT:     -11.8      5.371      8.902
REMARK SMILES Nc1nccc(N2CCC[C@@](Cc3ccc(F)cc3F)(C(=O)OCCOCCOC(=O)c3ccc(-c4c5nc(c(-c6cccc(S(=O)(=O)[O-])c6F)c6ccc([nH]6)c(-c6cccc(S(=O)(=O)[O-])c6F)c6nc(c(-c7cccc(S(=O)(=O)[O-])c7F)c7ccc4[nH]7)C=C6)C=C5)cc3)C2)n1
REMARK SMILES IDX 27 1 26 2 25 3 24 4 23 5 21 6 22 7 11 8 7 9 8 10 95 11 9 12
REMARK SMILES IDX 10 13 6 14 2 15 3 16 96 17 4 18 5 19 1 20 12 23 13 24 14 25
REMARK SMILES IDX 19 26 15 27 18 28 20 29 16 30 17 31 28 32 29 33 30 34 31 35
REMARK SMILES IDX 32 36 33 37 94 38 34 39 93 40 35 41 36 42 37 43 87 44 38 45
REMARK SMILES IDX 92 46 86 47 88 48 39 49 91 50 85 51 84 52 40 54 72 55 52 56
REMARK SMILES IDX 71 57 53 58 56 59 70 60 89 61 54 62 55 63 69 65 90 66 57 67
REMARK SMILES IDX 41 68 42 69 50 70 43 71 45 72 51 73 44 74 46 75 47 76 48 77
REMARK SMILES IDX 49 78 73 79 74 80 82 81 75 82 77 83 83 84 76 85 78 86 79 87
REMARK SMILES IDX 80 88 81 89 58 90 59 91 67 92 60 93 62 94 68 95 61 96 63 97
REMARK SMILES IDX 64 98 65 99 66 100
REMARK H PARENT 1 21 1 22 88 53 56 64
REMARK Flexibility Score: inf
ROOT
ATOM      1  C   UNL A   1      31.418  31.887  26.846  1.00  0.00     0.202 C 
ENDROOT
BRANCH   1   2
ATOM      2  O   UNL A   1      31.156  31.284  25.580  1.00  0.00    -0.374 OA
BRANCH   2   3
ATOM      3  C   UNL A   1      31.450  29.901  25.427  1.00  0.00     0.202 C 
BRANCH   3   4
ATOM      4  C   UNL A   1      32.888  29.506  25.064  1.00  0.00     0.261 C 
BRANCH   4   5
ATOM      5  O   UNL A   1      33.164  28.101  25.182  1.00  0.00    -0.463 OA
BRANCH   5   6
ATOM      6  C   UNL A   1      32.833  27.361  24.090  1.00  0.00     0.314 C 
ATOM      7  O   UNL A   1      33.343  27.506  22.982  1.00  0.00    -0.252 OA
BRANCH   6   8
ATOM      8  C   UNL A   1      31.713  26.356  24.348  1.00  0.00     0.090 C 
ATOM      9  N   UNL A   1      31.488  23.950  24.759  1.00  0.00    -0.355 N 
ATOM     10  C   UNL A   1      30.769  24.050  26.018  1.00  0.00     0.118 C 
ATOM     11  C   UNL A   1      32.456  25.004  24.478  1.00  0.00     0.137 C 
ATOM     12  C   UNL A   1      30.020  25.386  26.043  1.00  0.00     0.023 C 
ATOM     13  C   UNL A   1      30.918  26.577  25.664  1.00  0.00     0.023 C 
BRANCH   9  14
ATOM     14  C   UNL A   1      31.860  22.689  24.314  1.00  0.00     0.134 A 
ATOM     15  C   UNL A   1      31.949  21.103  22.667  1.00  0.00     0.221 A 
ATOM     16  N   UNL A   1      32.268  20.119  23.513  1.00  0.00    -0.222 NA
ATOM     17  N   UNL A   1      31.730  22.375  23.015  1.00  0.00    -0.196 NA
ATOM     18  C   UNL A   1      32.391  20.467  24.803  1.00  0.00     0.119 A 
ATOM     19  C   UNL A   1      32.216  21.749  25.258  1.00  0.00     0.067 A 
BRANCH  15  20
ATOM     20  N   UNL A   1      31.795  20.773  21.350  1.00  0.00    -0.368 N 
ATOM     21  H   UNL A   1      32.069  19.884  21.030  1.00  0.00     0.159 HD
ATOM     22  H   UNL A   1      31.410  21.425  20.721  1.00  0.00     0.159 HD
ENDBRANCH  15  20
ENDBRANCH   9  14
BRANCH   8  23
ATOM     23  C   UNL A   1      30.807  26.330  23.079  1.00  0.00     0.059 C 
BRANCH  23  24
ATOM     24  C   UNL A   1      29.896  27.526  22.917  1.00  0.00    -0.011 A 
ATOM     25  C   UNL A   1      30.372  28.724  22.365  1.00  0.00     0.010 A 
ATOM     26  C   UNL A   1      28.563  27.473  23.349  1.00  0.00     0.129 A 
ATOM     27  C   UNL A   1      29.554  29.852  22.323  1.00  0.00     0.040 A 
ATOM     28  C   UNL A   1      27.739  28.588  23.302  1.00  0.00     0.078 A 
ATOM     29  F   UNL A   1      28.064  26.329  23.839  1.00  0.00    -0.207 F 
ATOM     30  C   UNL A   1      28.253  29.777  22.806  1.00  0.00     0.126 A 
ATOM     31  F   UNL A   1      27.489  30.875  22.805  1.00  0.00    -0.207 F 
ENDBRANCH  23  24
ENDBRANCH   8  23
ENDBRANCH   6   8
ENDBRANCH   5   6
ENDBRANCH   4   5
ENDBRANCH   3   4
ENDBRANCH   2   3
ENDBRANCH   1   2
BRANCH   1  32
ATOM     32  C   UNL A   1      32.093  33.266  26.868  1.00  0.00     0.261 C 
BRANCH  32  33
ATOM     33  O   UNL A   1      32.468  33.695  28.192  1.00  0.00    -0.460 OA
BRANCH  33  34
ATOM     34  C   UNL A   1      33.634  34.387  28.249  1.00  0.00     0.338 C 
ATOM     35  O   UNL A   1      33.768  35.604  28.228  1.00  0.00    -0.246 OA
BRANCH  34  36
ATOM     36  C   UNL A   1      34.772  33.492  28.513  1.00  0.00     0.060 A 
ATOM     37  C   UNL A   1      34.521  32.302  29.208  1.00  0.00     0.016 A 
ATOM     38  C   UNL A   1      36.082  33.888  28.232  1.00  0.00     0.016 A 
ATOM     39  C   UNL A   1      35.582  31.526  29.669  1.00  0.00     0.010 A 
ATOM     40  C   UNL A   1      37.146  33.110  28.704  1.00  0.00     0.010 A 
ATOM     41  C   UNL A   1      36.902  31.949  29.459  1.00  0.00    -0.014 A 
BRANCH  41  42
ATOM     42  C   UNL A   1      38.015  31.244  30.141  1.00  0.00     0.031 A 
ATOM     43  C   UNL A   1      38.370  31.612  31.557  1.00  0.00     0.074 A 
ATOM     44  C   UNL A   1      38.703  30.277  29.507  1.00  0.00     0.049 A 
ATOM     45  N   UNL A   1      39.306  31.126  32.330  1.00  0.00    -0.248 NA
ATOM     46  C   UNL A   1      37.563  32.674  32.183  1.00  0.00     0.031 C 
ATOM     47  C   UNL A   1      38.464  29.839  28.133  1.00  0.00     0.029 A 
ATOM     48  N   UNL A   1      39.761  29.513  29.929  1.00  0.00    -0.354 N 
ATOM     49  C   UNL A   1      39.215  31.830  33.525  1.00  0.00     0.074 A 
ATOM     50  C   UNL A   1      38.144  32.789  33.369  1.00  0.00     0.031 C 
ATOM     51  C   UNL A   1      39.377  28.907  27.812  1.00  0.00     0.029 A 
ATOM     52  C   UNL A   1      40.270  28.694  28.950  1.00  0.00     0.049 A 
ATOM     53  H   UNL A   1      40.121  29.547  30.845  1.00  0.00     0.167 HD
ATOM     54  C   UNL A   1      39.943  31.678  34.658  1.00  0.00     0.034 A 
ATOM     55  C   UNL A   1      41.346  27.883  28.962  1.00  0.00     0.034 A 
ATOM     56  C   UNL A   1      40.999  30.715  34.819  1.00  0.00     0.049 A 
ATOM     57  C   UNL A   1      42.151  27.739  30.227  1.00  0.00     0.074 A 
ATOM     58  C   UNL A   1      41.762  30.453  35.944  1.00  0.00     0.029 A 
ATOM     59  N   UNL A   1      41.451  29.862  33.825  1.00  0.00    -0.354 N 
ATOM     60  N   UNL A   1      41.966  28.312  31.392  1.00  0.00    -0.248 NA
ATOM     61  C   UNL A   1      43.289  26.809  30.191  1.00  0.00     0.031 C 
ATOM     62  C   UNL A   1      42.687  29.452  35.623  1.00  0.00     0.029 A 
ATOM     63  C   UNL A   1      42.489  29.080  34.302  1.00  0.00     0.049 A 
ATOM     64  H   UNL A   1      41.086  29.818  32.910  1.00  0.00     0.167 HD
ATOM     65  C   UNL A   1      42.949  27.799  32.232  1.00  0.00     0.074 A 
ATOM     66  C   UNL A   1      43.711  26.847  31.449  1.00  0.00     0.031 C 
ATOM     67  C   UNL A   1      43.209  28.101  33.529  1.00  0.00     0.034 A 
BRANCH  54  68
ATOM     68  C   UNL A   1      39.589  32.552  35.831  1.00  0.00     0.023 A 
ATOM     69  C   UNL A   1      38.777  32.032  36.859  1.00  0.00     0.012 A 
ATOM     70  C   UNL A   1      40.085  33.865  35.940  1.00  0.00     0.148 A 
ATOM     71  C   UNL A   1      38.437  32.815  37.963  1.00  0.00     0.002 A 
ATOM     72  C   UNL A   1      39.773  34.628  37.061  1.00  0.00     0.091 A 
ATOM     73  F   UNL A   1      40.833  34.354  34.941  1.00  0.00    -0.205 F 
ATOM     74  C   UNL A   1      38.943  34.108  38.068  1.00  0.00     0.022 A 
BRANCH  72  75
ATOM     75  S   UNL A   1      40.434  36.280  37.313  1.00  0.00     0.127 S 
ATOM     76  O   UNL A   1      40.338  36.844  35.968  1.00  0.00    -0.237 OA
ATOM     77  O   UNL A   1      39.496  36.848  38.281  1.00  0.00    -0.237 OA
ATOM     78  O   UNL A   1      41.784  36.090  37.825  1.00  0.00    -0.744 OA
ENDBRANCH  72  75
ENDBRANCH  54  68
BRANCH  55  79
ATOM     79  C   UNL A   1      41.700  27.117  27.734  1.00  0.00     0.023 A 
ATOM     80  C   UNL A   1      42.303  27.782  26.650  1.00  0.00     0.012 A 
ATOM     81  C   UNL A   1      41.486  25.726  27.657  1.00  0.00     0.148 A 
ATOM     82  C   UNL A   1      42.671  27.080  25.502  1.00  0.00     0.002 A 
ATOM     83  C   UNL A   1      41.903  25.024  26.533  1.00  0.00     0.091 A 
ATOM     84  F   UNL A   1      40.895  25.118  28.695  1.00  0.00    -0.205 F 
ATOM     85  C   UNL A   1      42.482  25.701  25.448  1.00  0.00     0.022 A 
BRANCH  83  86
ATOM     86  S   UNL A   1      41.819  23.233  26.424  1.00  0.00     0.127 S 
ATOM     87  O   UNL A   1      40.376  23.002  26.406  1.00  0.00    -0.237 OA
ATOM     88  O   UNL A   1      42.500  22.978  25.154  1.00  0.00    -0.237 OA
ATOM     89  O   UNL A   1      42.520  22.730  27.596  1.00  0.00    -0.744 OA
ENDBRANCH  83  86
ENDBRANCH  55  79
BRANCH  67  90
ATOM     90  C   UNL A   1      44.359  27.393  34.197  1.00  0.00     0.023 A 
ATOM     91  C   UNL A   1      45.636  27.987  34.192  1.00  0.00     0.012 A 
ATOM     92  C   UNL A   1      44.161  26.186  34.896  1.00  0.00     0.148 A 
ATOM     93  C   UNL A   1      46.705  27.377  34.851  1.00  0.00     0.002 A 
ATOM     94  C   UNL A   1      45.221  25.605  35.585  1.00  0.00     0.091 A 
ATOM     95  F   UNL A   1      42.943  25.625  34.873  1.00  0.00    -0.205 F 
ATOM     96  C   UNL A   1      46.494  26.195  35.556  1.00  0.00     0.022 A 
BRANCH  94  97
ATOM     97  S   UNL A   1      45.020  24.130  36.592  1.00  0.00     0.127 S 
ATOM     98  O   UNL A   1      44.158  23.306  35.745  1.00  0.00    -0.237 OA
ATOM     99  O   UNL A   1      46.395  23.646  36.717  1.00  0.00    -0.237 OA
ATOM    100  O   UNL A   1      44.425  24.580  37.843  1.00  0.00    -0.744 OA
ENDBRANCH  94  97
ENDBRANCH  67  90
ENDBRANCH  41  42
ENDBRANCH  34  36
ENDBRANCH  33  34
ENDBRANCH  32  33
ENDBRANCH   1  32
TORSDOF 21
ENDMDL
MODEL 3
REMARK VINA RESULT:     -11.5      2.250      3.974
REMARK SMILES Nc1nccc(N2CCC[C@@](Cc3ccc(F)cc3F)(C(=O)OCCOCCOC(=O)c3ccc(-c4c5nc(c(-c6cccc(S(=O)(=O)[O-])c6F)c6ccc([nH]6)c(-c6cccc(S(=O)(=O)[O-])c6F)c6nc(c(-c7cccc(S(=O)(=O)[O-])c7F)c7ccc4[nH]7)C=C6)C=C5)cc3)C2)n1
REMARK SMILES IDX 27 1 26 2 25 3 24 4 23 5 21 6 22 7 11 8 7 9 8 10 95 11 9 12
REMARK SMILES IDX 10 13 6 14 2 15 3 16 96 17 4 18 5 19 1 20 12 23 13 24 14 25
REMARK SMILES IDX 19 26 15 27 18 28 20 29 16 30 17 31 28 32 29 33 30 34 31 35
REMARK SMILES IDX 32 36 33 37 94 38 34 39 93 40 35 41 36 42 37 43 87 44 38 45
REMARK SMILES IDX 92 46 86 47 88 48 39 49 91 50 85 51 84 52 40 54 72 55 52 56
REMARK SMILES IDX 71 57 53 58 56 59 70 60 89 61 54 62 55 63 69 65 90 66 57 67
REMARK SMILES IDX 41 68 42 69 50 70 43 71 45 72 51 73 44 74 46 75 47 76 48 77
REMARK SMILES IDX 49 78 73 79 74 80 82 81 75 82 77 83 83 84 76 85 78 86 79 87
REMARK SMILES IDX 80 88 81 89 58 90 59 91 67 92 60 93 62 94 68 95 61 96 63 97
REMARK SMILES IDX 64 98 65 99 66 100
REMARK H PARENT 1 21 1 22 88 53 56 64
REMARK Flexibility Score: inf
ROOT
ATOM      1  C   UNL A   1      38.330  20.227  25.161  1.00  0.00     0.202 C 
ENDROOT
BRANCH   1   2
ATOM      2  O   UNL A   1      38.069  21.453  25.842  1.00  0.00    -0.374 OA
BRANCH   2   3
ATOM      3  C   UNL A   1      37.725  22.589  25.058  1.00  0.00     0.202 C 
BRANCH   3   4
ATOM      4  C   UNL A   1      36.795  22.382  23.857  1.00  0.00     0.261 C 
BRANCH   4   5
ATOM      5  O   UNL A   1      35.911  23.484  23.594  1.00  0.00    -0.463 OA
BRANCH   5   6
ATOM      6  C   UNL A   1      35.173  23.892  24.661  1.00  0.00     0.314 C 
ATOM      7  O   UNL A   1      35.624  24.544  25.599  1.00  0.00    -0.252 OA
BRANCH   6   8
ATOM      8  C   UNL A   1      33.725  23.411  24.623  1.00  0.00     0.090 C 
ATOM      9  N   UNL A   1      32.496  21.316  24.954  1.00  0.00    -0.355 N 
ATOM     10  C   UNL A   1      31.596  21.799  25.989  1.00  0.00     0.118 C 
ATOM     11  C   UNL A   1      33.833  21.899  24.933  1.00  0.00     0.137 C 
ATOM     12  C   UNL A   1      31.440  23.314  25.827  1.00  0.00     0.023 C 
ATOM     13  C   UNL A   1      32.791  24.039  25.693  1.00  0.00     0.023 C 
BRANCH   9  14
ATOM     14  C   UNL A   1      32.444  19.971  24.615  1.00  0.00     0.134 A 
ATOM     15  C   UNL A   1      32.710  17.767  25.164  1.00  0.00     0.221 A 
ATOM     16  N   UNL A   1      32.678  17.357  23.893  1.00  0.00    -0.222 NA
ATOM     17  N   UNL A   1      32.610  19.037  25.566  1.00  0.00    -0.196 NA
ATOM     18  C   UNL A   1      32.510  18.316  22.969  1.00  0.00     0.119 A 
ATOM     19  C   UNL A   1      32.368  19.644  23.278  1.00  0.00     0.067 A 
BRANCH  15  20
ATOM     20  N   UNL A   1      32.904  16.814  26.126  1.00  0.00    -0.368 N 
ATOM     21  H   UNL A   1      33.059  17.083  27.060  1.00  0.00     0.159 HD
ATOM     22  H   UNL A   1      32.888  15.860  25.884  1.00  0.00     0.159 HD
ENDBRANCH  15  20
ENDBRANCH   9  14
BRANCH   8  23
ATOM     23  C   UNL A   1      33.207  23.605  23.165  1.00  0.00     0.059 C 
BRANCH  23  24
ATOM     24  C   UNL A   1      32.736  25.004  22.833  1.00  0.00    -0.011 A 
ATOM     25  C   UNL A   1      33.654  26.045  22.634  1.00  0.00     0.010 A 
ATOM     26  C   UNL A   1      31.366  25.296  22.752  1.00  0.00     0.129 A 
ATOM     27  C   UNL A   1      33.204  27.350  22.439  1.00  0.00     0.040 A 
ATOM     28  C   UNL A   1      30.911  26.590  22.547  1.00  0.00     0.078 A 
ATOM     29  F   UNL A   1      30.464  24.314  22.890  1.00  0.00    -0.207 F 
ATOM     30  C   UNL A   1      31.839  27.611  22.414  1.00  0.00     0.126 A 
ATOM     31  F   UNL A   1      31.416  28.872  22.272  1.00  0.00    -0.207 F 
ENDBRANCH  23  24
ENDBRANCH   8  23
ENDBRANCH   6   8
ENDBRANCH   5   6
ENDBRANCH   4   5
ENDBRANCH   3   4
ENDBRANCH   2   3
ENDBRANCH   1   2
BRANCH   1  32
ATOM     32  C   UNL A   1      39.266  19.210  25.830  1.00  0.00     0.261 C 
BRANCH  32  33
ATOM     33  O   UNL A   1      40.631  19.308  25.375  1.00  0.00    -0.460 OA
BRANCH  33  34
ATOM     34  C   UNL A   1      41.536  19.534  26.360  1.00  0.00     0.338 C 
ATOM     35  O   UNL A   1      42.322  18.724  26.836  1.00  0.00    -0.246 OA
BRANCH  34  36
ATOM     36  C   UNL A   1      41.598  20.963  26.708  1.00  0.00     0.060 A 
ATOM     37  C   UNL A   1      41.628  21.891  25.660  1.00  0.00     0.016 A 
ATOM     38  C   UNL A   1      41.790  21.376  28.028  1.00  0.00     0.016 A 
ATOM     39  C   UNL A   1      41.899  23.233  25.923  1.00  0.00     0.010 A 
ATOM     40  C   UNL A   1      42.071  22.723  28.288  1.00  0.00     0.010 A 
ATOM     41  C   UNL A   1      42.167  23.649  27.234  1.00  0.00    -0.014 A 
BRANCH  41  42
ATOM     42  C   UNL A   1      42.674  25.022  27.478  1.00  0.00     0.031 A 
ATOM     43  C   UNL A   1      41.768  26.046  28.107  1.00  0.00     0.074 A 
ATOM     44  C   UNL A   1      43.934  25.354  27.146  1.00  0.00     0.049 A 
ATOM     45  N   UNL A   1      42.009  27.297  28.399  1.00  0.00    -0.248 NA
ATOM     46  C   UNL A   1      40.406  25.600  28.448  1.00  0.00     0.031 C 
ATOM     47  C   UNL A   1      44.903  24.458  26.520  1.00  0.00     0.029 A 
ATOM     48  N   UNL A   1      44.602  26.547  27.265  1.00  0.00    -0.354 N 
ATOM     49  C   UNL A   1      40.830  27.795  28.942  1.00  0.00     0.074 A 
ATOM     50  C   UNL A   1      39.868  26.715  28.922  1.00  0.00     0.031 C 
ATOM     51  C   UNL A   1      46.032  25.143  26.274  1.00  0.00     0.029 A 
ATOM     52  C   UNL A   1      45.860  26.528  26.712  1.00  0.00     0.049 A 
ATOM     53  H   UNL A   1      44.217  27.340  27.703  1.00  0.00     0.167 HD
ATOM     54  C   UNL A   1      40.576  29.032  29.433  1.00  0.00     0.034 A 
ATOM     55  C   UNL A   1      46.761  27.518  26.556  1.00  0.00     0.034 A 
ATOM     56  C   UNL A   1      41.536  30.103  29.466  1.00  0.00     0.049 A 
ATOM     57  C   UNL A   1      46.453  28.891  27.096  1.00  0.00     0.074 A 
ATOM     58  C   UNL A   1      41.388  31.377  29.987  1.00  0.00     0.029 A 
ATOM     59  N   UNL A   1      42.820  30.031  28.949  1.00  0.00    -0.354 N 
ATOM     60  N   UNL A   1      45.384  29.307  27.730  1.00  0.00    -0.248 NA
ATOM     61  C   UNL A   1      47.491  29.919  26.932  1.00  0.00     0.031 C 
ATOM     62  C   UNL A   1      42.578  32.081  29.768  1.00  0.00     0.029 A 
ATOM     63  C   UNL A   1      43.473  31.240  29.125  1.00  0.00     0.049 A 
ATOM     64  H   UNL A   1      43.211  29.236  28.519  1.00  0.00     0.167 HD
ATOM     65  C   UNL A   1      45.626  30.637  28.058  1.00  0.00     0.074 A 
ATOM     66  C   UNL A   1      46.957  30.949  27.577  1.00  0.00     0.031 C 
ATOM     67  C   UNL A   1      44.814  31.525  28.686  1.00  0.00     0.034 A 
BRANCH  54  68
ATOM     68  C   UNL A   1      39.209  29.280  30.014  1.00  0.00     0.023 A 
ATOM     69  C   UNL A   1      38.917  28.814  31.312  1.00  0.00     0.012 A 
ATOM     70  C   UNL A   1      38.232  30.001  29.302  1.00  0.00     0.148 A 
ATOM     71  C   UNL A   1      37.663  29.034  31.881  1.00  0.00     0.002 A 
ATOM     72  C   UNL A   1      36.996  30.249  29.890  1.00  0.00     0.091 A 
ATOM     73  F   UNL A   1      38.517  30.413  28.059  1.00  0.00    -0.205 F 
ATOM     74  C   UNL A   1      36.707  29.759  31.174  1.00  0.00     0.022 A 
BRANCH  72  75
ATOM     75  S   UNL A   1      35.728  31.231  29.080  1.00  0.00     0.127 S 
ATOM     76  O   UNL A   1      34.965  31.729  30.223  1.00  0.00    -0.237 OA
ATOM     77  O   UNL A   1      36.515  32.248  28.383  1.00  0.00    -0.237 OA
ATOM     78  O   UNL A   1      35.020  30.311  28.200  1.00  0.00    -0.744 OA
ENDBRANCH  72  75
ENDBRANCH  54  68
BRANCH  55  79
ATOM     79  C   UNL A   1      48.058  27.228  25.884  1.00  0.00     0.023 A 
ATOM     80  C   UNL A   1      49.118  26.676  26.627  1.00  0.00     0.012 A 
ATOM     81  C   UNL A   1      48.227  27.452  24.503  1.00  0.00     0.148 A 
ATOM     82  C   UNL A   1      50.332  26.368  26.011  1.00  0.00     0.002 A 
ATOM     83  C   UNL A   1      49.419  27.094  23.885  1.00  0.00     0.091 A 
ATOM     84  F   UNL A   1      47.209  27.994  23.819  1.00  0.00    -0.205 F 
ATOM     85  C   UNL A   1      50.478  26.566  24.640  1.00  0.00     0.022 A 
BRANCH  83  86
ATOM     86  S   UNL A   1      49.656  27.192  22.107  1.00  0.00     0.127 S 
ATOM     87  O   UNL A   1      51.048  26.770  21.967  1.00  0.00    -0.237 OA
ATOM     88  O   UNL A   1      48.668  26.229  21.620  1.00  0.00    -0.237 OA
ATOM     89  O   UNL A   1      49.380  28.576  21.746  1.00  0.00    -0.744 OA
ENDBRANCH  83  86
ENDBRANCH  55  79
BRANCH  67  90
ATOM     90  C   UNL A   1      45.338  32.921  28.902  1.00  0.00     0.023 A 
ATOM     91  C   UNL A   1      46.155  33.191  30.016  1.00  0.00     0.012 A 
ATOM     92  C   UNL A   1      45.090  33.943  27.964  1.00  0.00     0.148 A 
ATOM     93  C   UNL A   1      46.697  34.462  30.209  1.00  0.00     0.002 A 
ATOM     94  C   UNL A   1      45.667  35.196  28.139  1.00  0.00     0.091 A 
ATOM     95  F   UNL A   1      44.293  33.673  26.919  1.00  0.00    -0.205 F 
ATOM     96  C   UNL A   1      46.463  35.459  29.266  1.00  0.00     0.022 A 
BRANCH  94  97
ATOM     97  S   UNL A   1      45.491  36.513  26.930  1.00  0.00     0.127 S 
ATOM     98  O   UNL A   1      46.226  37.604  27.567  1.00  0.00    -0.237 OA
ATOM     99  O   UNL A   1      46.145  35.945  25.750  1.00  0.00    -0.237 OA
ATOM    100  O   UNL A   1      44.058  36.726  26.778  1.00  0.00    -0.744 OA
ENDBRANCH  94  97
ENDBRANCH  67  90
ENDBRANCH  41  42
ENDBRANCH  34  36
ENDBRANCH  33  34
ENDBRANCH  32  33
ENDBRANCH   1  32
TORSDOF 21
ENDMDL
