MODEL 1
REMARK VINA RESULT:     -10.6      0.000      0.000
REMARK SMILES C/C(=N\NC(N)=S)c1nnn(-c2ccc(C(=O)OCCOCCOC(=O)c3ccc(-c4c5nc(c(-c6cccc(S(=O)(=O)[O-])c6F)c6ccc([nH]6)c(-c6cccc(S(=O)(=O)[O-])c6F)c6nc(c(-c7cccc(S(=O)(=O)[O-])c7F)c7ccc4[nH]7)C=C6)C=C5)cc3)cc2)c1C
REMARK SMILES IDX 20 1 19 2 18 3 16 4 17 5 15 6 12 7 13 8 91 9 14 10 90 11
REMARK SMILES IDX 11 12 8 13 9 14 92 15 10 16 93 17 2 18 1 19 3 20 4 21 5 23
REMARK SMILES IDX 7 24 6 25 21 28 22 29 23 30 24 31 25 32 26 33 27 34 28 35
REMARK SMILES IDX 89 36 29 37 88 38 30 39 31 40 32 41 82 42 33 43 87 44 81 45
REMARK SMILES IDX 83 46 34 47 86 48 80 49 79 50 35 52 67 53 47 54 66 55 48 56
REMARK SMILES IDX 51 57 65 58 84 59 49 60 50 61 64 63 85 64 52 65 36 66 37 67
REMARK SMILES IDX 45 68 38 69 40 70 46 71 39 72 41 73 42 74 43 75 44 76 68 77
REMARK SMILES IDX 69 78 77 79 70 80 72 81 78 82 71 83 73 84 74 85 75 86 76 87
REMARK SMILES IDX 53 88 54 89 62 90 55 91 57 92 63 93 56 94 58 95 59 96 60 97
REMARK SMILES IDX 61 98
REMARK H PARENT 4 22 6 26 6 27 83 51 51 62
REMARK Flexibility Score: inf
ROOT
ATOM      1  C   UNL A   1      33.257  34.216  28.053  1.00  0.00     0.202 C 
ENDROOT
BRANCH   1   2
ATOM      2  C   UNL A   1      32.455  33.178  27.268  1.00  0.00     0.261 C 
BRANCH   2   3
ATOM      3  O   UNL A   1      32.462  31.889  27.895  1.00  0.00    -0.460 OA
BRANCH   3   4
ATOM      4  C   UNL A   1      33.288  30.987  27.315  1.00  0.00     0.338 C 
ATOM      5  O   UNL A   1      34.507  30.973  27.353  1.00  0.00    -0.246 OA
BRANCH   4   6
ATOM      6  C   UNL A   1      32.503  29.895  26.702  1.00  0.00     0.060 A 
ATOM      7  C   UNL A   1      31.486  27.656  25.441  1.00  0.00     0.067 A 
ATOM      8  C   UNL A   1      31.882  27.553  26.777  1.00  0.00     0.029 A 
ATOM      9  C   UNL A   1      31.440  28.898  24.792  1.00  0.00     0.029 A 
ATOM     10  C   UNL A   1      32.420  28.678  27.398  1.00  0.00     0.018 A 
ATOM     11  C   UNL A   1      31.943  30.028  25.431  1.00  0.00     0.018 A 
BRANCH   7  12
ATOM     12  N   UNL A   1      31.386  26.476  24.673  1.00  0.00    -0.217 N 
ATOM     13  C   UNL A   1      31.893  24.561  23.762  1.00  0.00     0.132 A 
ATOM     14  N   UNL A   1      30.553  24.573  24.039  1.00  0.00    -0.128 NA
ATOM     15  C   UNL A   1      32.463  25.743  24.189  1.00  0.00     0.071 A 
ATOM     16  N   UNL A   1      30.272  25.709  24.666  1.00  0.00    -0.061 NA
ATOM     17  C   UNL A   1      33.891  26.103  24.368  1.00  0.00     0.069 C 
BRANCH  13  18
ATOM     18  C   UNL A   1      32.595  23.347  23.384  1.00  0.00     0.087 C 
ATOM     19  C   UNL A   1      33.080  23.305  21.962  1.00  0.00     0.071 C 
ATOM     20  N   UNL A   1      32.732  22.459  24.323  1.00  0.00    -0.176 NA
BRANCH  20  21
ATOM     21  N   UNL A   1      33.426  21.296  24.172  1.00  0.00    -0.254 N 
ATOM     22  H   UNL A   1      33.205  20.786  23.359  1.00  0.00     0.193 HD
BRANCH  21  23
ATOM     23  C   UNL A   1      34.387  20.717  24.975  1.00  0.00     0.184 C 
ATOM     24  S   UNL A   1      35.853  21.299  25.497  1.00  0.00    -0.040 S 
BRANCH  23  25
ATOM     25  N   UNL A   1      34.025  19.456  25.373  1.00  0.00    -0.375 N 
ATOM     26  H   UNL A   1      33.232  19.327  25.941  1.00  0.00     0.159 HD
ATOM     27  H   UNL A   1      34.559  18.678  25.091  1.00  0.00     0.159 HD
ENDBRANCH  23  25
ENDBRANCH  21  23
ENDBRANCH  20  21
ENDBRANCH  13  18
ENDBRANCH   7  12
ENDBRANCH   4   6
ENDBRANCH   3   4
ENDBRANCH   2   3
ENDBRANCH   1   2
BRANCH   1  28
ATOM     28  O   UNL A   1      32.768  34.645  29.324  1.00  0.00    -0.374 OA
BRANCH  28  29
ATOM     29  C   UNL A   1      33.599  34.578  30.479  1.00  0.00     0.202 C 
BRANCH  29  30
ATOM     30  C   UNL A   1      34.896  33.786  30.417  1.00  0.00     0.261 C 
BRANCH  30  31
ATOM     31  O   UNL A   1      34.672  32.389  30.466  1.00  0.00    -0.460 OA
BRANCH  31  32
ATOM     32  C   UNL A   1      35.620  31.719  31.164  1.00  0.00     0.338 C 
ATOM     33  O   UNL A   1      35.779  31.709  32.369  1.00  0.00    -0.246 OA
BRANCH  32  34
ATOM     34  C   UNL A   1      36.554  31.119  30.208  1.00  0.00     0.060 A 
ATOM     35  C   UNL A   1      36.491  29.729  30.113  1.00  0.00     0.016 A 
ATOM     36  C   UNL A   1      37.678  31.855  29.807  1.00  0.00     0.016 A 
ATOM     37  C   UNL A   1      37.669  29.056  29.914  1.00  0.00     0.010 A 
ATOM     38  C   UNL A   1      38.856  31.182  29.632  1.00  0.00     0.010 A 
ATOM     39  C   UNL A   1      38.846  29.802  29.799  1.00  0.00    -0.014 A 
BRANCH  39  40
ATOM     40  C   UNL A   1      40.092  29.085  29.728  1.00  0.00     0.031 A 
ATOM     41  C   UNL A   1      40.660  28.894  31.074  1.00  0.00     0.074 A 
ATOM     42  C   UNL A   1      40.599  28.607  28.578  1.00  0.00     0.049 A 
ATOM     43  N   UNL A   1      41.582  29.608  31.627  1.00  0.00    -0.248 NA
ATOM     44  C   UNL A   1      39.937  28.014  32.004  1.00  0.00     0.031 C 
ATOM     45  C   UNL A   1      39.958  28.500  27.265  1.00  0.00     0.029 A 
ATOM     46  N   UNL A   1      41.787  27.984  28.385  1.00  0.00    -0.354 N 
ATOM     47  C   UNL A   1      41.736  29.058  32.891  1.00  0.00     0.074 A 
ATOM     48  C   UNL A   1      40.531  28.322  33.158  1.00  0.00     0.031 C 
ATOM     49  C   UNL A   1      40.658  27.622  26.506  1.00  0.00     0.029 A 
ATOM     50  C   UNL A   1      41.851  27.215  27.230  1.00  0.00     0.049 A 
ATOM     51  H   UNL A   1      42.542  28.069  29.012  1.00  0.00     0.167 HD
ATOM     52  C   UNL A   1      42.968  28.961  33.457  1.00  0.00     0.034 A 
ATOM     53  C   UNL A   1      42.773  26.252  26.970  1.00  0.00     0.034 A 
ATOM     54  C   UNL A   1      43.929  29.773  32.749  1.00  0.00     0.049 A 
ATOM     55  C   UNL A   1      43.927  26.495  27.874  1.00  0.00     0.074 A 
ATOM     56  C   UNL A   1      44.041  31.116  32.448  1.00  0.00     0.029 A 
ATOM     57  N   UNL A   1      44.756  29.112  31.873  1.00  0.00    -0.354 N 
ATOM     58  N   UNL A   1      44.696  27.544  27.781  1.00  0.00    -0.248 NA
ATOM     59  C   UNL A   1      43.926  25.830  29.168  1.00  0.00     0.031 C 
ATOM     60  C   UNL A   1      44.572  31.154  31.125  1.00  0.00     0.029 A 
ATOM     61  C   UNL A   1      44.826  29.842  30.718  1.00  0.00     0.049 A 
ATOM     62  H   UNL A   1      45.220  28.260  32.047  1.00  0.00     0.167 HD
ATOM     63  C   UNL A   1      44.889  27.944  29.099  1.00  0.00     0.074 A 
ATOM     64  C   UNL A   1      44.479  26.796  29.909  1.00  0.00     0.031 C 
ATOM     65  C   UNL A   1      45.060  29.261  29.414  1.00  0.00     0.034 A 
BRANCH  52  66
ATOM     66  C   UNL A   1      43.409  27.829  34.354  1.00  0.00     0.023 A 
ATOM     67  C   UNL A   1      43.927  28.189  35.616  1.00  0.00     0.012 A 
ATOM     68  C   UNL A   1      43.602  26.489  33.943  1.00  0.00     0.148 A 
ATOM     69  C   UNL A   1      44.650  27.283  36.396  1.00  0.00     0.002 A 
ATOM     70  C   UNL A   1      44.247  25.569  34.756  1.00  0.00     0.091 A 
ATOM     71  F   UNL A   1      43.291  26.110  32.702  1.00  0.00    -0.205 F 
ATOM     72  C   UNL A   1      44.804  25.969  35.971  1.00  0.00     0.022 A 
BRANCH  70  73
ATOM     73  S   UNL A   1      44.436  23.849  34.269  1.00  0.00     0.127 S 
ATOM     74  O   UNL A   1      45.326  23.967  33.118  1.00  0.00    -0.237 OA
ATOM     75  O   UNL A   1      45.043  23.269  35.468  1.00  0.00    -0.237 OA
ATOM     76  O   UNL A   1      43.091  23.365  33.988  1.00  0.00    -0.744 OA
ENDBRANCH  70  73
ENDBRANCH  52  66
BRANCH  53  77
ATOM     77  C   UNL A   1      42.613  24.960  26.257  1.00  0.00     0.023 A 
ATOM     78  C   UNL A   1      43.597  24.540  25.338  1.00  0.00     0.012 A 
ATOM     79  C   UNL A   1      41.665  24.008  26.691  1.00  0.00     0.148 A 
ATOM     80  C   UNL A   1      43.654  23.212  24.893  1.00  0.00     0.002 A 
ATOM     81  C   UNL A   1      41.722  22.691  26.244  1.00  0.00     0.091 A 
ATOM     82  F   UNL A   1      40.766  24.368  27.617  1.00  0.00    -0.205 F 
ATOM     83  C   UNL A   1      42.723  22.285  25.352  1.00  0.00     0.022 A 
BRANCH  81  84
ATOM     84  S   UNL A   1      40.578  21.431  26.828  1.00  0.00     0.127 S 
ATOM     85  O   UNL A   1      40.803  21.468  28.274  1.00  0.00    -0.237 OA
ATOM     86  O   UNL A   1      39.292  21.968  26.394  1.00  0.00    -0.237 OA
ATOM     87  O   UNL A   1      40.991  20.189  26.188  1.00  0.00    -0.744 OA
ENDBRANCH  81  84
ENDBRANCH  53  77
BRANCH  65  88
ATOM     88  C   UNL A   1      45.295  30.233  28.286  1.00  0.00     0.023 A 
ATOM     89  C   UNL A   1      44.245  30.871  27.590  1.00  0.00     0.012 A 
ATOM     90  C   UNL A   1      46.616  30.641  28.045  1.00  0.00     0.148 A 
ATOM     91  C   UNL A   1      44.515  31.880  26.661  1.00  0.00     0.002 A 
ATOM     92  C   UNL A   1      46.876  31.676  27.158  1.00  0.00     0.091 A 
ATOM     93  F   UNL A   1      47.599  30.025  28.719  1.00  0.00    -0.205 F 
ATOM     94  C   UNL A   1      45.829  32.293  26.455  1.00  0.00     0.022 A 
BRANCH  92  95
ATOM     95  S   UNL A   1      48.533  32.330  26.951  1.00  0.00     0.127 S 
ATOM     96  O   UNL A   1      48.852  32.785  28.300  1.00  0.00    -0.237 OA
ATOM     97  O   UNL A   1      49.281  31.152  26.507  1.00  0.00    -0.237 OA
ATOM     98  O   UNL A   1      48.426  33.378  25.943  1.00  0.00    -0.744 OA
ENDBRANCH  92  95
ENDBRANCH  65  88
ENDBRANCH  39  40
ENDBRANCH  32  34
ENDBRANCH  31  32
ENDBRANCH  30  31
ENDBRANCH  29  30
ENDBRANCH  28  29
ENDBRANCH   1  28
TORSDOF 22
ENDMDL
MODEL 2
REMARK VINA RESULT:     -10.2      3.575      9.373
REMARK SMILES C/C(=N\NC(N)=S)c1nnn(-c2ccc(C(=O)OCCOCCOC(=O)c3ccc(-c4c5nc(c(-c6cccc(S(=O)(=O)[O-])c6F)c6ccc([nH]6)c(-c6cccc(S(=O)(=O)[O-])c6F)c6nc(c(-c7cccc(S(=O)(=O)[O-])c7F)c7ccc4[nH]7)C=C6)C=C5)cc3)cc2)c1C
REMARK SMILES IDX 20 1 19 2 18 3 16 4 17 5 15 6 12 7 13 8 91 9 14 10 90 11
REMARK SMILES IDX 11 12 8 13 9 14 92 15 10 16 93 17 2 18 1 19 3 20 4 21 5 23
REMARK SMILES IDX 7 24 6 25 21 28 22 29 23 30 24 31 25 32 26 33 27 34 28 35
REMARK SMILES IDX 89 36 29 37 88 38 30 39 31 40 32 41 82 42 33 43 87 44 81 45
REMARK SMILES IDX 83 46 34 47 86 48 80 49 79 50 35 52 67 53 47 54 66 55 48 56
REMARK SMILES IDX 51 57 65 58 84 59 49 60 50 61 64 63 85 64 52 65 36 66 37 67
REMARK SMILES IDX 45 68 38 69 40 70 46 71 39 72 41 73 42 74 43 75 44 76 68 77
REMARK SMILES IDX 69 78 77 79 70 80 72 81 78 82 71 83 73 84 74 85 75 86 76 87
REMARK SMILES IDX 53 88 54 89 62 90 55 91 57 92 63 93 56 94 58 95 59 96 60 97
REMARK SMILES IDX 61 98
REMARK H PARENT 4 22 6 26 6 27 83 51 51 62
REMARK Flexibility Score: inf
ROOT
ATOM      1  C   UNL A   1      36.276  19.301  24.996  1.00  0.00     0.202 C 
ENDROOT
BRANCH   1   2
ATOM      2  C   UNL A   1      35.108  18.443  24.512  1.00  0.00     0.261 C 
BRANCH   2   3
ATOM      3  O   UNL A   1      33.845  18.895  25.019  1.00  0.00    -0.460 OA
BRANCH   3   4
ATOM      4  C   UNL A   1      32.884  19.044  24.078  1.00  0.00     0.338 C 
ATOM      5  O   UNL A   1      32.331  18.162  23.442  1.00  0.00    -0.246 OA
BRANCH   4   6
ATOM      6  C   UNL A   1      32.468  20.460  23.992  1.00  0.00     0.060 A 
ATOM      7  C   UNL A   1      32.145  23.179  23.620  1.00  0.00     0.067 A 
ATOM      8  C   UNL A   1      31.880  22.319  22.551  1.00  0.00     0.029 A 
ATOM      9  C   UNL A   1      32.405  22.681  24.905  1.00  0.00     0.029 A 
ATOM     10  C   UNL A   1      32.073  20.952  22.737  1.00  0.00     0.018 A 
ATOM     11  C   UNL A   1      32.558  21.311  25.095  1.00  0.00     0.018 A 
BRANCH   7  12
ATOM     12  N   UNL A   1      32.410  24.539  23.343  1.00  0.00    -0.217 N 
ATOM     13  C   UNL A   1      32.221  26.710  23.316  1.00  0.00     0.132 A 
ATOM     14  N   UNL A   1      33.551  26.386  23.332  1.00  0.00    -0.128 NA
ATOM     15  C   UNL A   1      31.465  25.557  23.363  1.00  0.00     0.071 A 
ATOM     16  N   UNL A   1      33.652  25.066  23.431  1.00  0.00    -0.061 NA
ATOM     17  C   UNL A   1      30.018  25.376  23.638  1.00  0.00     0.069 C 
BRANCH  13  18
ATOM     18  C   UNL A   1      31.752  28.065  23.546  1.00  0.00     0.087 C 
ATOM     19  C   UNL A   1      32.175  28.674  24.854  1.00  0.00     0.071 C 
ATOM     20  N   UNL A   1      31.044  28.588  22.591  1.00  0.00    -0.176 NA
BRANCH  20  21
ATOM     21  N   UNL A   1      30.585  29.871  22.601  1.00  0.00    -0.254 N 
ATOM     22  H   UNL A   1      31.285  30.559  22.677  1.00  0.00     0.193 HD
BRANCH  21  23
ATOM     23  C   UNL A   1      29.297  30.362  22.524  1.00  0.00     0.184 C 
ATOM     24  S   UNL A   1      28.730  31.830  21.988  1.00  0.00    -0.040 S 
BRANCH  23  25
ATOM     25  N   UNL A   1      28.378  29.453  22.980  1.00  0.00    -0.375 N 
ATOM     26  H   UNL A   1      27.862  29.642  23.796  1.00  0.00     0.159 HD
ATOM     27  H   UNL A   1      28.236  28.610  22.492  1.00  0.00     0.159 HD
ENDBRANCH  23  25
ENDBRANCH  21  23
ENDBRANCH  20  21
ENDBRANCH  13  18
ENDBRANCH   7  12
ENDBRANCH   4   6
ENDBRANCH   3   4
ENDBRANCH   2   3
ENDBRANCH   1   2
BRANCH   1  28
ATOM     28  O   UNL A   1      36.297  20.688  24.656  1.00  0.00    -0.374 OA
BRANCH  28  29
ATOM     29  C   UNL A   1      36.851  21.645  25.553  1.00  0.00     0.202 C 
BRANCH  29  30
ATOM     30  C   UNL A   1      38.362  21.788  25.650  1.00  0.00     0.261 C 
BRANCH  30  31
ATOM     31  O   UNL A   1      38.744  22.866  26.484  1.00  0.00    -0.460 OA
BRANCH  31  32
ATOM     32  C   UNL A   1      39.958  22.692  27.062  1.00  0.00     0.338 C 
ATOM     33  O   UNL A   1      40.373  21.695  27.617  1.00  0.00    -0.246 OA
BRANCH  32  34
ATOM     34  C   UNL A   1      40.653  23.982  27.060  1.00  0.00     0.060 A 
ATOM     35  C   UNL A   1      41.603  24.142  28.069  1.00  0.00     0.016 A 
ATOM     36  C   UNL A   1      40.067  25.066  26.393  1.00  0.00     0.016 A 
ATOM     37  C   UNL A   1      41.728  25.388  28.626  1.00  0.00     0.010 A 
ATOM     38  C   UNL A   1      40.175  26.305  26.964  1.00  0.00     0.010 A 
ATOM     39  C   UNL A   1      40.917  26.417  28.135  1.00  0.00    -0.014 A 
BRANCH  39  40
ATOM     40  C   UNL A   1      40.955  27.685  28.814  1.00  0.00     0.031 A 
ATOM     41  C   UNL A   1      42.035  28.531  28.278  1.00  0.00     0.074 A 
ATOM     42  C   UNL A   1      40.062  28.040  29.755  1.00  0.00     0.049 A 
ATOM     43  N   UNL A   1      43.210  28.693  28.789  1.00  0.00    -0.248 NA
ATOM     44  C   UNL A   1      41.905  29.012  26.895  1.00  0.00     0.031 C 
ATOM     45  C   UNL A   1      38.806  27.383  30.124  1.00  0.00     0.029 A 
ATOM     46  N   UNL A   1      40.044  29.170  30.504  1.00  0.00    -0.354 N 
ATOM     47  C   UNL A   1      43.859  29.540  27.902  1.00  0.00     0.074 A 
ATOM     48  C   UNL A   1      43.145  29.445  26.660  1.00  0.00     0.031 C 
ATOM     49  C   UNL A   1      38.041  28.261  30.819  1.00  0.00     0.029 A 
ATOM     50  C   UNL A   1      38.803  29.477  31.048  1.00  0.00     0.049 A 
ATOM     51  H   UNL A   1      40.844  29.726  30.650  1.00  0.00     0.167 HD
ATOM     52  C   UNL A   1      44.702  30.504  28.360  1.00  0.00     0.034 A 
ATOM     53  C   UNL A   1      38.435  30.686  31.547  1.00  0.00     0.034 A 
ATOM     54  C   UNL A   1      45.047  30.276  29.744  1.00  0.00     0.049 A 
ATOM     55  C   UNL A   1      39.684  31.437  31.841  1.00  0.00     0.074 A 
ATOM     56  C   UNL A   1      45.647  29.250  30.445  1.00  0.00     0.029 A 
ATOM     57  N   UNL A   1      44.374  31.035  30.671  1.00  0.00    -0.354 N 
ATOM     58  N   UNL A   1      40.527  31.082  32.769  1.00  0.00    -0.248 NA
ATOM     59  C   UNL A   1      40.227  32.286  30.792  1.00  0.00     0.031 C 
ATOM     60  C   UNL A   1      44.936  29.183  31.680  1.00  0.00     0.029 A 
ATOM     61  C   UNL A   1      43.995  30.215  31.699  1.00  0.00     0.049 A 
ATOM     62  H   UNL A   1      44.196  32.002  30.607  1.00  0.00     0.167 HD
ATOM     63  C   UNL A   1      41.775  31.249  32.180  1.00  0.00     0.074 A 
ATOM     64  C   UNL A   1      41.532  32.088  31.006  1.00  0.00     0.031 C 
ATOM     65  C   UNL A   1      42.824  30.443  32.517  1.00  0.00     0.034 A 
BRANCH  52  66
ATOM     66  C   UNL A   1      44.871  31.863  27.724  1.00  0.00     0.023 A 
ATOM     67  C   UNL A   1      46.117  32.124  27.114  1.00  0.00     0.012 A 
ATOM     68  C   UNL A   1      44.013  32.970  27.924  1.00  0.00     0.148 A 
ATOM     69  C   UNL A   1      46.510  33.421  26.778  1.00  0.00     0.002 A 
ATOM     70  C   UNL A   1      44.372  34.246  27.513  1.00  0.00     0.091 A 
ATOM     71  F   UNL A   1      42.894  32.839  28.638  1.00  0.00    -0.205 F 
ATOM     72  C   UNL A   1      45.635  34.483  26.970  1.00  0.00     0.022 A 
BRANCH  70  73
ATOM     73  S   UNL A   1      43.259  35.645  27.701  1.00  0.00     0.127 S 
ATOM     74  O   UNL A   1      44.133  36.763  27.358  1.00  0.00    -0.237 OA
ATOM     75  O   UNL A   1      42.228  35.336  26.711  1.00  0.00    -0.237 OA
ATOM     76  O   UNL A   1      42.794  35.600  29.081  1.00  0.00    -0.744 OA
ENDBRANCH  70  73
ENDBRANCH  52  66
BRANCH  53  77
ATOM     77  C   UNL A   1      37.121  31.373  31.482  1.00  0.00     0.023 A 
ATOM     78  C   UNL A   1      36.634  32.061  32.613  1.00  0.00     0.012 A 
ATOM     79  C   UNL A   1      36.490  31.610  30.242  1.00  0.00     0.148 A 
ATOM     80  C   UNL A   1      35.577  32.976  32.506  1.00  0.00     0.002 A 
ATOM     81  C   UNL A   1      35.438  32.517  30.140  1.00  0.00     0.091 A 
ATOM     82  F   UNL A   1      36.982  31.021  29.144  1.00  0.00    -0.205 F 
ATOM     83  C   UNL A   1      34.986  33.211  31.269  1.00  0.00     0.022 A 
BRANCH  81  84
ATOM     84  S   UNL A   1      34.655  32.900  28.566  1.00  0.00     0.127 S 
ATOM     85  O   UNL A   1      34.007  31.631  28.235  1.00  0.00    -0.237 OA
ATOM     86  O   UNL A   1      33.740  33.976  28.940  1.00  0.00    -0.237 OA
ATOM     87  O   UNL A   1      35.735  33.277  27.664  1.00  0.00    -0.744 OA
ENDBRANCH  81  84
ENDBRANCH  53  77
BRANCH  65  88
ATOM     88  C   UNL A   1      42.669  29.548  33.719  1.00  0.00     0.023 A 
ATOM     89  C   UNL A   1      42.000  28.305  33.672  1.00  0.00     0.012 A 
ATOM     90  C   UNL A   1      43.372  29.895  34.883  1.00  0.00     0.148 A 
ATOM     91  C   UNL A   1      42.019  27.441  34.771  1.00  0.00     0.002 A 
ATOM     92  C   UNL A   1      43.430  29.014  35.954  1.00  0.00     0.091 A 
ATOM     93  F   UNL A   1      44.005  31.078  34.908  1.00  0.00    -0.205 F 
ATOM     94  C   UNL A   1      42.746  27.789  35.906  1.00  0.00     0.022 A 
BRANCH  92  95
ATOM     95  S   UNL A   1      44.452  29.355  37.386  1.00  0.00     0.127 S 
ATOM     96  O   UNL A   1      44.379  28.095  38.120  1.00  0.00    -0.237 OA
ATOM     97  O   UNL A   1      45.755  29.639  36.781  1.00  0.00    -0.237 OA
ATOM     98  O   UNL A   1      43.844  30.503  38.049  1.00  0.00    -0.744 OA
ENDBRANCH  92  95
ENDBRANCH  65  88
ENDBRANCH  39  40
ENDBRANCH  32  34
ENDBRANCH  31  32
ENDBRANCH  30  31
ENDBRANCH  29  30
ENDBRANCH  28  29
ENDBRANCH   1  28
TORSDOF 22
ENDMDL
MODEL 3
REMARK VINA RESULT:     -10.2      1.652      2.346
REMARK SMILES C/C(=N\NC(N)=S)c1nnn(-c2ccc(C(=O)OCCOCCOC(=O)c3ccc(-c4c5nc(c(-c6cccc(S(=O)(=O)[O-])c6F)c6ccc([nH]6)c(-c6cccc(S(=O)(=O)[O-])c6F)c6nc(c(-c7cccc(S(=O)(=O)[O-])c7F)c7ccc4[nH]7)C=C6)C=C5)cc3)cc2)c1C
REMARK SMILES IDX 20 1 19 2 18 3 16 4 17 5 15 6 12 7 13 8 91 9 14 10 90 11
REMARK SMILES IDX 11 12 8 13 9 14 92 15 10 16 93 17 2 18 1 19 3 20 4 21 5 23
REMARK SMILES IDX 7 24 6 25 21 28 22 29 23 30 24 31 25 32 26 33 27 34 28 35
REMARK SMILES IDX 89 36 29 37 88 38 30 39 31 40 32 41 82 42 33 43 87 44 81 45
REMARK SMILES IDX 83 46 34 47 86 48 80 49 79 50 35 52 67 53 47 54 66 55 48 56
REMARK SMILES IDX 51 57 65 58 84 59 49 60 50 61 64 63 85 64 52 65 36 66 37 67
REMARK SMILES IDX 45 68 38 69 40 70 46 71 39 72 41 73 42 74 43 75 44 76 68 77
REMARK SMILES IDX 69 78 77 79 70 80 72 81 78 82 71 83 73 84 74 85 75 86 76 87
REMARK SMILES IDX 53 88 54 89 62 90 55 91 57 92 63 93 56 94 58 95 59 96 60 97
REMARK SMILES IDX 61 98
REMARK H PARENT 4 22 6 26 6 27 83 51 51 62
REMARK Flexibility Score: inf
ROOT
ATOM      1  C   UNL A   1      32.848  35.984  31.074  1.00  0.00     0.202 C 
ENDROOT
BRANCH   1   2
ATOM      2  C   UNL A   1      33.045  35.819  29.568  1.00  0.00     0.261 C 
BRANCH   2   3
ATOM      3  O   UNL A   1      32.758  34.488  29.119  1.00  0.00    -0.460 OA
BRANCH   3   4
ATOM      4  C   UNL A   1      33.532  34.062  28.093  1.00  0.00     0.338 C 
ATOM      5  O   UNL A   1      34.497  34.633  27.613  1.00  0.00    -0.246 OA
BRANCH   4   6
ATOM      6  C   UNL A   1      33.133  32.699  27.683  1.00  0.00     0.060 A 
ATOM      7  C   UNL A   1      32.696  30.230  26.523  1.00  0.00     0.067 A 
ATOM      8  C   UNL A   1      33.822  30.402  27.332  1.00  0.00     0.029 A 
ATOM      9  C   UNL A   1      31.712  31.224  26.429  1.00  0.00     0.029 A 
ATOM     10  C   UNL A   1      34.052  31.658  27.890  1.00  0.00     0.018 A 
ATOM     11  C   UNL A   1      31.927  32.465  27.021  1.00  0.00     0.018 A 
BRANCH   7  12
ATOM     12  N   UNL A   1      32.685  29.162  25.598  1.00  0.00    -0.217 N 
ATOM     13  C   UNL A   1      32.088  27.338  24.564  1.00  0.00     0.132 A 
ATOM     14  N   UNL A   1      32.599  28.216  23.646  1.00  0.00    -0.128 NA
ATOM     15  C   UNL A   1      32.090  27.925  25.813  1.00  0.00     0.071 A 
ATOM     16  N   UNL A   1      32.883  29.351  24.274  1.00  0.00    -0.061 NA
ATOM     17  C   UNL A   1      31.406  27.510  27.062  1.00  0.00     0.069 C 
BRANCH  13  18
ATOM     18  C   UNL A   1      31.374  26.137  24.171  1.00  0.00     0.087 C 
ATOM     19  C   UNL A   1      29.921  26.336  23.840  1.00  0.00     0.071 C 
ATOM     20  N   UNL A   1      32.079  25.047  24.137  1.00  0.00    -0.176 NA
BRANCH  20  21
ATOM     21  N   UNL A   1      31.596  23.843  23.719  1.00  0.00    -0.254 N 
ATOM     22  H   UNL A   1      30.627  23.826  23.542  1.00  0.00     0.193 HD
BRANCH  21  23
ATOM     23  C   UNL A   1      32.244  22.642  23.507  1.00  0.00     0.184 C 
ATOM     24  S   UNL A   1      33.397  21.861  24.414  1.00  0.00    -0.040 S 
BRANCH  23  25
ATOM     25  N   UNL A   1      31.837  22.044  22.342  1.00  0.00    -0.375 N 
ATOM     26  H   UNL A   1      32.304  22.241  21.498  1.00  0.00     0.159 HD
ATOM     27  H   UNL A   1      31.077  21.418  22.350  1.00  0.00     0.159 HD
ENDBRANCH  23  25
ENDBRANCH  21  23
ENDBRANCH  20  21
ENDBRANCH  13  18
ENDBRANCH   7  12
ENDBRANCH   4   6
ENDBRANCH   3   4
ENDBRANCH   2   3
ENDBRANCH   1   2
BRANCH   1  28
ATOM     28  O   UNL A   1      33.994  36.213  31.896  1.00  0.00    -0.374 OA
BRANCH  28  29
ATOM     29  C   UNL A   1      34.962  35.188  32.090  1.00  0.00     0.202 C 
BRANCH  29  30
ATOM     30  C   UNL A   1      34.563  33.736  31.873  1.00  0.00     0.261 C 
BRANCH  30  31
ATOM     31  O   UNL A   1      35.420  33.078  30.958  1.00  0.00    -0.460 OA
BRANCH  31  32
ATOM     32  C   UNL A   1      35.690  31.796  31.304  1.00  0.00     0.338 C 
ATOM     33  O   UNL A   1      35.352  31.220  32.319  1.00  0.00    -0.246 OA
BRANCH  32  34
ATOM     34  C   UNL A   1      36.620  31.243  30.316  1.00  0.00     0.060 A 
ATOM     35  C   UNL A   1      36.581  29.855  30.181  1.00  0.00     0.016 A 
ATOM     36  C   UNL A   1      37.724  32.012  29.921  1.00  0.00     0.016 A 
ATOM     37  C   UNL A   1      37.767  29.211  29.945  1.00  0.00     0.010 A 
ATOM     38  C   UNL A   1      38.912  31.366  29.709  1.00  0.00     0.010 A 
ATOM     39  C   UNL A   1      38.929  29.981  29.834  1.00  0.00    -0.014 A 
BRANCH  39  40
ATOM     40  C   UNL A   1      40.187  29.290  29.724  1.00  0.00     0.031 A 
ATOM     41  C   UNL A   1      40.795  29.100  31.052  1.00  0.00     0.074 A 
ATOM     42  C   UNL A   1      40.671  28.831  28.556  1.00  0.00     0.049 A 
ATOM     43  N   UNL A   1      41.717  29.829  31.586  1.00  0.00    -0.248 NA
ATOM     44  C   UNL A   1      40.115  28.198  31.994  1.00  0.00     0.031 C 
ATOM     45  C   UNL A   1      39.996  28.722  27.261  1.00  0.00     0.029 A 
ATOM     46  N   UNL A   1      41.866  28.234  28.326  1.00  0.00    -0.354 N 
ATOM     47  C   UNL A   1      41.916  29.271  32.840  1.00  0.00     0.074 A 
ATOM     48  C   UNL A   1      40.734  28.510  33.134  1.00  0.00     0.031 C 
ATOM     49  C   UNL A   1      40.693  27.864  26.475  1.00  0.00     0.029 A 
ATOM     50  C   UNL A   1      41.913  27.475  27.163  1.00  0.00     0.049 A 
ATOM     51  H   UNL A   1      42.636  28.329  28.933  1.00  0.00     0.167 HD
ATOM     52  C   UNL A   1      43.165  29.195  33.371  1.00  0.00     0.034 A 
ATOM     53  C   UNL A   1      42.846  26.533  26.870  1.00  0.00     0.034 A 
ATOM     54  C   UNL A   1      44.090  30.032  32.645  1.00  0.00     0.049 A 
ATOM     55  C   UNL A   1      44.020  26.792  27.744  1.00  0.00     0.074 A 
ATOM     56  C   UNL A   1      44.167  31.379  32.352  1.00  0.00     0.029 A 
ATOM     57  N   UNL A   1      44.906  29.394  31.741  1.00  0.00    -0.354 N 
ATOM     58  N   UNL A   1      44.766  27.856  27.640  1.00  0.00    -0.248 NA
ATOM     59  C   UNL A   1      44.068  26.117  29.033  1.00  0.00     0.031 C 
ATOM     60  C   UNL A   1      44.661  31.437  31.016  1.00  0.00     0.029 A 
ATOM     61  C   UNL A   1      44.930  30.135  30.590  1.00  0.00     0.049 A 
ATOM     62  H   UNL A   1      45.391  28.550  31.895  1.00  0.00     0.167 HD
ATOM     63  C   UNL A   1      44.986  28.250  28.955  1.00  0.00     0.074 A 
ATOM     64  C   UNL A   1      44.622  27.089  29.767  1.00  0.00     0.031 C 
ATOM     65  C   UNL A   1      45.139  29.568  29.276  1.00  0.00     0.034 A 
BRANCH  52  66
ATOM     66  C   UNL A   1      43.653  28.065  34.247  1.00  0.00     0.023 A 
ATOM     67  C   UNL A   1      43.447  26.756  33.762  1.00  0.00     0.012 A 
ATOM     68  C   UNL A   1      44.038  28.191  35.603  1.00  0.00     0.148 A 
ATOM     69  C   UNL A   1      43.558  25.640  34.596  1.00  0.00     0.002 A 
ATOM     70  C   UNL A   1      44.229  27.076  36.407  1.00  0.00     0.091 A 
ATOM     71  F   UNL A   1      44.093  29.392  36.182  1.00  0.00    -0.205 F 
ATOM     72  C   UNL A   1      43.956  25.799  35.918  1.00  0.00     0.022 A 
BRANCH  70  73
ATOM     73  S   UNL A   1      44.784  27.226  38.110  1.00  0.00     0.127 S 
ATOM     74  O   UNL A   1      44.578  28.650  38.361  1.00  0.00    -0.237 OA
ATOM     75  O   UNL A   1      43.855  26.332  38.801  1.00  0.00    -0.237 OA
ATOM     76  O   UNL A   1      46.168  26.771  38.119  1.00  0.00    -0.744 OA
ENDBRANCH  70  73
ENDBRANCH  52  66
BRANCH  53  77
ATOM     77  C   UNL A   1      42.693  25.243  26.151  1.00  0.00     0.023 A 
ATOM     78  C   UNL A   1      43.562  24.926  25.087  1.00  0.00     0.012 A 
ATOM     79  C   UNL A   1      41.903  24.205  26.692  1.00  0.00     0.148 A 
ATOM     80  C   UNL A   1      43.665  23.616  24.600  1.00  0.00     0.002 A 
ATOM     81  C   UNL A   1      42.005  22.905  26.203  1.00  0.00     0.091 A 
ATOM     82  F   UNL A   1      41.123  24.470  27.748  1.00  0.00    -0.205 F 
ATOM     83  C   UNL A   1      42.894  22.604  25.163  1.00  0.00     0.022 A 
BRANCH  81  84
ATOM     84  S   UNL A   1      41.070  21.541  26.911  1.00  0.00     0.127 S 
ATOM     85  O   UNL A   1      41.249  21.766  28.345  1.00  0.00    -0.237 OA
ATOM     86  O   UNL A   1      39.724  21.808  26.412  1.00  0.00    -0.237 OA
ATOM     87  O   UNL A   1      41.698  20.325  26.411  1.00  0.00    -0.744 OA
ENDBRANCH  81  84
ENDBRANCH  53  77
BRANCH  65  88
ATOM     88  C   UNL A   1      45.324  30.553  28.150  1.00  0.00     0.023 A 
ATOM     89  C   UNL A   1      44.244  31.122  27.442  1.00  0.00     0.012 A 
ATOM     90  C   UNL A   1      46.619  31.045  27.924  1.00  0.00     0.148 A 
ATOM     91  C   UNL A   1      44.458  32.147  26.515  1.00  0.00     0.002 A 
ATOM     92  C   UNL A   1      46.822  32.095  27.040  1.00  0.00     0.091 A 
ATOM     93  F   UNL A   1      47.632  30.495  28.610  1.00  0.00    -0.205 F 
ATOM     94  C   UNL A   1      45.745  32.643  26.324  1.00  0.00     0.022 A 
BRANCH  92  95
ATOM     95  S   UNL A   1      48.435  32.855  26.851  1.00  0.00     0.127 S 
ATOM     96  O   UNL A   1      49.265  31.717  26.466  1.00  0.00    -0.237 OA
ATOM     97  O   UNL A   1      48.198  33.831  25.785  1.00  0.00    -0.237 OA
ATOM     98  O   UNL A   1      48.750  33.453  28.143  1.00  0.00    -0.744 OA
ENDBRANCH  92  95
ENDBRANCH  65  88
ENDBRANCH  39  40
ENDBRANCH  32  34
ENDBRANCH  31  32
ENDBRANCH  30  31
ENDBRANCH  29  30
ENDBRANCH  28  29
ENDBRANCH   1  28
TORSDOF 22
ENDMDL
