MODEL 1
REMARK VINA RESULT:     -11.7      0.000      0.000
REMARK SMILES COc1ccc(-c2ncn(CC(=O)OCCOCCOC(=O)c3ccc(-c4c5nc(c(-c6cccc(S(=O)(=O)[O-])c6F)c6ccc([nH]6)c(-c6cccc(S(=O)(=O)[O-])c6F)c6nc(c(-c7cccc(S(=O)(=O)[O-])c7F)c7ccc4[nH]7)C=C6)C=C5)cc3)c2-c2ccc(OC)cc2)cc1
REMARK SMILES IDX 17 1 16 2 15 3 14 4 12 5 13 6 11 7 10 8 7 9 8 10 86 11 9 12
REMARK SMILES IDX 6 13 3 14 4 15 96 16 5 17 95 18 2 19 1 20 87 21 88 22 94 23
REMARK SMILES IDX 89 24 93 25 90 26 91 27 92 28 18 29 19 30 20 31 21 32 22 33
REMARK SMILES IDX 23 34 24 35 85 36 25 37 84 38 26 39 27 40 28 41 78 42 29 43
REMARK SMILES IDX 83 44 77 45 79 46 30 47 82 48 76 49 75 50 31 52 63 53 43 54
REMARK SMILES IDX 62 55 44 56 47 57 61 58 80 59 45 60 46 61 60 63 81 64 48 65
REMARK SMILES IDX 32 66 33 67 41 68 34 69 36 70 42 71 35 72 37 73 38 74 39 75
REMARK SMILES IDX 40 76 64 77 65 78 73 79 66 80 68 81 74 82 67 83 69 84 70 85
REMARK SMILES IDX 71 86 72 87 49 88 50 89 58 90 51 91 53 92 59 93 52 94 54 95
REMARK SMILES IDX 55 96 56 97 57 98
REMARK H PARENT 79 51 47 62
REMARK Flexibility Score: inf
ROOT
ATOM      1  O   UNL A   1      34.917  22.365  24.067  1.00  0.00    -0.374 OA
ENDROOT
BRANCH   1   2
ATOM      2  C   UNL A   1      34.466  21.061  24.383  1.00  0.00     0.202 C 
BRANCH   2   3
ATOM      3  C   UNL A   1      33.688  20.971  25.703  1.00  0.00     0.261 C 
BRANCH   3   4
ATOM      4  O   UNL A   1      34.067  21.974  26.679  1.00  0.00    -0.462 OA
BRANCH   4   5
ATOM      5  C   UNL A   1      33.175  22.962  26.929  1.00  0.00     0.326 C 
ATOM      6  O   UNL A   1      32.249  22.851  27.732  1.00  0.00    -0.250 OA
BRANCH   5   7
ATOM      7  C   UNL A   1      33.375  24.256  26.163  1.00  0.00     0.246 C 
BRANCH   7   8
ATOM      8  N   UNL A   1      32.402  24.671  25.156  1.00  0.00    -0.319 N 
ATOM      9  C   UNL A   1      30.789  25.699  24.084  1.00  0.00     0.096 A 
ATOM     10  N   UNL A   1      30.752  24.389  23.690  1.00  0.00    -0.236 NA
ATOM     11  C   UNL A   1      31.804  25.920  25.012  1.00  0.00     0.076 A 
ATOM     12  C   UNL A   1      31.711  23.793  24.357  1.00  0.00     0.201 A 
BRANCH   9  13
ATOM     13  C   UNL A   1      29.904  26.738  23.591  1.00  0.00     0.003 A 
ATOM     14  C   UNL A   1      28.317  28.940  22.893  1.00  0.00     0.118 A 
ATOM     15  C   UNL A   1      29.671  28.925  22.581  1.00  0.00     0.047 A 
ATOM     16  C   UNL A   1      27.735  27.828  23.501  1.00  0.00     0.047 A 
ATOM     17  C   UNL A   1      30.453  27.819  22.896  1.00  0.00     0.014 A 
ATOM     18  C   UNL A   1      28.533  26.731  23.867  1.00  0.00     0.014 A 
BRANCH  14  19
ATOM     19  O   UNL A   1      27.642  30.057  22.487  1.00  0.00    -0.497 OA
ATOM     20  C   UNL A   1      28.029  30.525  21.203  1.00  0.00     0.278 C 
ENDBRANCH  14  19
ENDBRANCH   9  13
BRANCH  11  21
ATOM     21  C   UNL A   1      32.184  27.169  25.684  1.00  0.00     0.001 A 
ATOM     22  C   UNL A   1      31.460  27.614  26.795  1.00  0.00     0.014 A 
ATOM     23  C   UNL A   1      33.317  27.894  25.311  1.00  0.00     0.014 A 
ATOM     24  C   UNL A   1      31.741  28.818  27.430  1.00  0.00     0.047 A 
ATOM     25  C   UNL A   1      33.640  29.090  25.972  1.00  0.00     0.047 A 
ATOM     26  C   UNL A   1      32.830  29.559  27.006  1.00  0.00     0.118 A 
BRANCH  26  27
ATOM     27  O   UNL A   1      33.043  30.794  27.545  1.00  0.00    -0.497 OA
ATOM     28  C   UNL A   1      34.435  31.098  27.620  1.00  0.00     0.278 C 
ENDBRANCH  26  27
ENDBRANCH  11  21
ENDBRANCH   7   8
ENDBRANCH   5   7
ENDBRANCH   4   5
ENDBRANCH   3   4
ENDBRANCH   2   3
ENDBRANCH   1   2
BRANCH   1  29
ATOM     29  C   UNL A   1      36.312  22.580  23.883  1.00  0.00     0.202 C 
BRANCH  29  30
ATOM     30  C   UNL A   1      37.364  21.653  24.496  1.00  0.00     0.261 C 
BRANCH  30  31
ATOM     31  O   UNL A   1      37.628  21.904  25.873  1.00  0.00    -0.460 OA
BRANCH  31  32
ATOM     32  C   UNL A   1      38.941  21.931  26.143  1.00  0.00     0.338 C 
ATOM     33  O   UNL A   1      39.707  21.008  25.868  1.00  0.00    -0.246 OA
BRANCH  32  34
ATOM     34  C   UNL A   1      39.336  23.196  26.792  1.00  0.00     0.060 A 
ATOM     35  C   UNL A   1      40.467  23.160  27.606  1.00  0.00     0.016 A 
ATOM     36  C   UNL A   1      38.582  24.378  26.653  1.00  0.00     0.016 A 
ATOM     37  C   UNL A   1      40.838  24.301  28.289  1.00  0.00     0.010 A 
ATOM     38  C   UNL A   1      38.911  25.499  27.385  1.00  0.00     0.010 A 
ATOM     39  C   UNL A   1      40.051  25.453  28.178  1.00  0.00    -0.014 A 
BRANCH  39  40
ATOM     40  C   UNL A   1      40.612  26.691  28.671  1.00  0.00     0.031 A 
ATOM     41  C   UNL A   1      41.927  27.011  28.076  1.00  0.00     0.074 A 
ATOM     42  C   UNL A   1      39.978  27.540  29.489  1.00  0.00     0.049 A 
ATOM     43  N   UNL A   1      43.079  26.903  28.648  1.00  0.00    -0.248 NA
ATOM     44  C   UNL A   1      41.987  27.300  26.637  1.00  0.00     0.031 C 
ATOM     45  C   UNL A   1      38.578  27.496  29.879  1.00  0.00     0.029 A 
ATOM     46  N   UNL A   1      40.426  28.703  30.028  1.00  0.00    -0.354 N 
ATOM     47  C   UNL A   1      43.990  27.370  27.708  1.00  0.00     0.074 A 
ATOM     48  C   UNL A   1      43.306  27.345  26.444  1.00  0.00     0.031 C 
ATOM     49  C   UNL A   1      38.220  28.700  30.376  1.00  0.00     0.029 A 
ATOM     50  C   UNL A   1      39.405  29.532  30.469  1.00  0.00     0.049 A 
ATOM     51  H   UNL A   1      41.380  28.936  30.097  1.00  0.00     0.167 HD
ATOM     52  C   UNL A   1      45.111  28.033  28.103  1.00  0.00     0.034 A 
ATOM     53  C   UNL A   1      39.528  30.832  30.815  1.00  0.00     0.034 A 
ATOM     54  C   UNL A   1      45.367  27.831  29.513  1.00  0.00     0.049 A 
ATOM     55  C   UNL A   1      40.952  31.060  31.159  1.00  0.00     0.074 A 
ATOM     56  C   UNL A   1      45.551  26.740  30.337  1.00  0.00     0.029 A 
ATOM     57  N   UNL A   1      45.094  28.894  30.341  1.00  0.00    -0.354 N 
ATOM     58  N   UNL A   1      41.542  30.533  32.198  1.00  0.00    -0.248 NA
ATOM     59  C   UNL A   1      41.846  31.583  30.137  1.00  0.00     0.031 C 
ATOM     60  C   UNL A   1      44.981  27.113  31.591  1.00  0.00     0.029 A 
ATOM     61  C   UNL A   1      44.506  28.422  31.480  1.00  0.00     0.049 A 
ATOM     62  H   UNL A   1      45.291  29.838  30.146  1.00  0.00     0.167 HD
ATOM     63  C   UNL A   1      42.829  30.245  31.758  1.00  0.00     0.074 A 
ATOM     64  C   UNL A   1      42.999  31.053  30.555  1.00  0.00     0.031 C 
ATOM     65  C   UNL A   1      43.511  29.160  32.235  1.00  0.00     0.034 A 
BRANCH  52  66
ATOM     66  C   UNL A   1      45.722  29.211  27.362  1.00  0.00     0.023 A 
ATOM     67  C   UNL A   1      47.135  29.258  27.318  1.00  0.00     0.012 A 
ATOM     68  C   UNL A   1      45.039  30.396  26.999  1.00  0.00     0.148 A 
ATOM     69  C   UNL A   1      47.826  30.446  27.055  1.00  0.00     0.002 A 
ATOM     70  C   UNL A   1      45.730  31.557  26.673  1.00  0.00     0.091 A 
ATOM     71  F   UNL A   1      43.711  30.470  27.078  1.00  0.00    -0.205 F 
ATOM     72  C   UNL A   1      47.122  31.599  26.740  1.00  0.00     0.022 A 
BRANCH  70  73
ATOM     73  S   UNL A   1      44.863  33.068  26.228  1.00  0.00     0.127 S 
ATOM     74  O   UNL A   1      45.967  33.917  25.792  1.00  0.00    -0.237 OA
ATOM     75  O   UNL A   1      43.977  32.601  25.161  1.00  0.00    -0.237 OA
ATOM     76  O   UNL A   1      44.164  33.492  27.436  1.00  0.00    -0.744 OA
ENDBRANCH  70  73
ENDBRANCH  52  66
BRANCH  53  77
ATOM     77  C   UNL A   1      38.541  31.928  30.696  1.00  0.00     0.023 A 
ATOM     78  C   UNL A   1      37.985  32.220  29.437  1.00  0.00     0.012 A 
ATOM     79  C   UNL A   1      37.958  32.527  31.839  1.00  0.00     0.148 A 
ATOM     80  C   UNL A   1      36.867  33.053  29.318  1.00  0.00     0.002 A 
ATOM     81  C   UNL A   1      36.859  33.371  31.714  1.00  0.00     0.091 A 
ATOM     82  F   UNL A   1      38.416  32.196  33.054  1.00  0.00    -0.205 F 
ATOM     83  C   UNL A   1      36.301  33.624  30.455  1.00  0.00     0.022 A 
BRANCH  81  84
ATOM     84  S   UNL A   1      36.090  34.160  33.137  1.00  0.00     0.127 S 
ATOM     85  O   UNL A   1      37.231  34.810  33.785  1.00  0.00    -0.237 OA
ATOM     86  O   UNL A   1      35.146  35.078  32.505  1.00  0.00    -0.237 OA
ATOM     87  O   UNL A   1      35.506  33.081  33.924  1.00  0.00    -0.744 OA
ENDBRANCH  81  84
ENDBRANCH  53  77
BRANCH  65  88
ATOM     88  C   UNL A   1      43.008  28.498  33.495  1.00  0.00     0.023 A 
ATOM     89  C   UNL A   1      41.915  27.608  33.486  1.00  0.00     0.012 A 
ATOM     90  C   UNL A   1      43.754  28.643  34.678  1.00  0.00     0.148 A 
ATOM     91  C   UNL A   1      41.554  26.904  34.639  1.00  0.00     0.002 A 
ATOM     92  C   UNL A   1      43.420  27.907  35.810  1.00  0.00     0.091 A 
ATOM     93  F   UNL A   1      44.798  29.487  34.674  1.00  0.00    -0.205 F 
ATOM     94  C   UNL A   1      42.314  27.044  35.797  1.00  0.00     0.022 A 
BRANCH  92  95
ATOM     95  S   UNL A   1      44.441  27.946  37.287  1.00  0.00     0.127 S 
ATOM     96  O   UNL A   1      43.786  26.957  38.139  1.00  0.00    -0.237 OA
ATOM     97  O   UNL A   1      45.754  27.539  36.780  1.00  0.00    -0.237 OA
ATOM     98  O   UNL A   1      44.394  29.323  37.764  1.00  0.00    -0.744 OA
ENDBRANCH  92  95
ENDBRANCH  65  88
ENDBRANCH  39  40
ENDBRANCH  32  34
ENDBRANCH  31  32
ENDBRANCH  30  31
ENDBRANCH  29  30
ENDBRANCH   1  29
TORSDOF 22
ENDMDL
MODEL 2
REMARK VINA RESULT:     -10.9      1.697      2.217
REMARK SMILES COc1ccc(-c2ncn(CC(=O)OCCOCCOC(=O)c3ccc(-c4c5nc(c(-c6cccc(S(=O)(=O)[O-])c6F)c6ccc([nH]6)c(-c6cccc(S(=O)(=O)[O-])c6F)c6nc(c(-c7cccc(S(=O)(=O)[O-])c7F)c7ccc4[nH]7)C=C6)C=C5)cc3)c2-c2ccc(OC)cc2)cc1
REMARK SMILES IDX 17 1 16 2 15 3 14 4 12 5 13 6 11 7 10 8 7 9 8 10 86 11 9 12
REMARK SMILES IDX 6 13 3 14 4 15 96 16 5 17 95 18 2 19 1 20 87 21 88 22 94 23
REMARK SMILES IDX 89 24 93 25 90 26 91 27 92 28 18 29 19 30 20 31 21 32 22 33
REMARK SMILES IDX 23 34 24 35 85 36 25 37 84 38 26 39 27 40 28 41 78 42 29 43
REMARK SMILES IDX 83 44 77 45 79 46 30 47 82 48 76 49 75 50 31 52 63 53 43 54
REMARK SMILES IDX 62 55 44 56 47 57 61 58 80 59 45 60 46 61 60 63 81 64 48 65
REMARK SMILES IDX 32 66 33 67 41 68 34 69 36 70 42 71 35 72 37 73 38 74 39 75
REMARK SMILES IDX 40 76 64 77 65 78 73 79 66 80 68 81 74 82 67 83 69 84 70 85
REMARK SMILES IDX 71 86 72 87 49 88 50 89 58 90 51 91 53 92 59 93 52 94 54 95
REMARK SMILES IDX 55 96 56 97 57 98
REMARK H PARENT 79 51 47 62
REMARK Flexibility Score: inf
ROOT
ATOM      1  O   UNL A   1      35.965  21.557  25.399  1.00  0.00    -0.374 OA
ENDROOT
BRANCH   1   2
ATOM      2  C   UNL A   1      34.884  20.651  25.280  1.00  0.00     0.202 C 
BRANCH   2   3
ATOM      3  C   UNL A   1      33.524  21.326  25.054  1.00  0.00     0.261 C 
BRANCH   3   4
ATOM      4  O   UNL A   1      32.773  21.558  26.272  1.00  0.00    -0.462 OA
BRANCH   4   5
ATOM      5  C   UNL A   1      32.255  22.797  26.453  1.00  0.00     0.326 C 
ATOM      6  O   UNL A   1      31.403  23.056  27.301  1.00  0.00    -0.250 OA
BRANCH   5   7
ATOM      7  C   UNL A   1      32.793  23.887  25.547  1.00  0.00     0.246 C 
BRANCH   7   8
ATOM      8  N   UNL A   1      31.898  24.587  24.628  1.00  0.00    -0.319 N 
ATOM      9  C   UNL A   1      30.505  26.021  23.728  1.00  0.00     0.096 A 
ATOM     10  N   UNL A   1      30.180  24.790  23.229  1.00  0.00    -0.236 NA
ATOM     11  C   UNL A   1      31.573  25.940  24.619  1.00  0.00     0.076 A 
ATOM     12  C   UNL A   1      31.013  23.949  23.794  1.00  0.00     0.201 A 
BRANCH   9  13
ATOM     13  C   UNL A   1      29.845  27.262  23.369  1.00  0.00     0.003 A 
ATOM     14  C   UNL A   1      28.432  29.486  22.413  1.00  0.00     0.118 A 
ATOM     15  C   UNL A   1      27.769  28.477  23.101  1.00  0.00     0.047 A 
ATOM     16  C   UNL A   1      29.816  29.419  22.252  1.00  0.00     0.047 A 
ATOM     17  C   UNL A   1      28.473  27.390  23.606  1.00  0.00     0.014 A 
ATOM     18  C   UNL A   1      30.522  28.297  22.716  1.00  0.00     0.014 A 
BRANCH  14  19
ATOM     19  O   UNL A   1      27.643  30.528  22.011  1.00  0.00    -0.497 OA
ATOM     20  C   UNL A   1      28.371  31.635  21.502  1.00  0.00     0.278 C 
ENDBRANCH  14  19
ENDBRANCH   9  13
BRANCH  11  21
ATOM     21  C   UNL A   1      32.230  27.015  25.373  1.00  0.00     0.001 A 
ATOM     22  C   UNL A   1      31.669  27.473  26.571  1.00  0.00     0.014 A 
ATOM     23  C   UNL A   1      33.462  27.545  24.985  1.00  0.00     0.014 A 
ATOM     24  C   UNL A   1      32.218  28.528  27.291  1.00  0.00     0.047 A 
ATOM     25  C   UNL A   1      34.051  28.581  25.728  1.00  0.00     0.047 A 
ATOM     26  C   UNL A   1      33.408  29.086  26.857  1.00  0.00     0.118 A 
BRANCH  26  27
ATOM     27  O   UNL A   1      33.891  30.194  27.490  1.00  0.00    -0.497 OA
ATOM     28  C   UNL A   1      35.301  30.111  27.685  1.00  0.00     0.278 C 
ENDBRANCH  26  27
ENDBRANCH  11  21
ENDBRANCH   7   8
ENDBRANCH   5   7
ENDBRANCH   4   5
ENDBRANCH   3   4
ENDBRANCH   2   3
ENDBRANCH   1   2
BRANCH   1  29
ATOM     29  C   UNL A   1      37.195  21.244  24.754  1.00  0.00     0.202 C 
BRANCH  29  30
ATOM     30  C   UNL A   1      38.532  21.278  25.495  1.00  0.00     0.261 C 
BRANCH  30  31
ATOM     31  O   UNL A   1      38.849  22.545  26.064  1.00  0.00    -0.460 OA
BRANCH  31  32
ATOM     32  C   UNL A   1      39.891  22.480  26.905  1.00  0.00     0.338 C 
ATOM     33  O   UNL A   1      40.491  21.436  27.158  1.00  0.00    -0.246 OA
BRANCH  32  34
ATOM     34  C   UNL A   1      40.219  23.805  27.466  1.00  0.00     0.060 A 
ATOM     35  C   UNL A   1      39.258  24.805  27.323  1.00  0.00     0.016 A 
ATOM     36  C   UNL A   1      41.463  24.078  28.069  1.00  0.00     0.016 A 
ATOM     37  C   UNL A   1      39.545  26.079  27.770  1.00  0.00     0.010 A 
ATOM     38  C   UNL A   1      41.777  25.363  28.456  1.00  0.00     0.010 A 
ATOM     39  C   UNL A   1      40.803  26.345  28.323  1.00  0.00    -0.014 A 
BRANCH  39  40
ATOM     40  C   UNL A   1      40.968  27.596  29.028  1.00  0.00     0.031 A 
ATOM     41  C   UNL A   1      42.046  28.439  28.473  1.00  0.00     0.074 A 
ATOM     42  C   UNL A   1      40.163  28.026  30.008  1.00  0.00     0.049 A 
ATOM     43  N   UNL A   1      43.216  28.633  28.985  1.00  0.00    -0.248 NA
ATOM     44  C   UNL A   1      41.883  28.973  27.114  1.00  0.00     0.031 C 
ATOM     45  C   UNL A   1      38.896  27.444  30.417  1.00  0.00     0.029 A 
ATOM     46  N   UNL A   1      40.249  29.162  30.747  1.00  0.00    -0.354 N 
ATOM     47  C   UNL A   1      43.836  29.535  28.129  1.00  0.00     0.074 A 
ATOM     48  C   UNL A   1      43.091  29.495  26.901  1.00  0.00     0.031 C 
ATOM     49  C   UNL A   1      38.207  28.351  31.142  1.00  0.00     0.029 A 
ATOM     50  C   UNL A   1      39.055  29.507  31.363  1.00  0.00     0.049 A 
ATOM     51  H   UNL A   1      41.076  29.689  30.836  1.00  0.00     0.167 HD
ATOM     52  C   UNL A   1      44.707  30.461  28.615  1.00  0.00     0.034 A 
ATOM     53  C   UNL A   1      38.773  30.692  31.947  1.00  0.00     0.034 A 
ATOM     54  C   UNL A   1      45.137  30.121  29.954  1.00  0.00     0.049 A 
ATOM     55  C   UNL A   1      40.068  31.328  32.293  1.00  0.00     0.074 A 
ATOM     56  C   UNL A   1      45.741  29.032  30.551  1.00  0.00     0.029 A 
ATOM     57  N   UNL A   1      44.604  30.869  30.976  1.00  0.00    -0.354 N 
ATOM     58  N   UNL A   1      40.887  30.863  33.198  1.00  0.00    -0.248 NA
ATOM     59  C   UNL A   1      40.647  32.289  31.367  1.00  0.00     0.031 C 
ATOM     60  C   UNL A   1      45.192  28.971  31.866  1.00  0.00     0.029 A 
ATOM     61  C   UNL A   1      44.306  30.039  32.019  1.00  0.00     0.049 A 
ATOM     62  H   UNL A   1      44.461  31.843  30.959  1.00  0.00     0.167 HD
ATOM     63  C   UNL A   1      42.153  31.108  32.680  1.00  0.00     0.074 A 
ATOM     64  C   UNL A   1      41.942  32.119  31.648  1.00  0.00     0.031 C 
ATOM     65  C   UNL A   1      43.193  30.254  32.925  1.00  0.00     0.034 A 
BRANCH  52  66
ATOM     66  C   UNL A   1      44.829  31.885  28.097  1.00  0.00     0.023 A 
ATOM     67  C   UNL A   1      46.101  32.266  27.608  1.00  0.00     0.012 A 
ATOM     68  C   UNL A   1      43.908  32.930  28.345  1.00  0.00     0.148 A 
ATOM     69  C   UNL A   1      46.475  33.609  27.496  1.00  0.00     0.002 A 
ATOM     70  C   UNL A   1      44.263  34.262  28.168  1.00  0.00     0.091 A 
ATOM     71  F   UNL A   1      42.711  32.676  28.872  1.00  0.00    -0.205 F 
ATOM     72  C   UNL A   1      45.558  34.609  27.784  1.00  0.00     0.022 A 
BRANCH  70  73
ATOM     73  S   UNL A   1      43.098  35.592  28.498  1.00  0.00     0.127 S 
ATOM     74  O   UNL A   1      42.002  35.244  27.599  1.00  0.00    -0.237 OA
ATOM     75  O   UNL A   1      42.822  35.400  29.922  1.00  0.00    -0.237 OA
ATOM     76  O   UNL A   1      43.813  36.826  28.193  1.00  0.00    -0.744 OA
ENDBRANCH  70  73
ENDBRANCH  52  66
BRANCH  53  77
ATOM     77  C   UNL A   1      37.474  31.391  32.063  1.00  0.00     0.023 A 
ATOM     78  C   UNL A   1      36.926  31.616  33.339  1.00  0.00     0.012 A 
ATOM     79  C   UNL A   1      36.888  32.052  30.957  1.00  0.00     0.148 A 
ATOM     80  C   UNL A   1      35.852  32.494  33.518  1.00  0.00     0.002 A 
ATOM     81  C   UNL A   1      35.805  32.909  31.136  1.00  0.00     0.091 A 
ATOM     82  F   UNL A   1      37.446  31.920  29.747  1.00  0.00    -0.205 F 
ATOM     83  C   UNL A   1      35.295  33.144  32.419  1.00  0.00     0.022 A 
BRANCH  81  84
ATOM     84  S   UNL A   1      35.023  33.766  29.761  1.00  0.00     0.127 S 
ATOM     85  O   UNL A   1      34.275  34.826  30.443  1.00  0.00    -0.237 OA
ATOM     86  O   UNL A   1      36.174  34.230  28.994  1.00  0.00    -0.237 OA
ATOM     87  O   UNL A   1      34.172  32.778  29.108  1.00  0.00    -0.744 OA
ENDBRANCH  81  84
ENDBRANCH  53  77
BRANCH  65  88
ATOM     88  C   UNL A   1      43.048  29.256  34.047  1.00  0.00     0.023 A 
ATOM     89  C   UNL A   1      42.374  28.030  33.875  1.00  0.00     0.012 A 
ATOM     90  C   UNL A   1      43.747  29.482  35.246  1.00  0.00     0.148 A 
ATOM     91  C   UNL A   1      42.370  27.065  34.886  1.00  0.00     0.002 A 
ATOM     92  C   UNL A   1      43.779  28.502  36.233  1.00  0.00     0.091 A 
ATOM     93  F   UNL A   1      44.392  30.650  35.398  1.00  0.00    -0.205 F 
ATOM     94  C   UNL A   1      43.083  27.296  36.060  1.00  0.00     0.022 A 
BRANCH  92  95
ATOM     95  S   UNL A   1      44.788  28.689  37.706  1.00  0.00     0.127 S 
ATOM     96  O   UNL A   1      46.137  28.750  37.148  1.00  0.00    -0.237 OA
ATOM     97  O   UNL A   1      44.304  29.952  38.268  1.00  0.00    -0.237 OA
ATOM     98  O   UNL A   1      44.498  27.524  38.534  1.00  0.00    -0.744 OA
ENDBRANCH  92  95
ENDBRANCH  65  88
ENDBRANCH  39  40
ENDBRANCH  32  34
ENDBRANCH  31  32
ENDBRANCH  30  31
ENDBRANCH  29  30
ENDBRANCH   1  29
TORSDOF 22
ENDMDL
MODEL 3
REMARK VINA RESULT:     -10.8      2.888      7.237
REMARK SMILES COc1ccc(-c2ncn(CC(=O)OCCOCCOC(=O)c3ccc(-c4c5nc(c(-c6cccc(S(=O)(=O)[O-])c6F)c6ccc([nH]6)c(-c6cccc(S(=O)(=O)[O-])c6F)c6nc(c(-c7cccc(S(=O)(=O)[O-])c7F)c7ccc4[nH]7)C=C6)C=C5)cc3)c2-c2ccc(OC)cc2)cc1
REMARK SMILES IDX 17 1 16 2 15 3 14 4 12 5 13 6 11 7 10 8 7 9 8 10 86 11 9 12
REMARK SMILES IDX 6 13 3 14 4 15 96 16 5 17 95 18 2 19 1 20 87 21 88 22 94 23
REMARK SMILES IDX 89 24 93 25 90 26 91 27 92 28 18 29 19 30 20 31 21 32 22 33
REMARK SMILES IDX 23 34 24 35 85 36 25 37 84 38 26 39 27 40 28 41 78 42 29 43
REMARK SMILES IDX 83 44 77 45 79 46 30 47 82 48 76 49 75 50 31 52 63 53 43 54
REMARK SMILES IDX 62 55 44 56 47 57 61 58 80 59 45 60 46 61 60 63 81 64 48 65
REMARK SMILES IDX 32 66 33 67 41 68 34 69 36 70 42 71 35 72 37 73 38 74 39 75
REMARK SMILES IDX 40 76 64 77 65 78 73 79 66 80 68 81 74 82 67 83 69 84 70 85
REMARK SMILES IDX 71 86 72 87 49 88 50 89 58 90 51 91 53 92 59 93 52 94 54 95
REMARK SMILES IDX 55 96 56 97 57 98
REMARK H PARENT 79 51 47 62
REMARK Flexibility Score: inf
ROOT
ATOM      1  O   UNL A   1      33.988  20.853  26.094  1.00  0.00    -0.374 OA
ENDROOT
BRANCH   1   2
ATOM      2  C   UNL A   1      34.411  21.414  27.323  1.00  0.00     0.202 C 
BRANCH   2   3
ATOM      3  C   UNL A   1      33.807  22.793  27.621  1.00  0.00     0.261 C 
BRANCH   3   4
ATOM      4  O   UNL A   1      32.367  22.782  27.788  1.00  0.00    -0.462 OA
BRANCH   4   5
ATOM      5  C   UNL A   1      31.639  23.541  26.935  1.00  0.00     0.326 C 
ATOM      6  O   UNL A   1      30.490  23.910  27.171  1.00  0.00    -0.250 OA
BRANCH   5   7
ATOM      7  C   UNL A   1      32.322  23.938  25.640  1.00  0.00     0.246 C 
BRANCH   7   8
ATOM      8  N   UNL A   1      31.598  24.713  24.636  1.00  0.00    -0.319 N 
ATOM      9  C   UNL A   1      30.443  26.264  23.602  1.00  0.00     0.096 A 
ATOM     10  N   UNL A   1      30.069  25.065  23.058  1.00  0.00    -0.236 NA
ATOM     11  C   UNL A   1      31.395  26.090  24.605  1.00  0.00     0.076 A 
ATOM     12  C   UNL A   1      30.759  24.155  23.703  1.00  0.00     0.201 A 
BRANCH   9  13
ATOM     13  C   UNL A   1      29.936  27.558  23.185  1.00  0.00     0.003 A 
ATOM     14  C   UNL A   1      28.809  29.891  22.119  1.00  0.00     0.118 A 
ATOM     15  C   UNL A   1      28.018  28.988  22.820  1.00  0.00     0.047 A 
ATOM     16  C   UNL A   1      30.180  29.664  21.999  1.00  0.00     0.047 A 
ATOM     17  C   UNL A   1      28.582  27.847  23.379  1.00  0.00     0.014 A 
ATOM     18  C   UNL A   1      30.742  28.486  22.518  1.00  0.00     0.014 A 
BRANCH  14  19
ATOM     19  O   UNL A   1      28.153  31.000  21.662  1.00  0.00    -0.497 OA
ATOM     20  C   UNL A   1      28.649  32.219  22.194  1.00  0.00     0.278 C 
ENDBRANCH  14  19
ENDBRANCH   9  13
BRANCH  11  21
ATOM     21  C   UNL A   1      32.054  27.103  25.437  1.00  0.00     0.001 A 
ATOM     22  C   UNL A   1      33.335  27.559  25.101  1.00  0.00     0.014 A 
ATOM     23  C   UNL A   1      31.407  27.711  26.514  1.00  0.00     0.014 A 
ATOM     24  C   UNL A   1      34.026  28.473  25.889  1.00  0.00     0.047 A 
ATOM     25  C   UNL A   1      32.078  28.668  27.292  1.00  0.00     0.047 A 
ATOM     26  C   UNL A   1      33.394  29.018  26.992  1.00  0.00     0.118 A 
BRANCH  26  27
ATOM     27  O   UNL A   1      34.104  29.824  27.833  1.00  0.00    -0.497 OA
ATOM     28  C   UNL A   1      35.508  29.682  27.629  1.00  0.00     0.278 C 
ENDBRANCH  26  27
ENDBRANCH  11  21
ENDBRANCH   7   8
ENDBRANCH   5   7
ENDBRANCH   4   5
ENDBRANCH   3   4
ENDBRANCH   2   3
ENDBRANCH   1   2
BRANCH   1  29
ATOM     29  C   UNL A   1      34.881  20.886  24.985  1.00  0.00     0.202 C 
BRANCH  29  30
ATOM     30  C   UNL A   1      36.083  19.945  24.883  1.00  0.00     0.261 C 
BRANCH  30  31
ATOM     31  O   UNL A   1      37.288  20.483  25.419  1.00  0.00    -0.460 OA
BRANCH  31  32
ATOM     32  C   UNL A   1      37.633  21.641  24.838  1.00  0.00     0.338 C 
ATOM     33  O   UNL A   1      37.300  21.949  23.695  1.00  0.00    -0.246 OA
BRANCH  32  34
ATOM     34  C   UNL A   1      38.439  22.483  25.743  1.00  0.00     0.060 A 
ATOM     35  C   UNL A   1      39.655  21.956  26.178  1.00  0.00     0.016 A 
ATOM     36  C   UNL A   1      37.989  23.737  26.202  1.00  0.00     0.016 A 
ATOM     37  C   UNL A   1      40.413  22.676  27.079  1.00  0.00     0.010 A 
ATOM     38  C   UNL A   1      38.712  24.427  27.151  1.00  0.00     0.010 A 
ATOM     39  C   UNL A   1      39.929  23.898  27.561  1.00  0.00    -0.014 A 
BRANCH  39  40
ATOM     40  C   UNL A   1      40.860  24.746  28.272  1.00  0.00     0.031 A 
ATOM     41  C   UNL A   1      40.392  26.142  28.401  1.00  0.00     0.074 A 
ATOM     42  C   UNL A   1      41.979  24.315  28.867  1.00  0.00     0.049 A 
ATOM     43  N   UNL A   1      40.821  27.164  27.738  1.00  0.00    -0.248 NA
ATOM     44  C   UNL A   1      39.194  26.402  29.211  1.00  0.00     0.031 C 
ATOM     45  C   UNL A   1      42.375  22.933  29.085  1.00  0.00     0.029 A 
ATOM     46  N   UNL A   1      42.925  25.029  29.528  1.00  0.00    -0.354 N 
ATOM     47  C   UNL A   1      40.116  28.245  28.253  1.00  0.00     0.074 A 
ATOM     48  C   UNL A   1      38.981  27.690  28.939  1.00  0.00     0.031 C 
ATOM     49  C   UNL A   1      43.334  22.893  30.035  1.00  0.00     0.029 A 
ATOM     50  C   UNL A   1      43.709  24.254  30.370  1.00  0.00     0.049 A 
ATOM     51  H   UNL A   1      43.043  26.001  29.421  1.00  0.00     0.167 HD
ATOM     52  C   UNL A   1      40.698  29.471  28.339  1.00  0.00     0.034 A 
ATOM     53  C   UNL A   1      44.548  24.714  31.324  1.00  0.00     0.034 A 
ATOM     54  C   UNL A   1      41.892  29.541  27.524  1.00  0.00     0.049 A 
ATOM     55  C   UNL A   1      44.895  26.110  30.964  1.00  0.00     0.074 A 
ATOM     56  C   UNL A   1      42.191  29.336  26.192  1.00  0.00     0.029 A 
ATOM     57  N   UNL A   1      43.092  29.515  28.193  1.00  0.00    -0.354 N 
ATOM     58  N   UNL A   1      45.603  26.437  29.916  1.00  0.00    -0.248 NA
ATOM     59  C   UNL A   1      44.138  27.198  31.564  1.00  0.00     0.031 C 
ATOM     60  C   UNL A   1      43.511  28.794  26.181  1.00  0.00     0.029 A 
ATOM     61  C   UNL A   1      43.963  28.724  27.500  1.00  0.00     0.049 A 
ATOM     62  H   UNL A   1      43.290  29.988  29.033  1.00  0.00     0.167 HD
ATOM     63  C   UNL A   1      45.031  27.619  29.464  1.00  0.00     0.074 A 
ATOM     64  C   UNL A   1      44.255  28.113  30.597  1.00  0.00     0.031 C 
ATOM     65  C   UNL A   1      44.995  27.921  28.131  1.00  0.00     0.034 A 
BRANCH  52  66
ATOM     66  C   UNL A   1      40.477  30.453  29.479  1.00  0.00     0.023 A 
ATOM     67  C   UNL A   1      41.384  30.373  30.561  1.00  0.00     0.012 A 
ATOM     68  C   UNL A   1      39.295  31.200  29.699  1.00  0.00     0.148 A 
ATOM     69  C   UNL A   1      41.077  30.894  31.821  1.00  0.00     0.002 A 
ATOM     70  C   UNL A   1      39.024  31.774  30.937  1.00  0.00     0.091 A 
ATOM     71  F   UNL A   1      38.348  31.274  28.765  1.00  0.00    -0.205 F 
ATOM     72  C   UNL A   1      39.891  31.588  32.012  1.00  0.00     0.022 A 
BRANCH  70  73
ATOM     73  S   UNL A   1      37.515  32.709  31.223  1.00  0.00     0.127 S 
ATOM     74  O   UNL A   1      36.499  31.674  31.059  1.00  0.00    -0.237 OA
ATOM     75  O   UNL A   1      37.711  33.179  32.595  1.00  0.00    -0.237 OA
ATOM     76  O   UNL A   1      37.516  33.773  30.226  1.00  0.00    -0.744 OA
ENDBRANCH  70  73
ENDBRANCH  52  66
BRANCH  53  77
ATOM     77  C   UNL A   1      44.928  24.094  32.612  1.00  0.00     0.023 A 
ATOM     78  C   UNL A   1      44.113  23.085  33.158  1.00  0.00     0.012 A 
ATOM     79  C   UNL A   1      46.204  24.308  33.189  1.00  0.00     0.148 A 
ATOM     80  C   UNL A   1      44.561  22.292  34.219  1.00  0.00     0.002 A 
ATOM     81  C   UNL A   1      46.637  23.530  34.259  1.00  0.00     0.091 A 
ATOM     82  F   UNL A   1      47.029  25.203  32.632  1.00  0.00    -0.205 F 
ATOM     83  C   UNL A   1      45.822  22.509  34.766  1.00  0.00     0.022 A 
BRANCH  81  84
ATOM     84  S   UNL A   1      48.245  23.769  35.029  1.00  0.00     0.127 S 
ATOM     85  O   UNL A   1      48.205  22.807  36.133  1.00  0.00    -0.237 OA
ATOM     86  O   UNL A   1      49.159  23.415  33.946  1.00  0.00    -0.237 OA
ATOM     87  O   UNL A   1      48.276  25.159  35.465  1.00  0.00    -0.744 OA
ENDBRANCH  81  84
ENDBRANCH  53  77
BRANCH  65  88
ATOM     88  C   UNL A   1      45.895  27.147  27.199  1.00  0.00     0.023 A 
ATOM     89  C   UNL A   1      47.259  27.467  27.040  1.00  0.00     0.012 A 
ATOM     90  C   UNL A   1      45.401  25.974  26.601  1.00  0.00     0.148 A 
ATOM     91  C   UNL A   1      48.102  26.654  26.276  1.00  0.00     0.002 A 
ATOM     92  C   UNL A   1      46.252  25.143  25.881  1.00  0.00     0.091 A 
ATOM     93  F   UNL A   1      44.102  25.674  26.765  1.00  0.00    -0.205 F 
ATOM     94  C   UNL A   1      47.602  25.486  25.708  1.00  0.00     0.022 A 
BRANCH  92  95
ATOM     95  S   UNL A   1      45.696  23.561  25.240  1.00  0.00     0.127 S 
ATOM     96  O   UNL A   1      45.482  22.792  26.463  1.00  0.00    -0.237 OA
ATOM     97  O   UNL A   1      44.469  23.919  24.523  1.00  0.00    -0.237 OA
ATOM     98  O   UNL A   1      46.768  23.086  24.373  1.00  0.00    -0.744 OA
ENDBRANCH  92  95
ENDBRANCH  65  88
ENDBRANCH  39  40
ENDBRANCH  32  34
ENDBRANCH  31  32
ENDBRANCH  30  31
ENDBRANCH  29  30
ENDBRANCH   1  29
TORSDOF 22
ENDMDL
