MODEL 1
REMARK VINA RESULT:     -10.6      0.000      0.000
REMARK SMILES O=C(CN(CC(=O)OCCOCCOC(=O)c1ccc(-c2c3nc(c(-c4cccc(S(=O)(=O)[O-])c4F)c4ccc([nH]4)c(-c4cccc(S(=O)(=O)[O-])c4F)c4nc(c(-c5cccc(S(=O)(=O)[O-])c5F)c5ccc2[nH]5)C=C4)C=C3)cc1)c1ccccc1)NCc1ccccc1
REMARK SMILES IDX 10 1 9 2 8 3 6 4 7 5 5 6 4 7 3 8 2 9 1 10 86 11 87 13 88 14
REMARK SMILES IDX 89 15 93 16 90 17 92 18 91 19 80 20 81 21 85 22 82 23 84 24
REMARK SMILES IDX 83 25 11 26 12 27 13 28 14 29 15 30 16 31 17 32 18 33 79 34
REMARK SMILES IDX 19 35 78 36 20 37 21 38 22 39 72 40 23 41 77 42 71 43 73 44
REMARK SMILES IDX 24 45 76 46 70 47 69 48 25 50 57 51 37 52 56 53 38 54 41 55
REMARK SMILES IDX 55 56 74 57 39 58 40 59 54 61 75 62 42 63 26 64 27 65 35 66
REMARK SMILES IDX 28 67 30 68 36 69 29 70 31 71 32 72 33 73 34 74 58 75 59 76
REMARK SMILES IDX 67 77 60 78 62 79 68 80 61 81 63 82 64 83 65 84 66 85 43 86
REMARK SMILES IDX 44 87 52 88 45 89 47 90 53 91 46 92 48 93 49 94 50 95 51 96
REMARK H PARENT 86 12 73 49 41 60
REMARK Flexibility Score: inf
ROOT
ATOM      1  C   UNL A   1      31.749  30.796  26.859  1.00  0.00     0.202 C 
ENDROOT
BRANCH   1   2
ATOM      2  C   UNL A   1      31.724  30.047  25.518  1.00  0.00     0.261 C 
BRANCH   2   3
ATOM      3  O   UNL A   1      33.007  29.646  24.988  1.00  0.00    -0.462 OA
BRANCH   3   4
ATOM      4  C   UNL A   1      33.641  28.669  25.695  1.00  0.00     0.325 C 
ATOM      5  O   UNL A   1      34.675  28.844  26.339  1.00  0.00    -0.250 OA
BRANCH   4   6
ATOM      6  C   UNL A   1      33.032  27.273  25.576  1.00  0.00     0.239 C 
BRANCH   6   7
ATOM      7  N   UNL A   1      33.286  26.497  24.342  1.00  0.00    -0.351 N 
BRANCH   7   8
ATOM      8  C   UNL A   1      32.751  27.096  23.087  1.00  0.00     0.217 C 
BRANCH   8   9
ATOM      9  C   UNL A   1      31.209  27.052  23.018  1.00  0.00     0.239 C 
ATOM     10  O   UNL A   1      30.588  25.997  22.914  1.00  0.00    -0.273 OA
ATOM     11  N   UNL A   1      30.594  28.283  23.077  1.00  0.00    -0.350 N 
ATOM     12  H   UNL A   1      31.137  29.069  23.316  1.00  0.00     0.163 HD
BRANCH  11  13
ATOM     13  C   UNL A   1      29.190  28.475  22.806  1.00  0.00     0.151 C 
BRANCH  13  14
ATOM     14  C   UNL A   1      28.823  29.911  22.537  1.00  0.00    -0.029 A 
ATOM     15  C   UNL A   1      29.020  30.884  23.530  1.00  0.00     0.005 A 
ATOM     16  C   UNL A   1      28.368  30.320  21.276  1.00  0.00     0.005 A 
ATOM     17  C   UNL A   1      28.742  32.228  23.273  1.00  0.00     0.000 A 
ATOM     18  C   UNL A   1      28.085  31.664  21.022  1.00  0.00     0.000 A 
ATOM     19  C   UNL A   1      28.270  32.617  22.022  1.00  0.00     0.000 A 
ENDBRANCH  13  14
ENDBRANCH  11  13
ENDBRANCH   8   9
ENDBRANCH   7   8
BRANCH   7  20
ATOM     20  C   UNL A   1      34.008  25.308  24.311  1.00  0.00     0.038 A 
ATOM     21  C   UNL A   1      34.009  24.452  23.197  1.00  0.00     0.026 A 
ATOM     22  C   UNL A   1      34.798  24.881  25.400  1.00  0.00     0.026 A 
ATOM     23  C   UNL A   1      34.808  23.296  23.140  1.00  0.00     0.002 A 
ATOM     24  C   UNL A   1      35.565  23.709  25.370  1.00  0.00     0.002 A 
ATOM     25  C   UNL A   1      35.590  22.927  24.226  1.00  0.00     0.000 A 
ENDBRANCH   7  20
ENDBRANCH   6   7
ENDBRANCH   4   6
ENDBRANCH   3   4
ENDBRANCH   2   3
ENDBRANCH   1   2
BRANCH   1  26
ATOM     26  O   UNL A   1      31.826  32.218  26.882  1.00  0.00    -0.374 OA
BRANCH  26  27
ATOM     27  C   UNL A   1      32.913  32.819  27.570  1.00  0.00     0.202 C 
BRANCH  27  28
ATOM     28  C   UNL A   1      32.902  34.329  27.850  1.00  0.00     0.261 C 
BRANCH  28  29
ATOM     29  O   UNL A   1      32.402  34.713  29.122  1.00  0.00    -0.460 OA
BRANCH  29  30
ATOM     30  C   UNL A   1      33.259  35.481  29.832  1.00  0.00     0.338 C 
ATOM     31  O   UNL A   1      33.134  36.645  30.159  1.00  0.00    -0.246 OA
BRANCH  30  32
ATOM     32  C   UNL A   1      34.351  34.614  30.279  1.00  0.00     0.060 A 
ATOM     33  C   UNL A   1      34.098  33.756  31.352  1.00  0.00     0.016 A 
ATOM     34  C   UNL A   1      35.601  34.664  29.657  1.00  0.00     0.016 A 
ATOM     35  C   UNL A   1      35.128  32.976  31.851  1.00  0.00     0.010 A 
ATOM     36  C   UNL A   1      36.633  33.878  30.158  1.00  0.00     0.010 A 
ATOM     37  C   UNL A   1      36.406  33.069  31.282  1.00  0.00    -0.014 A 
BRANCH  37  38
ATOM     38  C   UNL A   1      37.539  32.425  31.971  1.00  0.00     0.031 A 
ATOM     39  C   UNL A   1      38.255  31.304  31.280  1.00  0.00     0.074 A 
ATOM     40  C   UNL A   1      37.921  32.864  33.182  1.00  0.00     0.049 A 
ATOM     41  N   UNL A   1      39.292  30.618  31.677  1.00  0.00    -0.248 NA
ATOM     42  C   UNL A   1      37.730  30.894  29.965  1.00  0.00     0.031 C 
ATOM     43  C   UNL A   1      37.270  33.940  33.930  1.00  0.00     0.029 A 
ATOM     44  N   UNL A   1      38.935  32.448  33.998  1.00  0.00    -0.354 N 
ATOM     45  C   UNL A   1      39.525  29.678  30.681  1.00  0.00     0.074 A 
ATOM     46  C   UNL A   1      38.512  29.868  29.668  1.00  0.00     0.031 C 
ATOM     47  C   UNL A   1      37.894  34.089  35.109  1.00  0.00     0.029 A 
ATOM     48  C   UNL A   1      38.969  33.104  35.205  1.00  0.00     0.049 A 
ATOM     49  H   UNL A   1      39.579  31.747  33.747  1.00  0.00     0.167 HD
ATOM     50  C   UNL A   1      40.508  28.751  30.614  1.00  0.00     0.034 A 
ATOM     51  C   UNL A   1      39.770  32.912  36.269  1.00  0.00     0.034 A 
ATOM     52  C   UNL A   1      41.510  28.590  31.631  1.00  0.00     0.049 A 
ATOM     53  C   UNL A   1      40.856  31.875  36.172  1.00  0.00     0.074 A 
ATOM     54  C   UNL A   1      42.587  27.724  31.650  1.00  0.00     0.029 A 
ATOM     55  N   UNL A   1      41.542  29.299  32.823  1.00  0.00    -0.354 N 
ATOM     56  N   UNL A   1      41.146  31.078  35.170  1.00  0.00    -0.248 NA
ATOM     57  C   UNL A   1      41.746  31.735  37.330  1.00  0.00     0.031 C 
ATOM     58  C   UNL A   1      43.248  27.883  32.872  1.00  0.00     0.029 A 
ATOM     59  C   UNL A   1      42.611  28.879  33.596  1.00  0.00     0.049 A 
ATOM     60  H   UNL A   1      40.900  30.000  33.082  1.00  0.00     0.167 HD
ATOM     61  C   UNL A   1      42.272  30.364  35.563  1.00  0.00     0.074 A 
ATOM     62  C   UNL A   1      42.619  30.840  36.888  1.00  0.00     0.031 C 
ATOM     63  C   UNL A   1      42.953  29.400  34.896  1.00  0.00     0.034 A 
BRANCH  50  64
ATOM     64  C   UNL A   1      40.541  27.852  29.407  1.00  0.00     0.023 A 
ATOM     65  C   UNL A   1      39.684  26.735  29.333  1.00  0.00     0.012 A 
ATOM     66  C   UNL A   1      41.407  28.128  28.331  1.00  0.00     0.148 A 
ATOM     67  C   UNL A   1      39.715  25.886  28.227  1.00  0.00     0.002 A 
ATOM     68  C   UNL A   1      41.398  27.305  27.210  1.00  0.00     0.091 A 
ATOM     69  F   UNL A   1      42.235  29.178  28.429  1.00  0.00    -0.205 F 
ATOM     70  C   UNL A   1      40.564  26.176  27.163  1.00  0.00     0.022 A 
BRANCH  68  71
ATOM     71  S   UNL A   1      42.397  27.640  25.756  1.00  0.00     0.127 S 
ATOM     72  O   UNL A   1      42.047  26.512  24.892  1.00  0.00    -0.237 OA
ATOM     73  O   UNL A   1      41.870  28.932  25.314  1.00  0.00    -0.237 OA
ATOM     74  O   UNL A   1      43.778  27.671  26.214  1.00  0.00    -0.744 OA
ENDBRANCH  68  71
ENDBRANCH  50  64
BRANCH  51  75
ATOM     75  C   UNL A   1      39.591  33.749  37.487  1.00  0.00     0.023 A 
ATOM     76  C   UNL A   1      40.135  35.047  37.534  1.00  0.00     0.012 A 
ATOM     77  C   UNL A   1      38.835  33.280  38.580  1.00  0.00     0.148 A 
ATOM     78  C   UNL A   1      39.949  35.853  38.657  1.00  0.00     0.002 A 
ATOM     79  C   UNL A   1      38.605  34.110  39.670  1.00  0.00     0.091 A 
ATOM     80  F   UNL A   1      38.334  32.039  38.518  1.00  0.00    -0.205 F 
ATOM     81  C   UNL A   1      39.175  35.391  39.719  1.00  0.00     0.022 A 
BRANCH  79  82
ATOM     82  S   UNL A   1      37.509  33.650  41.018  1.00  0.00     0.127 S 
ATOM     83  O   UNL A   1      38.327  32.688  41.752  1.00  0.00    -0.237 OA
ATOM     84  O   UNL A   1      37.310  34.933  41.692  1.00  0.00    -0.237 OA
ATOM     85  O   UNL A   1      36.313  33.110  40.387  1.00  0.00    -0.744 OA
ENDBRANCH  79  82
ENDBRANCH  51  75
BRANCH  63  86
ATOM     86  C   UNL A   1      44.168  28.817  35.570  1.00  0.00     0.023 A 
ATOM     87  C   UNL A   1      45.439  29.374  35.335  1.00  0.00     0.012 A 
ATOM     88  C   UNL A   1      44.030  27.766  36.497  1.00  0.00     0.148 A 
ATOM     89  C   UNL A   1      46.562  28.870  35.989  1.00  0.00     0.002 A 
ATOM     90  C   UNL A   1      45.144  27.306  37.186  1.00  0.00     0.091 A 
ATOM     91  F   UNL A   1      42.812  27.240  36.692  1.00  0.00    -0.205 F 
ATOM     92  C   UNL A   1      46.413  27.846  36.922  1.00  0.00     0.022 A 
BRANCH  90  93
ATOM     93  S   UNL A   1      45.030  26.065  38.479  1.00  0.00     0.127 S 
ATOM     94  O   UNL A   1      44.104  26.698  39.417  1.00  0.00    -0.237 OA
ATOM     95  O   UNL A   1      44.479  24.917  37.758  1.00  0.00    -0.237 OA
ATOM     96  O   UNL A   1      46.386  25.874  38.974  1.00  0.00    -0.744 OA
ENDBRANCH  90  93
ENDBRANCH  63  86
ENDBRANCH  37  38
ENDBRANCH  30  32
ENDBRANCH  29  30
ENDBRANCH  28  29
ENDBRANCH  27  28
ENDBRANCH  26  27
ENDBRANCH   1  26
TORSDOF 23
ENDMDL
MODEL 2
REMARK VINA RESULT:     -10.5      6.418     10.584
REMARK SMILES O=C(CN(CC(=O)OCCOCCOC(=O)c1ccc(-c2c3nc(c(-c4cccc(S(=O)(=O)[O-])c4F)c4ccc([nH]4)c(-c4cccc(S(=O)(=O)[O-])c4F)c4nc(c(-c5cccc(S(=O)(=O)[O-])c5F)c5ccc2[nH]5)C=C4)C=C3)cc1)c1ccccc1)NCc1ccccc1
REMARK SMILES IDX 10 1 9 2 8 3 6 4 7 5 5 6 4 7 3 8 2 9 1 10 86 11 87 13 88 14
REMARK SMILES IDX 89 15 93 16 90 17 92 18 91 19 80 20 81 21 85 22 82 23 84 24
REMARK SMILES IDX 83 25 11 26 12 27 13 28 14 29 15 30 16 31 17 32 18 33 79 34
REMARK SMILES IDX 19 35 78 36 20 37 21 38 22 39 72 40 23 41 77 42 71 43 73 44
REMARK SMILES IDX 24 45 76 46 70 47 69 48 25 50 57 51 37 52 56 53 38 54 41 55
REMARK SMILES IDX 55 56 74 57 39 58 40 59 54 61 75 62 42 63 26 64 27 65 35 66
REMARK SMILES IDX 28 67 30 68 36 69 29 70 31 71 32 72 33 73 34 74 58 75 59 76
REMARK SMILES IDX 67 77 60 78 62 79 68 80 61 81 63 82 64 83 65 84 66 85 43 86
REMARK SMILES IDX 44 87 52 88 45 89 47 90 53 91 46 92 48 93 49 94 50 95 51 96
REMARK H PARENT 86 12 73 49 41 60
REMARK Flexibility Score: inf
ROOT
ATOM      1  C   UNL A   1      38.039  23.608  26.124  1.00  0.00     0.202 C 
ENDROOT
BRANCH   1   2
ATOM      2  C   UNL A   1      36.582  23.560  25.638  1.00  0.00     0.261 C 
BRANCH   2   3
ATOM      3  O   UNL A   1      36.377  23.752  24.220  1.00  0.00    -0.462 OA
BRANCH   3   4
ATOM      4  C   UNL A   1      35.073  23.853  23.837  1.00  0.00     0.325 C 
ATOM      5  O   UNL A   1      34.672  23.641  22.693  1.00  0.00    -0.250 OA
BRANCH   4   6
ATOM      6  C   UNL A   1      34.110  24.346  24.914  1.00  0.00     0.239 C 
BRANCH   6   7
ATOM      7  N   UNL A   1      32.768  24.812  24.500  1.00  0.00    -0.351 N 
BRANCH   7   8
ATOM      8  C   UNL A   1      31.842  23.751  24.014  1.00  0.00     0.217 C 
BRANCH   8   9
ATOM      9  C   UNL A   1      31.740  22.559  24.990  1.00  0.00     0.239 C 
ATOM     10  O   UNL A   1      31.212  22.661  26.095  1.00  0.00    -0.273 OA
ATOM     11  N   UNL A   1      32.289  21.385  24.525  1.00  0.00    -0.350 N 
ATOM     12  H   UNL A   1      32.554  21.332  23.579  1.00  0.00     0.163 HD
BRANCH  11  13
ATOM     13  C   UNL A   1      32.496  20.228  25.362  1.00  0.00     0.151 C 
BRANCH  13  14
ATOM     14  C   UNL A   1      33.035  19.036  24.614  1.00  0.00    -0.029 A 
ATOM     15  C   UNL A   1      32.359  18.552  23.483  1.00  0.00     0.005 A 
ATOM     16  C   UNL A   1      34.257  18.448  24.969  1.00  0.00     0.005 A 
ATOM     17  C   UNL A   1      32.880  17.489  22.744  1.00  0.00     0.000 A 
ATOM     18  C   UNL A   1      34.774  17.381  24.233  1.00  0.00     0.000 A 
ATOM     19  C   UNL A   1      34.084  16.900  23.122  1.00  0.00     0.000 A 
ENDBRANCH  13  14
ENDBRANCH  11  13
ENDBRANCH   8   9
ENDBRANCH   7   8
BRANCH   7  20
ATOM     20  C   UNL A   1      32.349  26.137  24.585  1.00  0.00     0.038 A 
ATOM     21  C   UNL A   1      33.119  27.136  25.206  1.00  0.00     0.026 A 
ATOM     22  C   UNL A   1      31.120  26.572  24.046  1.00  0.00     0.026 A 
ATOM     23  C   UNL A   1      32.729  28.487  25.213  1.00  0.00     0.002 A 
ATOM     24  C   UNL A   1      30.701  27.908  24.085  1.00  0.00     0.002 A 
ATOM     25  C   UNL A   1      31.521  28.874  24.647  1.00  0.00     0.000 A 
ENDBRANCH   7  20
ENDBRANCH   6   7
ENDBRANCH   4   6
ENDBRANCH   3   4
ENDBRANCH   2   3
ENDBRANCH   1   2
BRANCH   1  26
ATOM     26  O   UNL A   1      38.777  22.402  26.291  1.00  0.00    -0.374 OA
BRANCH  26  27
ATOM     27  C   UNL A   1      38.465  21.302  25.449  1.00  0.00     0.202 C 
BRANCH  27  28
ATOM     28  C   UNL A   1      39.215  19.973  25.615  1.00  0.00     0.261 C 
BRANCH  28  29
ATOM     29  O   UNL A   1      40.210  19.952  26.626  1.00  0.00    -0.460 OA
BRANCH  29  30
ATOM     30  C   UNL A   1      41.474  19.968  26.143  1.00  0.00     0.338 C 
ATOM     31  O   UNL A   1      42.039  19.118  25.483  1.00  0.00    -0.246 OA
BRANCH  30  32
ATOM     32  C   UNL A   1      42.035  21.287  26.441  1.00  0.00     0.060 A 
ATOM     33  C   UNL A   1      42.291  21.595  27.780  1.00  0.00     0.016 A 
ATOM     34  C   UNL A   1      42.284  22.203  25.416  1.00  0.00     0.016 A 
ATOM     35  C   UNL A   1      42.750  22.860  28.107  1.00  0.00     0.010 A 
ATOM     36  C   UNL A   1      42.748  23.471  25.747  1.00  0.00     0.010 A 
ATOM     37  C   UNL A   1      42.938  23.812  27.095  1.00  0.00    -0.014 A 
BRANCH  37  38
ATOM     38  C   UNL A   1      43.188  25.214  27.476  1.00  0.00     0.031 A 
ATOM     39  C   UNL A   1      44.576  25.760  27.329  1.00  0.00     0.074 A 
ATOM     40  C   UNL A   1      42.175  25.975  27.923  1.00  0.00     0.049 A 
ATOM     41  N   UNL A   1      45.018  26.964  27.568  1.00  0.00    -0.248 NA
ATOM     42  C   UNL A   1      45.610  24.822  26.853  1.00  0.00     0.031 C 
ATOM     43  C   UNL A   1      40.798  25.518  28.108  1.00  0.00     0.029 A 
ATOM     44  N   UNL A   1      42.154  27.285  28.313  1.00  0.00    -0.354 N 
ATOM     45  C   UNL A   1      46.382  26.923  27.303  1.00  0.00     0.074 A 
ATOM     46  C   UNL A   1      46.699  25.572  26.902  1.00  0.00     0.031 C 
ATOM     47  C   UNL A   1      40.066  26.532  28.596  1.00  0.00     0.029 A 
ATOM     48  C   UNL A   1      40.929  27.697  28.777  1.00  0.00     0.049 A 
ATOM     49  H   UNL A   1      42.940  27.877  28.267  1.00  0.00     0.167 HD
ATOM     50  C   UNL A   1      47.282  27.930  27.375  1.00  0.00     0.034 A 
ATOM     51  C   UNL A   1      40.558  28.879  29.304  1.00  0.00     0.034 A 
ATOM     52  C   UNL A   1      46.938  29.269  27.767  1.00  0.00     0.049 A 
ATOM     53  C   UNL A   1      41.577  29.983  29.374  1.00  0.00     0.074 A 
ATOM     54  C   UNL A   1      47.750  30.386  27.825  1.00  0.00     0.029 A 
ATOM     55  N   UNL A   1      45.678  29.665  28.192  1.00  0.00    -0.354 N 
ATOM     56  N   UNL A   1      42.835  29.969  29.000  1.00  0.00    -0.248 NA
ATOM     57  C   UNL A   1      41.120  31.275  29.901  1.00  0.00     0.031 C 
ATOM     58  C   UNL A   1      46.989  31.449  28.322  1.00  0.00     0.029 A 
ATOM     59  C   UNL A   1      45.691  31.006  28.531  1.00  0.00     0.049 A 
ATOM     60  H   UNL A   1      44.888  29.078  28.242  1.00  0.00     0.167 HD
ATOM     61  C   UNL A   1      43.313  31.256  29.215  1.00  0.00     0.074 A 
ATOM     62  C   UNL A   1      42.200  32.027  29.735  1.00  0.00     0.031 C 
ATOM     63  C   UNL A   1      44.557  31.755  29.010  1.00  0.00     0.034 A 
BRANCH  50  64
ATOM     64  C   UNL A   1      48.712  27.617  27.021  1.00  0.00     0.023 A 
ATOM     65  C   UNL A   1      49.592  27.125  28.006  1.00  0.00     0.012 A 
ATOM     66  C   UNL A   1      49.178  27.790  25.703  1.00  0.00     0.148 A 
ATOM     67  C   UNL A   1      50.923  26.845  27.694  1.00  0.00     0.002 A 
ATOM     68  C   UNL A   1      50.493  27.463  25.389  1.00  0.00     0.091 A 
ATOM     69  F   UNL A   1      48.336  28.285  24.786  1.00  0.00    -0.205 F 
ATOM     70  C   UNL A   1      51.370  27.005  26.386  1.00  0.00     0.022 A 
BRANCH  68  71
ATOM     71  S   UNL A   1      51.140  27.558  23.717  1.00  0.00     0.127 S 
ATOM     72  O   UNL A   1      52.484  27.006  23.890  1.00  0.00    -0.237 OA
ATOM     73  O   UNL A   1      50.216  26.693  22.981  1.00  0.00    -0.237 OA
ATOM     74  O   UNL A   1      51.085  28.963  23.343  1.00  0.00    -0.744 OA
ENDBRANCH  68  71
ENDBRANCH  50  64
BRANCH  51  75
ATOM     75  C   UNL A   1      39.155  29.074  29.762  1.00  0.00     0.023 A 
ATOM     76  C   UNL A   1      38.801  28.769  31.090  1.00  0.00     0.012 A 
ATOM     77  C   UNL A   1      38.183  29.615  28.898  1.00  0.00     0.148 A 
ATOM     78  C   UNL A   1      37.497  28.977  31.542  1.00  0.00     0.002 A 
ATOM     79  C   UNL A   1      36.902  29.873  29.371  1.00  0.00     0.091 A 
ATOM     80  F   UNL A   1      38.539  29.891  27.636  1.00  0.00    -0.205 F 
ATOM     81  C   UNL A   1      36.551  29.538  30.688  1.00  0.00     0.022 A 
BRANCH  79  82
ATOM     82  S   UNL A   1      35.662  30.721  28.384  1.00  0.00     0.127 S 
ATOM     83  O   UNL A   1      35.117  29.626  27.585  1.00  0.00    -0.237 OA
ATOM     84  O   UNL A   1      34.763  31.240  29.415  1.00  0.00    -0.237 OA
ATOM     85  O   UNL A   1      36.382  31.747  27.642  1.00  0.00    -0.744 OA
ENDBRANCH  79  82
ENDBRANCH  51  75
BRANCH  63  86
ATOM     86  C   UNL A   1      44.776  33.215  29.312  1.00  0.00     0.023 A 
ATOM     87  C   UNL A   1      45.310  33.606  30.555  1.00  0.00     0.012 A 
ATOM     88  C   UNL A   1      44.525  34.189  28.326  1.00  0.00     0.148 A 
ATOM     89  C   UNL A   1      45.557  34.950  30.825  1.00  0.00     0.002 A 
ATOM     90  C   UNL A   1      44.826  35.520  28.582  1.00  0.00     0.091 A 
ATOM     91  F   UNL A   1      44.001  33.796  27.156  1.00  0.00    -0.205 F 
ATOM     92  C   UNL A   1      45.328  35.905  29.835  1.00  0.00     0.022 A 
BRANCH  90  93
ATOM     93  S   UNL A   1      44.662  36.800  27.333  1.00  0.00     0.127 S 
ATOM     94  O   UNL A   1      45.781  36.491  26.443  1.00  0.00    -0.237 OA
ATOM     95  O   UNL A   1      43.340  36.517  26.773  1.00  0.00    -0.237 OA
ATOM     96  O   UNL A   1      44.760  38.068  28.041  1.00  0.00    -0.744 OA
ENDBRANCH  90  93
ENDBRANCH  63  86
ENDBRANCH  37  38
ENDBRANCH  30  32
ENDBRANCH  29  30
ENDBRANCH  28  29
ENDBRANCH  27  28
ENDBRANCH  26  27
ENDBRANCH   1  26
TORSDOF 23
ENDMDL
MODEL 3
REMARK VINA RESULT:     -10.4      5.865     11.731
REMARK SMILES O=C(CN(CC(=O)OCCOCCOC(=O)c1ccc(-c2c3nc(c(-c4cccc(S(=O)(=O)[O-])c4F)c4ccc([nH]4)c(-c4cccc(S(=O)(=O)[O-])c4F)c4nc(c(-c5cccc(S(=O)(=O)[O-])c5F)c5ccc2[nH]5)C=C4)C=C3)cc1)c1ccccc1)NCc1ccccc1
REMARK SMILES IDX 10 1 9 2 8 3 6 4 7 5 5 6 4 7 3 8 2 9 1 10 86 11 87 13 88 14
REMARK SMILES IDX 89 15 93 16 90 17 92 18 91 19 80 20 81 21 85 22 82 23 84 24
REMARK SMILES IDX 83 25 11 26 12 27 13 28 14 29 15 30 16 31 17 32 18 33 79 34
REMARK SMILES IDX 19 35 78 36 20 37 21 38 22 39 72 40 23 41 77 42 71 43 73 44
REMARK SMILES IDX 24 45 76 46 70 47 69 48 25 50 57 51 37 52 56 53 38 54 41 55
REMARK SMILES IDX 55 56 74 57 39 58 40 59 54 61 75 62 42 63 26 64 27 65 35 66
REMARK SMILES IDX 28 67 30 68 36 69 29 70 31 71 32 72 33 73 34 74 58 75 59 76
REMARK SMILES IDX 67 77 60 78 62 79 68 80 61 81 63 82 64 83 65 84 66 85 43 86
REMARK SMILES IDX 44 87 52 88 45 89 47 90 53 91 46 92 48 93 49 94 50 95 51 96
REMARK H PARENT 86 12 73 49 41 60
REMARK Flexibility Score: inf
ROOT
ATOM      1  C   UNL A   1      37.988  23.756  25.985  1.00  0.00     0.202 C 
ENDROOT
BRANCH   1   2
ATOM      2  C   UNL A   1      36.476  23.839  26.244  1.00  0.00     0.261 C 
BRANCH   2   3
ATOM      3  O   UNL A   1      35.644  24.089  25.088  1.00  0.00    -0.462 OA
BRANCH   3   4
ATOM      4  C   UNL A   1      34.363  24.457  25.371  1.00  0.00     0.325 C 
ATOM      5  O   UNL A   1      33.938  25.607  25.269  1.00  0.00    -0.250 OA
BRANCH   4   6
ATOM      6  C   UNL A   1      33.470  23.349  25.924  1.00  0.00     0.239 C 
BRANCH   6   7
ATOM      7  N   UNL A   1      32.913  22.356  24.980  1.00  0.00    -0.351 N 
BRANCH   7   8
ATOM      8  C   UNL A   1      31.739  22.814  24.184  1.00  0.00     0.217 C 
BRANCH   8   9
ATOM      9  C   UNL A   1      32.150  23.626  22.936  1.00  0.00     0.239 C 
ATOM     10  O   UNL A   1      33.133  23.336  22.260  1.00  0.00    -0.273 OA
ATOM     11  N   UNL A   1      31.330  24.696  22.651  1.00  0.00    -0.350 N 
ATOM     12  H   UNL A   1      30.478  24.779  23.137  1.00  0.00     0.163 HD
BRANCH  11  13
ATOM     13  C   UNL A   1      31.663  25.703  21.672  1.00  0.00     0.151 C 
BRANCH  13  14
ATOM     14  C   UNL A   1      32.254  26.951  22.272  1.00  0.00    -0.029 A 
ATOM     15  C   UNL A   1      31.477  27.760  23.117  1.00  0.00     0.005 A 
ATOM     16  C   UNL A   1      33.603  27.282  22.081  1.00  0.00     0.005 A 
ATOM     17  C   UNL A   1      32.030  28.885  23.730  1.00  0.00     0.000 A 
ATOM     18  C   UNL A   1      34.153  28.411  22.689  1.00  0.00     0.000 A 
ATOM     19  C   UNL A   1      33.366  29.214  23.512  1.00  0.00     0.000 A 
ENDBRANCH  13  14
ENDBRANCH  11  13
ENDBRANCH   8   9
ENDBRANCH   7   8
BRANCH   7  20
ATOM     20  C   UNL A   1      33.449  21.085  24.789  1.00  0.00     0.038 A 
ATOM     21  C   UNL A   1      34.828  20.826  24.866  1.00  0.00     0.026 A 
ATOM     22  C   UNL A   1      32.639  19.963  24.509  1.00  0.00     0.026 A 
ATOM     23  C   UNL A   1      35.354  19.526  24.756  1.00  0.00     0.002 A 
ATOM     24  C   UNL A   1      33.157  18.671  24.356  1.00  0.00     0.002 A 
ATOM     25  C   UNL A   1      34.516  18.447  24.506  1.00  0.00     0.000 A 
ENDBRANCH   7  20
ENDBRANCH   6   7
ENDBRANCH   4   6
ENDBRANCH   3   4
ENDBRANCH   2   3
ENDBRANCH   1   2
BRANCH   1  26
ATOM     26  O   UNL A   1      38.698  22.557  26.276  1.00  0.00    -0.374 OA
BRANCH  26  27
ATOM     27  C   UNL A   1      38.545  21.455  25.394  1.00  0.00     0.202 C 
BRANCH  27  28
ATOM     28  C   UNL A   1      39.065  20.069  25.800  1.00  0.00     0.261 C 
BRANCH  28  29
ATOM     29  O   UNL A   1      40.059  20.059  26.813  1.00  0.00    -0.460 OA
BRANCH  29  30
ATOM     30  C   UNL A   1      41.304  19.807  26.348  1.00  0.00     0.338 C 
ATOM     31  O   UNL A   1      41.710  18.808  25.787  1.00  0.00    -0.246 OA
BRANCH  30  32
ATOM     32  C   UNL A   1      42.086  21.034  26.514  1.00  0.00     0.060 A 
ATOM     33  C   UNL A   1      42.413  21.422  27.815  1.00  0.00     0.016 A 
ATOM     34  C   UNL A   1      42.470  21.790  25.403  1.00  0.00     0.016 A 
ATOM     35  C   UNL A   1      43.086  22.616  28.016  1.00  0.00     0.010 A 
ATOM     36  C   UNL A   1      43.148  22.986  25.607  1.00  0.00     0.010 A 
ATOM     37  C   UNL A   1      43.415  23.419  26.915  1.00  0.00    -0.014 A 
BRANCH  37  38
ATOM     38  C   UNL A   1      43.906  24.788  27.156  1.00  0.00     0.031 A 
ATOM     39  C   UNL A   1      42.945  25.811  27.684  1.00  0.00     0.074 A 
ATOM     40  C   UNL A   1      45.194  25.087  26.921  1.00  0.00     0.049 A 
ATOM     41  N   UNL A   1      43.160  27.059  27.999  1.00  0.00    -0.248 NA
ATOM     42  C   UNL A   1      41.551  25.372  27.878  1.00  0.00     0.031 C 
ATOM     43  C   UNL A   1      46.190  24.154  26.395  1.00  0.00     0.029 A 
ATOM     44  N   UNL A   1      45.877  26.260  27.082  1.00  0.00    -0.354 N 
ATOM     45  C   UNL A   1      41.928  27.563  28.399  1.00  0.00     0.074 A 
ATOM     46  C   UNL A   1      40.966  26.493  28.270  1.00  0.00     0.031 C 
ATOM     47  C   UNL A   1      47.360  24.800  26.259  1.00  0.00     0.029 A 
ATOM     48  C   UNL A   1      47.185  26.192  26.666  1.00  0.00     0.049 A 
ATOM     49  H   UNL A   1      45.473  27.075  27.459  1.00  0.00     0.167 HD
ATOM     50  C   UNL A   1      41.635  28.805  28.848  1.00  0.00     0.034 A 
ATOM     51  C   UNL A   1      48.123  27.155  26.607  1.00  0.00     0.034 A 
ATOM     52  C   UNL A   1      42.614  29.849  28.977  1.00  0.00     0.049 A 
ATOM     53  C   UNL A   1      47.773  28.528  27.111  1.00  0.00     0.074 A 
ATOM     54  C   UNL A   1      42.449  31.129  29.471  1.00  0.00     0.029 A 
ATOM     55  N   UNL A   1      43.941  29.736  28.586  1.00  0.00    -0.354 N 
ATOM     56  N   UNL A   1      46.636  28.960  27.607  1.00  0.00    -0.248 NA
ATOM     57  C   UNL A   1      48.839  29.537  27.085  1.00  0.00     0.031 C 
ATOM     58  C   UNL A   1      43.668  31.803  29.341  1.00  0.00     0.029 A 
ATOM     59  C   UNL A   1      44.604  30.929  28.810  1.00  0.00     0.049 A 
ATOM     60  H   UNL A   1      44.351  28.925  28.206  1.00  0.00     0.167 HD
ATOM     61  C   UNL A   1      46.858  30.279  27.982  1.00  0.00     0.074 A 
ATOM     62  C   UNL A   1      48.245  30.567  27.672  1.00  0.00     0.031 C 
ATOM     63  C   UNL A   1      45.996  31.173  28.525  1.00  0.00     0.034 A 
BRANCH  50  64
ATOM     64  C   UNL A   1      40.207  29.092  29.229  1.00  0.00     0.023 A 
ATOM     65  C   UNL A   1      39.254  29.384  28.232  1.00  0.00     0.012 A 
ATOM     66  C   UNL A   1      39.802  29.049  30.577  1.00  0.00     0.148 A 
ATOM     67  C   UNL A   1      37.931  29.666  28.573  1.00  0.00     0.002 A 
ATOM     68  C   UNL A   1      38.472  29.283  30.906  1.00  0.00     0.091 A 
ATOM     69  F   UNL A   1      40.727  28.797  31.515  1.00  0.00    -0.205 F 
ATOM     70  C   UNL A   1      37.539  29.606  29.907  1.00  0.00     0.022 A 
BRANCH  68  71
ATOM     71  S   UNL A   1      37.852  29.150  32.586  1.00  0.00     0.127 S 
ATOM     72  O   UNL A   1      36.513  29.725  32.452  1.00  0.00    -0.237 OA
ATOM     73  O   UNL A   1      37.874  27.704  32.807  1.00  0.00    -0.237 OA
ATOM     74  O   UNL A   1      38.776  29.907  33.417  1.00  0.00    -0.744 OA
ENDBRANCH  68  71
ENDBRANCH  50  64
BRANCH  51  75
ATOM     75  C   UNL A   1      49.480  26.831  26.088  1.00  0.00     0.023 A 
ATOM     76  C   UNL A   1      50.358  26.046  26.858  1.00  0.00     0.012 A 
ATOM     77  C   UNL A   1      49.882  27.256  24.806  1.00  0.00     0.148 A 
ATOM     78  C   UNL A   1      51.622  25.709  26.372  1.00  0.00     0.002 A 
ATOM     79  C   UNL A   1      51.119  26.869  24.304  1.00  0.00     0.091 A 
ATOM     80  F   UNL A   1      49.034  28.010  24.092  1.00  0.00    -0.205 F 
ATOM     81  C   UNL A   1      51.998  26.110  25.092  1.00  0.00     0.022 A 
BRANCH  79  82
ATOM     82  S   UNL A   1      51.629  27.221  22.618  1.00  0.00     0.127 S 
ATOM     83  O   UNL A   1      52.857  26.439  22.507  1.00  0.00    -0.237 OA
ATOM     84  O   UNL A   1      50.496  26.704  21.849  1.00  0.00    -0.237 OA
ATOM     85  O   UNL A   1      51.792  28.666  22.548  1.00  0.00    -0.744 OA
ENDBRANCH  79  82
ENDBRANCH  51  75
BRANCH  63  86
ATOM     86  C   UNL A   1      46.534  32.541  28.857  1.00  0.00     0.023 A 
ATOM     87  C   UNL A   1      47.097  32.789  30.124  1.00  0.00     0.012 A 
ATOM     88  C   UNL A   1      46.551  33.554  27.879  1.00  0.00     0.148 A 
ATOM     89  C   UNL A   1      47.637  34.038  30.423  1.00  0.00     0.002 A 
ATOM     90  C   UNL A   1      47.140  34.777  28.165  1.00  0.00     0.091 A 
ATOM     91  F   UNL A   1      45.995  33.300  26.685  1.00  0.00    -0.205 F 
ATOM     92  C   UNL A   1      47.670  35.027  29.442  1.00  0.00     0.022 A 
BRANCH  90  93
ATOM     93  S   UNL A   1      47.323  36.070  26.932  1.00  0.00     0.127 S 
ATOM     94  O   UNL A   1      48.188  37.022  27.626  1.00  0.00    -0.237 OA
ATOM     95  O   UNL A   1      47.964  35.354  25.828  1.00  0.00    -0.237 OA
ATOM     96  O   UNL A   1      45.977  36.544  26.644  1.00  0.00    -0.744 OA
ENDBRANCH  90  93
ENDBRANCH  63  86
ENDBRANCH  37  38
ENDBRANCH  30  32
ENDBRANCH  29  30
ENDBRANCH  28  29
ENDBRANCH  27  28
ENDBRANCH  26  27
ENDBRANCH   1  26
TORSDOF 23
ENDMDL
