MODEL 1
REMARK VINA RESULT:     -12.0      0.000      0.000
REMARK SMILES CS(=O)(=O)c1ccc(N2N=C(C(=O)OCCOCCOC(=O)c3ccc(-c4c5nc(c(-c6cccc(S(=O)(=O)[O-])c6F)c6ccc([nH]6)c(-c6cccc(S(=O)(=O)[O-])c6F)c6nc(c(-c7cccc(S(=O)(=O)[O-])c7F)c7ccc4[nH]7)C=C6)C=C5)cc3)C[C@H]2c2cccs2)cc1
REMARK SMILES IDX 18 1 17 2 16 3 15 4 14 5 12 6 13 7 11 8 9 9 10 10 87 11
REMARK SMILES IDX 86 12 8 13 5 14 6 15 94 16 7 17 93 18 2 19 1 20 3 21 4 22
REMARK SMILES IDX 88 23 89 24 92 25 90 26 91 27 19 28 20 29 21 30 22 31 23 32
REMARK SMILES IDX 24 33 85 34 25 35 84 36 26 37 27 38 28 39 78 40 29 41 83 42
REMARK SMILES IDX 77 43 79 44 30 45 82 46 76 47 75 48 31 50 63 51 43 52 62 53
REMARK SMILES IDX 44 54 47 55 61 56 80 57 45 58 46 59 60 61 81 62 48 63 32 64
REMARK SMILES IDX 33 65 41 66 34 67 36 68 42 69 35 70 37 71 38 72 39 73 40 74
REMARK SMILES IDX 64 75 65 76 73 77 66 78 68 79 74 80 67 81 69 82 70 83 71 84
REMARK SMILES IDX 72 85 49 86 50 87 58 88 51 89 53 90 59 91 52 92 54 93 55 94
REMARK SMILES IDX 56 95 57 96
REMARK H PARENT 79 49 47 60
REMARK Flexibility Score: inf
ROOT
ATOM      1  C   UNL A   1      35.451  21.121  24.995  1.00  0.00     0.202 C 
ENDROOT
BRANCH   1   2
ATOM      2  O   UNL A   1      34.437  20.267  24.460  1.00  0.00    -0.374 OA
BRANCH   2   3
ATOM      3  C   UNL A   1      33.137  20.365  25.050  1.00  0.00     0.202 C 
BRANCH   3   4
ATOM      4  C   UNL A   1      33.037  21.407  26.167  1.00  0.00     0.261 C 
BRANCH   4   5
ATOM      5  O   UNL A   1      32.037  22.374  25.814  1.00  0.00    -0.459 OA
BRANCH   5   6
ATOM      6  C   UNL A   1      31.911  23.409  26.667  1.00  0.00     0.354 C 
ATOM      7  O   UNL A   1      31.751  23.376  27.872  1.00  0.00    -0.245 OA
BRANCH   6   8
ATOM      8  C   UNL A   1      32.138  24.690  25.908  1.00  0.00     0.148 C 
ATOM      9  N   UNL A   1      31.761  26.510  24.903  1.00  0.00    -0.256 N 
ATOM     10  N   UNL A   1      31.190  25.555  25.693  1.00  0.00    -0.169 NA
ATOM     11  C   UNL A   1      33.054  26.079  24.346  1.00  0.00     0.154 C 
ATOM     12  C   UNL A   1      33.500  25.084  25.427  1.00  0.00     0.099 C 
BRANCH   9  13
ATOM     13  C   UNL A   1      30.975  27.540  24.417  1.00  0.00     0.060 A 
ATOM     14  C   UNL A   1      29.330  29.587  23.407  1.00  0.00     0.067 A 
ATOM     15  C   UNL A   1      28.994  28.255  23.173  1.00  0.00     0.022 A 
ATOM     16  C   UNL A   1      30.493  29.906  24.113  1.00  0.00     0.022 A 
ATOM     17  C   UNL A   1      29.822  27.243  23.675  1.00  0.00     0.029 A 
ATOM     18  C   UNL A   1      31.307  28.884  24.607  1.00  0.00     0.029 A 
BRANCH  14  19
ATOM     19  S   UNL A   1      28.334  30.937  22.828  1.00  0.00     0.175 S 
ATOM     20  C   UNL A   1      27.984  30.649  21.118  1.00  0.00     0.163 C 
ATOM     21  O   UNL A   1      29.161  32.128  22.897  1.00  0.00    -0.224 OA
ATOM     22  O   UNL A   1      27.076  30.859  23.546  1.00  0.00    -0.224 OA
ENDBRANCH  14  19
ENDBRANCH   9  13
BRANCH  11  23
ATOM     23  C   UNL A   1      33.030  25.483  22.945  1.00  0.00     0.030 A 
ATOM     24  C   UNL A   1      32.799  26.156  21.756  1.00  0.00     0.017 A 
ATOM     25  S   UNL A   1      33.261  23.803  22.651  1.00  0.00    -0.147 S 
ATOM     26  C   UNL A   1      32.835  25.298  20.618  1.00  0.00     0.012 A 
ATOM     27  C   UNL A   1      33.112  23.997  20.965  1.00  0.00     0.065 A 
ENDBRANCH  11  23
ENDBRANCH   6   8
ENDBRANCH   5   6
ENDBRANCH   4   5
ENDBRANCH   3   4
ENDBRANCH   2   3
ENDBRANCH   1   2
BRANCH   1  28
ATOM     28  C   UNL A   1      36.821  20.462  25.184  1.00  0.00     0.261 C 
BRANCH  28  29
ATOM     29  O   UNL A   1      37.888  21.424  25.087  1.00  0.00    -0.460 OA
BRANCH  29  30
ATOM     30  C   UNL A   1      38.989  21.117  25.816  1.00  0.00     0.338 C 
ATOM     31  O   UNL A   1      39.594  20.056  25.817  1.00  0.00    -0.246 OA
BRANCH  30  32
ATOM     32  C   UNL A   1      39.489  22.312  26.525  1.00  0.00     0.060 A 
ATOM     33  C   UNL A   1      38.964  23.549  26.134  1.00  0.00     0.016 A 
ATOM     34  C   UNL A   1      40.486  22.248  27.503  1.00  0.00     0.016 A 
ATOM     35  C   UNL A   1      39.475  24.728  26.671  1.00  0.00     0.010 A 
ATOM     36  C   UNL A   1      41.001  23.435  28.042  1.00  0.00     0.010 A 
ATOM     37  C   UNL A   1      40.525  24.681  27.598  1.00  0.00    -0.014 A 
BRANCH  37  38
ATOM     38  C   UNL A   1      41.186  25.949  27.996  1.00  0.00     0.031 A 
ATOM     39  C   UNL A   1      42.594  26.221  27.542  1.00  0.00     0.074 A 
ATOM     40  C   UNL A   1      40.523  26.871  28.714  1.00  0.00     0.049 A 
ATOM     41  N   UNL A   1      43.305  27.312  27.667  1.00  0.00    -0.248 NA
ATOM     42  C   UNL A   1      43.295  25.123  26.857  1.00  0.00     0.031 C 
ATOM     43  C   UNL A   1      39.164  26.720  29.234  1.00  0.00     0.029 A 
ATOM     44  N   UNL A   1      40.907  28.120  29.134  1.00  0.00    -0.354 N 
ATOM     45  C   UNL A   1      44.536  27.032  27.088  1.00  0.00     0.074 A 
ATOM     46  C   UNL A   1      44.486  25.660  26.632  1.00  0.00     0.031 C 
ATOM     47  C   UNL A   1      38.831  27.832  29.910  1.00  0.00     0.029 A 
ATOM     48  C   UNL A   1      39.948  28.775  29.869  1.00  0.00     0.049 A 
ATOM     49  H   UNL A   1      41.787  28.511  28.928  1.00  0.00     0.167 HD
ATOM     50  C   UNL A   1      45.602  27.850  26.924  1.00  0.00     0.034 A 
ATOM     51  C   UNL A   1      39.964  30.000  30.433  1.00  0.00     0.034 A 
ATOM     52  C   UNL A   1      45.645  29.222  27.350  1.00  0.00     0.049 A 
ATOM     53  C   UNL A   1      41.160  30.893  30.229  1.00  0.00     0.074 A 
ATOM     54  C   UNL A   1      46.656  30.150  27.166  1.00  0.00     0.029 A 
ATOM     55  N   UNL A   1      44.638  29.863  28.054  1.00  0.00    -0.354 N 
ATOM     56  N   UNL A   1      42.248  30.670  29.531  1.00  0.00    -0.248 NA
ATOM     57  C   UNL A   1      41.109  32.224  30.851  1.00  0.00     0.031 C 
ATOM     58  C   UNL A   1      46.265  31.349  27.773  1.00  0.00     0.029 A 
ATOM     59  C   UNL A   1      45.007  31.170  28.324  1.00  0.00     0.049 A 
ATOM     60  H   UNL A   1      43.786  29.449  28.323  1.00  0.00     0.167 HD
ATOM     61  C   UNL A   1      42.992  31.843  29.598  1.00  0.00     0.074 A 
ATOM     62  C   UNL A   1      42.223  32.781  30.392  1.00  0.00     0.031 C 
ATOM     63  C   UNL A   1      44.208  32.115  29.062  1.00  0.00     0.034 A 
BRANCH  50  64
ATOM     64  C   UNL A   1      46.801  27.292  26.204  1.00  0.00     0.023 A 
ATOM     65  C   UNL A   1      46.879  27.411  24.801  1.00  0.00     0.012 A 
ATOM     66  C   UNL A   1      47.865  26.702  26.909  1.00  0.00     0.148 A 
ATOM     67  C   UNL A   1      47.988  26.928  24.109  1.00  0.00     0.002 A 
ATOM     68  C   UNL A   1      48.984  26.254  26.215  1.00  0.00     0.091 A 
ATOM     69  F   UNL A   1      47.759  26.570  28.240  1.00  0.00    -0.205 F 
ATOM     70  C   UNL A   1      49.044  26.358  24.817  1.00  0.00     0.022 A 
BRANCH  68  71
ATOM     71  S   UNL A   1      50.416  25.567  27.055  1.00  0.00     0.127 S 
ATOM     72  O   UNL A   1      49.847  24.375  27.683  1.00  0.00    -0.237 OA
ATOM     73  O   UNL A   1      51.330  25.293  25.946  1.00  0.00    -0.237 OA
ATOM     74  O   UNL A   1      50.872  26.606  27.967  1.00  0.00    -0.744 OA
ENDBRANCH  68  71
ENDBRANCH  50  64
BRANCH  51  75
ATOM     75  C   UNL A   1      38.767  30.486  31.174  1.00  0.00     0.023 A 
ATOM     76  C   UNL A   1      38.702  30.316  32.571  1.00  0.00     0.012 A 
ATOM     77  C   UNL A   1      37.713  31.145  30.513  1.00  0.00     0.148 A 
ATOM     78  C   UNL A   1      37.599  30.773  33.293  1.00  0.00     0.002 A 
ATOM     79  C   UNL A   1      36.642  31.644  31.244  1.00  0.00     0.091 A 
ATOM     80  F   UNL A   1      37.783  31.278  29.180  1.00  0.00    -0.205 F 
ATOM     81  C   UNL A   1      36.576  31.447  32.632  1.00  0.00     0.022 A 
BRANCH  79  82
ATOM     82  S   UNL A   1      35.349  32.637  30.488  1.00  0.00     0.127 S 
ATOM     83  O   UNL A   1      34.972  31.815  29.341  1.00  0.00    -0.237 OA
ATOM     84  O   UNL A   1      34.349  32.701  31.556  1.00  0.00    -0.237 OA
ATOM     85  O   UNL A   1      35.973  33.916  30.179  1.00  0.00    -0.744 OA
ENDBRANCH  79  82
ENDBRANCH  51  75
BRANCH  63  86
ATOM     86  C   UNL A   1      44.783  33.489  29.286  1.00  0.00     0.023 A 
ATOM     87  C   UNL A   1      45.495  33.759  30.471  1.00  0.00     0.012 A 
ATOM     88  C   UNL A   1      44.691  34.484  28.294  1.00  0.00     0.148 A 
ATOM     89  C   UNL A   1      46.082  35.007  30.676  1.00  0.00     0.002 A 
ATOM     90  C   UNL A   1      45.314  35.711  28.488  1.00  0.00     0.091 A 
ATOM     91  F   UNL A   1      43.990  34.218  27.180  1.00  0.00    -0.205 F 
ATOM     92  C   UNL A   1      46.002  35.979  29.681  1.00  0.00     0.022 A 
BRANCH  90  93
ATOM     93  S   UNL A   1      45.333  36.978  27.213  1.00  0.00     0.127 S 
ATOM     94  O   UNL A   1      46.038  36.300  26.126  1.00  0.00    -0.237 OA
ATOM     95  O   UNL A   1      43.908  37.205  26.968  1.00  0.00    -0.237 OA
ATOM     96  O   UNL A   1      46.026  38.117  27.804  1.00  0.00    -0.744 OA
ENDBRANCH  90  93
ENDBRANCH  63  86
ENDBRANCH  37  38
ENDBRANCH  30  32
ENDBRANCH  29  30
ENDBRANCH  28  29
ENDBRANCH   1  28
TORSDOF 20
ENDMDL
MODEL 2
REMARK VINA RESULT:     -11.2      4.874     10.644
REMARK SMILES CS(=O)(=O)c1ccc(N2N=C(C(=O)OCCOCCOC(=O)c3ccc(-c4c5nc(c(-c6cccc(S(=O)(=O)[O-])c6F)c6ccc([nH]6)c(-c6cccc(S(=O)(=O)[O-])c6F)c6nc(c(-c7cccc(S(=O)(=O)[O-])c7F)c7ccc4[nH]7)C=C6)C=C5)cc3)C[C@H]2c2cccs2)cc1
REMARK SMILES IDX 18 1 17 2 16 3 15 4 14 5 12 6 13 7 11 8 9 9 10 10 87 11
REMARK SMILES IDX 86 12 8 13 5 14 6 15 94 16 7 17 93 18 2 19 1 20 3 21 4 22
REMARK SMILES IDX 88 23 89 24 92 25 90 26 91 27 19 28 20 29 21 30 22 31 23 32
REMARK SMILES IDX 24 33 85 34 25 35 84 36 26 37 27 38 28 39 78 40 29 41 83 42
REMARK SMILES IDX 77 43 79 44 30 45 82 46 76 47 75 48 31 50 63 51 43 52 62 53
REMARK SMILES IDX 44 54 47 55 61 56 80 57 45 58 46 59 60 61 81 62 48 63 32 64
REMARK SMILES IDX 33 65 41 66 34 67 36 68 42 69 35 70 37 71 38 72 39 73 40 74
REMARK SMILES IDX 64 75 65 76 73 77 66 78 68 79 74 80 67 81 69 82 70 83 71 84
REMARK SMILES IDX 72 85 49 86 50 87 58 88 51 89 53 90 59 91 52 92 54 93 55 94
REMARK SMILES IDX 56 95 57 96
REMARK H PARENT 79 49 47 60
REMARK Flexibility Score: inf
ROOT
ATOM      1  C   UNL A   1      32.855  29.725  25.135  1.00  0.00     0.202 C 
ENDROOT
BRANCH   1   2
ATOM      2  O   UNL A   1      32.206  28.594  24.548  1.00  0.00    -0.374 OA
BRANCH   2   3
ATOM      3  C   UNL A   1      32.198  28.527  23.119  1.00  0.00     0.202 C 
BRANCH   3   4
ATOM      4  C   UNL A   1      33.083  27.421  22.542  1.00  0.00     0.261 C 
BRANCH   4   5
ATOM      5  O   UNL A   1      32.409  26.162  22.684  1.00  0.00    -0.459 OA
BRANCH   5   6
ATOM      6  C   UNL A   1      33.118  25.083  22.301  1.00  0.00     0.354 C 
ATOM      7  O   UNL A   1      33.342  24.692  21.172  1.00  0.00    -0.245 OA
BRANCH   6   8
ATOM      8  C   UNL A   1      33.743  24.458  23.521  1.00  0.00     0.148 C 
ATOM      9  N   UNL A   1      35.161  23.543  24.792  1.00  0.00    -0.256 N 
ATOM     10  N   UNL A   1      35.010  24.171  23.591  1.00  0.00    -0.169 NA
ATOM     11  C   UNL A   1      33.872  23.149  25.387  1.00  0.00     0.154 C 
ATOM     12  C   UNL A   1      32.950  24.209  24.767  1.00  0.00     0.099 C 
BRANCH   9  13
ATOM     13  C   UNL A   1      36.398  23.023  25.130  1.00  0.00     0.060 A 
ATOM     14  C   UNL A   1      38.923  22.020  25.861  1.00  0.00     0.067 A 
ATOM     15  C   UNL A   1      38.508  23.260  26.345  1.00  0.00     0.022 A 
ATOM     16  C   UNL A   1      38.103  21.292  24.995  1.00  0.00     0.022 A 
ATOM     17  C   UNL A   1      37.252  23.753  25.970  1.00  0.00     0.029 A 
ATOM     18  C   UNL A   1      36.854  21.799  24.632  1.00  0.00     0.029 A 
BRANCH  14  19
ATOM     19  S   UNL A   1      40.488  21.304  26.294  1.00  0.00     0.175 S 
ATOM     20  C   UNL A   1      40.824  21.729  27.978  1.00  0.00     0.163 C 
ATOM     21  O   UNL A   1      41.492  21.966  25.481  1.00  0.00    -0.224 OA
ATOM     22  O   UNL A   1      40.313  19.865  26.238  1.00  0.00    -0.224 OA
ENDBRANCH  14  19
ENDBRANCH   9  13
BRANCH  11  23
ATOM     23  C   UNL A   1      33.411  21.721  25.133  1.00  0.00     0.030 A 
ATOM     24  C   UNL A   1      32.928  21.200  23.942  1.00  0.00     0.017 A 
ATOM     25  S   UNL A   1      33.394  20.520  26.366  1.00  0.00    -0.147 S 
ATOM     26  C   UNL A   1      32.571  19.824  24.045  1.00  0.00     0.012 A 
ATOM     27  C   UNL A   1      32.810  19.323  25.303  1.00  0.00     0.065 A 
ENDBRANCH  11  23
ENDBRANCH   6   8
ENDBRANCH   5   6
ENDBRANCH   4   5
ENDBRANCH   3   4
ENDBRANCH   2   3
ENDBRANCH   1   2
BRANCH   1  28
ATOM     28  C   UNL A   1      32.152  30.313  26.363  1.00  0.00     0.261 C 
BRANCH  28  29
ATOM     29  O   UNL A   1      33.023  30.342  27.508  1.00  0.00    -0.460 OA
BRANCH  29  30
ATOM     30  C   UNL A   1      33.745  31.483  27.637  1.00  0.00     0.338 C 
ATOM     31  O   UNL A   1      33.332  32.626  27.518  1.00  0.00    -0.246 OA
BRANCH  30  32
ATOM     32  C   UNL A   1      35.111  31.180  28.108  1.00  0.00     0.060 A 
ATOM     33  C   UNL A   1      35.356  29.874  28.550  1.00  0.00     0.016 A 
ATOM     34  C   UNL A   1      36.116  32.149  28.181  1.00  0.00     0.016 A 
ATOM     35  C   UNL A   1      36.584  29.548  29.122  1.00  0.00     0.010 A 
ATOM     36  C   UNL A   1      37.351  31.819  28.758  1.00  0.00     0.010 A 
ATOM     37  C   UNL A   1      37.575  30.528  29.267  1.00  0.00    -0.014 A 
BRANCH  37  38
ATOM     38  C   UNL A   1      38.787  30.209  30.062  1.00  0.00     0.031 A 
ATOM     39  C   UNL A   1      38.939  30.787  31.441  1.00  0.00     0.074 A 
ATOM     40  C   UNL A   1      39.722  29.372  29.578  1.00  0.00     0.049 A 
ATOM     41  N   UNL A   1      39.848  30.534  32.347  1.00  0.00    -0.248 NA
ATOM     42  C   UNL A   1      37.936  31.780  31.859  1.00  0.00     0.031 C 
ATOM     43  C   UNL A   1      39.704  28.764  28.248  1.00  0.00     0.029 A 
ATOM     44  N   UNL A   1      40.872  28.893  30.152  1.00  0.00    -0.354 N 
ATOM     45  C   UNL A   1      39.537  31.340  33.435  1.00  0.00     0.074 A 
ATOM     46  C   UNL A   1      38.367  32.109  33.069  1.00  0.00     0.031 C 
ATOM     47  C   UNL A   1      40.798  27.996  28.107  1.00  0.00     0.029 A 
ATOM     48  C   UNL A   1      41.591  28.056  29.334  1.00  0.00     0.049 A 
ATOM     49  H   UNL A   1      41.157  29.127  31.066  1.00  0.00     0.167 HD
ATOM     50  C   UNL A   1      40.149  31.413  34.640  1.00  0.00     0.034 A 
ATOM     51  C   UNL A   1      42.749  27.401  29.553  1.00  0.00     0.034 A 
ATOM     52  C   UNL A   1      41.294  30.630  35.017  1.00  0.00     0.049 A 
ATOM     53  C   UNL A   1      43.407  27.493  30.906  1.00  0.00     0.074 A 
ATOM     54  C   UNL A   1      41.943  30.585  36.238  1.00  0.00     0.029 A 
ATOM     55  N   UNL A   1      41.969  29.760  34.174  1.00  0.00    -0.354 N 
ATOM     56  N   UNL A   1      43.002  28.128  31.979  1.00  0.00    -0.248 NA
ATOM     57  C   UNL A   1      44.657  26.741  31.090  1.00  0.00     0.031 C 
ATOM     58  C   UNL A   1      43.020  29.697  36.130  1.00  0.00     0.029 A 
ATOM     59  C   UNL A   1      43.034  29.183  34.844  1.00  0.00     0.049 A 
ATOM     60  H   UNL A   1      41.727  29.580  33.237  1.00  0.00     0.167 HD
ATOM     61  C   UNL A   1      43.923  27.822  32.975  1.00  0.00     0.074 A 
ATOM     62  C   UNL A   1      44.899  26.931  32.381  1.00  0.00     0.031 C 
ATOM     63  C   UNL A   1      43.964  28.250  34.261  1.00  0.00     0.034 A 
BRANCH  50  64
ATOM     64  C   UNL A   1      39.557  32.343  35.664  1.00  0.00     0.023 A 
ATOM     65  C   UNL A   1      38.559  31.863  36.536  1.00  0.00     0.012 A 
ATOM     66  C   UNL A   1      40.019  33.666  35.800  1.00  0.00     0.148 A 
ATOM     67  C   UNL A   1      38.011  32.694  37.512  1.00  0.00     0.002 A 
ATOM     68  C   UNL A   1      39.491  34.478  36.798  1.00  0.00     0.091 A 
ATOM     69  F   UNL A   1      40.946  34.114  34.941  1.00  0.00    -0.205 F 
ATOM     70  C   UNL A   1      38.483  33.997  37.649  1.00  0.00     0.022 A 
BRANCH  68  71
ATOM     71  S   UNL A   1      40.089  36.147  37.086  1.00  0.00     0.127 S 
ATOM     72  O   UNL A   1      39.253  36.571  38.209  1.00  0.00    -0.237 OA
ATOM     73  O   UNL A   1      41.495  35.925  37.424  1.00  0.00    -0.237 OA
ATOM     74  O   UNL A   1      39.878  36.861  35.834  1.00  0.00    -0.744 OA
ENDBRANCH  68  71
ENDBRANCH  50  64
BRANCH  51  75
ATOM     75  C   UNL A   1      43.316  26.527  28.488  1.00  0.00     0.023 A 
ATOM     76  C   UNL A   1      42.789  25.234  28.302  1.00  0.00     0.012 A 
ATOM     77  C   UNL A   1      44.342  26.981  27.638  1.00  0.00     0.148 A 
ATOM     78  C   UNL A   1      43.291  24.400  27.302  1.00  0.00     0.002 A 
ATOM     79  C   UNL A   1      44.801  26.164  26.612  1.00  0.00     0.091 A 
ATOM     80  F   UNL A   1      44.844  28.207  27.845  1.00  0.00    -0.205 F 
ATOM     81  C   UNL A   1      44.287  24.868  26.450  1.00  0.00     0.022 A 
BRANCH  79  82
ATOM     82  S   UNL A   1      45.988  26.740  25.391  1.00  0.00     0.127 S 
ATOM     83  O   UNL A   1      47.152  27.037  26.222  1.00  0.00    -0.237 OA
ATOM     84  O   UNL A   1      46.130  25.567  24.526  1.00  0.00    -0.237 OA
ATOM     85  O   UNL A   1      45.357  27.883  24.746  1.00  0.00    -0.744 OA
ENDBRANCH  79  82
ENDBRANCH  51  75
BRANCH  63  86
ATOM     86  C   UNL A   1      45.084  27.745  35.134  1.00  0.00     0.023 A 
ATOM     87  C   UNL A   1      46.268  28.500  35.251  1.00  0.00     0.012 A 
ATOM     88  C   UNL A   1      44.934  26.572  35.899  1.00  0.00     0.148 A 
ATOM     89  C   UNL A   1      47.295  28.081  36.094  1.00  0.00     0.002 A 
ATOM     90  C   UNL A   1      45.946  26.183  36.769  1.00  0.00     0.091 A 
ATOM     91  F   UNL A   1      43.811  25.852  35.759  1.00  0.00    -0.205 F 
ATOM     92  C   UNL A   1      47.131  26.929  36.861  1.00  0.00     0.022 A 
BRANCH  90  93
ATOM     93  S   UNL A   1      45.769  24.763  37.857  1.00  0.00     0.127 S 
ATOM     94  O   UNL A   1      44.324  24.732  38.076  1.00  0.00    -0.237 OA
ATOM     95  O   UNL A   1      46.284  23.665  37.036  1.00  0.00    -0.237 OA
ATOM     96  O   UNL A   1      46.582  25.064  39.028  1.00  0.00    -0.744 OA
ENDBRANCH  90  93
ENDBRANCH  63  86
ENDBRANCH  37  38
ENDBRANCH  30  32
ENDBRANCH  29  30
ENDBRANCH  28  29
ENDBRANCH   1  28
TORSDOF 20
ENDMDL
MODEL 3
REMARK VINA RESULT:     -11.1      2.609      3.617
REMARK SMILES CS(=O)(=O)c1ccc(N2N=C(C(=O)OCCOCCOC(=O)c3ccc(-c4c5nc(c(-c6cccc(S(=O)(=O)[O-])c6F)c6ccc([nH]6)c(-c6cccc(S(=O)(=O)[O-])c6F)c6nc(c(-c7cccc(S(=O)(=O)[O-])c7F)c7ccc4[nH]7)C=C6)C=C5)cc3)C[C@H]2c2cccs2)cc1
REMARK SMILES IDX 18 1 17 2 16 3 15 4 14 5 12 6 13 7 11 8 9 9 10 10 87 11
REMARK SMILES IDX 86 12 8 13 5 14 6 15 94 16 7 17 93 18 2 19 1 20 3 21 4 22
REMARK SMILES IDX 88 23 89 24 92 25 90 26 91 27 19 28 20 29 21 30 22 31 23 32
REMARK SMILES IDX 24 33 85 34 25 35 84 36 26 37 27 38 28 39 78 40 29 41 83 42
REMARK SMILES IDX 77 43 79 44 30 45 82 46 76 47 75 48 31 50 63 51 43 52 62 53
REMARK SMILES IDX 44 54 47 55 61 56 80 57 45 58 46 59 60 61 81 62 48 63 32 64
REMARK SMILES IDX 33 65 41 66 34 67 36 68 42 69 35 70 37 71 38 72 39 73 40 74
REMARK SMILES IDX 64 75 65 76 73 77 66 78 68 79 74 80 67 81 69 82 70 83 71 84
REMARK SMILES IDX 72 85 49 86 50 87 58 88 51 89 53 90 59 91 52 92 54 93 55 94
REMARK SMILES IDX 56 95 57 96
REMARK H PARENT 79 49 47 60
REMARK Flexibility Score: inf
ROOT
ATOM      1  C   UNL A   1      35.588  21.640  24.663  1.00  0.00     0.202 C 
ENDROOT
BRANCH   1   2
ATOM      2  O   UNL A   1      34.645  20.592  24.907  1.00  0.00    -0.374 OA
BRANCH   2   3
ATOM      3  C   UNL A   1      33.483  20.938  25.668  1.00  0.00     0.202 C 
BRANCH   3   4
ATOM      4  C   UNL A   1      33.508  22.360  26.233  1.00  0.00     0.261 C 
BRANCH   4   5
ATOM      5  O   UNL A   1      32.504  23.142  25.570  1.00  0.00    -0.459 OA
BRANCH   5   6
ATOM      6  C   UNL A   1      31.985  24.150  26.299  1.00  0.00     0.354 C 
ATOM      7  O   UNL A   1      31.207  24.082  27.230  1.00  0.00    -0.245 OA
BRANCH   6   8
ATOM      8  C   UNL A   1      32.633  25.439  25.868  1.00  0.00     0.148 C 
ATOM      9  N   UNL A   1      33.334  27.433  25.904  1.00  0.00    -0.256 N 
ATOM     10  N   UNL A   1      32.821  26.437  26.682  1.00  0.00    -0.169 NA
ATOM     11  C   UNL A   1      33.191  27.152  24.465  1.00  0.00     0.154 C 
ATOM     12  C   UNL A   1      33.183  25.616  24.486  1.00  0.00     0.099 C 
BRANCH   9  13
ATOM     13  C   UNL A   1      33.560  28.677  26.465  1.00  0.00     0.060 A 
ATOM     14  C   UNL A   1      34.089  31.193  27.609  1.00  0.00     0.067 A 
ATOM     15  C   UNL A   1      35.119  30.262  27.485  1.00  0.00     0.022 A 
ATOM     16  C   UNL A   1      32.795  30.869  27.195  1.00  0.00     0.022 A 
ATOM     17  C   UNL A   1      34.845  29.010  26.920  1.00  0.00     0.029 A 
ATOM     18  C   UNL A   1      32.539  29.616  26.633  1.00  0.00     0.029 A 
BRANCH  14  19
ATOM     19  S   UNL A   1      34.344  32.810  28.294  1.00  0.00     0.175 S 
ATOM     20  C   UNL A   1      32.942  33.800  27.865  1.00  0.00     0.163 C 
ATOM     21  O   UNL A   1      35.491  33.379  27.611  1.00  0.00    -0.224 OA
ATOM     22  O   UNL A   1      34.338  32.652  29.736  1.00  0.00    -0.224 OA
ENDBRANCH  14  19
ENDBRANCH   9  13
BRANCH  11  23
ATOM     23  C   UNL A   1      31.979  27.756  23.768  1.00  0.00     0.030 A 
ATOM     24  C   UNL A   1      31.911  28.984  23.131  1.00  0.00     0.017 A 
ATOM     25  S   UNL A   1      30.452  26.964  23.714  1.00  0.00    -0.147 S 
ATOM     26  C   UNL A   1      30.621  29.255  22.588  1.00  0.00     0.012 A 
ATOM     27  C   UNL A   1      29.744  28.219  22.806  1.00  0.00     0.065 A 
ENDBRANCH  11  23
ENDBRANCH   6   8
ENDBRANCH   5   6
ENDBRANCH   4   5
ENDBRANCH   3   4
ENDBRANCH   2   3
ENDBRANCH   1   2
BRANCH   1  28
ATOM     28  C   UNL A   1      37.055  21.255  24.879  1.00  0.00     0.261 C 
BRANCH  28  29
ATOM     29  O   UNL A   1      37.628  21.962  25.994  1.00  0.00    -0.460 OA
BRANCH  29  30
ATOM     30  C   UNL A   1      38.958  21.761  26.163  1.00  0.00     0.338 C 
ATOM     31  O   UNL A   1      39.612  20.813  25.758  1.00  0.00    -0.246 OA
BRANCH  30  32
ATOM     32  C   UNL A   1      39.584  22.945  26.788  1.00  0.00     0.060 A 
ATOM     33  C   UNL A   1      39.048  24.195  26.458  1.00  0.00     0.016 A 
ATOM     34  C   UNL A   1      40.701  22.854  27.623  1.00  0.00     0.016 A 
ATOM     35  C   UNL A   1      39.662  25.361  26.911  1.00  0.00     0.010 A 
ATOM     36  C   UNL A   1      41.319  24.028  28.078  1.00  0.00     0.010 A 
ATOM     37  C   UNL A   1      40.825  25.286  27.690  1.00  0.00    -0.014 A 
BRANCH  37  38
ATOM     38  C   UNL A   1      41.572  26.535  27.983  1.00  0.00     0.031 A 
ATOM     39  C   UNL A   1      42.954  26.718  27.419  1.00  0.00     0.074 A 
ATOM     40  C   UNL A   1      41.005  27.518  28.705  1.00  0.00     0.049 A 
ATOM     41  N   UNL A   1      43.722  27.777  27.445  1.00  0.00    -0.248 NA
ATOM     42  C   UNL A   1      43.551  25.560  26.737  1.00  0.00     0.031 C 
ATOM     43  C   UNL A   1      39.683  27.455  29.325  1.00  0.00     0.029 A 
ATOM     44  N   UNL A   1      41.476  28.762  29.040  1.00  0.00    -0.354 N 
ATOM     45  C   UNL A   1      44.894  27.413  26.794  1.00  0.00     0.074 A 
ATOM     46  C   UNL A   1      44.747  26.027  26.404  1.00  0.00     0.031 C 
ATOM     47  C   UNL A   1      39.451  28.609  29.973  1.00  0.00     0.029 A 
ATOM     48  C   UNL A   1      40.605  29.493  29.811  1.00  0.00     0.049 A 
ATOM     49  H   UNL A   1      42.356  29.100  28.755  1.00  0.00     0.167 HD
ATOM     50  C   UNL A   1      45.982  28.170  26.519  1.00  0.00     0.034 A 
ATOM     51  C   UNL A   1      40.718  30.738  30.317  1.00  0.00     0.034 A 
ATOM     52  C   UNL A   1      46.119  29.555  26.879  1.00  0.00     0.049 A 
ATOM     53  C   UNL A   1      41.936  31.562  29.990  1.00  0.00     0.074 A 
ATOM     54  C   UNL A   1      47.156  30.423  26.584  1.00  0.00     0.029 A 
ATOM     55  N   UNL A   1      45.196  30.272  27.623  1.00  0.00    -0.354 N 
ATOM     56  N   UNL A   1      42.959  31.256  29.228  1.00  0.00    -0.248 NA
ATOM     57  C   UNL A   1      41.993  32.918  30.554  1.00  0.00     0.031 C 
ATOM     58  C   UNL A   1      46.866  31.664  27.162  1.00  0.00     0.029 A 
ATOM     59  C   UNL A   1      45.644  31.569  27.808  1.00  0.00     0.049 A 
ATOM     60  H   UNL A   1      44.348  29.913  27.970  1.00  0.00     0.167 HD
ATOM     61  C   UNL A   1      43.760  32.393  29.190  1.00  0.00     0.074 A 
ATOM     62  C   UNL A   1      43.095  33.399  29.993  1.00  0.00     0.031 C 
ATOM     63  C   UNL A   1      44.945  32.582  28.558  1.00  0.00     0.034 A 
BRANCH  50  64
ATOM     64  C   UNL A   1      47.098  27.524  25.742  1.00  0.00     0.023 A 
ATOM     65  C   UNL A   1      47.926  26.581  26.382  1.00  0.00     0.012 A 
ATOM     66  C   UNL A   1      47.295  27.807  24.378  1.00  0.00     0.148 A 
ATOM     67  C   UNL A   1      48.952  25.947  25.682  1.00  0.00     0.002 A 
ATOM     68  C   UNL A   1      48.297  27.145  23.677  1.00  0.00     0.091 A 
ATOM     69  F   UNL A   1      46.517  28.731  23.794  1.00  0.00    -0.205 F 
ATOM     70  C   UNL A   1      49.130  26.222  24.328  1.00  0.00     0.022 A 
BRANCH  68  71
ATOM     71  S   UNL A   1      48.554  27.392  21.916  1.00  0.00     0.127 S 
ATOM     72  O   UNL A   1      49.707  28.292  21.909  1.00  0.00    -0.237 OA
ATOM     73  O   UNL A   1      48.837  26.036  21.446  1.00  0.00    -0.237 OA
ATOM     74  O   UNL A   1      47.308  27.955  21.413  1.00  0.00    -0.744 OA
ENDBRANCH  68  71
ENDBRANCH  50  64
BRANCH  51  75
ATOM     75  C   UNL A   1      39.602  31.312  31.119  1.00  0.00     0.023 A 
ATOM     76  C   UNL A   1      38.507  31.901  30.457  1.00  0.00     0.012 A 
ATOM     77  C   UNL A   1      39.600  31.246  32.525  1.00  0.00     0.148 A 
ATOM     78  C   UNL A   1      37.441  32.434  31.182  1.00  0.00     0.002 A 
ATOM     79  C   UNL A   1      38.512  31.733  33.239  1.00  0.00     0.091 A 
ATOM     80  F   UNL A   1      40.662  30.701  33.138  1.00  0.00    -0.205 F 
ATOM     81  C   UNL A   1      37.437  32.339  32.571  1.00  0.00     0.022 A 
BRANCH  79  82
ATOM     82  S   UNL A   1      38.370  31.532  35.019  1.00  0.00     0.127 S 
ATOM     83  O   UNL A   1      38.412  30.079  35.161  1.00  0.00    -0.237 OA
ATOM     84  O   UNL A   1      39.561  32.233  35.502  1.00  0.00    -0.237 OA
ATOM     85  O   UNL A   1      37.113  32.172  35.383  1.00  0.00    -0.744 OA
ENDBRANCH  79  82
ENDBRANCH  51  75
BRANCH  63  86
ATOM     86  C   UNL A   1      45.598  33.934  28.680  1.00  0.00     0.023 A 
ATOM     87  C   UNL A   1      45.299  34.937  27.737  1.00  0.00     0.012 A 
ATOM     88  C   UNL A   1      46.439  34.238  29.768  1.00  0.00     0.148 A 
ATOM     89  C   UNL A   1      45.849  36.212  27.860  1.00  0.00     0.002 A 
ATOM     90  C   UNL A   1      46.950  35.523  29.907  1.00  0.00     0.091 A 
ATOM     91  F   UNL A   1      46.732  33.265  30.644  1.00  0.00    -0.205 F 
ATOM     92  C   UNL A   1      46.665  36.509  28.950  1.00  0.00     0.022 A 
BRANCH  90  93
ATOM     93  S   UNL A   1      47.933  36.005  31.333  1.00  0.00     0.127 S 
ATOM     94  O   UNL A   1      46.906  36.188  32.356  1.00  0.00    -0.237 OA
ATOM     95  O   UNL A   1      48.794  34.838  31.536  1.00  0.00    -0.237 OA
ATOM     96  O   UNL A   1      48.646  37.209  30.927  1.00  0.00    -0.744 OA
ENDBRANCH  90  93
ENDBRANCH  63  86
ENDBRANCH  37  38
ENDBRANCH  30  32
ENDBRANCH  29  30
ENDBRANCH  28  29
ENDBRANCH   1  28
TORSDOF 20
ENDMDL
