MODEL 1
REMARK VINA RESULT:     -10.8      0.000      0.000
REMARK SMILES Cc1cccc([C@@H]2[NH2+][C@H](C(=O)OCCOCCOC(=O)c3ccc(-c4c5nc(c(-c6cccc(S(=O)(=O)[O-])c6F)c6ccc([nH]6)c(-c6cccc(S(=O)(=O)[O-])c6F)c6nc(c(-c7cccc(S(=O)(=O)[O-])c7F)c7ccc4[nH]7)C=C6)C=C5)cc3)CS2)c1
REMARK SMILES IDX 16 1 15 2 14 3 13 4 12 5 10 6 11 7 9 8 7 9 8 10 85 11 84 14
REMARK SMILES IDX 6 15 1 16 2 17 3 18 86 19 4 20 5 21 17 22 18 23 19 24 20 25
REMARK SMILES IDX 21 26 22 27 83 28 23 29 82 30 24 31 25 32 26 33 76 34 27 35
REMARK SMILES IDX 81 36 75 37 77 38 28 39 80 40 74 41 73 42 29 44 61 45 41 46
REMARK SMILES IDX 60 47 42 48 45 49 59 50 78 51 43 52 44 53 58 55 79 56 46 57
REMARK SMILES IDX 30 58 31 59 39 60 32 61 34 62 40 63 33 64 35 65 36 66 37 67
REMARK SMILES IDX 38 68 62 69 63 70 71 71 64 72 66 73 72 74 65 75 67 76 68 77
REMARK SMILES IDX 69 78 70 79 47 80 48 81 56 82 49 83 51 84 57 85 50 86 52 87
REMARK SMILES IDX 53 88 54 89 55 90
REMARK H PARENT 8 12 8 13 77 43 45 54
REMARK Flexibility Score: inf
ROOT
ATOM      1  C   UNL A   1      38.225  21.619  25.694  1.00  0.00     0.202 C 
ENDROOT
BRANCH   1   2
ATOM      2  O   UNL A   1      37.675  22.228  24.537  1.00  0.00    -0.374 OA
BRANCH   2   3
ATOM      3  C   UNL A   1      36.732  23.245  24.821  1.00  0.00     0.202 C 
BRANCH   3   4
ATOM      4  C   UNL A   1      35.737  23.310  23.702  1.00  0.00     0.261 C 
BRANCH   4   5
ATOM      5  O   UNL A   1      34.421  23.272  24.213  1.00  0.00    -0.459 OA
BRANCH   5   6
ATOM      6  C   UNL A   1      33.721  24.436  24.171  1.00  0.00     0.365 C 
ATOM      7  O   UNL A   1      33.890  25.374  23.434  1.00  0.00    -0.245 OA
BRANCH   6   8
ATOM      8  C   UNL A   1      32.543  24.278  25.131  1.00  0.00     0.304 C 
ATOM      9  C   UNL A   1      31.704  26.414  25.983  1.00  0.00     0.274 C 
ATOM     10  N   UNL A   1      32.610  25.280  26.248  1.00  0.00    -0.319 N 
ATOM     11  S   UNL A   1      30.738  26.116  24.495  1.00  0.00    -0.087 SA
ATOM     12  H   UNL A   1      32.336  24.828  27.121  1.00  0.00     0.348 HD
ATOM     13  H   UNL A   1      33.565  25.631  26.318  1.00  0.00     0.348 HD
ATOM     14  C   UNL A   1      31.225  24.372  24.386  1.00  0.00     0.153 C 
BRANCH   9  15
ATOM     15  C   UNL A   1      32.372  27.787  26.112  1.00  0.00     0.020 A 
ATOM     16  C   UNL A   1      35.510  29.342  27.679  1.00  0.00     0.044 C 
ATOM     17  C   UNL A   1      34.207  29.222  26.930  1.00  0.00    -0.051 A 
ATOM     18  C   UNL A   1      33.399  30.345  26.786  1.00  0.00     0.003 A 
ATOM     19  C   UNL A   1      33.711  27.977  26.498  1.00  0.00     0.014 A 
ATOM     20  C   UNL A   1      32.120  30.214  26.252  1.00  0.00     0.001 A 
ATOM     21  C   UNL A   1      31.599  28.948  25.957  1.00  0.00     0.011 A 
ENDBRANCH   9  15
ENDBRANCH   6   8
ENDBRANCH   5   6
ENDBRANCH   4   5
ENDBRANCH   3   4
ENDBRANCH   2   3
ENDBRANCH   1   2
BRANCH   1  22
ATOM     22  C   UNL A   1      39.341  22.422  26.394  1.00  0.00     0.261 C 
BRANCH  22  23
ATOM     23  O   UNL A   1      40.321  21.530  26.963  1.00  0.00    -0.460 OA
BRANCH  23  24
ATOM     24  C   UNL A   1      41.564  21.558  26.393  1.00  0.00     0.338 C 
ATOM     25  O   UNL A   1      42.009  20.686  25.667  1.00  0.00    -0.246 OA
BRANCH  24  26
ATOM     26  C   UNL A   1      42.368  22.647  27.028  1.00  0.00     0.060 A 
ATOM     27  C   UNL A   1      42.324  22.852  28.422  1.00  0.00     0.016 A 
ATOM     28  C   UNL A   1      42.857  23.650  26.196  1.00  0.00     0.016 A 
ATOM     29  C   UNL A   1      42.613  24.113  28.965  1.00  0.00     0.010 A 
ATOM     30  C   UNL A   1      43.021  24.910  26.718  1.00  0.00     0.010 A 
ATOM     31  C   UNL A   1      42.872  25.160  28.099  1.00  0.00    -0.014 A 
BRANCH  31  32
ATOM     32  C   UNL A   1      43.058  26.568  28.447  1.00  0.00     0.031 A 
ATOM     33  C   UNL A   1      41.825  27.388  28.353  1.00  0.00     0.074 A 
ATOM     34  C   UNL A   1      44.138  27.011  29.145  1.00  0.00     0.049 A 
ATOM     35  N   UNL A   1      41.796  28.664  28.504  1.00  0.00    -0.248 NA
ATOM     36  C   UNL A   1      40.508  26.833  27.999  1.00  0.00     0.031 C 
ATOM     37  C   UNL A   1      44.114  28.046  30.184  1.00  0.00     0.029 A 
ATOM     38  N   UNL A   1      45.469  26.611  29.182  1.00  0.00    -0.354 N 
ATOM     39  C   UNL A   1      40.472  28.983  28.700  1.00  0.00     0.074 A 
ATOM     40  C   UNL A   1      39.728  27.906  28.118  1.00  0.00     0.031 C 
ATOM     41  C   UNL A   1      45.372  28.328  30.571  1.00  0.00     0.029 A 
ATOM     42  C   UNL A   1      46.271  27.638  29.665  1.00  0.00     0.049 A 
ATOM     43  H   UNL A   1      45.796  25.725  28.904  1.00  0.00     0.167 HD
ATOM     44  C   UNL A   1      40.171  29.992  29.557  1.00  0.00     0.034 A 
ATOM     45  C   UNL A   1      47.300  28.198  28.959  1.00  0.00     0.034 A 
ATOM     46  C   UNL A   1      41.393  30.748  29.919  1.00  0.00     0.049 A 
ATOM     47  C   UNL A   1      46.986  29.653  28.654  1.00  0.00     0.074 A 
ATOM     48  C   UNL A   1      42.102  30.928  31.093  1.00  0.00     0.029 A 
ATOM     49  N   UNL A   1      42.234  31.209  28.897  1.00  0.00    -0.354 N 
ATOM     50  N   UNL A   1      45.856  30.206  29.003  1.00  0.00    -0.248 NA
ATOM     51  C   UNL A   1      47.851  30.607  27.965  1.00  0.00     0.031 C 
ATOM     52  C   UNL A   1      43.405  31.412  30.754  1.00  0.00     0.029 A 
ATOM     53  C   UNL A   1      43.483  31.580  29.379  1.00  0.00     0.049 A 
ATOM     54  H   UNL A   1      41.970  31.264  27.951  1.00  0.00     0.167 HD
ATOM     55  C   UNL A   1      45.729  31.442  28.466  1.00  0.00     0.074 A 
ATOM     56  C   UNL A   1      47.049  31.689  27.901  1.00  0.00     0.031 C 
ATOM     57  C   UNL A   1      44.520  32.082  28.460  1.00  0.00     0.034 A 
BRANCH  44  58
ATOM     58  C   UNL A   1      38.805  30.182  30.216  1.00  0.00     0.023 A 
ATOM     59  C   UNL A   1      38.435  29.233  31.189  1.00  0.00     0.012 A 
ATOM     60  C   UNL A   1      37.825  31.178  29.933  1.00  0.00     0.148 A 
ATOM     61  C   UNL A   1      37.206  29.282  31.862  1.00  0.00     0.002 A 
ATOM     62  C   UNL A   1      36.640  31.286  30.671  1.00  0.00     0.091 A 
ATOM     63  F   UNL A   1      37.953  31.980  28.874  1.00  0.00    -0.205 F 
ATOM     64  C   UNL A   1      36.322  30.326  31.630  1.00  0.00     0.022 A 
BRANCH  62  65
ATOM     65  S   UNL A   1      35.476  32.654  30.466  1.00  0.00     0.127 S 
ATOM     66  O   UNL A   1      36.322  33.822  30.710  1.00  0.00    -0.237 OA
ATOM     67  O   UNL A   1      35.050  32.494  29.075  1.00  0.00    -0.237 OA
ATOM     68  O   UNL A   1      34.417  32.448  31.447  1.00  0.00    -0.744 OA
ENDBRANCH  62  65
ENDBRANCH  44  58
BRANCH  45  69
ATOM     69  C   UNL A   1      48.044  27.220  28.103  1.00  0.00     0.023 A 
ATOM     70  C   UNL A   1      48.913  26.327  28.777  1.00  0.00     0.012 A 
ATOM     71  C   UNL A   1      47.567  26.855  26.827  1.00  0.00     0.148 A 
ATOM     72  C   UNL A   1      49.210  25.065  28.251  1.00  0.00     0.002 A 
ATOM     73  C   UNL A   1      47.810  25.567  26.344  1.00  0.00     0.091 A 
ATOM     74  F   UNL A   1      46.787  27.722  26.170  1.00  0.00    -0.205 F 
ATOM     75  C   UNL A   1      48.625  24.671  27.056  1.00  0.00     0.022 A 
BRANCH  73  76
ATOM     76  S   UNL A   1      46.928  24.865  24.939  1.00  0.00     0.127 S 
ATOM     77  O   UNL A   1      46.722  23.486  25.371  1.00  0.00    -0.237 OA
ATOM     78  O   UNL A   1      45.719  25.689  24.916  1.00  0.00    -0.237 OA
ATOM     79  O   UNL A   1      47.804  25.045  23.793  1.00  0.00    -0.744 OA
ENDBRANCH  73  76
ENDBRANCH  45  69
BRANCH  57  80
ATOM     80  C   UNL A   1      44.210  33.232  27.526  1.00  0.00     0.023 A 
ATOM     81  C   UNL A   1      44.109  33.055  26.132  1.00  0.00     0.012 A 
ATOM     82  C   UNL A   1      43.838  34.499  28.034  1.00  0.00     0.148 A 
ATOM     83  C   UNL A   1      43.751  34.096  25.275  1.00  0.00     0.002 A 
ATOM     84  C   UNL A   1      43.343  35.486  27.192  1.00  0.00     0.091 A 
ATOM     85  F   UNL A   1      43.977  34.767  29.340  1.00  0.00    -0.205 F 
ATOM     86  C   UNL A   1      43.343  35.308  25.807  1.00  0.00     0.022 A 
BRANCH  84  87
ATOM     87  S   UNL A   1      42.522  36.938  27.857  1.00  0.00     0.127 S 
ATOM     88  O   UNL A   1      42.139  37.650  26.641  1.00  0.00    -0.237 OA
ATOM     89  O   UNL A   1      41.406  36.349  28.599  1.00  0.00    -0.237 OA
ATOM     90  O   UNL A   1      43.519  37.587  28.698  1.00  0.00    -0.744 OA
ENDBRANCH  84  87
ENDBRANCH  57  80
ENDBRANCH  31  32
ENDBRANCH  24  26
ENDBRANCH  23  24
ENDBRANCH  22  23
ENDBRANCH   1  22
TORSDOF 18
ENDMDL
MODEL 2
REMARK VINA RESULT:     -10.8      3.958      9.592
REMARK SMILES Cc1cccc([C@@H]2[NH2+][C@H](C(=O)OCCOCCOC(=O)c3ccc(-c4c5nc(c(-c6cccc(S(=O)(=O)[O-])c6F)c6ccc([nH]6)c(-c6cccc(S(=O)(=O)[O-])c6F)c6nc(c(-c7cccc(S(=O)(=O)[O-])c7F)c7ccc4[nH]7)C=C6)C=C5)cc3)CS2)c1
REMARK SMILES IDX 16 1 15 2 14 3 13 4 12 5 10 6 11 7 9 8 7 9 8 10 85 11 84 14
REMARK SMILES IDX 6 15 1 16 2 17 3 18 86 19 4 20 5 21 17 22 18 23 19 24 20 25
REMARK SMILES IDX 21 26 22 27 83 28 23 29 82 30 24 31 25 32 26 33 76 34 27 35
REMARK SMILES IDX 81 36 75 37 77 38 28 39 80 40 74 41 73 42 29 44 61 45 41 46
REMARK SMILES IDX 60 47 42 48 45 49 59 50 78 51 43 52 44 53 58 55 79 56 46 57
REMARK SMILES IDX 30 58 31 59 39 60 32 61 34 62 40 63 33 64 35 65 36 66 37 67
REMARK SMILES IDX 38 68 62 69 63 70 71 71 64 72 66 73 72 74 65 75 67 76 68 77
REMARK SMILES IDX 69 78 70 79 47 80 48 81 56 82 49 83 51 84 57 85 50 86 52 87
REMARK SMILES IDX 53 88 54 89 55 90
REMARK H PARENT 8 12 8 13 77 43 45 54
REMARK Flexibility Score: inf
ROOT
ATOM      1  C   UNL A   1      31.818  29.874  26.663  1.00  0.00     0.202 C 
ENDROOT
BRANCH   1   2
ATOM      2  O   UNL A   1      31.819  29.722  25.253  1.00  0.00    -0.374 OA
BRANCH   2   3
ATOM      3  C   UNL A   1      31.397  28.443  24.816  1.00  0.00     0.202 C 
BRANCH   3   4
ATOM      4  C   UNL A   1      32.094  27.397  25.634  1.00  0.00     0.261 C 
BRANCH   4   5
ATOM      5  O   UNL A   1      32.455  26.301  24.821  1.00  0.00    -0.459 OA
BRANCH   5   6
ATOM      6  C   UNL A   1      32.276  25.065  25.358  1.00  0.00     0.365 C 
ATOM      7  O   UNL A   1      31.309  24.351  25.266  1.00  0.00    -0.245 OA
BRANCH   6   8
ATOM      8  C   UNL A   1      33.613  24.653  25.973  1.00  0.00     0.304 C 
ATOM      9  C   UNL A   1      34.383  22.455  25.219  1.00  0.00     0.274 C 
ATOM     10  N   UNL A   1      33.647  23.181  26.272  1.00  0.00    -0.319 N 
ATOM     11  S   UNL A   1      35.099  23.609  24.039  1.00  0.00    -0.087 SA
ATOM     12  H   UNL A   1      34.109  23.031  27.169  1.00  0.00     0.348 HD
ATOM     13  H   UNL A   1      32.689  22.830  26.306  1.00  0.00     0.348 HD
ATOM     14  C   UNL A   1      34.766  25.059  25.076  1.00  0.00     0.153 C 
BRANCH   9  15
ATOM     15  C   UNL A   1      33.621  21.257  24.641  1.00  0.00     0.020 A 
ATOM     16  C   UNL A   1      33.967  17.442  24.422  1.00  0.00     0.044 C 
ATOM     17  C   UNL A   1      33.406  18.830  24.242  1.00  0.00    -0.051 A 
ATOM     18  C   UNL A   1      32.520  19.076  23.199  1.00  0.00     0.003 A 
ATOM     19  C   UNL A   1      33.864  19.920  25.006  1.00  0.00     0.014 A 
ATOM     20  C   UNL A   1      32.129  20.382  22.914  1.00  0.00     0.001 A 
ATOM     21  C   UNL A   1      32.703  21.460  23.599  1.00  0.00     0.011 A 
ENDBRANCH   9  15
ENDBRANCH   6   8
ENDBRANCH   5   6
ENDBRANCH   4   5
ENDBRANCH   3   4
ENDBRANCH   2   3
ENDBRANCH   1   2
BRANCH   1  22
ATOM     22  C   UNL A   1      32.774  30.954  27.210  1.00  0.00     0.261 C 
BRANCH  22  23
ATOM     23  O   UNL A   1      34.145  30.597  26.936  1.00  0.00    -0.460 OA
BRANCH  23  24
ATOM     24  C   UNL A   1      35.086  31.145  27.761  1.00  0.00     0.338 C 
ATOM     25  O   UNL A   1      35.198  32.339  27.982  1.00  0.00    -0.246 OA
BRANCH  24  26
ATOM     26  C   UNL A   1      36.109  30.107  28.096  1.00  0.00     0.060 A 
ATOM     27  C   UNL A   1      36.240  29.631  29.417  1.00  0.00     0.016 A 
ATOM     28  C   UNL A   1      37.135  29.899  27.180  1.00  0.00     0.016 A 
ATOM     29  C   UNL A   1      37.458  29.096  29.862  1.00  0.00     0.010 A 
ATOM     30  C   UNL A   1      38.359  29.488  27.651  1.00  0.00     0.010 A 
ATOM     31  C   UNL A   1      38.540  29.111  28.999  1.00  0.00    -0.014 A 
BRANCH  31  32
ATOM     32  C   UNL A   1      39.919  28.735  29.306  1.00  0.00     0.031 A 
ATOM     33  C   UNL A   1      40.220  27.297  29.100  1.00  0.00     0.074 A 
ATOM     34  C   UNL A   1      40.920  29.650  29.403  1.00  0.00     0.049 A 
ATOM     35  N   UNL A   1      41.334  26.742  29.420  1.00  0.00    -0.248 NA
ATOM     36  C   UNL A   1      39.241  26.332  28.574  1.00  0.00     0.031 C 
ATOM     37  C   UNL A   1      42.293  29.464  28.921  1.00  0.00     0.029 A 
ATOM     38  N   UNL A   1      40.959  30.966  29.852  1.00  0.00    -0.354 N 
ATOM     39  C   UNL A   1      41.350  25.536  28.757  1.00  0.00     0.074 A 
ATOM     40  C   UNL A   1      39.976  25.224  28.496  1.00  0.00     0.031 C 
ATOM     41  C   UNL A   1      43.050  30.512  29.296  1.00  0.00     0.029 A 
ATOM     42  C   UNL A   1      42.256  31.321  30.202  1.00  0.00     0.049 A 
ATOM     43  H   UNL A   1      40.177  31.560  29.914  1.00  0.00     0.167 HD
ATOM     44  C   UNL A   1      42.536  25.075  28.284  1.00  0.00     0.034 A 
ATOM     45  C   UNL A   1      42.623  31.734  31.453  1.00  0.00     0.034 A 
ATOM     46  C   UNL A   1      43.659  25.873  28.830  1.00  0.00     0.049 A 
ATOM     47  C   UNL A   1      43.576  30.726  32.073  1.00  0.00     0.074 A 
ATOM     48  C   UNL A   1      44.592  26.730  28.275  1.00  0.00     0.029 A 
ATOM     49  N   UNL A   1      43.733  26.080  30.214  1.00  0.00    -0.354 N 
ATOM     50  N   UNL A   1      43.912  29.624  31.461  1.00  0.00    -0.248 NA
ATOM     51  C   UNL A   1      44.229  30.829  33.375  1.00  0.00     0.031 C 
ATOM     52  C   UNL A   1      45.155  27.515  29.331  1.00  0.00     0.029 A 
ATOM     53  C   UNL A   1      44.609  27.108  30.540  1.00  0.00     0.049 A 
ATOM     54  H   UNL A   1      43.225  25.559  30.877  1.00  0.00     0.167 HD
ATOM     55  C   UNL A   1      44.615  28.805  32.277  1.00  0.00     0.074 A 
ATOM     56  C   UNL A   1      44.873  29.646  33.438  1.00  0.00     0.031 C 
ATOM     57  C   UNL A   1      44.821  27.493  31.947  1.00  0.00     0.034 A 
BRANCH  44  58
ATOM     58  C   UNL A   1      42.672  24.026  27.181  1.00  0.00     0.023 A 
ATOM     59  C   UNL A   1      43.344  24.424  26.007  1.00  0.00     0.012 A 
ATOM     60  C   UNL A   1      42.157  22.696  27.165  1.00  0.00     0.148 A 
ATOM     61  C   UNL A   1      43.528  23.565  24.915  1.00  0.00     0.002 A 
ATOM     62  C   UNL A   1      42.423  21.808  26.117  1.00  0.00     0.091 A 
ATOM     63  F   UNL A   1      41.303  22.285  28.105  1.00  0.00    -0.205 F 
ATOM     64  C   UNL A   1      43.099  22.247  24.980  1.00  0.00     0.022 A 
BRANCH  62  65
ATOM     65  S   UNL A   1      41.952  20.063  26.164  1.00  0.00     0.127 S 
ATOM     66  O   UNL A   1      42.408  19.653  27.492  1.00  0.00    -0.237 OA
ATOM     67  O   UNL A   1      40.497  20.131  26.018  1.00  0.00    -0.237 OA
ATOM     68  O   UNL A   1      42.640  19.417  25.052  1.00  0.00    -0.744 OA
ENDBRANCH  62  65
ENDBRANCH  44  58
BRANCH  45  69
ATOM     69  C   UNL A   1      41.578  32.556  32.144  1.00  0.00     0.023 A 
ATOM     70  C   UNL A   1      41.256  33.798  31.544  1.00  0.00     0.012 A 
ATOM     71  C   UNL A   1      40.631  31.961  33.003  1.00  0.00     0.148 A 
ATOM     72  C   UNL A   1      39.992  34.376  31.704  1.00  0.00     0.002 A 
ATOM     73  C   UNL A   1      39.349  32.509  33.098  1.00  0.00     0.091 A 
ATOM     74  F   UNL A   1      40.956  30.813  33.609  1.00  0.00    -0.205 F 
ATOM     75  C   UNL A   1      39.027  33.710  32.447  1.00  0.00     0.022 A 
BRANCH  73  76
ATOM     76  S   UNL A   1      37.959  31.627  33.831  1.00  0.00     0.127 S 
ATOM     77  O   UNL A   1      38.414  31.437  35.205  1.00  0.00    -0.237 OA
ATOM     78  O   UNL A   1      36.879  32.602  33.669  1.00  0.00    -0.237 OA
ATOM     79  O   UNL A   1      37.802  30.415  33.044  1.00  0.00    -0.744 OA
ENDBRANCH  73  76
ENDBRANCH  45  69
BRANCH  57  80
ATOM     80  C   UNL A   1      45.203  26.444  32.968  1.00  0.00     0.023 A 
ATOM     81  C   UNL A   1      46.526  25.975  33.097  1.00  0.00     0.012 A 
ATOM     82  C   UNL A   1      44.280  26.018  33.951  1.00  0.00     0.148 A 
ATOM     83  C   UNL A   1      46.898  25.063  34.085  1.00  0.00     0.002 A 
ATOM     84  C   UNL A   1      44.689  25.226  35.017  1.00  0.00     0.091 A 
ATOM     85  F   UNL A   1      42.988  26.363  33.855  1.00  0.00    -0.205 F 
ATOM     86  C   UNL A   1      45.984  24.706  35.063  1.00  0.00     0.022 A 
BRANCH  84  87
ATOM     87  S   UNL A   1      43.635  24.999  36.453  1.00  0.00     0.127 S 
ATOM     88  O   UNL A   1      42.528  24.228  35.893  1.00  0.00    -0.237 OA
ATOM     89  O   UNL A   1      44.506  24.251  37.361  1.00  0.00    -0.237 OA
ATOM     90  O   UNL A   1      43.317  26.346  36.908  1.00  0.00    -0.744 OA
ENDBRANCH  84  87
ENDBRANCH  57  80
ENDBRANCH  31  32
ENDBRANCH  24  26
ENDBRANCH  23  24
ENDBRANCH  22  23
ENDBRANCH   1  22
TORSDOF 18
ENDMDL
MODEL 3
REMARK VINA RESULT:     -10.8      4.155     10.007
REMARK SMILES Cc1cccc([C@@H]2[NH2+][C@H](C(=O)OCCOCCOC(=O)c3ccc(-c4c5nc(c(-c6cccc(S(=O)(=O)[O-])c6F)c6ccc([nH]6)c(-c6cccc(S(=O)(=O)[O-])c6F)c6nc(c(-c7cccc(S(=O)(=O)[O-])c7F)c7ccc4[nH]7)C=C6)C=C5)cc3)CS2)c1
REMARK SMILES IDX 16 1 15 2 14 3 13 4 12 5 10 6 11 7 9 8 7 9 8 10 85 11 84 14
REMARK SMILES IDX 6 15 1 16 2 17 3 18 86 19 4 20 5 21 17 22 18 23 19 24 20 25
REMARK SMILES IDX 21 26 22 27 83 28 23 29 82 30 24 31 25 32 26 33 76 34 27 35
REMARK SMILES IDX 81 36 75 37 77 38 28 39 80 40 74 41 73 42 29 44 61 45 41 46
REMARK SMILES IDX 60 47 42 48 45 49 59 50 78 51 43 52 44 53 58 55 79 56 46 57
REMARK SMILES IDX 30 58 31 59 39 60 32 61 34 62 40 63 33 64 35 65 36 66 37 67
REMARK SMILES IDX 38 68 62 69 63 70 71 71 64 72 66 73 72 74 65 75 67 76 68 77
REMARK SMILES IDX 69 78 70 79 47 80 48 81 56 82 49 83 51 84 57 85 50 86 52 87
REMARK SMILES IDX 53 88 54 89 55 90
REMARK H PARENT 8 12 8 13 77 43 45 54
REMARK Flexibility Score: inf
ROOT
ATOM      1  C   UNL A   1      33.356  30.887  27.330  1.00  0.00     0.202 C 
ENDROOT
BRANCH   1   2
ATOM      2  O   UNL A   1      33.258  29.476  27.234  1.00  0.00    -0.374 OA
BRANCH   2   3
ATOM      3  C   UNL A   1      33.211  28.995  25.903  1.00  0.00     0.202 C 
BRANCH   3   4
ATOM      4  C   UNL A   1      33.594  27.545  25.898  1.00  0.00     0.261 C 
BRANCH   4   5
ATOM      5  O   UNL A   1      32.504  26.750  26.316  1.00  0.00    -0.459 OA
BRANCH   5   6
ATOM      6  C   UNL A   1      32.616  25.412  26.105  1.00  0.00     0.365 C 
ATOM      7  O   UNL A   1      33.614  24.737  26.145  1.00  0.00    -0.245 OA
BRANCH   6   8
ATOM      8  C   UNL A   1      31.195  24.865  25.973  1.00  0.00     0.304 C 
ATOM      9  C   UNL A   1      29.886  26.002  24.244  1.00  0.00     0.274 C 
ATOM     10  N   UNL A   1      30.213  25.964  25.683  1.00  0.00    -0.319 N 
ATOM     11  S   UNL A   1      30.666  24.628  23.383  1.00  0.00    -0.087 SA
ATOM     12  H   UNL A   1      29.359  25.800  26.216  1.00  0.00     0.348 HD
ATOM     13  H   UNL A   1      30.628  26.857  25.950  1.00  0.00     0.348 HD
ATOM     14  C   UNL A   1      31.133  23.779  24.916  1.00  0.00     0.153 C 
BRANCH   9  15
ATOM     15  C   UNL A   1      30.031  27.390  23.610  1.00  0.00     0.020 A 
ATOM     16  C   UNL A   1      27.817  30.092  22.024  1.00  0.00     0.044 C 
ATOM     17  C   UNL A   1      29.045  29.378  22.528  1.00  0.00    -0.051 A 
ATOM     18  C   UNL A   1      30.291  29.721  22.013  1.00  0.00     0.003 A 
ATOM     19  C   UNL A   1      28.958  28.274  23.397  1.00  0.00     0.014 A 
ATOM     20  C   UNL A   1      31.409  28.958  22.338  1.00  0.00     0.001 A 
ATOM     21  C   UNL A   1      31.274  27.786  23.093  1.00  0.00     0.011 A 
ENDBRANCH   9  15
ENDBRANCH   6   8
ENDBRANCH   5   6
ENDBRANCH   4   5
ENDBRANCH   3   4
ENDBRANCH   2   3
ENDBRANCH   1   2
BRANCH   1  22
ATOM     22  C   UNL A   1      34.762  31.429  27.658  1.00  0.00     0.261 C 
BRANCH  22  23
ATOM     23  O   UNL A   1      34.720  32.859  27.842  1.00  0.00    -0.460 OA
BRANCH  23  24
ATOM     24  C   UNL A   1      34.606  33.298  29.132  1.00  0.00     0.338 C 
ATOM     25  O   UNL A   1      33.646  33.909  29.570  1.00  0.00    -0.246 OA
BRANCH  24  26
ATOM     26  C   UNL A   1      35.933  33.175  29.809  1.00  0.00     0.060 A 
ATOM     27  C   UNL A   1      37.119  33.525  29.132  1.00  0.00     0.016 A 
ATOM     28  C   UNL A   1      35.997  32.387  30.955  1.00  0.00     0.016 A 
ATOM     29  C   UNL A   1      38.345  32.954  29.504  1.00  0.00     0.010 A 
ATOM     30  C   UNL A   1      37.175  31.740  31.239  1.00  0.00     0.010 A 
ATOM     31  C   UNL A   1      38.350  31.994  30.500  1.00  0.00    -0.014 A 
BRANCH  31  32
ATOM     32  C   UNL A   1      39.485  31.183  30.939  1.00  0.00     0.031 A 
ATOM     33  C   UNL A   1      39.542  29.831  30.331  1.00  0.00     0.074 A 
ATOM     34  C   UNL A   1      40.580  31.723  31.537  1.00  0.00     0.049 A 
ATOM     35  N   UNL A   1      40.389  28.924  30.667  1.00  0.00    -0.248 NA
ATOM     36  C   UNL A   1      38.577  29.355  29.325  1.00  0.00     0.031 C 
ATOM     37  C   UNL A   1      41.968  31.306  31.312  1.00  0.00     0.029 A 
ATOM     38  N   UNL A   1      40.752  32.802  32.398  1.00  0.00    -0.354 N 
ATOM     39  C   UNL A   1      40.350  27.990  29.657  1.00  0.00     0.074 A 
ATOM     40  C   UNL A   1      39.071  28.152  29.034  1.00  0.00     0.031 C 
ATOM     41  C   UNL A   1      42.782  31.960  32.160  1.00  0.00     0.029 A 
ATOM     42  C   UNL A   1      41.943  32.677  33.102  1.00  0.00     0.049 A 
ATOM     43  H   UNL A   1      40.118  33.549  32.493  1.00  0.00     0.167 HD
ATOM     44  C   UNL A   1      41.506  27.367  29.310  1.00  0.00     0.034 A 
ATOM     45  C   UNL A   1      42.019  32.616  34.467  1.00  0.00     0.034 A 
ATOM     46  C   UNL A   1      42.565  27.644  30.308  1.00  0.00     0.049 A 
ATOM     47  C   UNL A   1      42.541  31.254  34.895  1.00  0.00     0.074 A 
ATOM     48  C   UNL A   1      43.767  28.328  30.273  1.00  0.00     0.029 A 
ATOM     49  N   UNL A   1      42.289  27.436  31.666  1.00  0.00    -0.354 N 
ATOM     50  N   UNL A   1      42.810  30.313  34.032  1.00  0.00    -0.248 NA
ATOM     51  C   UNL A   1      42.811  30.813  36.261  1.00  0.00     0.031 C 
ATOM     52  C   UNL A   1      44.156  28.608  31.622  1.00  0.00     0.029 A 
ATOM     53  C   UNL A   1      43.224  28.053  32.487  1.00  0.00     0.049 A 
ATOM     54  H   UNL A   1      41.523  26.915  31.999  1.00  0.00     0.167 HD
ATOM     55  C   UNL A   1      43.080  29.142  34.654  1.00  0.00     0.074 A 
ATOM     56  C   UNL A   1      43.164  29.529  36.056  1.00  0.00     0.031 C 
ATOM     57  C   UNL A   1      43.106  27.966  33.954  1.00  0.00     0.034 A 
BRANCH  44  58
ATOM     58  C   UNL A   1      41.734  26.664  27.973  1.00  0.00     0.023 A 
ATOM     59  C   UNL A   1      41.640  27.461  26.814  1.00  0.00     0.012 A 
ATOM     60  C   UNL A   1      41.983  25.279  27.740  1.00  0.00     0.148 A 
ATOM     61  C   UNL A   1      41.816  26.941  25.524  1.00  0.00     0.002 A 
ATOM     62  C   UNL A   1      42.254  24.777  26.462  1.00  0.00     0.091 A 
ATOM     63  F   UNL A   1      41.855  24.388  28.726  1.00  0.00    -0.205 F 
ATOM     64  C   UNL A   1      42.156  25.607  25.347  1.00  0.00     0.022 A 
BRANCH  62  65
ATOM     65  S   UNL A   1      42.767  23.068  26.166  1.00  0.00     0.127 S 
ATOM     66  O   UNL A   1      43.029  23.067  24.727  1.00  0.00    -0.237 OA
ATOM     67  O   UNL A   1      43.964  22.955  27.000  1.00  0.00    -0.237 OA
ATOM     68  O   UNL A   1      41.656  22.223  26.588  1.00  0.00    -0.744 OA
ENDBRANCH  62  65
ENDBRANCH  44  58
BRANCH  45  69
ATOM     69  C   UNL A   1      41.007  33.472  35.164  1.00  0.00     0.023 A 
ATOM     70  C   UNL A   1      41.249  34.868  35.152  1.00  0.00     0.012 A 
ATOM     71  C   UNL A   1      39.686  33.023  35.368  1.00  0.00     0.148 A 
ATOM     72  C   UNL A   1      40.198  35.788  35.230  1.00  0.00     0.002 A 
ATOM     73  C   UNL A   1      38.637  33.947  35.372  1.00  0.00     0.091 A 
ATOM     74  F   UNL A   1      39.466  31.704  35.429  1.00  0.00    -0.205 F 
ATOM     75  C   UNL A   1      38.891  35.326  35.298  1.00  0.00     0.022 A 
BRANCH  73  76
ATOM     76  S   UNL A   1      36.908  33.467  35.220  1.00  0.00     0.127 S 
ATOM     77  O   UNL A   1      37.016  32.137  34.626  1.00  0.00    -0.237 OA
ATOM     78  O   UNL A   1      36.479  33.483  36.619  1.00  0.00    -0.237 OA
ATOM     79  O   UNL A   1      36.288  34.483  34.386  1.00  0.00    -0.744 OA
ENDBRANCH  73  76
ENDBRANCH  45  69
BRANCH  57  80
ATOM     80  C   UNL A   1      42.972  26.615  34.622  1.00  0.00     0.023 A 
ATOM     81  C   UNL A   1      41.747  26.162  35.153  1.00  0.00     0.012 A 
ATOM     82  C   UNL A   1      44.032  25.679  34.586  1.00  0.00     0.148 A 
ATOM     83  C   UNL A   1      41.601  24.889  35.704  1.00  0.00     0.002 A 
ATOM     84  C   UNL A   1      43.839  24.368  35.001  1.00  0.00     0.091 A 
ATOM     85  F   UNL A   1      45.247  26.055  34.163  1.00  0.00    -0.205 F 
ATOM     86  C   UNL A   1      42.642  23.980  35.605  1.00  0.00     0.022 A 
BRANCH  84  87
ATOM     87  S   UNL A   1      45.040  23.092  34.610  1.00  0.00     0.127 S 
ATOM     88  O   UNL A   1      46.132  23.418  35.523  1.00  0.00    -0.237 OA
ATOM     89  O   UNL A   1      44.311  21.867  34.941  1.00  0.00    -0.237 OA
ATOM     90  O   UNL A   1      45.318  23.254  33.190  1.00  0.00    -0.744 OA
ENDBRANCH  84  87
ENDBRANCH  57  80
ENDBRANCH  31  32
ENDBRANCH  24  26
ENDBRANCH  23  24
ENDBRANCH  22  23
ENDBRANCH   1  22
TORSDOF 18
ENDMDL
