MODEL 1
REMARK VINA RESULT:     -12.0      0.000      0.000
REMARK SMILES COc1ccc(F)c(NC(=O)N2CCCC[C@@H]2C(=O)OCCOCCOC(=O)c2ccc(-c3c4nc(c(-c5cccc(S(=O)(=O)[O-])c5F)c5ccc([nH]5)c(-c5cccc(S(=O)(=O)[O-])c5F)c5nc(c(-c6cccc(S(=O)(=O)[O-])c6F)c6ccc3[nH]6)C=C5)C=C4)cc2)c1
REMARK SMILES IDX 23 1 22 2 21 3 20 4 18 5 19 6 17 7 12 8 13 9 14 10 16 11
REMARK SMILES IDX 15 12 10 13 9 14 11 16 8 17 3 18 4 19 92 20 5 21 6 22 7 23
REMARK SMILES IDX 2 24 1 25 24 26 25 27 26 28 27 29 28 30 29 31 30 32 91 33
REMARK SMILES IDX 31 34 90 35 32 36 33 37 34 38 84 39 35 40 89 41 83 42 85 43
REMARK SMILES IDX 36 44 88 45 82 46 81 47 37 49 69 50 49 51 68 52 50 53 53 54
REMARK SMILES IDX 67 55 86 56 51 57 52 58 66 60 87 61 54 62 38 63 39 64 47 65
REMARK SMILES IDX 40 66 42 67 48 68 41 69 43 70 44 71 45 72 46 73 70 74 71 75
REMARK SMILES IDX 79 76 72 77 74 78 80 79 73 80 75 81 76 82 77 83 78 84 55 85
REMARK SMILES IDX 56 86 64 87 57 88 59 89 65 90 58 91 60 92 61 93 62 94 63 95
REMARK H PARENT 9 15 85 48 53 59
REMARK Flexibility Score: inf
ROOT
ATOM      1  O   UNL A   1      34.752  22.313  24.888  1.00  0.00    -0.374 OA
ENDROOT
BRANCH   1   2
ATOM      2  C   UNL A   1      35.214  23.647  24.700  1.00  0.00     0.202 C 
BRANCH   2   3
ATOM      3  C   UNL A   1      34.372  24.692  23.942  1.00  0.00     0.261 C 
BRANCH   3   4
ATOM      4  O   UNL A   1      33.855  25.770  24.734  1.00  0.00    -0.462 OA
BRANCH   4   5
ATOM      5  C   UNL A   1      32.628  26.158  24.302  1.00  0.00     0.329 C 
ATOM      6  O   UNL A   1      32.072  25.593  23.367  1.00  0.00    -0.250 OA
BRANCH   5   7
ATOM      7  C   UNL A   1      31.956  27.277  25.122  1.00  0.00     0.196 C 
ATOM      8  N   UNL A   1      32.066  28.669  24.604  1.00  0.00    -0.311 N 
ATOM      9  C   UNL A   1      31.631  29.754  25.486  1.00  0.00     0.122 C 
ATOM     10  C   UNL A   1      31.989  29.590  26.955  1.00  0.00     0.022 C 
ATOM     11  C   UNL A   1      32.374  27.174  26.606  1.00  0.00     0.037 C 
ATOM     12  C   UNL A   1      31.638  28.200  27.456  1.00  0.00     0.005 C 
BRANCH   8  13
ATOM     13  C   UNL A   1      32.303  29.057  23.302  1.00  0.00     0.322 C 
ATOM     14  N   UNL A   1      31.319  29.135  22.377  1.00  0.00    -0.305 N 
ATOM     15  H   UNL A   1      31.630  28.970  21.457  1.00  0.00     0.171 HD
ATOM     16  O   UNL A   1      33.445  29.330  22.926  1.00  0.00    -0.248 OA
BRANCH  14  17
ATOM     17  C   UNL A   1      29.940  29.404  22.464  1.00  0.00     0.082 A 
ATOM     18  C   UNL A   1      28.097  30.911  22.862  1.00  0.00     0.121 A 
ATOM     19  C   UNL A   1      27.277  29.839  23.220  1.00  0.00     0.049 A 
ATOM     20  C   UNL A   1      29.401  30.688  22.409  1.00  0.00     0.075 A 
ATOM     21  C   UNL A   1      27.767  28.536  23.133  1.00  0.00     0.045 A 
ATOM     22  C   UNL A   1      29.089  28.325  22.749  1.00  0.00     0.147 A 
ATOM     23  F   UNL A   1      29.577  27.074  22.769  1.00  0.00    -0.205 F 
BRANCH  18  24
ATOM     24  O   UNL A   1      27.701  32.219  22.951  1.00  0.00    -0.497 OA
ATOM     25  C   UNL A   1      28.779  33.134  22.750  1.00  0.00     0.278 C 
ENDBRANCH  18  24
ENDBRANCH  14  17
ENDBRANCH   8  13
ENDBRANCH   5   7
ENDBRANCH   4   5
ENDBRANCH   3   4
ENDBRANCH   2   3
ENDBRANCH   1   2
BRANCH   1  26
ATOM     26  C   UNL A   1      35.514  21.397  25.669  1.00  0.00     0.202 C 
BRANCH  26  27
ATOM     27  C   UNL A   1      36.630  20.584  25.009  1.00  0.00     0.261 C 
BRANCH  27  28
ATOM     28  O   UNL A   1      37.845  21.333  24.859  1.00  0.00    -0.460 OA
BRANCH  28  29
ATOM     29  C   UNL A   1      38.815  20.998  25.743  1.00  0.00     0.338 C 
ATOM     30  O   UNL A   1      39.356  19.903  25.865  1.00  0.00    -0.246 OA
BRANCH  29  31
ATOM     31  C   UNL A   1      39.323  22.206  26.408  1.00  0.00     0.060 A 
ATOM     32  C   UNL A   1      38.719  23.427  26.075  1.00  0.00     0.016 A 
ATOM     33  C   UNL A   1      40.410  22.157  27.279  1.00  0.00     0.016 A 
ATOM     34  C   UNL A   1      39.237  24.615  26.571  1.00  0.00     0.010 A 
ATOM     35  C   UNL A   1      40.945  23.356  27.758  1.00  0.00     0.010 A 
ATOM     36  C   UNL A   1      40.386  24.586  27.369  1.00  0.00    -0.014 A 
BRANCH  36  37
ATOM     37  C   UNL A   1      41.101  25.854  27.632  1.00  0.00     0.031 A 
ATOM     38  C   UNL A   1      40.385  26.932  28.396  1.00  0.00     0.074 A 
ATOM     39  C   UNL A   1      42.375  26.017  27.236  1.00  0.00     0.049 A 
ATOM     40  N   UNL A   1      40.806  28.122  28.731  1.00  0.00    -0.248 NA
ATOM     41  C   UNL A   1      39.015  26.630  28.849  1.00  0.00     0.031 C 
ATOM     42  C   UNL A   1      43.170  25.020  26.521  1.00  0.00     0.029 A 
ATOM     43  N   UNL A   1      43.218  27.089  27.373  1.00  0.00    -0.354 N 
ATOM     44  C   UNL A   1      39.750  28.719  29.408  1.00  0.00     0.074 A 
ATOM     45  C   UNL A   1      38.663  27.768  29.434  1.00  0.00     0.031 C 
ATOM     46  C   UNL A   1      44.382  25.538  26.258  1.00  0.00     0.029 A 
ATOM     47  C   UNL A   1      44.437  26.908  26.763  1.00  0.00     0.049 A 
ATOM     48  H   UNL A   1      42.974  27.909  27.860  1.00  0.00     0.167 HD
ATOM     49  C   UNL A   1      39.701  29.947  29.974  1.00  0.00     0.034 A 
ATOM     50  C   UNL A   1      45.469  27.763  26.614  1.00  0.00     0.034 A 
ATOM     51  C   UNL A   1      40.798  30.874  29.968  1.00  0.00     0.049 A 
ATOM     52  C   UNL A   1      45.370  29.139  27.223  1.00  0.00     0.074 A 
ATOM     53  C   UNL A   1      40.857  32.131  30.540  1.00  0.00     0.029 A 
ATOM     54  N   UNL A   1      42.023  30.648  29.362  1.00  0.00    -0.354 N 
ATOM     55  N   UNL A   1      44.399  29.658  27.935  1.00  0.00    -0.248 NA
ATOM     56  C   UNL A   1      46.520  30.036  27.035  1.00  0.00     0.031 C 
ATOM     57  C   UNL A   1      42.109  32.679  30.255  1.00  0.00     0.029 A 
ATOM     58  C   UNL A   1      42.843  31.748  29.537  1.00  0.00     0.049 A 
ATOM     59  H   UNL A   1      42.272  29.829  28.878  1.00  0.00     0.167 HD
ATOM     60  C   UNL A   1      44.835  30.923  28.312  1.00  0.00     0.074 A 
ATOM     61  C   UNL A   1      46.164  31.088  27.762  1.00  0.00     0.031 C 
ATOM     62  C   UNL A   1      44.188  31.868  29.037  1.00  0.00     0.034 A 
BRANCH  49  63
ATOM     63  C   UNL A   1      38.439  30.360  30.679  1.00  0.00     0.023 A 
ATOM     64  C   UNL A   1      38.302  30.115  32.059  1.00  0.00     0.012 A 
ATOM     65  C   UNL A   1      37.450  31.099  30.003  1.00  0.00     0.148 A 
ATOM     66  C   UNL A   1      37.194  30.596  32.756  1.00  0.00     0.002 A 
ATOM     67  C   UNL A   1      36.371  31.614  30.713  1.00  0.00     0.091 A 
ATOM     68  F   UNL A   1      37.592  31.301  28.685  1.00  0.00    -0.205 F 
ATOM     69  C   UNL A   1      36.239  31.356  32.087  1.00  0.00     0.022 A 
BRANCH  67  70
ATOM     70  S   UNL A   1      35.131  32.676  29.964  1.00  0.00     0.127 S 
ATOM     71  O   UNL A   1      35.952  33.780  29.465  1.00  0.00    -0.237 OA
ATOM     72  O   UNL A   1      34.577  31.811  28.924  1.00  0.00    -0.237 OA
ATOM     73  O   UNL A   1      34.203  33.028  31.028  1.00  0.00    -0.744 OA
ENDBRANCH  67  70
ENDBRANCH  49  63
BRANCH  50  74
ATOM     74  C   UNL A   1      46.694  27.330  25.886  1.00  0.00     0.023 A 
ATOM     75  C   UNL A   1      46.807  27.575  24.505  1.00  0.00     0.012 A 
ATOM     76  C   UNL A   1      47.759  26.701  26.560  1.00  0.00     0.148 A 
ATOM     77  C   UNL A   1      47.946  27.181  23.802  1.00  0.00     0.002 A 
ATOM     78  C   UNL A   1      48.914  26.362  25.866  1.00  0.00     0.091 A 
ATOM     79  F   UNL A   1      47.625  26.456  27.872  1.00  0.00    -0.205 F 
ATOM     80  C   UNL A   1      49.004  26.586  24.484  1.00  0.00     0.022 A 
BRANCH  78  81
ATOM     81  S   UNL A   1      50.374  25.713  26.688  1.00  0.00     0.127 S 
ATOM     82  O   UNL A   1      51.308  25.574  25.575  1.00  0.00    -0.237 OA
ATOM     83  O   UNL A   1      50.692  26.787  27.630  1.00  0.00    -0.237 OA
ATOM     84  O   UNL A   1      49.949  24.470  27.318  1.00  0.00    -0.744 OA
ENDBRANCH  78  81
ENDBRANCH  50  74
BRANCH  62  85
ATOM     85  C   UNL A   1      44.905  33.160  29.326  1.00  0.00     0.023 A 
ATOM     86  C   UNL A   1      45.783  33.243  30.424  1.00  0.00     0.012 A 
ATOM     87  C   UNL A   1      44.810  34.244  28.429  1.00  0.00     0.148 A 
ATOM     88  C   UNL A   1      46.543  34.393  30.635  1.00  0.00     0.002 A 
ATOM     89  C   UNL A   1      45.610  35.365  28.617  1.00  0.00     0.091 A 
ATOM     90  F   UNL A   1      43.959  34.147  27.398  1.00  0.00    -0.205 F 
ATOM     91  C   UNL A   1      46.468  35.445  29.724  1.00  0.00     0.022 A 
BRANCH  89  92
ATOM     92  S   UNL A   1      45.664  36.720  27.439  1.00  0.00     0.127 S 
ATOM     93  O   UNL A   1      46.497  36.158  26.377  1.00  0.00    -0.237 OA
ATOM     94  O   UNL A   1      44.253  36.880  27.087  1.00  0.00    -0.237 OA
ATOM     95  O   UNL A   1      46.242  37.851  28.151  1.00  0.00    -0.744 OA
ENDBRANCH  89  92
ENDBRANCH  62  85
ENDBRANCH  36  37
ENDBRANCH  29  31
ENDBRANCH  28  29
ENDBRANCH  27  28
ENDBRANCH  26  27
ENDBRANCH   1  26
TORSDOF 20
ENDMDL
MODEL 2
REMARK VINA RESULT:     -11.5      5.030     10.611
REMARK SMILES COc1ccc(F)c(NC(=O)N2CCCC[C@@H]2C(=O)OCCOCCOC(=O)c2ccc(-c3c4nc(c(-c5cccc(S(=O)(=O)[O-])c5F)c5ccc([nH]5)c(-c5cccc(S(=O)(=O)[O-])c5F)c5nc(c(-c6cccc(S(=O)(=O)[O-])c6F)c6ccc3[nH]6)C=C5)C=C4)cc2)c1
REMARK SMILES IDX 23 1 22 2 21 3 20 4 18 5 19 6 17 7 12 8 13 9 14 10 16 11
REMARK SMILES IDX 15 12 10 13 9 14 11 16 8 17 3 18 4 19 92 20 5 21 6 22 7 23
REMARK SMILES IDX 2 24 1 25 24 26 25 27 26 28 27 29 28 30 29 31 30 32 91 33
REMARK SMILES IDX 31 34 90 35 32 36 33 37 34 38 84 39 35 40 89 41 83 42 85 43
REMARK SMILES IDX 36 44 88 45 82 46 81 47 37 49 69 50 49 51 68 52 50 53 53 54
REMARK SMILES IDX 67 55 86 56 51 57 52 58 66 60 87 61 54 62 38 63 39 64 47 65
REMARK SMILES IDX 40 66 42 67 48 68 41 69 43 70 44 71 45 72 46 73 70 74 71 75
REMARK SMILES IDX 79 76 72 77 74 78 80 79 73 80 75 81 76 82 77 83 78 84 55 85
REMARK SMILES IDX 56 86 64 87 57 88 59 89 65 90 58 91 60 92 61 93 62 94 63 95
REMARK H PARENT 9 15 85 48 53 59
REMARK Flexibility Score: inf
ROOT
ATOM      1  O   UNL A   1      32.305  28.637  26.546  1.00  0.00    -0.374 OA
ENDROOT
BRANCH   1   2
ATOM      2  C   UNL A   1      33.175  27.553  26.237  1.00  0.00     0.202 C 
BRANCH   2   3
ATOM      3  C   UNL A   1      32.630  26.191  25.765  1.00  0.00     0.261 C 
BRANCH   3   4
ATOM      4  O   UNL A   1      33.514  25.074  25.930  1.00  0.00    -0.462 OA
BRANCH   4   5
ATOM      5  C   UNL A   1      33.016  23.958  25.339  1.00  0.00     0.329 C 
ATOM      6  O   UNL A   1      31.808  23.770  25.244  1.00  0.00    -0.250 OA
BRANCH   5   7
ATOM      7  C   UNL A   1      34.061  23.007  24.723  1.00  0.00     0.196 C 
ATOM      8  N   UNL A   1      34.451  21.807  25.515  1.00  0.00    -0.311 N 
ATOM      9  C   UNL A   1      35.598  21.030  25.042  1.00  0.00     0.122 C 
ATOM     10  C   UNL A   1      36.764  21.843  24.500  1.00  0.00     0.022 C 
ATOM     11  C   UNL A   1      35.291  23.809  24.240  1.00  0.00     0.037 C 
ATOM     12  C   UNL A   1      36.289  22.908  23.528  1.00  0.00     0.005 C 
BRANCH   8  13
ATOM     13  C   UNL A   1      33.719  21.192  26.508  1.00  0.00     0.322 C 
ATOM     14  N   UNL A   1      32.816  20.217  26.248  1.00  0.00    -0.305 N 
ATOM     15  H   UNL A   1      32.076  20.183  26.896  1.00  0.00     0.171 HD
ATOM     16  O   UNL A   1      33.849  21.531  27.687  1.00  0.00    -0.248 OA
BRANCH  14  17
ATOM     17  C   UNL A   1      32.722  19.243  25.236  1.00  0.00     0.082 A 
ATOM     18  C   UNL A   1      33.314  17.098  24.301  1.00  0.00     0.121 A 
ATOM     19  C   UNL A   1      33.030  17.562  23.015  1.00  0.00     0.049 A 
ATOM     20  C   UNL A   1      33.086  17.909  25.417  1.00  0.00     0.075 A 
ATOM     21  C   UNL A   1      32.523  18.851  22.843  1.00  0.00     0.045 A 
ATOM     22  C   UNL A   1      32.364  19.678  23.952  1.00  0.00     0.147 A 
ATOM     23  F   UNL A   1      31.973  20.949  23.761  1.00  0.00    -0.205 F 
BRANCH  18  24
ATOM     24  O   UNL A   1      33.845  15.860  24.549  1.00  0.00    -0.497 OA
ATOM     25  C   UNL A   1      32.993  15.051  25.362  1.00  0.00     0.278 C 
ENDBRANCH  18  24
ENDBRANCH  14  17
ENDBRANCH   8  13
ENDBRANCH   5   7
ENDBRANCH   4   5
ENDBRANCH   3   4
ENDBRANCH   2   3
ENDBRANCH   1   2
BRANCH   1  26
ATOM     26  C   UNL A   1      32.257  29.778  25.694  1.00  0.00     0.202 C 
BRANCH  26  27
ATOM     27  C   UNL A   1      31.822  31.131  26.264  1.00  0.00     0.261 C 
BRANCH  27  28
ATOM     28  O   UNL A   1      32.395  31.396  27.553  1.00  0.00    -0.460 OA
BRANCH  28  29
ATOM     29  C   UNL A   1      33.254  32.442  27.574  1.00  0.00     0.338 C 
ATOM     30  O   UNL A   1      32.970  33.633  27.491  1.00  0.00    -0.246 OA
BRANCH  29  31
ATOM     31  C   UNL A   1      34.597  31.978  27.951  1.00  0.00     0.060 A 
ATOM     32  C   UNL A   1      34.740  30.623  28.285  1.00  0.00     0.016 A 
ATOM     33  C   UNL A   1      35.674  32.858  28.047  1.00  0.00     0.016 A 
ATOM     34  C   UNL A   1      35.951  30.153  28.771  1.00  0.00     0.010 A 
ATOM     35  C   UNL A   1      36.885  32.388  28.559  1.00  0.00     0.010 A 
ATOM     36  C   UNL A   1      37.011  31.047  28.962  1.00  0.00    -0.014 A 
BRANCH  36  37
ATOM     37  C   UNL A   1      38.177  30.607  29.759  1.00  0.00     0.031 A 
ATOM     38  C   UNL A   1      39.121  29.608  29.152  1.00  0.00     0.074 A 
ATOM     39  C   UNL A   1      38.408  31.123  30.978  1.00  0.00     0.049 A 
ATOM     40  N   UNL A   1      40.196  29.072  29.665  1.00  0.00    -0.248 NA
ATOM     41  C   UNL A   1      38.821  29.154  27.781  1.00  0.00     0.031 C 
ATOM     42  C   UNL A   1      37.573  32.123  31.642  1.00  0.00     0.029 A 
ATOM     43  N   UNL A   1      39.411  30.867  31.876  1.00  0.00    -0.354 N 
ATOM     44  C   UNL A   1      40.685  28.204  28.697  1.00  0.00     0.074 A 
ATOM     45  C   UNL A   1      39.789  28.274  27.566  1.00  0.00     0.031 C 
ATOM     46  C   UNL A   1      38.086  32.379  32.858  1.00  0.00     0.029 A 
ATOM     47  C   UNL A   1      39.267  31.543  33.065  1.00  0.00     0.049 A 
ATOM     48  H   UNL A   1      40.161  30.258  31.689  1.00  0.00     0.167 HD
ATOM     49  C   UNL A   1      41.793  27.431  28.744  1.00  0.00     0.034 A 
ATOM     50  C   UNL A   1      39.997  31.475  34.197  1.00  0.00     0.034 A 
ATOM     51  C   UNL A   1      42.693  27.391  29.862  1.00  0.00     0.049 A 
ATOM     52  C   UNL A   1      41.206  30.575  34.232  1.00  0.00     0.074 A 
ATOM     53  C   UNL A   1      43.861  26.661  29.994  1.00  0.00     0.029 A 
ATOM     54  N   UNL A   1      42.528  28.104  31.038  1.00  0.00    -0.354 N 
ATOM     55  N   UNL A   1      41.704  29.825  33.279  1.00  0.00    -0.248 NA
ATOM     56  C   UNL A   1      41.971  30.534  35.487  1.00  0.00     0.031 C 
ATOM     57  C   UNL A   1      44.388  26.912  31.262  1.00  0.00     0.029 A 
ATOM     58  C   UNL A   1      43.568  27.825  31.906  1.00  0.00     0.049 A 
ATOM     59  H   UNL A   1      41.782  28.717  31.227  1.00  0.00     0.167 HD
ATOM     60  C   UNL A   1      42.859  29.256  33.803  1.00  0.00     0.074 A 
ATOM     61  C   UNL A   1      42.995  29.758  35.155  1.00  0.00     0.031 C 
ATOM     62  C   UNL A   1      43.721  28.386  33.224  1.00  0.00     0.034 A 
BRANCH  49  63
ATOM     63  C   UNL A   1      42.127  26.584  27.546  1.00  0.00     0.023 A 
ATOM     64  C   UNL A   1      42.924  27.122  26.516  1.00  0.00     0.012 A 
ATOM     65  C   UNL A   1      41.758  25.227  27.503  1.00  0.00     0.148 A 
ATOM     66  C   UNL A   1      43.345  26.319  25.457  1.00  0.00     0.002 A 
ATOM     67  C   UNL A   1      42.218  24.422  26.467  1.00  0.00     0.091 A 
ATOM     68  F   UNL A   1      40.981  24.744  28.484  1.00  0.00    -0.205 F 
ATOM     69  C   UNL A   1      43.005  24.969  25.440  1.00  0.00     0.022 A 
BRANCH  67  70
ATOM     70  S   UNL A   1      41.908  22.654  26.398  1.00  0.00     0.127 S 
ATOM     71  O   UNL A   1      42.579  22.190  27.612  1.00  0.00    -0.237 OA
ATOM     72  O   UNL A   1      40.448  22.598  26.447  1.00  0.00    -0.237 OA
ATOM     73  O   UNL A   1      42.498  22.188  25.151  1.00  0.00    -0.744 OA
ENDBRANCH  67  70
ENDBRANCH  49  63
BRANCH  50  74
ATOM     74  C   UNL A   1      39.622  32.307  35.375  1.00  0.00     0.023 A 
ATOM     75  C   UNL A   1      38.868  31.738  36.418  1.00  0.00     0.012 A 
ATOM     76  C   UNL A   1      40.032  33.651  35.478  1.00  0.00     0.148 A 
ATOM     77  C   UNL A   1      38.508  32.497  37.532  1.00  0.00     0.002 A 
ATOM     78  C   UNL A   1      39.719  34.385  36.616  1.00  0.00     0.091 A 
ATOM     79  F   UNL A   1      40.731  34.182  34.465  1.00  0.00    -0.205 F 
ATOM     80  C   UNL A   1      38.942  33.815  37.636  1.00  0.00     0.022 A 
BRANCH  78  81
ATOM     81  S   UNL A   1      40.348  36.044  36.893  1.00  0.00     0.127 S 
ATOM     82  O   UNL A   1      39.837  36.757  35.725  1.00  0.00    -0.237 OA
ATOM     83  O   UNL A   1      39.710  36.401  38.161  1.00  0.00    -0.237 OA
ATOM     84  O   UNL A   1      41.796  35.907  36.968  1.00  0.00    -0.744 OA
ENDBRANCH  78  81
ENDBRANCH  50  74
BRANCH  62  85
ATOM     85  C   UNL A   1      44.921  27.937  34.015  1.00  0.00     0.023 A 
ATOM     86  C   UNL A   1      46.096  28.713  34.006  1.00  0.00     0.012 A 
ATOM     87  C   UNL A   1      44.833  26.820  34.871  1.00  0.00     0.148 A 
ATOM     88  C   UNL A   1      47.173  28.374  34.826  1.00  0.00     0.002 A 
ATOM     89  C   UNL A   1      45.889  26.520  35.723  1.00  0.00     0.091 A 
ATOM     90  F   UNL A   1      43.709  26.089  34.854  1.00  0.00    -0.205 F 
ATOM     91  C   UNL A   1      47.063  27.289  35.693  1.00  0.00     0.022 A 
BRANCH  89  92
ATOM     92  S   UNL A   1      45.798  25.213  36.951  1.00  0.00     0.127 S 
ATOM     93  O   UNL A   1      47.112  25.309  37.586  1.00  0.00    -0.237 OA
ATOM     94  O   UNL A   1      44.682  25.654  37.789  1.00  0.00    -0.237 OA
ATOM     95  O   UNL A   1      45.552  23.981  36.213  1.00  0.00    -0.744 OA
ENDBRANCH  89  92
ENDBRANCH  62  85
ENDBRANCH  36  37
ENDBRANCH  29  31
ENDBRANCH  28  29
ENDBRANCH  27  28
ENDBRANCH  26  27
ENDBRANCH   1  26
TORSDOF 20
ENDMDL
MODEL 3
REMARK VINA RESULT:     -11.4      5.151     10.480
REMARK SMILES COc1ccc(F)c(NC(=O)N2CCCC[C@@H]2C(=O)OCCOCCOC(=O)c2ccc(-c3c4nc(c(-c5cccc(S(=O)(=O)[O-])c5F)c5ccc([nH]5)c(-c5cccc(S(=O)(=O)[O-])c5F)c5nc(c(-c6cccc(S(=O)(=O)[O-])c6F)c6ccc3[nH]6)C=C5)C=C4)cc2)c1
REMARK SMILES IDX 23 1 22 2 21 3 20 4 18 5 19 6 17 7 12 8 13 9 14 10 16 11
REMARK SMILES IDX 15 12 10 13 9 14 11 16 8 17 3 18 4 19 92 20 5 21 6 22 7 23
REMARK SMILES IDX 2 24 1 25 24 26 25 27 26 28 27 29 28 30 29 31 30 32 91 33
REMARK SMILES IDX 31 34 90 35 32 36 33 37 34 38 84 39 35 40 89 41 83 42 85 43
REMARK SMILES IDX 36 44 88 45 82 46 81 47 37 49 69 50 49 51 68 52 50 53 53 54
REMARK SMILES IDX 67 55 86 56 51 57 52 58 66 60 87 61 54 62 38 63 39 64 47 65
REMARK SMILES IDX 40 66 42 67 48 68 41 69 43 70 44 71 45 72 46 73 70 74 71 75
REMARK SMILES IDX 79 76 72 77 74 78 80 79 73 80 75 81 76 82 77 83 78 84 55 85
REMARK SMILES IDX 56 86 64 87 57 88 59 89 65 90 58 91 60 92 61 93 62 94 63 95
REMARK H PARENT 9 15 85 48 53 59
REMARK Flexibility Score: inf
ROOT
ATOM      1  O   UNL A   1      32.084  30.238  26.812  1.00  0.00    -0.374 OA
ENDROOT
BRANCH   1   2
ATOM      2  C   UNL A   1      33.383  29.889  26.345  1.00  0.00     0.202 C 
BRANCH   2   3
ATOM      3  C   UNL A   1      33.713  28.460  25.873  1.00  0.00     0.261 C 
BRANCH   3   4
ATOM      4  O   UNL A   1      34.073  28.326  24.492  1.00  0.00    -0.462 OA
BRANCH   4   5
ATOM      5  C   UNL A   1      32.979  28.133  23.711  1.00  0.00     0.329 C 
ATOM      6  O   UNL A   1      32.747  28.853  22.747  1.00  0.00    -0.250 OA
BRANCH   5   7
ATOM      7  C   UNL A   1      32.118  26.903  24.064  1.00  0.00     0.196 C 
ATOM      8  N   UNL A   1      32.344  25.658  23.278  1.00  0.00    -0.311 N 
ATOM      9  C   UNL A   1      31.383  24.567  23.452  1.00  0.00     0.122 C 
ATOM     10  C   UNL A   1      29.927  24.987  23.577  1.00  0.00     0.022 C 
ATOM     11  C   UNL A   1      30.624  27.296  24.115  1.00  0.00     0.037 C 
ATOM     12  C   UNL A   1      29.764  26.125  24.568  1.00  0.00     0.005 C 
BRANCH   8  13
ATOM     13  C   UNL A   1      33.482  25.307  22.584  1.00  0.00     0.322 C 
ATOM     14  N   UNL A   1      34.494  24.611  23.151  1.00  0.00    -0.305 N 
ATOM     15  H   UNL A   1      35.375  24.808  22.759  1.00  0.00     0.171 HD
ATOM     16  O   UNL A   1      33.627  25.640  21.405  1.00  0.00    -0.248 OA
BRANCH  14  17
ATOM     17  C   UNL A   1      34.541  23.663  24.191  1.00  0.00     0.082 A 
ATOM     18  C   UNL A   1      34.136  21.446  25.055  1.00  0.00     0.121 A 
ATOM     19  C   UNL A   1      34.072  21.948  26.357  1.00  0.00     0.049 A 
ATOM     20  C   UNL A   1      34.449  22.288  23.983  1.00  0.00     0.075 A 
ATOM     21  C   UNL A   1      34.312  23.303  26.587  1.00  0.00     0.045 A 
ATOM     22  C   UNL A   1      34.553  24.148  25.507  1.00  0.00     0.147 A 
ATOM     23  F   UNL A   1      34.681  25.466  25.733  1.00  0.00    -0.205 F 
BRANCH  18  24
ATOM     24  O   UNL A   1      33.881  20.137  24.744  1.00  0.00    -0.497 OA
ATOM     25  C   UNL A   1      32.485  19.833  24.755  1.00  0.00     0.278 C 
ENDBRANCH  18  24
ENDBRANCH  14  17
ENDBRANCH   8  13
ENDBRANCH   5   7
ENDBRANCH   4   5
ENDBRANCH   3   4
ENDBRANCH   2   3
ENDBRANCH   1   2
BRANCH   1  26
ATOM     26  C   UNL A   1      31.413  31.373  26.273  1.00  0.00     0.202 C 
BRANCH  26  27
ATOM     27  C   UNL A   1      31.576  32.739  26.945  1.00  0.00     0.261 C 
BRANCH  27  28
ATOM     28  O   UNL A   1      32.908  33.258  26.823  1.00  0.00    -0.460 OA
BRANCH  28  29
ATOM     29  C   UNL A   1      33.418  33.752  27.976  1.00  0.00     0.338 C 
ATOM     30  O   UNL A   1      32.878  34.543  28.743  1.00  0.00    -0.246 OA
BRANCH  29  31
ATOM     31  C   UNL A   1      34.646  33.026  28.331  1.00  0.00     0.060 A 
ATOM     32  C   UNL A   1      34.500  31.748  28.890  1.00  0.00     0.016 A 
ATOM     33  C   UNL A   1      35.905  33.607  28.189  1.00  0.00     0.016 A 
ATOM     34  C   UNL A   1      35.612  31.066  29.363  1.00  0.00     0.010 A 
ATOM     35  C   UNL A   1      37.020  32.929  28.687  1.00  0.00     0.010 A 
ATOM     36  C   UNL A   1      36.869  31.679  29.313  1.00  0.00    -0.014 A 
BRANCH  36  37
ATOM     37  C   UNL A   1      37.980  31.086  30.088  1.00  0.00     0.031 A 
ATOM     38  C   UNL A   1      38.860  30.071  29.413  1.00  0.00     0.074 A 
ATOM     39  C   UNL A   1      38.222  31.480  31.349  1.00  0.00     0.049 A 
ATOM     40  N   UNL A   1      39.880  29.413  29.896  1.00  0.00    -0.248 NA
ATOM     41  C   UNL A   1      38.556  29.757  28.005  1.00  0.00     0.031 C 
ATOM     42  C   UNL A   1      37.451  32.483  32.083  1.00  0.00     0.029 A 
ATOM     43  N   UNL A   1      39.183  31.074  32.239  1.00  0.00    -0.354 N 
ATOM     44  C   UNL A   1      40.322  28.593  28.866  1.00  0.00     0.074 A 
ATOM     45  C   UNL A   1      39.459  28.826  27.731  1.00  0.00     0.031 C 
ATOM     46  C   UNL A   1      37.955  32.596  33.323  1.00  0.00     0.029 A 
ATOM     47  C   UNL A   1      39.064  31.658  33.478  1.00  0.00     0.049 A 
ATOM     48  H   UNL A   1      39.889  30.427  32.013  1.00  0.00     0.167 HD
ATOM     49  C   UNL A   1      41.368  27.736  28.865  1.00  0.00     0.034 A 
ATOM     50  C   UNL A   1      39.762  31.440  34.611  1.00  0.00     0.034 A 
ATOM     51  C   UNL A   1      42.237  27.534  29.990  1.00  0.00     0.049 A 
ATOM     52  C   UNL A   1      40.898  30.450  34.589  1.00  0.00     0.074 A 
ATOM     53  C   UNL A   1      43.343  26.708  30.078  1.00  0.00     0.029 A 
ATOM     54  N   UNL A   1      42.100  28.158  31.219  1.00  0.00    -0.354 N 
ATOM     55  N   UNL A   1      41.360  29.745  33.584  1.00  0.00    -0.248 NA
ATOM     56  C   UNL A   1      41.630  30.246  35.848  1.00  0.00     0.031 C 
ATOM     57  C   UNL A   1      43.859  26.811  31.371  1.00  0.00     0.029 A 
ATOM     58  C   UNL A   1      43.097  27.728  32.077  1.00  0.00     0.049 A 
ATOM     59  H   UNL A   1      41.399  28.808  31.448  1.00  0.00     0.167 HD
ATOM     60  C   UNL A   1      42.456  29.047  34.076  1.00  0.00     0.074 A 
ATOM     61  C   UNL A   1      42.600  29.423  35.468  1.00  0.00     0.031 C 
ATOM     62  C   UNL A   1      43.263  28.164  33.439  1.00  0.00     0.034 A 
BRANCH  49  63
ATOM     63  C   UNL A   1      41.663  26.968  27.605  1.00  0.00     0.023 A 
ATOM     64  C   UNL A   1      42.242  27.633  26.506  1.00  0.00     0.012 A 
ATOM     65  C   UNL A   1      41.484  25.573  27.558  1.00  0.00     0.148 A 
ATOM     66  C   UNL A   1      42.634  26.919  25.375  1.00  0.00     0.002 A 
ATOM     67  C   UNL A   1      41.918  24.862  26.445  1.00  0.00     0.091 A 
ATOM     68  F   UNL A   1      40.911  24.966  28.608  1.00  0.00    -0.205 F 
ATOM     69  C   UNL A   1      42.486  25.535  25.351  1.00  0.00     0.022 A 
BRANCH  67  70
ATOM     70  S   UNL A   1      41.851  23.070  26.349  1.00  0.00     0.127 S 
ATOM     71  O   UNL A   1      42.622  22.683  27.531  1.00  0.00    -0.237 OA
ATOM     72  O   UNL A   1      40.415  22.813  26.447  1.00  0.00    -0.237 OA
ATOM     73  O   UNL A   1      42.454  22.710  25.074  1.00  0.00    -0.744 OA
ENDBRANCH  67  70
ENDBRANCH  49  63
BRANCH  50  74
ATOM     74  C   UNL A   1      39.425  32.198  35.849  1.00  0.00     0.023 A 
ATOM     75  C   UNL A   1      39.986  33.470  36.061  1.00  0.00     0.012 A 
ATOM     76  C   UNL A   1      38.530  31.674  36.803  1.00  0.00     0.148 A 
ATOM     77  C   UNL A   1      39.682  34.199  37.212  1.00  0.00     0.002 A 
ATOM     78  C   UNL A   1      38.188  32.429  37.918  1.00  0.00     0.091 A 
ATOM     79  F   UNL A   1      38.022  30.450  36.594  1.00  0.00    -0.205 F 
ATOM     80  C   UNL A   1      38.776  33.685  38.133  1.00  0.00     0.022 A 
BRANCH  78  81
ATOM     81  S   UNL A   1      36.931  31.900  39.088  1.00  0.00     0.127 S 
ATOM     82  O   UNL A   1      36.851  30.468  38.815  1.00  0.00    -0.237 OA
ATOM     83  O   UNL A   1      37.544  32.251  40.369  1.00  0.00    -0.237 OA
ATOM     84  O   UNL A   1      35.741  32.675  38.760  1.00  0.00    -0.744 OA
ENDBRANCH  78  81
ENDBRANCH  50  74
BRANCH  62  85
ATOM     85  C   UNL A   1      44.408  27.559  34.208  1.00  0.00     0.023 A 
ATOM     86  C   UNL A   1      45.643  28.232  34.268  1.00  0.00     0.012 A 
ATOM     87  C   UNL A   1      44.212  26.396  34.981  1.00  0.00     0.148 A 
ATOM     88  C   UNL A   1      46.674  27.746  35.072  1.00  0.00     0.002 A 
ATOM     89  C   UNL A   1      45.225  25.948  35.819  1.00  0.00     0.091 A 
ATOM     90  F   UNL A   1      43.031  25.767  34.899  1.00  0.00    -0.205 F 
ATOM     91  C   UNL A   1      46.460  26.615  35.858  1.00  0.00     0.022 A 
BRANCH  89  92
ATOM     92  S   UNL A   1      45.004  24.569  36.950  1.00  0.00     0.127 S 
ATOM     93  O   UNL A   1      43.866  25.019  37.749  1.00  0.00    -0.237 OA
ATOM     94  O   UNL A   1      44.710  23.465  36.035  1.00  0.00    -0.237 OA
ATOM     95  O   UNL A   1      46.260  24.436  37.675  1.00  0.00    -0.744 OA
ENDBRANCH  89  92
ENDBRANCH  62  85
ENDBRANCH  36  37
ENDBRANCH  29  31
ENDBRANCH  28  29
ENDBRANCH  27  28
ENDBRANCH  26  27
ENDBRANCH   1  26
TORSDOF 20
ENDMDL
