MODEL 1
REMARK VINA RESULT:     -11.9      0.000      0.000
REMARK SMILES C[N@H+]1CCO[C@H](c2noc(-c3ccccc3C(=O)OCCOCCOC(=O)c3ccc(-c4c5nc(c(-c6cccc(S(=O)(=O)[O-])c6F)c6ccc([nH]6)c(-c6cccc(S(=O)(=O)[O-])c6F)c6nc(c(-c7cccc(S(=O)(=O)[O-])c7F)c7ccc4[nH]7)C=C6)C=C5)cc3)n2)C1
REMARK SMILES IDX 23 1 22 2 21 3 20 4 19 5 17 6 18 7 16 8 11 9 12 10 13 11
REMARK SMILES IDX 15 12 14 13 10 14 7 15 8 16 91 17 9 18 6 19 1 20 2 21 3 22
REMARK SMILES IDX 92 23 4 25 5 26 24 27 25 28 26 29 27 30 28 31 29 32 90 33
REMARK SMILES IDX 30 34 89 35 31 36 32 37 33 38 83 39 34 40 88 41 82 42 84 43
REMARK SMILES IDX 35 44 87 45 81 46 80 47 36 49 68 50 48 51 67 52 49 53 52 54
REMARK SMILES IDX 66 55 85 56 50 57 51 58 65 60 86 61 53 62 37 63 38 64 46 65
REMARK SMILES IDX 39 66 41 67 47 68 40 69 42 70 43 71 44 72 45 73 69 74 70 75
REMARK SMILES IDX 78 76 71 77 73 78 79 79 72 80 74 81 75 82 76 83 77 84 54 85
REMARK SMILES IDX 55 86 63 87 56 88 58 89 64 90 57 91 59 92 60 93 61 94 62 95
REMARK H PARENT 2 24 84 48 52 59
REMARK Flexibility Score: inf
ROOT
ATOM      1  C   UNL A   1      36.025  20.587  24.822  1.00  0.00     0.202 C 
ENDROOT
BRANCH   1   2
ATOM      2  O   UNL A   1      35.148  21.605  25.297  1.00  0.00    -0.374 OA
BRANCH   2   3
ATOM      3  C   UNL A   1      34.785  21.574  26.677  1.00  0.00     0.202 C 
BRANCH   3   4
ATOM      4  C   UNL A   1      34.362  22.902  27.310  1.00  0.00     0.261 C 
BRANCH   4   5
ATOM      5  O   UNL A   1      33.577  23.688  26.405  1.00  0.00    -0.460 OA
BRANCH   5   6
ATOM      6  C   UNL A   1      32.250  23.753  26.667  1.00  0.00     0.339 C 
ATOM      7  O   UNL A   1      31.674  23.314  27.647  1.00  0.00    -0.246 OA
BRANCH   6   8
ATOM      8  C   UNL A   1      31.578  24.650  25.688  1.00  0.00     0.072 A 
ATOM      9  C   UNL A   1      31.225  24.277  24.377  1.00  0.00     0.054 A 
ATOM     10  C   UNL A   1      30.592  25.229  23.559  1.00  0.00     0.015 A 
ATOM     11  C   UNL A   1      30.328  26.521  24.030  1.00  0.00     0.001 A 
ATOM     12  C   UNL A   1      31.322  25.954  26.147  1.00  0.00     0.016 A 
ATOM     13  C   UNL A   1      30.703  26.887  25.319  1.00  0.00     0.001 A 
BRANCH   9  14
ATOM     14  C   UNL A   1      31.493  22.942  23.873  1.00  0.00     0.258 A 
ATOM     15  C   UNL A   1      32.169  20.973  23.635  1.00  0.00     0.206 A 
ATOM     16  N   UNL A   1      32.385  21.522  22.425  1.00  0.00    -0.059 NA
ATOM     17  N   UNL A   1      31.537  21.808  24.527  1.00  0.00    -0.189 NA
ATOM     18  O   UNL A   1      31.933  22.839  22.584  1.00  0.00    -0.334 OA
BRANCH  15  19
ATOM     19  C   UNL A   1      32.751  19.650  24.060  1.00  0.00     0.245 C 
ATOM     20  C   UNL A   1      33.987  16.752  23.340  1.00  0.00     0.332 C 
ATOM     21  N   UNL A   1      32.574  17.106  23.526  1.00  0.00    -0.333 N 
ATOM     22  C   UNL A   1      32.146  16.962  24.928  1.00  0.00     0.290 C 
ATOM     23  C   UNL A   1      32.313  18.505  23.085  1.00  0.00     0.303 C 
ATOM     24  H   UNL A   1      32.036  16.456  22.953  1.00  0.00     0.348 HD
ATOM     25  C   UNL A   1      32.750  18.039  25.808  1.00  0.00     0.222 C 
ATOM     26  O   UNL A   1      32.307  19.337  25.408  1.00  0.00    -0.358 OA
ENDBRANCH  15  19
ENDBRANCH   9  14
ENDBRANCH   6   8
ENDBRANCH   5   6
ENDBRANCH   4   5
ENDBRANCH   3   4
ENDBRANCH   2   3
ENDBRANCH   1   2
BRANCH   1  27
ATOM     27  C   UNL A   1      37.538  20.821  24.929  1.00  0.00     0.261 C 
BRANCH  27  28
ATOM     28  O   UNL A   1      37.960  21.569  26.082  1.00  0.00    -0.460 OA
BRANCH  28  29
ATOM     29  C   UNL A   1      39.295  21.522  26.326  1.00  0.00     0.338 C 
ATOM     30  O   UNL A   1      40.059  20.620  26.020  1.00  0.00    -0.246 OA
BRANCH  29  31
ATOM     31  C   UNL A   1      39.776  22.789  26.919  1.00  0.00     0.060 A 
ATOM     32  C   UNL A   1      39.186  23.978  26.478  1.00  0.00     0.016 A 
ATOM     33  C   UNL A   1      40.854  22.828  27.809  1.00  0.00     0.016 A 
ATOM     34  C   UNL A   1      39.680  25.208  26.920  1.00  0.00     0.010 A 
ATOM     35  C   UNL A   1      41.352  24.066  28.244  1.00  0.00     0.010 A 
ATOM     36  C   UNL A   1      40.773  25.264  27.802  1.00  0.00    -0.014 A 
BRANCH  36  37
ATOM     37  C   UNL A   1      41.331  26.591  28.180  1.00  0.00     0.031 A 
ATOM     38  C   UNL A   1      42.695  26.973  27.710  1.00  0.00     0.074 A 
ATOM     39  C   UNL A   1      40.635  27.455  28.942  1.00  0.00     0.049 A 
ATOM     40  N   UNL A   1      43.336  28.093  27.900  1.00  0.00    -0.248 NA
ATOM     41  C   UNL A   1      43.465  25.935  27.010  1.00  0.00     0.031 C 
ATOM     42  C   UNL A   1      39.402  27.118  29.625  1.00  0.00     0.029 A 
ATOM     43  N   UNL A   1      40.830  28.779  29.260  1.00  0.00    -0.354 N 
ATOM     44  C   UNL A   1      44.620  27.868  27.434  1.00  0.00     0.074 A 
ATOM     45  C   UNL A   1      44.649  26.521  26.898  1.00  0.00     0.031 C 
ATOM     46  C   UNL A   1      38.855  28.229  30.140  1.00  0.00     0.029 A 
ATOM     47  C   UNL A   1      39.764  29.348  29.930  1.00  0.00     0.049 A 
ATOM     48  H   UNL A   1      41.651  29.273  29.032  1.00  0.00     0.167 HD
ATOM     49  C   UNL A   1      45.688  28.696  27.497  1.00  0.00     0.034 A 
ATOM     50  C   UNL A   1      39.556  30.617  30.344  1.00  0.00     0.034 A 
ATOM     51  C   UNL A   1      45.648  30.021  28.057  1.00  0.00     0.049 A 
ATOM     52  C   UNL A   1      40.711  31.576  30.242  1.00  0.00     0.074 A 
ATOM     53  C   UNL A   1      46.672  30.946  28.143  1.00  0.00     0.029 A 
ATOM     54  N   UNL A   1      44.534  30.604  28.643  1.00  0.00    -0.354 N 
ATOM     55  N   UNL A   1      41.893  31.380  29.711  1.00  0.00    -0.248 NA
ATOM     56  C   UNL A   1      40.535  32.903  30.847  1.00  0.00     0.031 C 
ATOM     57  C   UNL A   1      46.185  32.080  28.799  1.00  0.00     0.029 A 
ATOM     58  C   UNL A   1      44.843  31.882  29.081  1.00  0.00     0.049 A 
ATOM     59  H   UNL A   1      43.653  30.175  28.733  1.00  0.00     0.167 HD
ATOM     60  C   UNL A   1      42.614  32.540  29.951  1.00  0.00     0.074 A 
ATOM     61  C   UNL A   1      41.711  33.466  30.605  1.00  0.00     0.031 C 
ATOM     62  C   UNL A   1      43.920  32.797  29.702  1.00  0.00     0.034 A 
BRANCH  49  63
ATOM     63  C   UNL A   1      46.993  28.172  26.967  1.00  0.00     0.023 A 
ATOM     64  C   UNL A   1      48.007  27.783  27.862  1.00  0.00     0.012 A 
ATOM     65  C   UNL A   1      47.202  28.042  25.580  1.00  0.00     0.148 A 
ATOM     66  C   UNL A   1      49.226  27.302  27.386  1.00  0.00     0.002 A 
ATOM     67  C   UNL A   1      48.399  27.516  25.115  1.00  0.00     0.091 A 
ATOM     68  F   UNL A   1      46.232  28.443  24.746  1.00  0.00    -0.205 F 
ATOM     69  C   UNL A   1      49.417  27.160  26.015  1.00  0.00     0.022 A 
BRANCH  67  70
ATOM     70  S   UNL A   1      48.718  27.219  23.372  1.00  0.00     0.127 S 
ATOM     71  O   UNL A   1      48.012  28.336  22.747  1.00  0.00    -0.237 OA
ATOM     72  O   UNL A   1      50.178  27.309  23.314  1.00  0.00    -0.237 OA
ATOM     73  O   UNL A   1      48.175  25.900  23.079  1.00  0.00    -0.744 OA
ENDBRANCH  67  70
ENDBRANCH  49  63
BRANCH  50  74
ATOM     74  C   UNL A   1      38.247  31.062  30.921  1.00  0.00     0.023 A 
ATOM     75  C   UNL A   1      38.007  30.917  32.305  1.00  0.00     0.012 A 
ATOM     76  C   UNL A   1      37.236  31.627  30.126  1.00  0.00     0.148 A 
ATOM     77  C   UNL A   1      36.785  31.299  32.869  1.00  0.00     0.002 A 
ATOM     78  C   UNL A   1      36.067  32.101  30.709  1.00  0.00     0.091 A 
ATOM     79  F   UNL A   1      37.426  31.695  28.799  1.00  0.00    -0.205 F 
ATOM     80  C   UNL A   1      35.823  31.913  32.075  1.00  0.00     0.022 A 
BRANCH  78  81
ATOM     81  S   UNL A   1      34.913  33.113  29.777  1.00  0.00     0.127 S 
ATOM     82  O   UNL A   1      34.331  32.142  28.856  1.00  0.00    -0.237 OA
ATOM     83  O   UNL A   1      34.010  33.595  30.823  1.00  0.00    -0.237 OA
ATOM     84  O   UNL A   1      35.735  34.161  29.183  1.00  0.00    -0.744 OA
ENDBRANCH  78  81
ENDBRANCH  50  74
BRANCH  62  85
ATOM     85  C   UNL A   1      44.439  34.145  30.114  1.00  0.00     0.023 A 
ATOM     86  C   UNL A   1      45.045  34.318  31.375  1.00  0.00     0.012 A 
ATOM     87  C   UNL A   1      44.367  35.231  29.223  1.00  0.00     0.148 A 
ATOM     88  C   UNL A   1      45.541  35.565  31.755  1.00  0.00     0.002 A 
ATOM     89  C   UNL A   1      44.909  36.456  29.587  1.00  0.00     0.091 A 
ATOM     90  F   UNL A   1      43.765  35.046  28.039  1.00  0.00    -0.205 F 
ATOM     91  C   UNL A   1      45.483  36.629  30.857  1.00  0.00     0.022 A 
BRANCH  89  92
ATOM     92  S   UNL A   1      44.960  37.854  28.463  1.00  0.00     0.127 S 
ATOM     93  O   UNL A   1      43.549  37.997  28.105  1.00  0.00    -0.237 OA
ATOM     94  O   UNL A   1      45.484  38.917  29.319  1.00  0.00    -0.237 OA
ATOM     95  O   UNL A   1      45.842  37.463  27.371  1.00  0.00    -0.744 OA
ENDBRANCH  89  92
ENDBRANCH  62  85
ENDBRANCH  36  37
ENDBRANCH  29  31
ENDBRANCH  28  29
ENDBRANCH  27  28
ENDBRANCH   1  27
TORSDOF 19
ENDMDL
MODEL 2
REMARK VINA RESULT:     -11.9      5.433      8.702
REMARK SMILES C[N@H+]1CCO[C@H](c2noc(-c3ccccc3C(=O)OCCOCCOC(=O)c3ccc(-c4c5nc(c(-c6cccc(S(=O)(=O)[O-])c6F)c6ccc([nH]6)c(-c6cccc(S(=O)(=O)[O-])c6F)c6nc(c(-c7cccc(S(=O)(=O)[O-])c7F)c7ccc4[nH]7)C=C6)C=C5)cc3)n2)C1
REMARK SMILES IDX 23 1 22 2 21 3 20 4 19 5 17 6 18 7 16 8 11 9 12 10 13 11
REMARK SMILES IDX 15 12 14 13 10 14 7 15 8 16 91 17 9 18 6 19 1 20 2 21 3 22
REMARK SMILES IDX 92 23 4 25 5 26 24 27 25 28 26 29 27 30 28 31 29 32 90 33
REMARK SMILES IDX 30 34 89 35 31 36 32 37 33 38 83 39 34 40 88 41 82 42 84 43
REMARK SMILES IDX 35 44 87 45 81 46 80 47 36 49 68 50 48 51 67 52 49 53 52 54
REMARK SMILES IDX 66 55 85 56 50 57 51 58 65 60 86 61 53 62 37 63 38 64 46 65
REMARK SMILES IDX 39 66 41 67 47 68 40 69 42 70 43 71 44 72 45 73 69 74 70 75
REMARK SMILES IDX 78 76 71 77 73 78 79 79 72 80 74 81 75 82 76 83 77 84 54 85
REMARK SMILES IDX 55 86 63 87 56 88 58 89 64 90 57 91 59 92 60 93 61 94 62 95
REMARK H PARENT 2 24 84 48 52 59
REMARK Flexibility Score: inf
ROOT
ATOM      1  C   UNL A   1      31.472  30.590  26.045  1.00  0.00     0.202 C 
ENDROOT
BRANCH   1   2
ATOM      2  O   UNL A   1      32.657  30.109  25.415  1.00  0.00    -0.374 OA
BRANCH   2   3
ATOM      3  C   UNL A   1      32.581  28.857  24.732  1.00  0.00     0.202 C 
BRANCH   3   4
ATOM      4  C   UNL A   1      33.846  28.387  24.010  1.00  0.00     0.261 C 
BRANCH   4   5
ATOM      5  O   UNL A   1      33.964  26.959  24.035  1.00  0.00    -0.460 OA
BRANCH   5   6
ATOM      6  C   UNL A   1      33.702  26.317  22.872  1.00  0.00     0.339 C 
ATOM      7  O   UNL A   1      33.916  26.726  21.745  1.00  0.00    -0.246 OA
BRANCH   6   8
ATOM      8  C   UNL A   1      33.310  24.908  23.142  1.00  0.00     0.072 A 
ATOM      9  C   UNL A   1      31.986  24.474  23.345  1.00  0.00     0.054 A 
ATOM     10  C   UNL A   1      31.760  23.108  23.591  1.00  0.00     0.015 A 
ATOM     11  C   UNL A   1      32.824  22.201  23.644  1.00  0.00     0.001 A 
ATOM     12  C   UNL A   1      34.374  23.991  23.212  1.00  0.00     0.016 A 
ATOM     13  C   UNL A   1      34.132  22.644  23.466  1.00  0.00     0.001 A 
BRANCH   9  14
ATOM     14  C   UNL A   1      30.870  25.402  23.295  1.00  0.00     0.258 A 
ATOM     15  C   UNL A   1      29.682  27.126  23.225  1.00  0.00     0.206 A 
ATOM     16  N   UNL A   1      29.061  26.360  24.142  1.00  0.00    -0.059 NA
ATOM     17  N   UNL A   1      30.758  26.519  22.620  1.00  0.00    -0.189 NA
ATOM     18  O   UNL A   1      29.856  25.208  24.190  1.00  0.00    -0.334 OA
BRANCH  15  19
ATOM     19  C   UNL A   1      29.375  28.588  23.021  1.00  0.00     0.245 C 
ATOM     20  C   UNL A   1      27.531  31.183  23.568  1.00  0.00     0.332 C 
ATOM     21  N   UNL A   1      27.372  30.175  22.513  1.00  0.00    -0.333 N 
ATOM     22  C   UNL A   1      28.115  30.528  21.292  1.00  0.00     0.290 C 
ATOM     23  C   UNL A   1      27.829  28.837  22.984  1.00  0.00     0.303 C 
ATOM     24  H   UNL A   1      26.377  30.143  22.291  1.00  0.00     0.348 HD
ATOM     25  C   UNL A   1      29.613  30.391  21.491  1.00  0.00     0.222 C 
ATOM     26  O   UNL A   1      29.971  29.037  21.774  1.00  0.00    -0.358 OA
ENDBRANCH  15  19
ENDBRANCH   9  14
ENDBRANCH   6   8
ENDBRANCH   5   6
ENDBRANCH   4   5
ENDBRANCH   3   4
ENDBRANCH   2   3
ENDBRANCH   1   2
BRANCH   1  27
ATOM     27  C   UNL A   1      31.547  31.909  26.825  1.00  0.00     0.261 C 
BRANCH  27  28
ATOM     28  O   UNL A   1      32.719  32.702  26.572  1.00  0.00    -0.460 OA
BRANCH  28  29
ATOM     29  C   UNL A   1      33.151  33.425  27.638  1.00  0.00     0.338 C 
ATOM     30  O   UNL A   1      32.568  34.356  28.170  1.00  0.00    -0.246 OA
BRANCH  29  31
ATOM     31  C   UNL A   1      34.403  32.864  28.193  1.00  0.00     0.060 A 
ATOM     32  C   UNL A   1      34.394  31.522  28.590  1.00  0.00     0.016 A 
ATOM     33  C   UNL A   1      35.532  33.656  28.421  1.00  0.00     0.016 A 
ATOM     34  C   UNL A   1      35.512  30.975  29.224  1.00  0.00     0.010 A 
ATOM     35  C   UNL A   1      36.649  33.105  29.067  1.00  0.00     0.010 A 
ATOM     36  C   UNL A   1      36.648  31.763  29.476  1.00  0.00    -0.014 A 
BRANCH  36  37
ATOM     37  C   UNL A   1      37.784  31.173  30.236  1.00  0.00     0.031 A 
ATOM     38  C   UNL A   1      38.753  30.284  29.531  1.00  0.00     0.074 A 
ATOM     39  C   UNL A   1      37.954  31.419  31.549  1.00  0.00     0.049 A 
ATOM     40  N   UNL A   1      39.823  29.709  30.008  1.00  0.00    -0.248 NA
ATOM     41  C   UNL A   1      38.435  29.933  28.140  1.00  0.00     0.031 C 
ATOM     42  C   UNL A   1      36.973  32.087  32.379  1.00  0.00     0.029 A 
ATOM     43  N   UNL A   1      38.994  31.168  32.412  1.00  0.00    -0.354 N 
ATOM     44  C   UNL A   1      40.255  28.849  29.013  1.00  0.00     0.074 A 
ATOM     45  C   UNL A   1      39.363  29.023  27.883  1.00  0.00     0.031 C 
ATOM     46  C   UNL A   1      37.506  32.350  33.581  1.00  0.00     0.029 A 
ATOM     47  C   UNL A   1      38.835  31.758  33.653  1.00  0.00     0.049 A 
ATOM     48  H   UNL A   1      39.776  30.621  32.172  1.00  0.00     0.167 HD
ATOM     49  C   UNL A   1      41.274  27.961  29.062  1.00  0.00     0.034 A 
ATOM     50  C   UNL A   1      39.655  31.796  34.725  1.00  0.00     0.034 A 
ATOM     51  C   UNL A   1      42.133  27.783  30.202  1.00  0.00     0.049 A 
ATOM     52  C   UNL A   1      40.884  30.928  34.687  1.00  0.00     0.074 A 
ATOM     53  C   UNL A   1      43.209  26.925  30.339  1.00  0.00     0.029 A 
ATOM     54  N   UNL A   1      42.007  28.458  31.408  1.00  0.00    -0.354 N 
ATOM     55  N   UNL A   1      41.335  30.190  33.702  1.00  0.00    -0.248 NA
ATOM     56  C   UNL A   1      41.681  30.842  35.918  1.00  0.00     0.031 C 
ATOM     57  C   UNL A   1      43.721  27.065  31.632  1.00  0.00     0.029 A 
ATOM     58  C   UNL A   1      42.993  28.046  32.289  1.00  0.00     0.049 A 
ATOM     59  H   UNL A   1      41.318  29.133  31.608  1.00  0.00     0.167 HD
ATOM     60  C   UNL A   1      42.442  29.524  34.204  1.00  0.00     0.074 A 
ATOM     61  C   UNL A   1      42.644  30.005  35.556  1.00  0.00     0.031 C 
ATOM     62  C   UNL A   1      43.193  28.560  33.619  1.00  0.00     0.034 A 
BRANCH  49  63
ATOM     63  C   UNL A   1      41.489  27.098  27.851  1.00  0.00     0.023 A 
ATOM     64  C   UNL A   1      42.107  27.636  26.706  1.00  0.00     0.012 A 
ATOM     65  C   UNL A   1      41.101  25.743  27.860  1.00  0.00     0.148 A 
ATOM     66  C   UNL A   1      42.306  26.850  25.574  1.00  0.00     0.002 A 
ATOM     67  C   UNL A   1      41.349  24.953  26.746  1.00  0.00     0.091 A 
ATOM     68  F   UNL A   1      40.492  25.259  28.951  1.00  0.00    -0.205 F 
ATOM     69  C   UNL A   1      41.937  25.508  25.597  1.00  0.00     0.022 A 
BRANCH  67  70
ATOM     70  S   UNL A   1      40.983  23.195  26.700  1.00  0.00     0.127 S 
ATOM     71  O   UNL A   1      41.824  22.746  25.591  1.00  0.00    -0.237 OA
ATOM     72  O   UNL A   1      41.432  22.759  28.022  1.00  0.00    -0.237 OA
ATOM     73  O   UNL A   1      39.548  23.085  26.474  1.00  0.00    -0.744 OA
ENDBRANCH  67  70
ENDBRANCH  49  63
BRANCH  50  74
ATOM     74  C   UNL A   1      39.352  32.633  35.930  1.00  0.00     0.023 A 
ATOM     75  C   UNL A   1      39.839  33.957  36.003  1.00  0.00     0.012 A 
ATOM     76  C   UNL A   1      38.590  32.144  37.004  1.00  0.00     0.148 A 
ATOM     77  C   UNL A   1      39.595  34.754  37.125  1.00  0.00     0.002 A 
ATOM     78  C   UNL A   1      38.262  32.977  38.068  1.00  0.00     0.091 A 
ATOM     79  F   UNL A   1      38.192  30.863  36.977  1.00  0.00    -0.205 F 
ATOM     80  C   UNL A   1      38.785  34.273  38.149  1.00  0.00     0.022 A 
BRANCH  78  81
ATOM     81  S   UNL A   1      37.030  32.487  39.280  1.00  0.00     0.127 S 
ATOM     82  O   UNL A   1      35.787  32.639  38.529  1.00  0.00    -0.237 OA
ATOM     83  O   UNL A   1      37.415  31.105  39.571  1.00  0.00    -0.237 OA
ATOM     84  O   UNL A   1      37.228  33.400  40.399  1.00  0.00    -0.744 OA
ENDBRANCH  78  81
ENDBRANCH  50  74
BRANCH  62  85
ATOM     85  C   UNL A   1      44.320  27.987  34.431  1.00  0.00     0.023 A 
ATOM     86  C   UNL A   1      45.584  28.610  34.429  1.00  0.00     0.012 A 
ATOM     87  C   UNL A   1      44.105  26.853  35.234  1.00  0.00     0.148 A 
ATOM     88  C   UNL A   1      46.628  28.090  35.192  1.00  0.00     0.002 A 
ATOM     89  C   UNL A   1      45.134  26.371  36.031  1.00  0.00     0.091 A 
ATOM     90  F   UNL A   1      42.900  26.266  35.200  1.00  0.00    -0.205 F 
ATOM     91  C   UNL A   1      46.400  26.978  36.001  1.00  0.00     0.022 A 
BRANCH  89  92
ATOM     92  S   UNL A   1      44.904  25.003  37.169  1.00  0.00     0.127 S 
ATOM     93  O   UNL A   1      43.954  25.568  38.125  1.00  0.00    -0.237 OA
ATOM     94  O   UNL A   1      44.351  23.967  36.296  1.00  0.00    -0.237 OA
ATOM     95  O   UNL A   1      46.223  24.700  37.709  1.00  0.00    -0.744 OA
ENDBRANCH  89  92
ENDBRANCH  62  85
ENDBRANCH  36  37
ENDBRANCH  29  31
ENDBRANCH  28  29
ENDBRANCH  27  28
ENDBRANCH   1  27
TORSDOF 19
ENDMDL
MODEL 3
REMARK VINA RESULT:     -11.9      5.231     10.484
REMARK SMILES C[N@H+]1CCO[C@H](c2noc(-c3ccccc3C(=O)OCCOCCOC(=O)c3ccc(-c4c5nc(c(-c6cccc(S(=O)(=O)[O-])c6F)c6ccc([nH]6)c(-c6cccc(S(=O)(=O)[O-])c6F)c6nc(c(-c7cccc(S(=O)(=O)[O-])c7F)c7ccc4[nH]7)C=C6)C=C5)cc3)n2)C1
REMARK SMILES IDX 23 1 22 2 21 3 20 4 19 5 17 6 18 7 16 8 11 9 12 10 13 11
REMARK SMILES IDX 15 12 14 13 10 14 7 15 8 16 91 17 9 18 6 19 1 20 2 21 3 22
REMARK SMILES IDX 92 23 4 25 5 26 24 27 25 28 26 29 27 30 28 31 29 32 90 33
REMARK SMILES IDX 30 34 89 35 31 36 32 37 33 38 83 39 34 40 88 41 82 42 84 43
REMARK SMILES IDX 35 44 87 45 81 46 80 47 36 49 68 50 48 51 67 52 49 53 52 54
REMARK SMILES IDX 66 55 85 56 50 57 51 58 65 60 86 61 53 62 37 63 38 64 46 65
REMARK SMILES IDX 39 66 41 67 47 68 40 69 42 70 43 71 44 72 45 73 69 74 70 75
REMARK SMILES IDX 78 76 71 77 73 78 79 79 72 80 74 81 75 82 76 83 77 84 54 85
REMARK SMILES IDX 55 86 63 87 56 88 58 89 64 90 57 91 59 92 60 93 61 94 62 95
REMARK H PARENT 2 24 84 48 52 59
REMARK Flexibility Score: inf
ROOT
ATOM      1  C   UNL A   1      31.698  29.912  26.505  1.00  0.00     0.202 C 
ENDROOT
BRANCH   1   2
ATOM      2  O   UNL A   1      32.822  29.467  25.750  1.00  0.00    -0.374 OA
BRANCH   2   3
ATOM      3  C   UNL A   1      32.591  28.491  24.733  1.00  0.00     0.202 C 
BRANCH   3   4
ATOM      4  C   UNL A   1      33.743  28.217  23.764  1.00  0.00     0.261 C 
BRANCH   4   5
ATOM      5  O   UNL A   1      34.077  26.825  23.726  1.00  0.00    -0.460 OA
BRANCH   5   6
ATOM      6  C   UNL A   1      33.606  26.126  22.665  1.00  0.00     0.339 C 
ATOM      7  O   UNL A   1      33.642  26.459  21.494  1.00  0.00    -0.246 OA
BRANCH   6   8
ATOM      8  C   UNL A   1      33.221  24.752  23.087  1.00  0.00     0.072 A 
ATOM      9  C   UNL A   1      31.920  24.370  23.466  1.00  0.00     0.054 A 
ATOM     10  C   UNL A   1      31.699  23.033  23.842  1.00  0.00     0.015 A 
ATOM     11  C   UNL A   1      32.747  22.105  23.850  1.00  0.00     0.001 A 
ATOM     12  C   UNL A   1      34.270  23.816  23.113  1.00  0.00     0.016 A 
ATOM     13  C   UNL A   1      34.035  22.499  23.497  1.00  0.00     0.001 A 
BRANCH   9  14
ATOM     14  C   UNL A   1      30.822  25.320  23.464  1.00  0.00     0.258 A 
ATOM     15  C   UNL A   1      29.664  27.064  23.397  1.00  0.00     0.206 A 
ATOM     16  N   UNL A   1      29.124  26.374  24.419  1.00  0.00    -0.059 NA
ATOM     17  N   UNL A   1      30.664  26.394  22.731  1.00  0.00    -0.189 NA
ATOM     18  O   UNL A   1      29.899  25.208  24.464  1.00  0.00    -0.334 OA
BRANCH  15  19
ATOM     19  C   UNL A   1      29.366  28.517  23.129  1.00  0.00     0.245 C 
ATOM     20  C   UNL A   1      27.530  31.142  23.552  1.00  0.00     0.332 C 
ATOM     21  N   UNL A   1      27.373  30.089  22.541  1.00  0.00    -0.333 N 
ATOM     22  C   UNL A   1      28.124  30.387  21.310  1.00  0.00     0.290 C 
ATOM     23  C   UNL A   1      27.821  28.771  23.072  1.00  0.00     0.303 C 
ATOM     24  H   UNL A   1      26.379  30.053  22.316  1.00  0.00     0.348 HD
ATOM     25  C   UNL A   1      29.620  30.251  21.523  1.00  0.00     0.222 C 
ATOM     26  O   UNL A   1      29.970  28.910  21.867  1.00  0.00    -0.358 OA
ENDBRANCH  15  19
ENDBRANCH   9  14
ENDBRANCH   6   8
ENDBRANCH   5   6
ENDBRANCH   4   5
ENDBRANCH   3   4
ENDBRANCH   2   3
ENDBRANCH   1   2
BRANCH   1  27
ATOM     27  C   UNL A   1      31.648  31.384  26.938  1.00  0.00     0.261 C 
BRANCH  27  28
ATOM     28  O   UNL A   1      32.768  32.182  26.517  1.00  0.00    -0.460 OA
BRANCH  28  29
ATOM     29  C   UNL A   1      33.294  32.971  27.489  1.00  0.00     0.338 C 
ATOM     30  O   UNL A   1      32.778  33.965  27.977  1.00  0.00    -0.246 OA
BRANCH  29  31
ATOM     31  C   UNL A   1      34.560  32.410  28.008  1.00  0.00     0.060 A 
ATOM     32  C   UNL A   1      34.568  31.063  28.386  1.00  0.00     0.016 A 
ATOM     33  C   UNL A   1      35.690  33.206  28.223  1.00  0.00     0.016 A 
ATOM     34  C   UNL A   1      35.703  30.513  28.988  1.00  0.00     0.010 A 
ATOM     35  C   UNL A   1      36.825  32.652  28.836  1.00  0.00     0.010 A 
ATOM     36  C   UNL A   1      36.840  31.304  29.226  1.00  0.00    -0.014 A 
BRANCH  36  37
ATOM     37  C   UNL A   1      37.995  30.711  29.952  1.00  0.00     0.031 A 
ATOM     38  C   UNL A   1      38.142  30.952  31.418  1.00  0.00     0.074 A 
ATOM     39  C   UNL A   1      38.917  29.965  29.315  1.00  0.00     0.049 A 
ATOM     40  N   UNL A   1      39.053  30.492  32.230  1.00  0.00    -0.248 NA
ATOM     41  C   UNL A   1      37.192  31.892  32.029  1.00  0.00     0.031 C 
ATOM     42  C   UNL A   1      38.998  29.837  27.874  1.00  0.00     0.029 A 
ATOM     43  N   UNL A   1      39.938  29.164  29.770  1.00  0.00    -0.354 N 
ATOM     44  C   UNL A   1      38.854  31.159  33.426  1.00  0.00     0.074 A 
ATOM     45  C   UNL A   1      37.697  32.014  33.249  1.00  0.00     0.031 C 
ATOM     46  C   UNL A   1      39.889  28.886  27.556  1.00  0.00     0.029 A 
ATOM     47  C   UNL A   1      40.540  28.419  28.772  1.00  0.00     0.049 A 
ATOM     48  H   UNL A   1      40.215  29.125  30.714  1.00  0.00     0.167 HD
ATOM     49  C   UNL A   1      39.603  31.098  34.550  1.00  0.00     0.034 A 
ATOM     50  C   UNL A   1      41.515  27.486  28.833  1.00  0.00     0.034 A 
ATOM     51  C   UNL A   1      40.766  30.264  34.700  1.00  0.00     0.049 A 
ATOM     52  C   UNL A   1      42.222  27.308  30.148  1.00  0.00     0.074 A 
ATOM     53  C   UNL A   1      41.577  30.115  35.810  1.00  0.00     0.029 A 
ATOM     54  N   UNL A   1      41.296  29.452  33.707  1.00  0.00    -0.354 N 
ATOM     55  N   UNL A   1      41.963  27.877  31.300  1.00  0.00    -0.248 NA
ATOM     56  C   UNL A   1      43.391  26.418  30.166  1.00  0.00     0.031 C 
ATOM     57  C   UNL A   1      42.609  29.229  35.484  1.00  0.00     0.029 A 
ATOM     58  C   UNL A   1      42.415  28.789  34.184  1.00  0.00     0.049 A 
ATOM     59  H   UNL A   1      40.930  29.359  32.798  1.00  0.00     0.167 HD
ATOM     60  C   UNL A   1      42.955  27.446  32.168  1.00  0.00     0.074 A 
ATOM     61  C   UNL A   1      43.776  26.505  31.432  1.00  0.00     0.031 C 
ATOM     62  C   UNL A   1      43.199  27.835  33.442  1.00  0.00     0.034 A 
BRANCH  49  63
ATOM     63  C   UNL A   1      39.196  31.984  35.693  1.00  0.00     0.023 A 
ATOM     64  C   UNL A   1      38.303  31.503  36.670  1.00  0.00     0.012 A 
ATOM     65  C   UNL A   1      39.721  33.286  35.813  1.00  0.00     0.148 A 
ATOM     66  C   UNL A   1      37.910  32.315  37.732  1.00  0.00     0.002 A 
ATOM     67  C   UNL A   1      39.364  34.071  36.901  1.00  0.00     0.091 A 
ATOM     68  F   UNL A   1      40.549  33.732  34.858  1.00  0.00    -0.205 F 
ATOM     69  C   UNL A   1      38.448  33.593  37.852  1.00  0.00     0.022 A 
BRANCH  67  70
ATOM     70  S   UNL A   1      40.057  35.702  37.191  1.00  0.00     0.127 S 
ATOM     71  O   UNL A   1      39.446  36.060  38.471  1.00  0.00    -0.237 OA
ATOM     72  O   UNL A   1      41.490  35.413  37.258  1.00  0.00    -0.237 OA
ATOM     73  O   UNL A   1      39.651  36.524  36.060  1.00  0.00    -0.744 OA
ENDBRANCH  67  70
ENDBRANCH  49  63
BRANCH  50  74
ATOM     74  C   UNL A   1      41.917  26.676  27.638  1.00  0.00     0.023 A 
ATOM     75  C   UNL A   1      42.705  27.266  26.625  1.00  0.00     0.012 A 
ATOM     76  C   UNL A   1      41.535  25.332  27.486  1.00  0.00     0.148 A 
ATOM     77  C   UNL A   1      43.074  26.544  25.486  1.00  0.00     0.002 A 
ATOM     78  C   UNL A   1      41.994  24.591  26.403  1.00  0.00     0.091 A 
ATOM     79  F   UNL A   1      40.721  24.789  28.404  1.00  0.00    -0.205 F 
ATOM     80  C   UNL A   1      42.739  25.198  25.385  1.00  0.00     0.022 A 
BRANCH  78  81
ATOM     81  S   UNL A   1      41.797  22.806  26.355  1.00  0.00     0.127 S 
ATOM     82  O   UNL A   1      42.319  22.407  27.658  1.00  0.00    -0.237 OA
ATOM     83  O   UNL A   1      40.349  22.660  26.194  1.00  0.00    -0.237 OA
ATOM     84  O   UNL A   1      42.563  22.380  25.189  1.00  0.00    -0.744 OA
ENDBRANCH  78  81
ENDBRANCH  50  74
BRANCH  62  85
ATOM     85  C   UNL A   1      44.384  27.217  34.128  1.00  0.00     0.023 A 
ATOM     86  C   UNL A   1      45.631  27.875  34.121  1.00  0.00     0.012 A 
ATOM     87  C   UNL A   1      44.244  26.001  34.822  1.00  0.00     0.148 A 
ATOM     88  C   UNL A   1      46.730  27.312  34.768  1.00  0.00     0.002 A 
ATOM     89  C   UNL A   1      45.329  25.473  35.508  1.00  0.00     0.091 A 
ATOM     90  F   UNL A   1      43.054  25.384  34.794  1.00  0.00    -0.205 F 
ATOM     91  C   UNL A   1      46.576  26.118  35.470  1.00  0.00     0.022 A 
BRANCH  89  92
ATOM     92  S   UNL A   1      45.198  23.990  36.510  1.00  0.00     0.127 S 
ATOM     93  O   UNL A   1      46.600  23.592  36.634  1.00  0.00    -0.237 OA
ATOM     94  O   UNL A   1      44.597  24.503  37.741  1.00  0.00    -0.237 OA
ATOM     95  O   UNL A   1      44.354  23.068  35.761  1.00  0.00    -0.744 OA
ENDBRANCH  89  92
ENDBRANCH  62  85
ENDBRANCH  36  37
ENDBRANCH  29  31
ENDBRANCH  28  29
ENDBRANCH  27  28
ENDBRANCH   1  27
TORSDOF 19
ENDMDL
