MODEL 1
REMARK VINA RESULT:     -10.5      0.000      0.000
REMARK SMILES [NH3+][C@@H](Cc1cn(-c2nc(Cl)nc(N3CCOCC3)n2)c2ccccc12)C(=O)OCCOCCOC(=O)c1ccc(-c2c3nc(c(-c4cccc(S(=O)(=O)[O-])c4F)c4ccc([nH]4)c(-c4cccc(S(=O)(=O)[O-])c4F)c4nc(c(-c5cccc(S(=O)(=O)[O-])c5F)c5ccc2[nH]5)C=C4)C=C3)cc1
REMARK SMILES IDX 30 1 29 2 28 3 26 4 27 5 2 6 1 7 3 11 4 12 5 13 25 14 6 15
REMARK SMILES IDX 20 16 24 17 21 18 23 19 22 20 7 21 8 22 19 23 9 24 12 25
REMARK SMILES IDX 10 26 11 27 13 28 14 29 18 30 15 31 17 32 16 33 31 34 32 35
REMARK SMILES IDX 33 36 34 37 35 38 36 39 37 40 38 41 99 42 39 43 98 44 40 45
REMARK SMILES IDX 41 46 42 47 92 48 43 49 97 50 91 51 93 52 44 53 96 54 90 55
REMARK SMILES IDX 89 56 45 58 77 59 57 60 76 61 58 62 61 63 75 64 94 65 59 66
REMARK SMILES IDX 60 67 74 69 95 70 62 71 46 72 47 73 55 74 48 75 50 76 56 77
REMARK SMILES IDX 49 78 51 79 52 80 53 81 54 82 78 83 79 84 87 85 80 86 82 87
REMARK SMILES IDX 88 88 81 89 83 90 84 91 85 92 86 93 63 94 64 95 72 96 65 97
REMARK SMILES IDX 67 98 73 99 66 100 68 101 69 102 70 103 71 104
REMARK H PARENT 1 8 1 9 1 10 93 57 61 68
REMARK Flexibility Score: inf
ROOT
ATOM      1  C   UNL A   1      32.569  36.374  30.554  1.00  0.00     0.202 C 
ENDROOT
BRANCH   1   2
ATOM      2  C   UNL A   1      33.440  37.146  31.555  1.00  0.00     0.261 C 
BRANCH   2   3
ATOM      3  O   UNL A   1      34.495  36.316  32.086  1.00  0.00    -0.459 OA
BRANCH   3   4
ATOM      4  C   UNL A   1      34.402  35.909  33.372  1.00  0.00     0.365 C 
ATOM      5  O   UNL A   1      34.099  36.639  34.311  1.00  0.00    -0.245 OA
BRANCH   4   6
ATOM      6  C   UNL A   1      34.641  34.390  33.546  1.00  0.00     0.296 C 
BRANCH   6   7
ATOM      7  N   UNL A   1      33.467  33.559  33.169  1.00  0.00    -0.346 N 
ATOM      8  H   UNL A   1      32.661  34.163  33.007  1.00  0.00     0.345 HD
ATOM      9  H   UNL A   1      33.256  32.907  33.925  1.00  0.00     0.345 HD
ATOM     10  H   UNL A   1      33.678  33.037  32.319  1.00  0.00     0.345 HD
ENDBRANCH   6   7
BRANCH   6  11
ATOM     11  C   UNL A   1      36.001  33.854  33.077  1.00  0.00     0.115 C 
BRANCH  11  12
ATOM     12  C   UNL A   1      37.305  34.110  33.806  1.00  0.00    -0.015 A 
ATOM     13  C   UNL A   1      38.430  34.631  33.170  1.00  0.00     0.099 A 
ATOM     14  C   UNL A   1      37.726  33.866  35.156  1.00  0.00     0.004 A 
ATOM     15  N   UNL A   1      39.533  34.449  33.975  1.00  0.00    -0.285 N 
ATOM     16  C   UNL A   1      39.123  33.941  35.192  1.00  0.00     0.056 A 
ATOM     17  C   UNL A   1      37.090  33.550  36.365  1.00  0.00     0.010 A 
ATOM     18  C   UNL A   1      39.878  33.613  36.336  1.00  0.00     0.027 A 
ATOM     19  C   UNL A   1      37.829  33.270  37.509  1.00  0.00     0.001 A 
ATOM     20  C   UNL A   1      39.209  33.260  37.495  1.00  0.00     0.002 A 
BRANCH  15  21
ATOM     21  C   UNL A   1      40.872  34.831  33.697  1.00  0.00     0.240 A 
ATOM     22  N   UNL A   1      41.393  35.773  34.477  1.00  0.00    -0.181 NA
ATOM     23  N   UNL A   1      41.400  34.405  32.542  1.00  0.00    -0.176 NA
ATOM     24  C   UNL A   1      42.556  36.224  34.053  1.00  0.00     0.228 A 
ATOM     25  C   UNL A   1      42.524  35.019  32.181  1.00  0.00     0.231 A 
ATOM     26  Cl  UNL A   1      43.255  37.486  34.963  1.00  0.00    -0.041 Cl
ATOM     27  N   UNL A   1      43.170  35.903  32.927  1.00  0.00    -0.182 NA
BRANCH  25  28
ATOM     28  N   UNL A   1      43.033  34.810  30.928  1.00  0.00    -0.336 N 
ATOM     29  C   UNL A   1      44.087  35.672  30.412  1.00  0.00     0.148 C 
ATOM     30  C   UNL A   1      42.148  34.185  29.959  1.00  0.00     0.148 C 
ATOM     31  C   UNL A   1      43.554  36.615  29.326  1.00  0.00     0.181 C 
ATOM     32  C   UNL A   1      41.675  35.238  28.944  1.00  0.00     0.181 C 
ATOM     33  O   UNL A   1      42.792  35.909  28.329  1.00  0.00    -0.378 OA
ENDBRANCH  25  28
ENDBRANCH  15  21
ENDBRANCH  11  12
ENDBRANCH   6  11
ENDBRANCH   4   6
ENDBRANCH   3   4
ENDBRANCH   2   3
ENDBRANCH   1   2
BRANCH   1  34
ATOM     34  O   UNL A   1      32.858  34.974  30.441  1.00  0.00    -0.374 OA
BRANCH  34  35
ATOM     35  C   UNL A   1      33.211  34.533  29.128  1.00  0.00     0.202 C 
BRANCH  35  36
ATOM     36  C   UNL A   1      34.689  34.154  28.951  1.00  0.00     0.261 C 
BRANCH  36  37
ATOM     37  O   UNL A   1      34.831  32.729  28.817  1.00  0.00    -0.460 OA
BRANCH  37  38
ATOM     38  C   UNL A   1      35.337  32.087  29.904  1.00  0.00     0.338 C 
ATOM     39  O   UNL A   1      34.786  31.819  30.940  1.00  0.00    -0.246 OA
BRANCH  38  40
ATOM     40  C   UNL A   1      36.620  31.519  29.440  1.00  0.00     0.060 A 
ATOM     41  C   UNL A   1      36.685  30.195  29.013  1.00  0.00     0.016 A 
ATOM     42  C   UNL A   1      37.785  32.240  29.717  1.00  0.00     0.016 A 
ATOM     43  C   UNL A   1      37.905  29.533  29.094  1.00  0.00     0.010 A 
ATOM     44  C   UNL A   1      39.010  31.583  29.710  1.00  0.00     0.010 A 
ATOM     45  C   UNL A   1      39.070  30.204  29.503  1.00  0.00    -0.014 A 
BRANCH  45  46
ATOM     46  C   UNL A   1      40.320  29.415  29.599  1.00  0.00     0.031 A 
ATOM     47  C   UNL A   1      40.740  29.069  30.998  1.00  0.00     0.074 A 
ATOM     48  C   UNL A   1      41.005  28.906  28.550  1.00  0.00     0.049 A 
ATOM     49  N   UNL A   1      41.877  29.276  31.590  1.00  0.00    -0.248 NA
ATOM     50  C   UNL A   1      39.692  28.531  31.885  1.00  0.00     0.031 C 
ATOM     51  C   UNL A   1      40.639  28.930  27.130  1.00  0.00     0.029 A 
ATOM     52  N   UNL A   1      42.116  28.101  28.557  1.00  0.00    -0.354 N 
ATOM     53  C   UNL A   1      41.738  28.733  32.868  1.00  0.00     0.074 A 
ATOM     54  C   UNL A   1      40.340  28.430  33.043  1.00  0.00     0.031 C 
ATOM     55  C   UNL A   1      41.308  27.953  26.482  1.00  0.00     0.029 A 
ATOM     56  C   UNL A   1      42.238  27.329  27.401  1.00  0.00     0.049 A 
ATOM     57  H   UNL A   1      42.760  28.072  29.301  1.00  0.00     0.167 HD
ATOM     58  C   UNL A   1      42.781  28.375  33.663  1.00  0.00     0.034 A 
ATOM     59  C   UNL A   1      42.962  26.191  27.255  1.00  0.00     0.034 A 
ATOM     60  C   UNL A   1      44.030  28.944  33.264  1.00  0.00     0.049 A 
ATOM     61  C   UNL A   1      43.979  26.176  28.329  1.00  0.00     0.074 A 
ATOM     62  C   UNL A   1      44.560  30.216  33.184  1.00  0.00     0.029 A 
ATOM     63  N   UNL A   1      44.901  28.132  32.585  1.00  0.00    -0.354 N 
ATOM     64  N   UNL A   1      44.984  27.001  28.401  1.00  0.00    -0.248 NA
ATOM     65  C   UNL A   1      43.686  25.429  29.540  1.00  0.00     0.031 C 
ATOM     66  C   UNL A   1      45.457  30.174  32.078  1.00  0.00     0.029 A 
ATOM     67  C   UNL A   1      45.425  28.877  31.564  1.00  0.00     0.049 A 
ATOM     68  H   UNL A   1      45.110  27.192  32.793  1.00  0.00     0.167 HD
ATOM     69  C   UNL A   1      45.179  27.188  29.762  1.00  0.00     0.074 A 
ATOM     70  C   UNL A   1      44.433  26.112  30.406  1.00  0.00     0.031 C 
ATOM     71  C   UNL A   1      45.692  28.356  30.245  1.00  0.00     0.034 A 
BRANCH  58  72
ATOM     72  C   UNL A   1      42.702  27.244  34.653  1.00  0.00     0.023 A 
ATOM     73  C   UNL A   1      41.621  26.344  34.586  1.00  0.00     0.012 A 
ATOM     74  C   UNL A   1      43.534  27.178  35.795  1.00  0.00     0.148 A 
ATOM     75  C   UNL A   1      41.393  25.407  35.602  1.00  0.00     0.002 A 
ATOM     76  C   UNL A   1      43.354  26.194  36.757  1.00  0.00     0.091 A 
ATOM     77  F   UNL A   1      44.432  28.148  36.014  1.00  0.00    -0.205 F 
ATOM     78  C   UNL A   1      42.272  25.317  36.677  1.00  0.00     0.022 A 
BRANCH  76  79
ATOM     79  S   UNL A   1      44.503  26.011  38.124  1.00  0.00     0.127 S 
ATOM     80  O   UNL A   1      44.466  24.570  38.349  1.00  0.00    -0.237 OA
ATOM     81  O   UNL A   1      45.747  26.518  37.545  1.00  0.00    -0.237 OA
ATOM     82  O   UNL A   1      43.962  26.846  39.189  1.00  0.00    -0.744 OA
ENDBRANCH  76  79
ENDBRANCH  58  72
BRANCH  59  83
ATOM     83  C   UNL A   1      42.670  24.967  26.460  1.00  0.00     0.023 A 
ATOM     84  C   UNL A   1      43.579  24.570  25.455  1.00  0.00     0.012 A 
ATOM     85  C   UNL A   1      41.689  24.034  26.862  1.00  0.00     0.148 A 
ATOM     86  C   UNL A   1      43.551  23.277  24.916  1.00  0.00     0.002 A 
ATOM     87  C   UNL A   1      41.652  22.755  26.310  1.00  0.00     0.091 A 
ATOM     88  F   UNL A   1      40.853  24.353  27.859  1.00  0.00    -0.205 F 
ATOM     89  C   UNL A   1      42.594  22.367  25.350  1.00  0.00     0.022 A 
BRANCH  87  90
ATOM     90  S   UNL A   1      40.440  21.534  26.833  1.00  0.00     0.127 S 
ATOM     91  O   UNL A   1      40.798  20.373  26.016  1.00  0.00    -0.237 OA
ATOM     92  O   UNL A   1      40.742  21.397  28.255  1.00  0.00    -0.237 OA
ATOM     93  O   UNL A   1      39.140  22.110  26.509  1.00  0.00    -0.744 OA
ENDBRANCH  87  90
ENDBRANCH  59  83
BRANCH  71  94
ATOM     94  C   UNL A   1      46.304  29.320  29.265  1.00  0.00     0.023 A 
ATOM     95  C   UNL A   1      47.641  29.189  28.834  1.00  0.00     0.012 A 
ATOM     96  C   UNL A   1      45.464  30.245  28.623  1.00  0.00     0.148 A 
ATOM     97  C   UNL A   1      48.132  29.971  27.787  1.00  0.00     0.002 A 
ATOM     98  C   UNL A   1      45.946  30.994  27.556  1.00  0.00     0.091 A 
ATOM     99  F   UNL A   1      44.194  30.341  29.041  1.00  0.00    -0.205 F 
ATOM    100  C   UNL A   1      47.281  30.863  27.138  1.00  0.00     0.022 A 
BRANCH  98 101
ATOM    101  S   UNL A   1      44.885  32.080  26.600  1.00  0.00     0.127 S 
ATOM    102  O   UNL A   1      43.866  31.156  26.106  1.00  0.00    -0.237 OA
ATOM    103  O   UNL A   1      44.413  33.025  27.613  1.00  0.00    -0.237 OA
ATOM    104  O   UNL A   1      45.731  32.674  25.571  1.00  0.00    -0.744 OA
ENDBRANCH  98 101
ENDBRANCH  71  94
ENDBRANCH  45  46
ENDBRANCH  38  40
ENDBRANCH  37  38
ENDBRANCH  36  37
ENDBRANCH  35  36
ENDBRANCH  34  35
ENDBRANCH   1  34
TORSDOF 22
ENDMDL
MODEL 2
REMARK VINA RESULT:     -10.4      4.858      8.068
REMARK SMILES [NH3+][C@@H](Cc1cn(-c2nc(Cl)nc(N3CCOCC3)n2)c2ccccc12)C(=O)OCCOCCOC(=O)c1ccc(-c2c3nc(c(-c4cccc(S(=O)(=O)[O-])c4F)c4ccc([nH]4)c(-c4cccc(S(=O)(=O)[O-])c4F)c4nc(c(-c5cccc(S(=O)(=O)[O-])c5F)c5ccc2[nH]5)C=C4)C=C3)cc1
REMARK SMILES IDX 30 1 29 2 28 3 26 4 27 5 2 6 1 7 3 11 4 12 5 13 25 14 6 15
REMARK SMILES IDX 20 16 24 17 21 18 23 19 22 20 7 21 8 22 19 23 9 24 12 25
REMARK SMILES IDX 10 26 11 27 13 28 14 29 18 30 15 31 17 32 16 33 31 34 32 35
REMARK SMILES IDX 33 36 34 37 35 38 36 39 37 40 38 41 99 42 39 43 98 44 40 45
REMARK SMILES IDX 41 46 42 47 92 48 43 49 97 50 91 51 93 52 44 53 96 54 90 55
REMARK SMILES IDX 89 56 45 58 77 59 57 60 76 61 58 62 61 63 75 64 94 65 59 66
REMARK SMILES IDX 60 67 74 69 95 70 62 71 46 72 47 73 55 74 48 75 50 76 56 77
REMARK SMILES IDX 49 78 51 79 52 80 53 81 54 82 78 83 79 84 87 85 80 86 82 87
REMARK SMILES IDX 88 88 81 89 83 90 84 91 85 92 86 93 63 94 64 95 72 96 65 97
REMARK SMILES IDX 67 98 73 99 66 100 68 101 69 102 70 103 71 104
REMARK H PARENT 1 8 1 9 1 10 93 57 61 68
REMARK Flexibility Score: inf
ROOT
ATOM      1  C   UNL A   1      33.359  34.712  29.236  1.00  0.00     0.202 C 
ENDROOT
BRANCH   1   2
ATOM      2  C   UNL A   1      33.096  33.893  27.964  1.00  0.00     0.261 C 
BRANCH   2   3
ATOM      3  O   UNL A   1      33.216  32.477  28.216  1.00  0.00    -0.459 OA
BRANCH   3   4
ATOM      4  C   UNL A   1      34.231  31.806  27.627  1.00  0.00     0.365 C 
ATOM      5  O   UNL A   1      35.358  32.263  27.455  1.00  0.00    -0.245 OA
BRANCH   4   6
ATOM      6  C   UNL A   1      33.861  30.351  27.254  1.00  0.00     0.296 C 
BRANCH   6   7
ATOM      7  N   UNL A   1      34.703  29.332  27.936  1.00  0.00    -0.346 N 
ATOM      8  H   UNL A   1      34.122  28.772  28.558  1.00  0.00     0.345 HD
ATOM      9  H   UNL A   1      35.430  29.800  28.478  1.00  0.00     0.345 HD
ATOM     10  H   UNL A   1      35.136  28.728  27.238  1.00  0.00     0.345 HD
ENDBRANCH   6   7
BRANCH   6  11
ATOM     11  C   UNL A   1      32.363  30.023  27.185  1.00  0.00     0.115 C 
BRANCH  11  12
ATOM     12  C   UNL A   1      31.791  28.849  26.417  1.00  0.00    -0.015 A 
ATOM     13  C   UNL A   1      31.851  27.541  26.894  1.00  0.00     0.099 A 
ATOM     14  C   UNL A   1      31.168  28.742  25.128  1.00  0.00     0.004 A 
ATOM     15  N   UNL A   1      31.561  26.669  25.868  1.00  0.00    -0.285 N 
ATOM     16  C   UNL A   1      31.175  27.393  24.757  1.00  0.00     0.056 A 
ATOM     17  C   UNL A   1      30.622  29.639  24.200  1.00  0.00     0.010 A 
ATOM     18  C   UNL A   1      30.766  26.948  23.484  1.00  0.00     0.027 A 
ATOM     19  C   UNL A   1      30.175  29.199  22.958  1.00  0.00     0.001 A 
ATOM     20  C   UNL A   1      30.278  27.876  22.580  1.00  0.00     0.002 A 
BRANCH  15  21
ATOM     21  C   UNL A   1      31.520  25.251  25.930  1.00  0.00     0.240 A 
ATOM     22  N   UNL A   1      30.435  24.713  26.480  1.00  0.00    -0.181 NA
ATOM     23  N   UNL A   1      32.658  24.595  25.670  1.00  0.00    -0.176 NA
ATOM     24  C   UNL A   1      30.538  23.417  26.690  1.00  0.00     0.228 A 
ATOM     25  C   UNL A   1      32.661  23.314  26.027  1.00  0.00     0.231 A 
ATOM     26  Cl  UNL A   1      29.214  22.667  27.460  1.00  0.00    -0.041 Cl
ATOM     27  N   UNL A   1      31.607  22.663  26.498  1.00  0.00    -0.182 NA
BRANCH  25  28
ATOM     28  N   UNL A   1      33.833  22.608  25.997  1.00  0.00    -0.336 N 
ATOM     29  C   UNL A   1      35.003  23.100  26.712  1.00  0.00     0.148 C 
ATOM     30  C   UNL A   1      34.067  21.780  24.826  1.00  0.00     0.148 C 
ATOM     31  C   UNL A   1      36.062  23.639  25.743  1.00  0.00     0.181 C 
ATOM     32  C   UNL A   1      35.132  22.439  23.935  1.00  0.00     0.181 C 
ATOM     33  O   UNL A   1      36.337  22.711  24.677  1.00  0.00    -0.378 OA
ENDBRANCH  25  28
ENDBRANCH  15  21
ENDBRANCH  11  12
ENDBRANCH   6  11
ENDBRANCH   4   6
ENDBRANCH   3   4
ENDBRANCH   2   3
ENDBRANCH   1   2
BRANCH   1  34
ATOM     34  O   UNL A   1      34.734  34.802  29.635  1.00  0.00    -0.374 OA
BRANCH  34  35
ATOM     35  C   UNL A   1      35.087  34.012  30.772  1.00  0.00     0.202 C 
BRANCH  35  36
ATOM     36  C   UNL A   1      36.489  33.388  30.714  1.00  0.00     0.261 C 
BRANCH  36  37
ATOM     37  O   UNL A   1      36.609  32.329  31.681  1.00  0.00    -0.460 OA
BRANCH  37  38
ATOM     38  C   UNL A   1      36.443  31.071  31.193  1.00  0.00     0.338 C 
ATOM     39  O   UNL A   1      35.618  30.674  30.412  1.00  0.00    -0.246 OA
BRANCH  38  40
ATOM     40  C   UNL A   1      37.669  30.348  31.592  1.00  0.00     0.060 A 
ATOM     41  C   UNL A   1      38.843  31.052  31.849  1.00  0.00     0.016 A 
ATOM     42  C   UNL A   1      37.688  28.962  31.418  1.00  0.00     0.016 A 
ATOM     43  C   UNL A   1      40.056  30.392  31.695  1.00  0.00     0.010 A 
ATOM     44  C   UNL A   1      38.909  28.301  31.352  1.00  0.00     0.010 A 
ATOM     45  C   UNL A   1      40.104  29.022  31.384  1.00  0.00    -0.014 A 
BRANCH  45  46
ATOM     46  C   UNL A   1      41.438  28.404  31.198  1.00  0.00     0.031 A 
ATOM     47  C   UNL A   1      42.210  28.179  32.466  1.00  0.00     0.074 A 
ATOM     48  C   UNL A   1      41.926  27.939  30.025  1.00  0.00     0.049 A 
ATOM     49  N   UNL A   1      43.413  28.556  32.773  1.00  0.00    -0.248 NA
ATOM     50  C   UNL A   1      41.475  27.553  33.581  1.00  0.00     0.031 C 
ATOM     51  C   UNL A   1      41.245  27.851  28.730  1.00  0.00     0.029 A 
ATOM     52  N   UNL A   1      43.107  27.284  29.785  1.00  0.00    -0.354 N 
ATOM     53  C   UNL A   1      43.645  28.060  34.056  1.00  0.00     0.074 A 
ATOM     54  C   UNL A   1      42.378  27.589  34.556  1.00  0.00     0.031 C 
ATOM     55  C   UNL A   1      41.873  26.939  27.958  1.00  0.00     0.029 A 
ATOM     56  C   UNL A   1      43.064  26.481  28.645  1.00  0.00     0.049 A 
ATOM     57  H   UNL A   1      43.902  27.371  30.359  1.00  0.00     0.167 HD
ATOM     58  C   UNL A   1      44.882  27.874  34.591  1.00  0.00     0.034 A 
ATOM     59  C   UNL A   1      43.882  25.439  28.351  1.00  0.00     0.034 A 
ATOM     60  C   UNL A   1      45.918  28.579  33.904  1.00  0.00     0.049 A 
ATOM     61  C   UNL A   1      45.110  25.603  29.158  1.00  0.00     0.074 A 
ATOM     62  C   UNL A   1      46.238  29.903  33.683  1.00  0.00     0.029 A 
ATOM     63  N   UNL A   1      46.711  27.854  33.053  1.00  0.00    -0.354 N 
ATOM     64  N   UNL A   1      45.984  26.552  28.982  1.00  0.00    -0.248 NA
ATOM     65  C   UNL A   1      45.206  24.881  30.416  1.00  0.00     0.031 C 
ATOM     66  C   UNL A   1      46.855  29.926  32.399  1.00  0.00     0.029 A 
ATOM     67  C   UNL A   1      46.882  28.612  31.926  1.00  0.00     0.049 A 
ATOM     68  H   UNL A   1      47.087  26.960  33.220  1.00  0.00     0.167 HD
ATOM     69  C   UNL A   1      46.459  26.825  30.257  1.00  0.00     0.074 A 
ATOM     70  C   UNL A   1      46.033  25.694  31.073  1.00  0.00     0.031 C 
ATOM     71  C   UNL A   1      46.907  28.070  30.589  1.00  0.00     0.034 A 
BRANCH  58  72
ATOM     72  C   UNL A   1      45.185  26.789  35.589  1.00  0.00     0.023 A 
ATOM     73  C   UNL A   1      45.333  25.463  35.140  1.00  0.00     0.012 A 
ATOM     74  C   UNL A   1      45.095  26.998  36.985  1.00  0.00     0.148 A 
ATOM     75  C   UNL A   1      45.410  24.395  36.044  1.00  0.00     0.002 A 
ATOM     76  C   UNL A   1      45.254  25.948  37.879  1.00  0.00     0.091 A 
ATOM     77  F   UNL A   1      44.731  28.200  37.450  1.00  0.00    -0.205 F 
ATOM     78  C   UNL A   1      45.393  24.640  37.414  1.00  0.00     0.022 A 
BRANCH  76  79
ATOM     79  S   UNL A   1      45.298  26.235  39.651  1.00  0.00     0.127 S 
ATOM     80  O   UNL A   1      46.369  27.219  39.764  1.00  0.00    -0.237 OA
ATOM     81  O   UNL A   1      43.952  26.748  39.907  1.00  0.00    -0.237 OA
ATOM     82  O   UNL A   1      45.555  24.926  40.240  1.00  0.00    -0.744 OA
ENDBRANCH  76  79
ENDBRANCH  58  72
BRANCH  59  83
ATOM     83  C   UNL A   1      43.583  24.153  27.665  1.00  0.00     0.023 A 
ATOM     84  C   UNL A   1      42.290  23.597  27.786  1.00  0.00     0.012 A 
ATOM     85  C   UNL A   1      44.432  23.625  26.668  1.00  0.00     0.148 A 
ATOM     86  C   UNL A   1      41.841  22.599  26.911  1.00  0.00     0.002 A 
ATOM     87  C   UNL A   1      43.988  22.619  25.812  1.00  0.00     0.091 A 
ATOM     88  F   UNL A   1      45.640  24.174  26.481  1.00  0.00    -0.205 F 
ATOM     89  C   UNL A   1      42.687  22.116  25.918  1.00  0.00     0.022 A 
BRANCH  87  90
ATOM     90  S   UNL A   1      45.035  21.958  24.508  1.00  0.00     0.127 S 
ATOM     91  O   UNL A   1      46.241  21.574  25.244  1.00  0.00    -0.237 OA
ATOM     92  O   UNL A   1      44.237  20.839  24.016  1.00  0.00    -0.237 OA
ATOM     93  O   UNL A   1      45.237  23.058  23.572  1.00  0.00    -0.744 OA
ENDBRANCH  87  90
ENDBRANCH  59  83
BRANCH  71  94
ATOM     94  C   UNL A   1      47.143  29.058  29.479  1.00  0.00     0.023 A 
ATOM     95  C   UNL A   1      48.410  29.207  28.877  1.00  0.00     0.012 A 
ATOM     96  C   UNL A   1      46.032  29.697  28.905  1.00  0.00     0.148 A 
ATOM     97  C   UNL A   1      48.566  29.985  27.728  1.00  0.00     0.002 A 
ATOM     98  C   UNL A   1      46.184  30.439  27.740  1.00  0.00     0.091 A 
ATOM     99  F   UNL A   1      44.835  29.528  29.487  1.00  0.00    -0.205 F 
ATOM    100  C   UNL A   1      47.451  30.588  27.151  1.00  0.00     0.022 A 
BRANCH  98 101
ATOM    101  S   UNL A   1      44.783  31.153  26.875  1.00  0.00     0.127 S 
ATOM    102  O   UNL A   1      43.950  29.980  26.621  1.00  0.00    -0.237 OA
ATOM    103  O   UNL A   1      44.244  32.081  27.872  1.00  0.00    -0.237 OA
ATOM    104  O   UNL A   1      45.324  31.797  25.685  1.00  0.00    -0.744 OA
ENDBRANCH  98 101
ENDBRANCH  71  94
ENDBRANCH  45  46
ENDBRANCH  38  40
ENDBRANCH  37  38
ENDBRANCH  36  37
ENDBRANCH  35  36
ENDBRANCH  34  35
ENDBRANCH   1  34
TORSDOF 22
ENDMDL
MODEL 3
REMARK VINA RESULT:     -10.1      4.857      8.194
REMARK SMILES [NH3+][C@@H](Cc1cn(-c2nc(Cl)nc(N3CCOCC3)n2)c2ccccc12)C(=O)OCCOCCOC(=O)c1ccc(-c2c3nc(c(-c4cccc(S(=O)(=O)[O-])c4F)c4ccc([nH]4)c(-c4cccc(S(=O)(=O)[O-])c4F)c4nc(c(-c5cccc(S(=O)(=O)[O-])c5F)c5ccc2[nH]5)C=C4)C=C3)cc1
REMARK SMILES IDX 30 1 29 2 28 3 26 4 27 5 2 6 1 7 3 11 4 12 5 13 25 14 6 15
REMARK SMILES IDX 20 16 24 17 21 18 23 19 22 20 7 21 8 22 19 23 9 24 12 25
REMARK SMILES IDX 10 26 11 27 13 28 14 29 18 30 15 31 17 32 16 33 31 34 32 35
REMARK SMILES IDX 33 36 34 37 35 38 36 39 37 40 38 41 99 42 39 43 98 44 40 45
REMARK SMILES IDX 41 46 42 47 92 48 43 49 97 50 91 51 93 52 44 53 96 54 90 55
REMARK SMILES IDX 89 56 45 58 77 59 57 60 76 61 58 62 61 63 75 64 94 65 59 66
REMARK SMILES IDX 60 67 74 69 95 70 62 71 46 72 47 73 55 74 48 75 50 76 56 77
REMARK SMILES IDX 49 78 51 79 52 80 53 81 54 82 78 83 79 84 87 85 80 86 82 87
REMARK SMILES IDX 88 88 81 89 83 90 84 91 85 92 86 93 63 94 64 95 72 96 65 97
REMARK SMILES IDX 67 98 73 99 66 100 68 101 69 102 70 103 71 104
REMARK H PARENT 1 8 1 9 1 10 93 57 61 68
REMARK Flexibility Score: inf
ROOT
ATOM      1  C   UNL A   1      35.265  32.216  31.014  1.00  0.00     0.202 C 
ENDROOT
BRANCH   1   2
ATOM      2  C   UNL A   1      35.735  32.094  29.558  1.00  0.00     0.261 C 
BRANCH   2   3
ATOM      3  O   UNL A   1      34.921  31.159  28.818  1.00  0.00    -0.459 OA
BRANCH   3   4
ATOM      4  C   UNL A   1      34.001  31.651  27.960  1.00  0.00     0.365 C 
ATOM      5  O   UNL A   1      33.595  32.810  27.966  1.00  0.00    -0.245 OA
BRANCH   4   6
ATOM      6  C   UNL A   1      33.553  30.623  26.894  1.00  0.00     0.296 C 
BRANCH   6   7
ATOM      7  N   UNL A   1      34.640  29.702  26.467  1.00  0.00    -0.346 N 
ATOM      8  H   UNL A   1      35.087  29.299  27.290  1.00  0.00     0.345 HD
ATOM      9  H   UNL A   1      35.330  30.220  25.924  1.00  0.00     0.345 HD
ATOM     10  H   UNL A   1      34.246  28.957  25.893  1.00  0.00     0.345 HD
ENDBRANCH   6   7
BRANCH   6  11
ATOM     11  C   UNL A   1      32.183  29.965  27.113  1.00  0.00     0.115 C 
BRANCH  11  12
ATOM     12  C   UNL A   1      31.701  28.749  26.349  1.00  0.00    -0.015 A 
ATOM     13  C   UNL A   1      31.740  27.463  26.885  1.00  0.00     0.099 A 
ATOM     14  C   UNL A   1      31.195  28.577  25.017  1.00  0.00     0.004 A 
ATOM     15  N   UNL A   1      31.556  26.544  25.875  1.00  0.00    -0.285 N 
ATOM     16  C   UNL A   1      31.256  27.214  24.705  1.00  0.00     0.056 A 
ATOM     17  C   UNL A   1      30.718  29.424  24.008  1.00  0.00     0.010 A 
ATOM     18  C   UNL A   1      30.968  26.709  23.421  1.00  0.00     0.027 A 
ATOM     19  C   UNL A   1      30.388  28.925  22.752  1.00  0.00     0.001 A 
ATOM     20  C   UNL A   1      30.546  27.590  22.440  1.00  0.00     0.002 A 
BRANCH  15  21
ATOM     21  C   UNL A   1      31.532  25.129  25.994  1.00  0.00     0.240 A 
ATOM     22  N   UNL A   1      30.417  24.594  26.482  1.00  0.00    -0.181 NA
ATOM     23  N   UNL A   1      32.698  24.485  25.849  1.00  0.00    -0.176 NA
ATOM     24  C   UNL A   1      30.525  23.309  26.753  1.00  0.00     0.228 A 
ATOM     25  C   UNL A   1      32.693  23.220  26.259  1.00  0.00     0.231 A 
ATOM     26  Cl  UNL A   1      29.157  22.566  27.450  1.00  0.00    -0.041 Cl
ATOM     27  N   UNL A   1      31.617  22.569  26.675  1.00  0.00    -0.182 NA
BRANCH  25  28
ATOM     28  N   UNL A   1      33.876  22.537  26.348  1.00  0.00    -0.336 N 
ATOM     29  C   UNL A   1      35.090  23.096  25.771  1.00  0.00     0.148 C 
ATOM     30  C   UNL A   1      33.789  21.089  26.444  1.00  0.00     0.148 C 
ATOM     31  C   UNL A   1      35.503  22.340  24.502  1.00  0.00     0.181 C 
ATOM     32  C   UNL A   1      34.211  20.459  25.108  1.00  0.00     0.181 C 
ATOM     33  O   UNL A   1      35.518  20.915  24.706  1.00  0.00    -0.378 OA
ENDBRANCH  25  28
ENDBRANCH  15  21
ENDBRANCH  11  12
ENDBRANCH   6  11
ENDBRANCH   4   6
ENDBRANCH   3   4
ENDBRANCH   2   3
ENDBRANCH   1   2
BRANCH   1  34
ATOM     34  O   UNL A   1      35.917  31.340  31.945  1.00  0.00    -0.374 OA
BRANCH  34  35
ATOM     35  C   UNL A   1      36.218  31.923  33.214  1.00  0.00     0.202 C 
BRANCH  35  36
ATOM     36  C   UNL A   1      37.065  33.202  33.153  1.00  0.00     0.261 C 
BRANCH  36  37
ATOM     37  O   UNL A   1      38.355  32.924  32.578  1.00  0.00    -0.460 OA
BRANCH  37  38
ATOM     38  C   UNL A   1      38.622  33.559  31.405  1.00  0.00     0.338 C 
ATOM     39  O   UNL A   1      38.341  34.684  31.083  1.00  0.00    -0.246 OA
BRANCH  38  40
ATOM     40  C   UNL A   1      39.590  32.682  30.715  1.00  0.00     0.060 A 
ATOM     41  C   UNL A   1      39.245  31.370  30.401  1.00  0.00     0.016 A 
ATOM     42  C   UNL A   1      40.921  33.105  30.659  1.00  0.00     0.016 A 
ATOM     43  C   UNL A   1      40.263  30.433  30.261  1.00  0.00     0.010 A 
ATOM     44  C   UNL A   1      41.924  32.170  30.432  1.00  0.00     0.010 A 
ATOM     45  C   UNL A   1      41.614  30.812  30.337  1.00  0.00    -0.014 A 
BRANCH  45  46
ATOM     46  C   UNL A   1      42.636  29.746  30.217  1.00  0.00     0.031 A 
ATOM     47  C   UNL A   1      43.110  29.178  31.523  1.00  0.00     0.074 A 
ATOM     48  C   UNL A   1      43.054  29.194  29.055  1.00  0.00     0.049 A 
ATOM     49  N   UNL A   1      44.321  29.055  31.974  1.00  0.00    -0.248 NA
ATOM     50  C   UNL A   1      42.066  28.819  32.502  1.00  0.00     0.031 C 
ATOM     51  C   UNL A   1      42.551  29.440  27.701  1.00  0.00     0.029 A 
ATOM     52  N   UNL A   1      43.928  28.154  28.864  1.00  0.00    -0.354 N 
ATOM     53  C   UNL A   1      44.195  28.440  33.220  1.00  0.00     0.074 A 
ATOM     54  C   UNL A   1      42.794  28.458  33.555  1.00  0.00     0.031 C 
ATOM     55  C   UNL A   1      42.884  28.400  26.907  1.00  0.00     0.029 A 
ATOM     56  C   UNL A   1      43.728  27.489  27.653  1.00  0.00     0.049 A 
ATOM     57  H   UNL A   1      44.623  27.902  29.514  1.00  0.00     0.167 HD
ATOM     58  C   UNL A   1      45.201  27.771  33.847  1.00  0.00     0.034 A 
ATOM     59  C   UNL A   1      44.131  26.232  27.339  1.00  0.00     0.034 A 
ATOM     60  C   UNL A   1      46.499  28.066  33.327  1.00  0.00     0.049 A 
ATOM     61  C   UNL A   1      45.225  25.875  28.267  1.00  0.00     0.074 A 
ATOM     62  C   UNL A   1      47.312  29.179  33.263  1.00  0.00     0.029 A 
ATOM     63  N   UNL A   1      47.063  27.141  32.488  1.00  0.00    -0.354 N 
ATOM     64  N   UNL A   1      46.403  26.430  28.263  1.00  0.00    -0.248 NA
ATOM     65  C   UNL A   1      44.893  25.105  29.454  1.00  0.00     0.031 C 
ATOM     66  C   UNL A   1      48.043  29.035  32.049  1.00  0.00     0.029 A 
ATOM     67  C   UNL A   1      47.638  27.837  31.458  1.00  0.00     0.049 A 
ATOM     68  H   UNL A   1      47.057  26.163  32.603  1.00  0.00     0.167 HD
ATOM     69  C   UNL A   1      46.787  26.435  29.595  1.00  0.00     0.074 A 
ATOM     70  C   UNL A   1      45.877  25.507  30.259  1.00  0.00     0.031 C 
ATOM     71  C   UNL A   1      47.621  27.397  30.084  1.00  0.00     0.034 A 
BRANCH  58  72
ATOM     72  C   UNL A   1      44.957  26.601  34.761  1.00  0.00     0.023 A 
ATOM     73  C   UNL A   1      44.353  25.438  34.245  1.00  0.00     0.012 A 
ATOM     74  C   UNL A   1      45.089  26.697  36.165  1.00  0.00     0.148 A 
ATOM     75  C   UNL A   1      43.920  24.409  35.091  1.00  0.00     0.002 A 
ATOM     76  C   UNL A   1      44.735  25.641  36.994  1.00  0.00     0.091 A 
ATOM     77  F   UNL A   1      45.446  27.865  36.716  1.00  0.00    -0.205 F 
ATOM     78  C   UNL A   1      44.130  24.500  36.463  1.00  0.00     0.022 A 
BRANCH  76  79
ATOM     79  S   UNL A   1      45.047  25.700  38.760  1.00  0.00     0.127 S 
ATOM     80  O   UNL A   1      44.746  24.329  39.158  1.00  0.00    -0.237 OA
ATOM     81  O   UNL A   1      46.464  26.064  38.805  1.00  0.00    -0.237 OA
ATOM     82  O   UNL A   1      44.153  26.733  39.269  1.00  0.00    -0.744 OA
ENDBRANCH  76  79
ENDBRANCH  58  72
BRANCH  59  83
ATOM     83  C   UNL A   1      43.461  25.193  26.509  1.00  0.00     0.023 A 
ATOM     84  C   UNL A   1      44.125  24.699  25.364  1.00  0.00     0.012 A 
ATOM     85  C   UNL A   1      42.338  24.476  26.976  1.00  0.00     0.148 A 
ATOM     86  C   UNL A   1      43.723  23.507  24.747  1.00  0.00     0.002 A 
ATOM     87  C   UNL A   1      41.930  23.301  26.348  1.00  0.00     0.091 A 
ATOM     88  F   UNL A   1      41.726  24.878  28.098  1.00  0.00    -0.205 F 
ATOM     89  C   UNL A   1      42.632  22.803  25.244  1.00  0.00     0.022 A 
BRANCH  87  90
ATOM     90  S   UNL A   1      40.529  22.346  26.947  1.00  0.00     0.127 S 
ATOM     91  O   UNL A   1      40.466  21.249  25.980  1.00  0.00    -0.237 OA
ATOM     92  O   UNL A   1      40.974  21.959  28.283  1.00  0.00    -0.237 OA
ATOM     93  O   UNL A   1      39.387  23.252  26.893  1.00  0.00    -0.744 OA
ENDBRANCH  87  90
ENDBRANCH  59  83
BRANCH  71  94
ATOM     94  C   UNL A   1      48.339  28.280  29.099  1.00  0.00     0.023 A 
ATOM     95  C   UNL A   1      49.569  27.898  28.523  1.00  0.00     0.012 A 
ATOM     96  C   UNL A   1      47.669  29.409  28.601  1.00  0.00     0.148 A 
ATOM     97  C   UNL A   1      50.123  28.635  27.474  1.00  0.00     0.002 A 
ATOM     98  C   UNL A   1      48.204  30.117  27.531  1.00  0.00     0.091 A 
ATOM     99  F   UNL A   1      46.494  29.742  29.155  1.00  0.00    -0.205 F 
ATOM    100  C   UNL A   1      49.433  29.736  26.968  1.00  0.00     0.022 A 
BRANCH  98 101
ATOM    101  S   UNL A   1      47.326  31.474  26.753  1.00  0.00     0.127 S 
ATOM    102  O   UNL A   1      46.483  30.778  25.784  1.00  0.00    -0.237 OA
ATOM    103  O   UNL A   1      46.603  32.064  27.881  1.00  0.00    -0.237 OA
ATOM    104  O   UNL A   1      48.346  32.341  26.175  1.00  0.00    -0.744 OA
ENDBRANCH  98 101
ENDBRANCH  71  94
ENDBRANCH  45  46
ENDBRANCH  38  40
ENDBRANCH  37  38
ENDBRANCH  36  37
ENDBRANCH  35  36
ENDBRANCH  34  35
ENDBRANCH   1  34
TORSDOF 22
ENDMDL
