MODEL 1
REMARK VINA RESULT:     -10.7      0.000      0.000
REMARK SMILES C[NH2+][C@]1(C(=O)OCCOCCOC(=O)c2ccc(-c3c4nc(c(-c5cccc(S(=O)(=O)[O-])c5F)c5ccc([nH]5)c(-c5cccc(S(=O)(=O)[O-])c5F)c5nc(c(-c6cccc(S(=O)(=O)[O-])c6F)c6ccc3[nH]6)C=C5)C=C4)cc2)CCC[C@@H](Sc2nccn2C)C1
REMARK SMILES IDX 10 1 9 2 8 3 7 4 6 5 4 6 5 7 3 8 78 9 89 10 79 11 81 12
REMARK SMILES IDX 80 13 2 14 1 15 82 18 83 19 84 20 87 21 85 22 86 23 88 24
REMARK SMILES IDX 11 25 12 26 13 27 14 28 15 29 16 30 77 31 17 32 76 33 18 34
REMARK SMILES IDX 19 35 20 36 70 37 21 38 75 39 69 40 71 41 22 42 74 43 68 44
REMARK SMILES IDX 67 45 23 47 55 48 35 49 54 50 36 51 39 52 53 53 72 54 37 55
REMARK SMILES IDX 38 56 52 58 73 59 40 60 24 61 25 62 33 63 26 64 28 65 34 66
REMARK SMILES IDX 27 67 29 68 30 69 31 70 32 71 56 72 57 73 65 74 58 75 60 76
REMARK SMILES IDX 66 77 59 78 61 79 62 80 63 81 64 82 41 83 42 84 50 85 43 86
REMARK SMILES IDX 45 87 51 88 44 89 46 90 47 91 48 92 49 93
REMARK H PARENT 2 16 2 17 71 46 39 57
REMARK Flexibility Score: inf
ROOT
ATOM      1  C   UNL A   1      36.270  19.735  24.944  1.00  0.00     0.202 C 
ENDROOT
BRANCH   1   2
ATOM      2  O   UNL A   1      34.915  20.191  24.947  1.00  0.00    -0.374 OA
BRANCH   2   3
ATOM      3  C   UNL A   1      33.885  19.204  24.971  1.00  0.00     0.202 C 
BRANCH   3   4
ATOM      4  C   UNL A   1      32.579  19.531  24.243  1.00  0.00     0.261 C 
BRANCH   4   5
ATOM      5  O   UNL A   1      32.254  20.924  24.331  1.00  0.00    -0.459 OA
BRANCH   5   6
ATOM      6  C   UNL A   1      32.231  21.595  23.144  1.00  0.00     0.368 C 
ATOM      7  O   UNL A   1      31.883  21.088  22.081  1.00  0.00    -0.245 OA
BRANCH   6   8
ATOM      8  C   UNL A   1      32.727  23.074  23.280  1.00  0.00     0.195 C 
ATOM      9  C   UNL A   1      33.037  23.735  21.904  1.00  0.00     0.081 C 
ATOM     10  C   UNL A   1      31.541  23.824  23.916  1.00  0.00     0.096 C 
ATOM     11  C   UNL A   1      33.274  25.247  21.988  1.00  0.00     0.008 C 
ATOM     12  C   UNL A   1      31.731  25.338  23.996  1.00  0.00     0.061 C 
ATOM     13  C   UNL A   1      32.096  25.962  22.644  1.00  0.00     0.015 C 
BRANCH   8  14
ATOM     14  N   UNL A   1      34.004  23.116  24.062  1.00  0.00    -0.335 N 
ATOM     15  C   UNL A   1      33.879  23.475  25.469  1.00  0.00     0.331 C 
ATOM     16  H   UNL A   1      34.432  22.191  24.013  1.00  0.00     0.347 HD
ATOM     17  H   UNL A   1      34.563  23.857  23.638  1.00  0.00     0.347 HD
ENDBRANCH   8  14
BRANCH  12  18
ATOM     18  S   UNL A   1      30.282  26.179  24.750  1.00  0.00    -0.084 SA
BRANCH  18  19
ATOM     19  C   UNL A   1      31.030  27.292  25.851  1.00  0.00     0.167 A 
ATOM     20  N   UNL A   1      31.288  27.036  27.112  1.00  0.00    -0.231 NA
ATOM     21  N   UNL A   1      31.409  28.562  25.512  1.00  0.00    -0.329 N 
ATOM     22  C   UNL A   1      31.801  28.198  27.627  1.00  0.00     0.132 A 
ATOM     23  C   UNL A   1      31.881  29.161  26.651  1.00  0.00     0.108 A 
ATOM     24  C   UNL A   1      31.341  29.218  24.231  1.00  0.00     0.152 C 
ENDBRANCH  18  19
ENDBRANCH  12  18
ENDBRANCH   6   8
ENDBRANCH   5   6
ENDBRANCH   4   5
ENDBRANCH   3   4
ENDBRANCH   2   3
ENDBRANCH   1   2
BRANCH   1  25
ATOM     25  C   UNL A   1      37.352  20.753  24.564  1.00  0.00     0.261 C 
BRANCH  25  26
ATOM     26  O   UNL A   1      37.701  21.626  25.654  1.00  0.00    -0.460 OA
BRANCH  26  27
ATOM     27  C   UNL A   1      38.964  21.478  26.118  1.00  0.00     0.338 C 
ATOM     28  O   UNL A   1      39.717  20.530  25.917  1.00  0.00    -0.246 OA
BRANCH  27  29
ATOM     29  C   UNL A   1      39.423  22.714  26.772  1.00  0.00     0.060 A 
ATOM     30  C   UNL A   1      38.696  23.886  26.519  1.00  0.00     0.016 A 
ATOM     31  C   UNL A   1      40.590  22.756  27.537  1.00  0.00     0.016 A 
ATOM     32  C   UNL A   1      39.164  25.113  26.982  1.00  0.00     0.010 A 
ATOM     33  C   UNL A   1      41.064  23.992  27.992  1.00  0.00     0.010 A 
ATOM     34  C   UNL A   1      40.376  25.179  27.681  1.00  0.00    -0.014 A 
BRANCH  34  35
ATOM     35  C   UNL A   1      40.991  26.501  27.947  1.00  0.00     0.031 A 
ATOM     36  C   UNL A   1      42.401  26.757  27.487  1.00  0.00     0.074 A 
ATOM     37  C   UNL A   1      40.298  27.469  28.573  1.00  0.00     0.049 A 
ATOM     38  N   UNL A   1      43.132  27.833  27.616  1.00  0.00    -0.248 NA
ATOM     39  C   UNL A   1      43.077  25.651  26.788  1.00  0.00     0.031 C 
ATOM     40  C   UNL A   1      38.927  27.344  29.062  1.00  0.00     0.029 A 
ATOM     41  N   UNL A   1      40.668  28.744  28.924  1.00  0.00    -0.354 N 
ATOM     42  C   UNL A   1      44.359  27.529  27.039  1.00  0.00     0.074 A 
ATOM     43  C   UNL A   1      44.280  26.162  26.571  1.00  0.00     0.031 C 
ATOM     44  C   UNL A   1      38.579  28.487  29.678  1.00  0.00     0.029 A 
ATOM     45  C   UNL A   1      39.708  29.415  29.642  1.00  0.00     0.049 A 
ATOM     46  H   UNL A   1      41.538  29.139  28.685  1.00  0.00     0.167 HD
ATOM     47  C   UNL A   1      45.448  28.321  26.893  1.00  0.00     0.034 A 
ATOM     48  C   UNL A   1      39.744  30.633  30.220  1.00  0.00     0.034 A 
ATOM     49  C   UNL A   1      45.518  29.687  27.338  1.00  0.00     0.049 A 
ATOM     50  C   UNL A   1      40.973  31.490  30.059  1.00  0.00     0.074 A 
ATOM     51  C   UNL A   1      46.561  30.585  27.196  1.00  0.00     0.029 A 
ATOM     52  N   UNL A   1      44.509  30.349  28.020  1.00  0.00    -0.354 N 
ATOM     53  N   UNL A   1      42.079  31.232  29.403  1.00  0.00    -0.248 NA
ATOM     54  C   UNL A   1      40.946  32.818  30.688  1.00  0.00     0.031 C 
ATOM     55  C   UNL A   1      46.189  31.786  27.812  1.00  0.00     0.029 A 
ATOM     56  C   UNL A   1      44.907  31.641  28.316  1.00  0.00     0.049 A 
ATOM     57  H   UNL A   1      43.637  29.957  28.259  1.00  0.00     0.167 HD
ATOM     58  C   UNL A   1      42.864  32.375  29.512  1.00  0.00     0.074 A 
ATOM     59  C   UNL A   1      42.097  33.336  30.279  1.00  0.00     0.031 C 
ATOM     60  C   UNL A   1      44.111  32.605  29.033  1.00  0.00     0.034 A 
BRANCH  47  61
ATOM     61  C   UNL A   1      46.646  27.738  26.192  1.00  0.00     0.023 A 
ATOM     62  C   UNL A   1      46.787  27.909  24.800  1.00  0.00     0.012 A 
ATOM     63  C   UNL A   1      47.655  27.072  26.914  1.00  0.00     0.148 A 
ATOM     64  C   UNL A   1      47.900  27.401  24.132  1.00  0.00     0.002 A 
ATOM     65  C   UNL A   1      48.782  26.604  26.247  1.00  0.00     0.091 A 
ATOM     66  F   UNL A   1      47.490  26.898  28.232  1.00  0.00    -0.205 F 
ATOM     67  C   UNL A   1      48.901  26.758  24.856  1.00  0.00     0.022 A 
BRANCH  65  68
ATOM     68  S   UNL A   1      50.157  25.828  27.103  1.00  0.00     0.127 S 
ATOM     69  O   UNL A   1      49.671  24.458  27.262  1.00  0.00    -0.237 OA
ATOM     70  O   UNL A   1      51.247  25.979  26.139  1.00  0.00    -0.237 OA
ATOM     71  O   UNL A   1      50.334  26.577  28.340  1.00  0.00    -0.744 OA
ENDBRANCH  65  68
ENDBRANCH  47  61
BRANCH  48  72
ATOM     72  C   UNL A   1      38.559  31.130  30.976  1.00  0.00     0.023 A 
ATOM     73  C   UNL A   1      38.550  31.061  32.382  1.00  0.00     0.012 A 
ATOM     74  C   UNL A   1      37.453  31.691  30.309  1.00  0.00     0.148 A 
ATOM     75  C   UNL A   1      37.449  31.517  33.109  1.00  0.00     0.002 A 
ATOM     76  C   UNL A   1      36.383  32.194  31.041  1.00  0.00     0.091 A 
ATOM     77  F   UNL A   1      37.470  31.729  28.969  1.00  0.00    -0.205 F 
ATOM     78  C   UNL A   1      36.372  32.093  32.441  1.00  0.00     0.022 A 
BRANCH  76  79
ATOM     79  S   UNL A   1      35.016  33.066  30.266  1.00  0.00     0.127 S 
ATOM     80  O   UNL A   1      35.698  34.193  29.636  1.00  0.00    -0.237 OA
ATOM     81  O   UNL A   1      34.501  32.059  29.337  1.00  0.00    -0.237 OA
ATOM     82  O   UNL A   1      34.100  33.401  31.348  1.00  0.00    -0.744 OA
ENDBRANCH  76  79
ENDBRANCH  48  72
BRANCH  60  83
ATOM     83  C   UNL A   1      44.727  33.956  29.295  1.00  0.00     0.023 A 
ATOM     84  C   UNL A   1      45.473  34.167  30.471  1.00  0.00     0.012 A 
ATOM     85  C   UNL A   1      44.636  34.988  28.339  1.00  0.00     0.148 A 
ATOM     86  C   UNL A   1      46.094  35.394  30.705  1.00  0.00     0.002 A 
ATOM     87  C   UNL A   1      45.295  36.191  28.558  1.00  0.00     0.091 A 
ATOM     88  F   UNL A   1      43.906  34.774  27.234  1.00  0.00    -0.205 F 
ATOM     89  C   UNL A   1      46.015  36.401  29.746  1.00  0.00     0.022 A 
BRANCH  87  90
ATOM     90  S   UNL A   1      45.326  37.507  27.335  1.00  0.00     0.127 S 
ATOM     91  O   UNL A   1      46.062  38.554  28.043  1.00  0.00    -0.237 OA
ATOM     92  O   UNL A   1      46.059  36.889  26.229  1.00  0.00    -0.237 OA
ATOM     93  O   UNL A   1      43.932  37.812  27.040  1.00  0.00    -0.744 OA
ENDBRANCH  87  90
ENDBRANCH  60  83
ENDBRANCH  34  35
ENDBRANCH  27  29
ENDBRANCH  26  27
ENDBRANCH  25  26
ENDBRANCH   1  25
TORSDOF 20
ENDMDL
MODEL 2
REMARK VINA RESULT:     -10.6      4.850     10.052
REMARK SMILES C[NH2+][C@]1(C(=O)OCCOCCOC(=O)c2ccc(-c3c4nc(c(-c5cccc(S(=O)(=O)[O-])c5F)c5ccc([nH]5)c(-c5cccc(S(=O)(=O)[O-])c5F)c5nc(c(-c6cccc(S(=O)(=O)[O-])c6F)c6ccc3[nH]6)C=C5)C=C4)cc2)CCC[C@@H](Sc2nccn2C)C1
REMARK SMILES IDX 10 1 9 2 8 3 7 4 6 5 4 6 5 7 3 8 78 9 89 10 79 11 81 12
REMARK SMILES IDX 80 13 2 14 1 15 82 18 83 19 84 20 87 21 85 22 86 23 88 24
REMARK SMILES IDX 11 25 12 26 13 27 14 28 15 29 16 30 77 31 17 32 76 33 18 34
REMARK SMILES IDX 19 35 20 36 70 37 21 38 75 39 69 40 71 41 22 42 74 43 68 44
REMARK SMILES IDX 67 45 23 47 55 48 35 49 54 50 36 51 39 52 53 53 72 54 37 55
REMARK SMILES IDX 38 56 52 58 73 59 40 60 24 61 25 62 33 63 26 64 28 65 34 66
REMARK SMILES IDX 27 67 29 68 30 69 31 70 32 71 56 72 57 73 65 74 58 75 60 76
REMARK SMILES IDX 66 77 59 78 61 79 62 80 63 81 64 82 41 83 42 84 50 85 43 86
REMARK SMILES IDX 45 87 51 88 44 89 46 90 47 91 48 92 49 93
REMARK H PARENT 2 16 2 17 71 46 39 57
REMARK Flexibility Score: inf
ROOT
ATOM      1  C   UNL A   1      31.852  30.207  26.121  1.00  0.00     0.202 C 
ENDROOT
BRANCH   1   2
ATOM      2  O   UNL A   1      32.379  29.055  26.783  1.00  0.00    -0.374 OA
BRANCH   2   3
ATOM      3  C   UNL A   1      31.449  28.089  27.271  1.00  0.00     0.202 C 
BRANCH   3   4
ATOM      4  C   UNL A   1      31.238  26.827  26.432  1.00  0.00     0.261 C 
BRANCH   4   5
ATOM      5  O   UNL A   1      32.371  25.951  26.494  1.00  0.00    -0.459 OA
BRANCH   5   6
ATOM      6  C   UNL A   1      32.079  24.619  26.492  1.00  0.00     0.368 C 
ATOM      7  O   UNL A   1      31.382  24.073  27.343  1.00  0.00    -0.245 OA
BRANCH   6   8
ATOM      8  C   UNL A   1      32.756  23.856  25.304  1.00  0.00     0.195 C 
ATOM      9  C   UNL A   1      32.022  22.531  24.941  1.00  0.00     0.081 C 
ATOM     10  C   UNL A   1      32.632  24.816  24.106  1.00  0.00     0.096 C 
ATOM     11  C   UNL A   1      32.505  21.900  23.630  1.00  0.00     0.008 C 
ATOM     12  C   UNL A   1      33.082  24.215  22.775  1.00  0.00     0.061 C 
ATOM     13  C   UNL A   1      32.394  22.880  22.465  1.00  0.00     0.015 C 
BRANCH   8  14
ATOM     14  N   UNL A   1      34.157  23.472  25.674  1.00  0.00    -0.335 N 
ATOM     15  C   UNL A   1      35.180  24.480  25.429  1.00  0.00     0.331 C 
ATOM     16  H   UNL A   1      34.168  23.252  26.670  1.00  0.00     0.347 HD
ATOM     17  H   UNL A   1      34.395  22.685  25.070  1.00  0.00     0.347 HD
ENDBRANCH   8  14
BRANCH  12  18
ATOM     18  S   UNL A   1      32.900  25.399  21.382  1.00  0.00    -0.084 SA
BRANCH  18  19
ATOM     19  C   UNL A   1      31.982  26.682  22.103  1.00  0.00     0.167 A 
ATOM     20  N   UNL A   1      30.687  26.651  22.311  1.00  0.00    -0.231 NA
ATOM     21  N   UNL A   1      32.524  27.870  22.511  1.00  0.00    -0.329 N 
ATOM     22  C   UNL A   1      30.364  27.881  22.820  1.00  0.00     0.132 A 
ATOM     23  C   UNL A   1      31.490  28.658  22.949  1.00  0.00     0.108 A 
ATOM     24  C   UNL A   1      33.901  28.291  22.501  1.00  0.00     0.152 C 
ENDBRANCH  18  19
ENDBRANCH  12  18
ENDBRANCH   6   8
ENDBRANCH   5   6
ENDBRANCH   4   5
ENDBRANCH   3   4
ENDBRANCH   2   3
ENDBRANCH   1   2
BRANCH   1  25
ATOM     25  C   UNL A   1      31.765  31.505  26.931  1.00  0.00     0.261 C 
BRANCH  25  26
ATOM     26  O   UNL A   1      32.825  32.428  26.618  1.00  0.00    -0.460 OA
BRANCH  26  27
ATOM     27  C   UNL A   1      33.384  33.035  27.690  1.00  0.00     0.338 C 
ATOM     28  O   UNL A   1      32.868  33.886  28.408  1.00  0.00    -0.246 OA
BRANCH  27  29
ATOM     29  C   UNL A   1      34.673  32.408  28.025  1.00  0.00     0.060 A 
ATOM     30  C   UNL A   1      34.666  31.038  28.322  1.00  0.00     0.016 A 
ATOM     31  C   UNL A   1      35.848  33.153  28.143  1.00  0.00     0.016 A 
ATOM     32  C   UNL A   1      35.822  30.418  28.794  1.00  0.00     0.010 A 
ATOM     33  C   UNL A   1      37.005  32.531  28.627  1.00  0.00     0.010 A 
ATOM     34  C   UNL A   1      36.984  31.172  28.993  1.00  0.00    -0.014 A 
BRANCH  34  35
ATOM     35  C   UNL A   1      38.124  30.571  29.728  1.00  0.00     0.031 A 
ATOM     36  C   UNL A   1      38.374  30.984  31.153  1.00  0.00     0.074 A 
ATOM     37  C   UNL A   1      38.914  29.654  29.141  1.00  0.00     0.049 A 
ATOM     38  N   UNL A   1      39.309  30.589  31.977  1.00  0.00    -0.248 NA
ATOM     39  C   UNL A   1      37.446  31.973  31.725  1.00  0.00     0.031 C 
ATOM     40  C   UNL A   1      38.771  29.171  27.769  1.00  0.00     0.029 A 
ATOM     41  N   UNL A   1      40.011  28.985  29.623  1.00  0.00    -0.354 N 
ATOM     42  C   UNL A   1      39.100  31.298  33.154  1.00  0.00     0.074 A 
ATOM     43  C   UNL A   1      37.957  32.157  32.934  1.00  0.00     0.031 C 
ATOM     44  C   UNL A   1      39.763  28.303  27.509  1.00  0.00     0.029 A 
ATOM     45  C   UNL A   1      40.620  28.184  28.687  1.00  0.00     0.049 A 
ATOM     46  H   UNL A   1      40.332  29.071  30.550  1.00  0.00     0.167 HD
ATOM     47  C   UNL A   1      39.783  31.226  34.321  1.00  0.00     0.034 A 
ATOM     48  C   UNL A   1      41.751  27.453  28.767  1.00  0.00     0.034 A 
ATOM     49  C   UNL A   1      40.905  30.355  34.547  1.00  0.00     0.049 A 
ATOM     50  C   UNL A   1      42.504  27.402  30.071  1.00  0.00     0.074 A 
ATOM     51  C   UNL A   1      41.637  30.177  35.708  1.00  0.00     0.029 A 
ATOM     52  N   UNL A   1      41.466  29.523  33.590  1.00  0.00    -0.354 N 
ATOM     53  N   UNL A   1      42.220  27.983  31.212  1.00  0.00    -0.248 NA
ATOM     54  C   UNL A   1      43.715  26.569  30.108  1.00  0.00     0.031 C 
ATOM     55  C   UNL A   1      42.653  29.252  35.447  1.00  0.00     0.029 A 
ATOM     56  C   UNL A   1      42.540  28.837  34.130  1.00  0.00     0.049 A 
ATOM     57  H   UNL A   1      41.146  29.433  32.663  1.00  0.00     0.167 HD
ATOM     58  C   UNL A   1      43.195  27.560  32.110  1.00  0.00     0.074 A 
ATOM     59  C   UNL A   1      44.066  26.656  31.385  1.00  0.00     0.031 C 
ATOM     60  C   UNL A   1      43.364  27.898  33.412  1.00  0.00     0.034 A 
BRANCH  47  61
ATOM     61  C   UNL A   1      39.315  32.093  35.460  1.00  0.00     0.023 A 
ATOM     62  C   UNL A   1      38.410  31.568  36.405  1.00  0.00     0.012 A 
ATOM     63  C   UNL A   1      39.808  33.401  35.625  1.00  0.00     0.148 A 
ATOM     64  C   UNL A   1      37.981  32.343  37.482  1.00  0.00     0.002 A 
ATOM     65  C   UNL A   1      39.407  34.153  36.723  1.00  0.00     0.091 A 
ATOM     66  F   UNL A   1      40.647  33.890  34.701  1.00  0.00    -0.205 F 
ATOM     67  C   UNL A   1      38.487  33.630  37.647  1.00  0.00     0.022 A 
BRANCH  65  68
ATOM     68  S   UNL A   1      40.058  35.793  37.061  1.00  0.00     0.127 S 
ATOM     69  O   UNL A   1      39.359  36.140  38.297  1.00  0.00    -0.237 OA
ATOM     70  O   UNL A   1      41.488  35.531  37.223  1.00  0.00    -0.237 OA
ATOM     71  O   UNL A   1      39.719  36.605  35.900  1.00  0.00    -0.744 OA
ENDBRANCH  65  68
ENDBRANCH  47  61
BRANCH  48  72
ATOM     72  C   UNL A   1      42.217  26.678  27.583  1.00  0.00     0.023 A 
ATOM     73  C   UNL A   1      42.995  27.314  26.596  1.00  0.00     0.012 A 
ATOM     74  C   UNL A   1      41.914  25.310  27.443  1.00  0.00     0.148 A 
ATOM     75  C   UNL A   1      43.440  26.607  25.477  1.00  0.00     0.002 A 
ATOM     76  C   UNL A   1      42.406  24.598  26.353  1.00  0.00     0.091 A 
ATOM     77  F   UNL A   1      41.155  24.727  28.381  1.00  0.00    -0.205 F 
ATOM     78  C   UNL A   1      43.155  25.249  25.361  1.00  0.00     0.022 A 
BRANCH  76  79
ATOM     79  S   UNL A   1      42.195  22.821  26.195  1.00  0.00     0.127 S 
ATOM     80  O   UNL A   1      40.742  22.686  26.226  1.00  0.00    -0.237 OA
ATOM     81  O   UNL A   1      42.811  22.557  24.893  1.00  0.00    -0.237 OA
ATOM     82  O   UNL A   1      42.912  22.238  27.321  1.00  0.00    -0.744 OA
ENDBRANCH  76  79
ENDBRANCH  48  72
BRANCH  60  83
ATOM     83  C   UNL A   1      44.516  27.273  34.157  1.00  0.00     0.023 A 
ATOM     84  C   UNL A   1      45.760  27.932  34.198  1.00  0.00     0.012 A 
ATOM     85  C   UNL A   1      44.341  26.078  34.883  1.00  0.00     0.148 A 
ATOM     86  C   UNL A   1      46.822  27.395  34.927  1.00  0.00     0.002 A 
ATOM     87  C   UNL A   1      45.390  25.573  35.643  1.00  0.00     0.091 A 
ATOM     88  F   UNL A   1      43.155  25.456  34.817  1.00  0.00    -0.205 F 
ATOM     89  C   UNL A   1      46.634  26.225  35.658  1.00  0.00     0.022 A 
BRANCH  87  90
ATOM     90  S   UNL A   1      45.209  24.124  36.690  1.00  0.00     0.127 S 
ATOM     91  O   UNL A   1      46.601  23.807  37.003  1.00  0.00    -0.237 OA
ATOM     92  O   UNL A   1      44.435  24.647  37.817  1.00  0.00    -0.237 OA
ATOM     93  O   UNL A   1      44.506  23.135  35.884  1.00  0.00    -0.744 OA
ENDBRANCH  87  90
ENDBRANCH  60  83
ENDBRANCH  34  35
ENDBRANCH  27  29
ENDBRANCH  26  27
ENDBRANCH  25  26
ENDBRANCH   1  25
TORSDOF 20
ENDMDL
MODEL 3
REMARK VINA RESULT:     -10.6      1.695      2.345
REMARK SMILES C[NH2+][C@]1(C(=O)OCCOCCOC(=O)c2ccc(-c3c4nc(c(-c5cccc(S(=O)(=O)[O-])c5F)c5ccc([nH]5)c(-c5cccc(S(=O)(=O)[O-])c5F)c5nc(c(-c6cccc(S(=O)(=O)[O-])c6F)c6ccc3[nH]6)C=C5)C=C4)cc2)CCC[C@@H](Sc2nccn2C)C1
REMARK SMILES IDX 10 1 9 2 8 3 7 4 6 5 4 6 5 7 3 8 78 9 89 10 79 11 81 12
REMARK SMILES IDX 80 13 2 14 1 15 82 18 83 19 84 20 87 21 85 22 86 23 88 24
REMARK SMILES IDX 11 25 12 26 13 27 14 28 15 29 16 30 77 31 17 32 76 33 18 34
REMARK SMILES IDX 19 35 20 36 70 37 21 38 75 39 69 40 71 41 22 42 74 43 68 44
REMARK SMILES IDX 67 45 23 47 55 48 35 49 54 50 36 51 39 52 53 53 72 54 37 55
REMARK SMILES IDX 38 56 52 58 73 59 40 60 24 61 25 62 33 63 26 64 28 65 34 66
REMARK SMILES IDX 27 67 29 68 30 69 31 70 32 71 56 72 57 73 65 74 58 75 60 76
REMARK SMILES IDX 66 77 59 78 61 79 62 80 63 81 64 82 41 83 42 84 50 85 43 86
REMARK SMILES IDX 45 87 51 88 44 89 46 90 47 91 48 92 49 93
REMARK H PARENT 2 16 2 17 71 46 39 57
REMARK Flexibility Score: inf
ROOT
ATOM      1  C   UNL A   1      36.933  20.511  24.485  1.00  0.00     0.202 C 
ENDROOT
BRANCH   1   2
ATOM      2  O   UNL A   1      35.718  19.890  24.910  1.00  0.00    -0.374 OA
BRANCH   2   3
ATOM      3  C   UNL A   1      34.651  20.741  25.329  1.00  0.00     0.202 C 
BRANCH   3   4
ATOM      4  C   UNL A   1      34.896  21.629  26.551  1.00  0.00     0.261 C 
BRANCH   4   5
ATOM      5  O   UNL A   1      33.906  22.658  26.669  1.00  0.00    -0.459 OA
BRANCH   5   6
ATOM      6  C   UNL A   1      34.080  23.732  25.847  1.00  0.00     0.368 C 
ATOM      7  O   UNL A   1      35.175  24.227  25.595  1.00  0.00    -0.245 OA
BRANCH   6   8
ATOM      8  C   UNL A   1      32.726  24.284  25.285  1.00  0.00     0.195 C 
ATOM      9  C   UNL A   1      31.704  24.632  26.408  1.00  0.00     0.081 C 
ATOM     10  C   UNL A   1      33.109  25.590  24.564  1.00  0.00     0.096 C 
ATOM     11  C   UNL A   1      30.480  25.407  25.906  1.00  0.00     0.008 C 
ATOM     12  C   UNL A   1      31.914  26.404  24.069  1.00  0.00     0.061 C 
ATOM     13  C   UNL A   1      30.889  26.683  25.174  1.00  0.00     0.015 C 
BRANCH   8  14
ATOM     14  N   UNL A   1      32.068  23.248  24.425  1.00  0.00    -0.335 N 
ATOM     15  C   UNL A   1      32.757  22.918  23.185  1.00  0.00     0.331 C 
ATOM     16  H   UNL A   1      31.986  22.392  24.974  1.00  0.00     0.347 HD
ATOM     17  H   UNL A   1      31.174  23.650  24.145  1.00  0.00     0.347 HD
ENDBRANCH   8  14
BRANCH  12  18
ATOM     18  S   UNL A   1      32.430  27.954  23.231  1.00  0.00    -0.084 SA
BRANCH  18  19
ATOM     19  C   UNL A   1      30.927  28.801  23.056  1.00  0.00     0.167 A 
ATOM     20  N   UNL A   1      30.061  28.597  22.091  1.00  0.00    -0.231 NA
ATOM     21  N   UNL A   1      30.504  29.787  23.905  1.00  0.00    -0.329 N 
ATOM     22  C   UNL A   1      29.066  29.519  22.286  1.00  0.00     0.132 A 
ATOM     23  C   UNL A   1      29.323  30.272  23.406  1.00  0.00     0.108 A 
ATOM     24  C   UNL A   1      31.130  30.283  25.104  1.00  0.00     0.152 C 
ENDBRANCH  18  19
ENDBRANCH  12  18
ENDBRANCH   6   8
ENDBRANCH   5   6
ENDBRANCH   4   5
ENDBRANCH   3   4
ENDBRANCH   2   3
ENDBRANCH   1   2
BRANCH   1  25
ATOM     25  C   UNL A   1      38.162  20.339  25.384  1.00  0.00     0.261 C 
BRANCH  25  26
ATOM     26  O   UNL A   1      38.859  21.578  25.615  1.00  0.00    -0.460 OA
BRANCH  26  27
ATOM     27  C   UNL A   1      39.923  21.484  26.446  1.00  0.00     0.338 C 
ATOM     28  O   UNL A   1      40.682  20.527  26.567  1.00  0.00    -0.246 OA
BRANCH  27  29
ATOM     29  C   UNL A   1      40.192  22.780  27.091  1.00  0.00     0.060 A 
ATOM     30  C   UNL A   1      39.462  23.889  26.639  1.00  0.00     0.016 A 
ATOM     31  C   UNL A   1      41.198  22.936  28.045  1.00  0.00     0.016 A 
ATOM     32  C   UNL A   1      39.774  25.166  27.098  1.00  0.00     0.010 A 
ATOM     33  C   UNL A   1      41.518  24.221  28.497  1.00  0.00     0.010 A 
ATOM     34  C   UNL A   1      40.835  25.344  27.994  1.00  0.00    -0.014 A 
BRANCH  34  35
ATOM     35  C   UNL A   1      41.323  26.715  28.280  1.00  0.00     0.031 A 
ATOM     36  C   UNL A   1      42.735  27.080  27.908  1.00  0.00     0.074 A 
ATOM     37  C   UNL A   1      40.515  27.630  28.845  1.00  0.00     0.049 A 
ATOM     38  N   UNL A   1      43.366  28.214  28.068  1.00  0.00    -0.248 NA
ATOM     39  C   UNL A   1      43.543  26.027  27.271  1.00  0.00     0.031 C 
ATOM     40  C   UNL A   1      39.129  27.398  29.246  1.00  0.00     0.029 A 
ATOM     41  N   UNL A   1      40.757  28.934  29.200  1.00  0.00    -0.354 N 
ATOM     42  C   UNL A   1      44.649  28.005  27.576  1.00  0.00     0.074 A 
ATOM     43  C   UNL A   1      44.712  26.633  27.125  1.00  0.00     0.031 C 
ATOM     44  C   UNL A   1      38.650  28.515  29.821  1.00  0.00     0.029 A 
ATOM     45  C   UNL A   1      39.701  29.531  29.845  1.00  0.00     0.049 A 
ATOM     46  H   UNL A   1      41.605  29.396  29.012  1.00  0.00     0.167 HD
ATOM     47  C   UNL A   1      45.678  28.882  27.489  1.00  0.00     0.034 A 
ATOM     48  C   UNL A   1      39.600  30.754  30.406  1.00  0.00     0.034 A 
ATOM     49  C   UNL A   1      45.608  30.254  27.917  1.00  0.00     0.049 A 
ATOM     50  C   UNL A   1      40.763  31.706  30.311  1.00  0.00     0.074 A 
ATOM     51  C   UNL A   1      46.582  31.233  27.830  1.00  0.00     0.029 A 
ATOM     52  N   UNL A   1      44.506  30.838  28.523  1.00  0.00    -0.354 N 
ATOM     53  N   UNL A   1      41.928  31.533  29.732  1.00  0.00    -0.248 NA
ATOM     54  C   UNL A   1      40.588  33.034  30.918  1.00  0.00     0.031 C 
ATOM     55  C   UNL A   1      46.075  32.405  28.402  1.00  0.00     0.029 A 
ATOM     56  C   UNL A   1      44.779  32.161  28.825  1.00  0.00     0.049 A 
ATOM     57  H   UNL A   1      43.656  30.379  28.710  1.00  0.00     0.167 HD
ATOM     58  C   UNL A   1      42.609  32.738  29.875  1.00  0.00     0.074 A 
ATOM     59  C   UNL A   1      41.718  33.640  30.576  1.00  0.00     0.031 C 
ATOM     60  C   UNL A   1      43.862  33.064  29.474  1.00  0.00     0.034 A 
BRANCH  47  61
ATOM     61  C   UNL A   1      46.963  28.393  26.876  1.00  0.00     0.023 A 
ATOM     62  C   UNL A   1      48.051  28.069  27.712  1.00  0.00     0.012 A 
ATOM     63  C   UNL A   1      47.077  28.203  25.486  1.00  0.00     0.148 A 
ATOM     64  C   UNL A   1      49.243  27.590  27.171  1.00  0.00     0.002 A 
ATOM     65  C   UNL A   1      48.255  27.686  24.957  1.00  0.00     0.091 A 
ATOM     66  F   UNL A   1      46.041  28.541  24.707  1.00  0.00    -0.205 F 
ATOM     67  C   UNL A   1      49.341  27.389  25.796  1.00  0.00     0.022 A 
BRANCH  65  68
ATOM     68  S   UNL A   1      48.451  27.326  23.208  1.00  0.00     0.127 S 
ATOM     69  O   UNL A   1      49.836  27.736  22.976  1.00  0.00    -0.237 OA
ATOM     70  O   UNL A   1      48.229  25.881  23.164  1.00  0.00    -0.237 OA
ATOM     71  O   UNL A   1      47.441  28.116  22.520  1.00  0.00    -0.744 OA
ENDBRANCH  65  68
ENDBRANCH  47  61
BRANCH  48  72
ATOM     72  C   UNL A   1      38.332  31.159  31.075  1.00  0.00     0.023 A 
ATOM     73  C   UNL A   1      38.174  30.945  32.458  1.00  0.00     0.012 A 
ATOM     74  C   UNL A   1      37.292  31.778  30.354  1.00  0.00     0.148 A 
ATOM     75  C   UNL A   1      36.993  31.314  33.104  1.00  0.00     0.002 A 
ATOM     76  C   UNL A   1      36.141  32.192  31.014  1.00  0.00     0.091 A 
ATOM     77  F   UNL A   1      37.452  31.954  29.034  1.00  0.00    -0.205 F 
ATOM     78  C   UNL A   1      35.983  31.947  32.386  1.00  0.00     0.022 A 
BRANCH  76  79
ATOM     79  S   UNL A   1      34.848  33.129  30.189  1.00  0.00     0.127 S 
ATOM     80  O   UNL A   1      34.306  32.141  29.261  1.00  0.00    -0.237 OA
ATOM     81  O   UNL A   1      33.966  33.477  31.305  1.00  0.00    -0.237 OA
ATOM     82  O   UNL A   1      35.517  34.272  29.582  1.00  0.00    -0.744 OA
ENDBRANCH  76  79
ENDBRANCH  48  72
BRANCH  60  83
ATOM     83  C   UNL A   1      44.348  34.463  29.755  1.00  0.00     0.023 A 
ATOM     84  C   UNL A   1      45.076  34.726  30.931  1.00  0.00     0.012 A 
ATOM     85  C   UNL A   1      44.155  35.496  28.815  1.00  0.00     0.148 A 
ATOM     86  C   UNL A   1      45.579  36.003  31.183  1.00  0.00     0.002 A 
ATOM     87  C   UNL A   1      44.698  36.753  29.051  1.00  0.00     0.091 A 
ATOM     88  F   UNL A   1      43.444  35.231  27.710  1.00  0.00    -0.205 F 
ATOM     89  C   UNL A   1      45.401  37.011  30.239  1.00  0.00     0.022 A 
BRANCH  87  90
ATOM     90  S   UNL A   1      44.599  38.085  27.849  1.00  0.00     0.127 S 
ATOM     91  O   UNL A   1      45.754  37.804  26.998  1.00  0.00    -0.237 OA
ATOM     92  O   UNL A   1      43.302  37.839  27.217  1.00  0.00    -0.237 OA
ATOM     93  O   UNL A   1      44.671  39.321  28.616  1.00  0.00    -0.744 OA
ENDBRANCH  87  90
ENDBRANCH  60  83
ENDBRANCH  34  35
ENDBRANCH  27  29
ENDBRANCH  26  27
ENDBRANCH  25  26
ENDBRANCH   1  25
TORSDOF 20
ENDMDL
