MODEL 1
REMARK VINA RESULT:     -11.3      0.000      0.000
REMARK SMILES C=Cc1cccc(-c2ccc([C@@H](C)C(=O)OCCOCCOC(=O)c3ccc(-c4c5nc(c(-c6cccc(S(=O)(=O)[O-])c6F)c6ccc([nH]6)c(-c6cccc(S(=O)(=O)[O-])c6F)c6nc(c(-c7cccc(S(=O)(=O)[O-])c7F)c7ccc4[nH]7)C=C6)C=C5)cc3)cc2)c1
REMARK SMILES IDX 19 1 18 2 17 3 16 4 14 5 15 6 12 7 13 8 11 9 8 10 9 11 89 12
REMARK SMILES IDX 10 13 88 14 7 15 3 16 4 17 90 18 5 19 6 20 2 21 1 22 20 23
REMARK SMILES IDX 21 24 22 25 23 26 24 27 25 28 26 29 87 30 27 31 86 32 28 33
REMARK SMILES IDX 29 34 30 35 80 36 31 37 85 38 79 39 81 40 32 41 84 42 78 43
REMARK SMILES IDX 77 44 33 46 65 47 45 48 64 49 46 50 49 51 63 52 82 53 47 54
REMARK SMILES IDX 48 55 62 57 83 58 50 59 34 60 35 61 43 62 36 63 38 64 44 65
REMARK SMILES IDX 37 66 39 67 40 68 41 69 42 70 66 71 67 72 75 73 68 74 70 75
REMARK SMILES IDX 76 76 69 77 71 78 72 79 73 80 74 81 51 82 52 83 60 84 53 85
REMARK SMILES IDX 55 86 61 87 54 88 56 89 57 90 58 91 59 92
REMARK H PARENT 81 45 49 56
REMARK Flexibility Score: inf
ROOT
ATOM      1  O   UNL A   1      30.405  30.112  24.499  1.00  0.00    -0.374 OA
ENDROOT
BRANCH   1   2
ATOM      2  C   UNL A   1      30.477  29.139  23.454  1.00  0.00     0.202 C 
BRANCH   2   3
ATOM      3  C   UNL A   1      30.692  27.690  23.902  1.00  0.00     0.261 C 
BRANCH   3   4
ATOM      4  O   UNL A   1      31.874  27.132  23.300  1.00  0.00    -0.463 OA
BRANCH   4   5
ATOM      5  C   UNL A   1      33.035  27.295  23.985  1.00  0.00     0.313 C 
ATOM      6  O   UNL A   1      33.998  27.939  23.577  1.00  0.00    -0.252 OA
BRANCH   5   7
ATOM      7  C   UNL A   1      33.062  26.578  25.325  1.00  0.00     0.126 C 
ATOM      8  C   UNL A   1      33.831  27.425  26.337  1.00  0.00     0.025 C 
BRANCH   7   9
ATOM      9  C   UNL A   1      33.506  25.118  25.340  1.00  0.00    -0.034 A 
ATOM     10  C   UNL A   1      34.304  22.389  25.130  1.00  0.00    -0.018 A 
ATOM     11  C   UNL A   1      33.095  22.749  25.744  1.00  0.00     0.009 A 
ATOM     12  C   UNL A   1      35.129  23.421  24.664  1.00  0.00     0.009 A 
ATOM     13  C   UNL A   1      32.700  24.091  25.847  1.00  0.00     0.005 A 
ATOM     14  C   UNL A   1      34.738  24.763  24.766  1.00  0.00     0.005 A 
BRANCH  10  15
ATOM     15  C   UNL A   1      34.667  20.974  24.921  1.00  0.00    -0.018 A 
ATOM     16  C   UNL A   1      34.048  18.645  24.465  1.00  0.00    -0.026 A 
ATOM     17  C   UNL A   1      35.384  18.265  24.623  1.00  0.00     0.008 A 
ATOM     18  C   UNL A   1      33.699  19.997  24.627  1.00  0.00     0.016 A 
ATOM     19  C   UNL A   1      36.360  19.218  24.907  1.00  0.00     0.001 A 
ATOM     20  C   UNL A   1      36.004  20.559  25.052  1.00  0.00     0.009 A 
BRANCH  16  21
ATOM     21  C   UNL A   1      33.051  17.603  24.187  1.00  0.00     0.000 C 
ATOM     22  C   UNL A   1      33.155  16.335  24.603  1.00  0.00     0.009 C 
ENDBRANCH  16  21
ENDBRANCH  10  15
ENDBRANCH   7   9
ENDBRANCH   5   7
ENDBRANCH   4   5
ENDBRANCH   3   4
ENDBRANCH   2   3
ENDBRANCH   1   2
BRANCH   1  23
ATOM     23  C   UNL A   1      31.577  30.296  25.294  1.00  0.00     0.202 C 
BRANCH  23  24
ATOM     24  C   UNL A   1      31.534  31.431  26.323  1.00  0.00     0.261 C 
BRANCH  24  25
ATOM     25  O   UNL A   1      32.511  31.264  27.363  1.00  0.00    -0.460 OA
BRANCH  25  26
ATOM     26  C   UNL A   1      33.348  32.315  27.525  1.00  0.00     0.338 C 
ATOM     27  O   UNL A   1      33.050  33.504  27.515  1.00  0.00    -0.246 OA
BRANCH  26  28
ATOM     28  C   UNL A   1      34.696  31.849  27.899  1.00  0.00     0.060 A 
ATOM     29  C   UNL A   1      34.830  30.498  28.241  1.00  0.00     0.016 A 
ATOM     30  C   UNL A   1      35.789  32.715  27.993  1.00  0.00     0.016 A 
ATOM     31  C   UNL A   1      36.038  30.021  28.740  1.00  0.00     0.010 A 
ATOM     32  C   UNL A   1      37.005  32.231  28.497  1.00  0.00     0.010 A 
ATOM     33  C   UNL A   1      37.122  30.892  28.911  1.00  0.00    -0.014 A 
BRANCH  33  34
ATOM     34  C   UNL A   1      38.324  30.401  29.631  1.00  0.00     0.031 A 
ATOM     35  C   UNL A   1      38.578  30.847  31.047  1.00  0.00     0.074 A 
ATOM     36  C   UNL A   1      39.154  29.516  29.049  1.00  0.00     0.049 A 
ATOM     37  N   UNL A   1      39.502  30.451  31.883  1.00  0.00    -0.248 NA
ATOM     38  C   UNL A   1      37.673  31.871  31.592  1.00  0.00     0.031 C 
ATOM     39  C   UNL A   1      39.027  29.019  27.680  1.00  0.00     0.029 A 
ATOM     40  N   UNL A   1      40.269  28.884  29.536  1.00  0.00    -0.354 N 
ATOM     41  C   UNL A   1      39.300  31.183  33.047  1.00  0.00     0.074 A 
ATOM     42  C   UNL A   1      38.179  32.065  32.801  1.00  0.00     0.031 C 
ATOM     43  C   UNL A   1      40.036  28.165  27.433  1.00  0.00     0.029 A 
ATOM     44  C   UNL A   1      40.881  28.061  28.621  1.00  0.00     0.049 A 
ATOM     45  H   UNL A   1      40.601  29.008  30.455  1.00  0.00     0.167 HD
ATOM     46  C   UNL A   1      39.969  31.112  34.223  1.00  0.00     0.034 A 
ATOM     47  C   UNL A   1      41.995  27.310  28.728  1.00  0.00     0.034 A 
ATOM     48  C   UNL A   1      41.069  30.221  34.477  1.00  0.00     0.049 A 
ATOM     49  C   UNL A   1      42.723  27.250  30.045  1.00  0.00     0.074 A 
ATOM     50  C   UNL A   1      41.769  30.032  35.657  1.00  0.00     0.029 A 
ATOM     51  N   UNL A   1      41.641  29.379  33.536  1.00  0.00    -0.354 N 
ATOM     52  N   UNL A   1      42.423  27.832  31.182  1.00  0.00    -0.248 NA
ATOM     53  C   UNL A   1      43.918  26.396  30.106  1.00  0.00     0.031 C 
ATOM     54  C   UNL A   1      42.780  29.093  35.422  1.00  0.00     0.029 A 
ATOM     55  C   UNL A   1      42.697  28.682  34.101  1.00  0.00     0.049 A 
ATOM     56  H   UNL A   1      41.341  29.289  32.603  1.00  0.00     0.167 HD
ATOM     57  C   UNL A   1      43.375  27.395  32.097  1.00  0.00     0.074 A 
ATOM     58  C   UNL A   1      44.244  26.476  31.389  1.00  0.00     0.031 C 
ATOM     59  C   UNL A   1      43.528  27.737  33.400  1.00  0.00     0.034 A 
BRANCH  46  60
ATOM     60  C   UNL A   1      39.502  32.000  35.346  1.00  0.00     0.023 A 
ATOM     61  C   UNL A   1      38.586  31.497  36.293  1.00  0.00     0.012 A 
ATOM     62  C   UNL A   1      40.012  33.304  35.501  1.00  0.00     0.148 A 
ATOM     63  C   UNL A   1      38.162  32.289  37.360  1.00  0.00     0.002 A 
ATOM     64  C   UNL A   1      39.614  34.072  36.589  1.00  0.00     0.091 A 
ATOM     65  F   UNL A   1      40.863  33.772  34.578  1.00  0.00    -0.205 F 
ATOM     66  C   UNL A   1      38.683  33.571  37.514  1.00  0.00     0.022 A 
BRANCH  64  67
ATOM     67  S   UNL A   1      40.285  35.707  36.914  1.00  0.00     0.127 S 
ATOM     68  O   UNL A   1      39.891  35.917  38.306  1.00  0.00    -0.237 OA
ATOM     69  O   UNL A   1      41.720  35.499  36.712  1.00  0.00    -0.237 OA
ATOM     70  O   UNL A   1      39.660  36.595  35.944  1.00  0.00    -0.744 OA
ENDBRANCH  64  67
ENDBRANCH  46  60
BRANCH  47  71
ATOM     71  C   UNL A   1      42.460  26.510  27.560  1.00  0.00     0.023 A 
ATOM     72  C   UNL A   1      43.298  27.103  26.596  1.00  0.00     0.012 A 
ATOM     73  C   UNL A   1      42.099  25.156  27.416  1.00  0.00     0.148 A 
ATOM     74  C   UNL A   1      43.747  26.371  25.497  1.00  0.00     0.002 A 
ATOM     75  C   UNL A   1      42.596  24.417  26.349  1.00  0.00     0.091 A 
ATOM     76  F   UNL A   1      41.283  24.615  28.332  1.00  0.00    -0.205 F 
ATOM     77  C   UNL A   1      43.406  25.025  25.380  1.00  0.00     0.022 A 
BRANCH  75  78
ATOM     78  S   UNL A   1      42.317  22.648  26.198  1.00  0.00     0.127 S 
ATOM     79  O   UNL A   1      42.970  22.139  27.400  1.00  0.00    -0.237 OA
ATOM     80  O   UNL A   1      40.856  22.570  26.209  1.00  0.00    -0.237 OA
ATOM     81  O   UNL A   1      42.927  22.263  24.932  1.00  0.00    -0.744 OA
ENDBRANCH  75  78
ENDBRANCH  47  71
BRANCH  59  82
ATOM     82  C   UNL A   1      44.672  27.110  34.158  1.00  0.00     0.023 A 
ATOM     83  C   UNL A   1      45.937  27.729  34.143  1.00  0.00     0.012 A 
ATOM     84  C   UNL A   1      44.481  25.948  34.930  1.00  0.00     0.148 A 
ATOM     85  C   UNL A   1      47.005  27.182  34.855  1.00  0.00     0.002 A 
ATOM     86  C   UNL A   1      45.538  25.433  35.675  1.00  0.00     0.091 A 
ATOM     87  F   UNL A   1      43.276  25.359  34.918  1.00  0.00    -0.205 F 
ATOM     88  C   UNL A   1      46.802  26.041  35.629  1.00  0.00     0.022 A 
BRANCH  86  89
ATOM     89  S   UNL A   1      45.342  24.022  36.770  1.00  0.00     0.127 S 
ATOM     90  O   UNL A   1      46.712  23.809  37.230  1.00  0.00    -0.237 OA
ATOM     91  O   UNL A   1      44.429  24.538  37.790  1.00  0.00    -0.237 OA
ATOM     92  O   UNL A   1      44.782  22.957  35.947  1.00  0.00    -0.744 OA
ENDBRANCH  86  89
ENDBRANCH  59  82
ENDBRANCH  33  34
ENDBRANCH  26  28
ENDBRANCH  25  26
ENDBRANCH  24  25
ENDBRANCH  23  24
ENDBRANCH   1  23
TORSDOF 20
ENDMDL
MODEL 2
REMARK VINA RESULT:     -11.0      4.895     10.745
REMARK SMILES C=Cc1cccc(-c2ccc([C@@H](C)C(=O)OCCOCCOC(=O)c3ccc(-c4c5nc(c(-c6cccc(S(=O)(=O)[O-])c6F)c6ccc([nH]6)c(-c6cccc(S(=O)(=O)[O-])c6F)c6nc(c(-c7cccc(S(=O)(=O)[O-])c7F)c7ccc4[nH]7)C=C6)C=C5)cc3)cc2)c1
REMARK SMILES IDX 19 1 18 2 17 3 16 4 14 5 15 6 12 7 13 8 11 9 8 10 9 11 89 12
REMARK SMILES IDX 10 13 88 14 7 15 3 16 4 17 90 18 5 19 6 20 2 21 1 22 20 23
REMARK SMILES IDX 21 24 22 25 23 26 24 27 25 28 26 29 87 30 27 31 86 32 28 33
REMARK SMILES IDX 29 34 30 35 80 36 31 37 85 38 79 39 81 40 32 41 84 42 78 43
REMARK SMILES IDX 77 44 33 46 65 47 45 48 64 49 46 50 49 51 63 52 82 53 47 54
REMARK SMILES IDX 48 55 62 57 83 58 50 59 34 60 35 61 43 62 36 63 38 64 44 65
REMARK SMILES IDX 37 66 39 67 40 68 41 69 42 70 66 71 67 72 75 73 68 74 70 75
REMARK SMILES IDX 76 76 69 77 71 78 72 79 73 80 74 81 51 82 52 83 60 84 53 85
REMARK SMILES IDX 55 86 61 87 54 88 56 89 57 90 58 91 59 92
REMARK H PARENT 81 45 49 56
REMARK Flexibility Score: inf
ROOT
ATOM      1  O   UNL A   1      35.163  21.913  26.290  1.00  0.00    -0.374 OA
ENDROOT
BRANCH   1   2
ATOM      2  C   UNL A   1      33.999  22.713  26.062  1.00  0.00     0.202 C 
BRANCH   2   3
ATOM      3  C   UNL A   1      33.260  22.461  24.745  1.00  0.00     0.261 C 
BRANCH   3   4
ATOM      4  O   UNL A   1      32.535  23.630  24.324  1.00  0.00    -0.463 OA
BRANCH   4   5
ATOM      5  C   UNL A   1      31.352  23.863  24.947  1.00  0.00     0.313 C 
ATOM      6  O   UNL A   1      30.659  22.996  25.471  1.00  0.00    -0.252 OA
BRANCH   5   7
ATOM      7  C   UNL A   1      30.923  25.322  24.923  1.00  0.00     0.126 C 
ATOM      8  C   UNL A   1      30.482  25.697  23.510  1.00  0.00     0.025 C 
BRANCH   7   9
ATOM      9  C   UNL A   1      31.878  26.352  25.521  1.00  0.00    -0.034 A 
ATOM     10  C   UNL A   1      33.484  28.438  26.617  1.00  0.00    -0.018 A 
ATOM     11  C   UNL A   1      33.757  27.896  25.352  1.00  0.00     0.009 A 
ATOM     12  C   UNL A   1      32.420  27.886  27.344  1.00  0.00     0.009 A 
ATOM     13  C   UNL A   1      32.968  26.871  24.811  1.00  0.00     0.005 A 
ATOM     14  C   UNL A   1      31.630  26.862  26.806  1.00  0.00     0.005 A 
BRANCH  10  15
ATOM     15  C   UNL A   1      34.243  29.590  27.139  1.00  0.00    -0.018 A 
ATOM     16  C   UNL A   1      34.370  31.940  27.829  1.00  0.00    -0.026 A 
ATOM     17  C   UNL A   1      35.744  31.796  28.046  1.00  0.00     0.008 A 
ATOM     18  C   UNL A   1      33.633  30.837  27.366  1.00  0.00     0.016 A 
ATOM     19  C   UNL A   1      36.367  30.568  27.833  1.00  0.00     0.001 A 
ATOM     20  C   UNL A   1      35.622  29.476  27.387  1.00  0.00     0.009 A 
BRANCH  16  21
ATOM     21  C   UNL A   1      33.761  33.259  28.046  1.00  0.00     0.000 C 
ATOM     22  C   UNL A   1      33.961  34.007  29.138  1.00  0.00     0.009 C 
ENDBRANCH  16  21
ENDBRANCH  10  15
ENDBRANCH   7   9
ENDBRANCH   5   7
ENDBRANCH   4   5
ENDBRANCH   3   4
ENDBRANCH   2   3
ENDBRANCH   1   2
BRANCH   1  23
ATOM     23  C   UNL A   1      35.600  21.085  25.213  1.00  0.00     0.202 C 
BRANCH  23  24
ATOM     24  C   UNL A   1      37.113  21.016  24.974  1.00  0.00     0.261 C 
BRANCH  24  25
ATOM     25  O   UNL A   1      37.809  22.135  25.546  1.00  0.00    -0.460 OA
BRANCH  25  26
ATOM     26  C   UNL A   1      39.000  21.830  26.109  1.00  0.00     0.338 C 
ATOM     27  O   UNL A   1      39.615  20.774  26.009  1.00  0.00    -0.246 OA
BRANCH  26  28
ATOM     28  C   UNL A   1      39.588  23.019  26.752  1.00  0.00     0.060 A 
ATOM     29  C   UNL A   1      39.190  24.269  26.262  1.00  0.00     0.016 A 
ATOM     30  C   UNL A   1      40.560  22.928  27.752  1.00  0.00     0.016 A 
ATOM     31  C   UNL A   1      39.807  25.428  26.722  1.00  0.00     0.010 A 
ATOM     32  C   UNL A   1      41.181  24.098  28.212  1.00  0.00     0.010 A 
ATOM     33  C   UNL A   1      40.837  25.348  27.670  1.00  0.00    -0.014 A 
BRANCH  33  34
ATOM     34  C   UNL A   1      41.610  26.575  27.987  1.00  0.00     0.031 A 
ATOM     35  C   UNL A   1      43.031  26.706  27.506  1.00  0.00     0.074 A 
ATOM     36  C   UNL A   1      41.031  27.594  28.648  1.00  0.00     0.049 A 
ATOM     37  N   UNL A   1      43.835  27.734  27.580  1.00  0.00    -0.248 NA
ATOM     38  C   UNL A   1      43.621  25.525  26.856  1.00  0.00     0.031 C 
ATOM     39  C   UNL A   1      39.669  27.586  29.180  1.00  0.00     0.029 A 
ATOM     40  N   UNL A   1      41.519  28.830  28.989  1.00  0.00    -0.354 N 
ATOM     41  C   UNL A   1      45.030  27.324  27.000  1.00  0.00     0.074 A 
ATOM     42  C   UNL A   1      44.852  25.944  26.599  1.00  0.00     0.031 C 
ATOM     43  C   UNL A   1      39.434  28.760  29.792  1.00  0.00     0.029 A 
ATOM     44  C   UNL A   1      40.628  29.598  29.701  1.00  0.00     0.049 A 
ATOM     45  H   UNL A   1      42.422  29.138  28.746  1.00  0.00     0.167 HD
ATOM     46  C   UNL A   1      46.164  28.036  26.796  1.00  0.00     0.034 A 
ATOM     47  C   UNL A   1      40.761  30.835  30.221  1.00  0.00     0.034 A 
ATOM     48  C   UNL A   1      46.336  29.413  27.173  1.00  0.00     0.049 A 
ATOM     49  C   UNL A   1      42.033  31.605  29.982  1.00  0.00     0.074 A 
ATOM     50  C   UNL A   1      47.426  30.237  26.951  1.00  0.00     0.029 A 
ATOM     51  N   UNL A   1      45.401  30.168  27.865  1.00  0.00    -0.354 N 
ATOM     52  N   UNL A   1      43.094  31.255  29.295  1.00  0.00    -0.248 NA
ATOM     53  C   UNL A   1      42.110  32.956  30.555  1.00  0.00     0.031 C 
ATOM     54  C   UNL A   1      47.160  31.483  27.530  1.00  0.00     0.029 A 
ATOM     55  C   UNL A   1      45.895  31.442  28.094  1.00  0.00     0.049 A 
ATOM     56  H   UNL A   1      44.516  29.846  28.151  1.00  0.00     0.167 HD
ATOM     57  C   UNL A   1      43.951  32.350  29.331  1.00  0.00     0.074 A 
ATOM     58  C   UNL A   1      43.272  33.386  30.083  1.00  0.00     0.031 C 
ATOM     59  C   UNL A   1      45.194  32.480  28.806  1.00  0.00     0.034 A 
BRANCH  46  60
ATOM     60  C   UNL A   1      47.304  27.346  26.093  1.00  0.00     0.023 A 
ATOM     61  C   UNL A   1      47.393  27.410  24.688  1.00  0.00     0.012 A 
ATOM     62  C   UNL A   1      48.315  26.690  26.821  1.00  0.00     0.148 A 
ATOM     63  C   UNL A   1      48.455  26.806  24.015  1.00  0.00     0.002 A 
ATOM     64  C   UNL A   1      49.391  26.125  26.146  1.00  0.00     0.091 A 
ATOM     65  F   UNL A   1      48.200  26.619  28.155  1.00  0.00    -0.205 F 
ATOM     66  C   UNL A   1      49.458  26.173  24.744  1.00  0.00     0.022 A 
BRANCH  64  67
ATOM     67  S   UNL A   1      50.769  25.351  27.001  1.00  0.00     0.127 S 
ATOM     68  O   UNL A   1      51.277  26.461  27.807  1.00  0.00    -0.237 OA
ATOM     69  O   UNL A   1      50.105  24.296  27.769  1.00  0.00    -0.237 OA
ATOM     70  O   UNL A   1      51.666  24.869  25.960  1.00  0.00    -0.744 OA
ENDBRANCH  64  67
ENDBRANCH  46  60
BRANCH  47  71
ATOM     71  C   UNL A   1      39.630  31.442  30.977  1.00  0.00     0.023 A 
ATOM     72  C   UNL A   1      38.599  32.102  30.282  1.00  0.00     0.012 A 
ATOM     73  C   UNL A   1      39.559  31.344  32.380  1.00  0.00     0.148 A 
ATOM     74  C   UNL A   1      37.530  32.675  30.971  1.00  0.00     0.002 A 
ATOM     75  C   UNL A   1      38.463  31.868  33.057  1.00  0.00     0.091 A 
ATOM     76  F   UNL A   1      40.561  30.732  33.027  1.00  0.00    -0.205 F 
ATOM     77  C   UNL A   1      37.455  32.547  32.356  1.00  0.00     0.022 A 
BRANCH  75  78
ATOM     78  S   UNL A   1      38.222  31.628  34.821  1.00  0.00     0.127 S 
ATOM     79  O   UNL A   1      39.406  32.278  35.375  1.00  0.00    -0.237 OA
ATOM     80  O   UNL A   1      36.963  32.335  35.053  1.00  0.00    -0.237 OA
ATOM     81  O   UNL A   1      38.141  30.185  35.011  1.00  0.00    -0.744 OA
ENDBRANCH  75  78
ENDBRANCH  47  71
BRANCH  59  82
ATOM     82  C   UNL A   1      45.906  33.794  29.012  1.00  0.00     0.023 A 
ATOM     83  C   UNL A   1      46.761  33.954  30.121  1.00  0.00     0.012 A 
ATOM     84  C   UNL A   1      45.778  34.844  28.082  1.00  0.00     0.148 A 
ATOM     85  C   UNL A   1      47.449  35.150  30.321  1.00  0.00     0.002 A 
ATOM     86  C   UNL A   1      46.503  36.018  28.263  1.00  0.00     0.091 A 
ATOM     87  F   UNL A   1      44.946  34.684  27.043  1.00  0.00    -0.205 F 
ATOM     88  C   UNL A   1      47.329  36.178  29.387  1.00  0.00     0.022 A 
BRANCH  86  89
ATOM     89  S   UNL A   1      46.479  37.355  27.063  1.00  0.00     0.127 S 
ATOM     90  O   UNL A   1      47.369  38.331  27.686  1.00  0.00    -0.237 OA
ATOM     91  O   UNL A   1      47.020  36.713  25.865  1.00  0.00    -0.237 OA
ATOM     92  O   UNL A   1      45.083  37.759  26.949  1.00  0.00    -0.744 OA
ENDBRANCH  86  89
ENDBRANCH  59  82
ENDBRANCH  33  34
ENDBRANCH  26  28
ENDBRANCH  25  26
ENDBRANCH  24  25
ENDBRANCH  23  24
ENDBRANCH   1  23
TORSDOF 20
ENDMDL
MODEL 3
REMARK VINA RESULT:     -10.8      4.831     10.740
REMARK SMILES C=Cc1cccc(-c2ccc([C@@H](C)C(=O)OCCOCCOC(=O)c3ccc(-c4c5nc(c(-c6cccc(S(=O)(=O)[O-])c6F)c6ccc([nH]6)c(-c6cccc(S(=O)(=O)[O-])c6F)c6nc(c(-c7cccc(S(=O)(=O)[O-])c7F)c7ccc4[nH]7)C=C6)C=C5)cc3)cc2)c1
REMARK SMILES IDX 19 1 18 2 17 3 16 4 14 5 15 6 12 7 13 8 11 9 8 10 9 11 89 12
REMARK SMILES IDX 10 13 88 14 7 15 3 16 4 17 90 18 5 19 6 20 2 21 1 22 20 23
REMARK SMILES IDX 21 24 22 25 23 26 24 27 25 28 26 29 87 30 27 31 86 32 28 33
REMARK SMILES IDX 29 34 30 35 80 36 31 37 85 38 79 39 81 40 32 41 84 42 78 43
REMARK SMILES IDX 77 44 33 46 65 47 45 48 64 49 46 50 49 51 63 52 82 53 47 54
REMARK SMILES IDX 48 55 62 57 83 58 50 59 34 60 35 61 43 62 36 63 38 64 44 65
REMARK SMILES IDX 37 66 39 67 40 68 41 69 42 70 66 71 67 72 75 73 68 74 70 75
REMARK SMILES IDX 76 76 69 77 71 78 72 79 73 80 74 81 51 82 52 83 60 84 53 85
REMARK SMILES IDX 55 86 61 87 54 88 56 89 57 90 58 91 59 92
REMARK H PARENT 81 45 49 56
REMARK Flexibility Score: inf
ROOT
ATOM      1  O   UNL A   1      35.581  21.804  25.881  1.00  0.00    -0.374 OA
ENDROOT
BRANCH   1   2
ATOM      2  C   UNL A   1      35.130  22.962  25.174  1.00  0.00     0.202 C 
BRANCH   2   3
ATOM      3  C   UNL A   1      35.317  22.935  23.654  1.00  0.00     0.261 C 
BRANCH   3   4
ATOM      4  O   UNL A   1      34.719  24.089  23.037  1.00  0.00    -0.463 OA
BRANCH   4   5
ATOM      5  C   UNL A   1      33.449  23.939  22.581  1.00  0.00     0.313 C 
ATOM      6  O   UNL A   1      32.966  22.876  22.203  1.00  0.00    -0.252 OA
BRANCH   5   7
ATOM      7  C   UNL A   1      32.653  25.235  22.549  1.00  0.00     0.126 C 
ATOM      8  C   UNL A   1      32.698  25.822  21.140  1.00  0.00     0.025 C 
BRANCH   7   9
ATOM      9  C   UNL A   1      32.955  26.280  23.619  1.00  0.00    -0.034 A 
ATOM     10  C   UNL A   1      33.753  28.201  25.570  1.00  0.00    -0.018 A 
ATOM     11  C   UNL A   1      33.188  26.972  25.945  1.00  0.00     0.009 A 
ATOM     12  C   UNL A   1      33.869  28.470  24.200  1.00  0.00     0.009 A 
ATOM     13  C   UNL A   1      32.796  26.026  24.987  1.00  0.00     0.005 A 
ATOM     14  C   UNL A   1      33.478  27.528  23.241  1.00  0.00     0.005 A 
BRANCH  10  15
ATOM     15  C   UNL A   1      34.267  29.148  26.577  1.00  0.00    -0.018 A 
ATOM     16  C   UNL A   1      34.142  31.286  27.772  1.00  0.00    -0.026 A 
ATOM     17  C   UNL A   1      35.333  30.977  28.438  1.00  0.00     0.008 A 
ATOM     18  C   UNL A   1      33.625  30.373  26.838  1.00  0.00     0.016 A 
ATOM     19  C   UNL A   1      35.981  29.767  28.199  1.00  0.00     0.001 A 
ATOM     20  C   UNL A   1      35.451  28.861  27.279  1.00  0.00     0.009 A 
BRANCH  16  21
ATOM     21  C   UNL A   1      33.505  32.582  28.040  1.00  0.00     0.000 C 
ATOM     22  C   UNL A   1      32.534  33.111  27.285  1.00  0.00     0.009 C 
ENDBRANCH  16  21
ENDBRANCH  10  15
ENDBRANCH   7   9
ENDBRANCH   5   7
ENDBRANCH   4   5
ENDBRANCH   3   4
ENDBRANCH   2   3
ENDBRANCH   1   2
BRANCH   1  23
ATOM     23  C   UNL A   1      35.937  20.665  25.097  1.00  0.00     0.202 C 
BRANCH  23  24
ATOM     24  C   UNL A   1      37.433  20.347  24.993  1.00  0.00     0.261 C 
BRANCH  24  25
ATOM     25  O   UNL A   1      38.257  21.489  25.283  1.00  0.00    -0.460 OA
BRANCH  25  26
ATOM     26  C   UNL A   1      39.350  21.220  26.033  1.00  0.00     0.338 C 
ATOM     27  O   UNL A   1      39.983  20.170  26.065  1.00  0.00    -0.246 OA
BRANCH  26  28
ATOM     28  C   UNL A   1      39.822  22.438  26.716  1.00  0.00     0.060 A 
ATOM     29  C   UNL A   1      39.330  23.662  26.245  1.00  0.00     0.016 A 
ATOM     30  C   UNL A   1      40.776  22.404  27.736  1.00  0.00     0.016 A 
ATOM     31  C   UNL A   1      39.837  24.857  26.745  1.00  0.00     0.010 A 
ATOM     32  C   UNL A   1      41.286  23.611  28.237  1.00  0.00     0.010 A 
ATOM     33  C   UNL A   1      40.849  24.841  27.715  1.00  0.00    -0.014 A 
BRANCH  33  34
ATOM     34  C   UNL A   1      41.508  26.120  28.078  1.00  0.00     0.031 A 
ATOM     35  C   UNL A   1      42.891  26.418  27.562  1.00  0.00     0.074 A 
ATOM     36  C   UNL A   1      40.856  27.039  28.813  1.00  0.00     0.049 A 
ATOM     37  N   UNL A   1      43.593  27.516  27.669  1.00  0.00    -0.248 NA
ATOM     38  C   UNL A   1      43.571  25.339  26.828  1.00  0.00     0.031 C 
ATOM     39  C   UNL A   1      39.522  26.866  29.385  1.00  0.00     0.029 A 
ATOM     40  N   UNL A   1      41.233  28.298  29.209  1.00  0.00    -0.354 N 
ATOM     41  C   UNL A   1      44.801  27.259  27.031  1.00  0.00     0.074 A 
ATOM     42  C   UNL A   1      44.745  25.892  26.558  1.00  0.00     0.031 C 
ATOM     43  C   UNL A   1      39.195  27.976  30.070  1.00  0.00     0.029 A 
ATOM     44  C   UNL A   1      40.297  28.933  29.990  1.00  0.00     0.049 A 
ATOM     45  H   UNL A   1      42.092  28.707  28.956  1.00  0.00     0.167 HD
ATOM     46  C   UNL A   1      45.851  28.091  26.834  1.00  0.00     0.034 A 
ATOM     47  C   UNL A   1      40.326  30.147  30.575  1.00  0.00     0.034 A 
ATOM     48  C   UNL A   1      45.900  29.456  27.283  1.00  0.00     0.049 A 
ATOM     49  C   UNL A   1      41.507  31.052  30.342  1.00  0.00     0.074 A 
ATOM     50  C   UNL A   1      46.896  30.396  27.075  1.00  0.00     0.029 A 
ATOM     51  N   UNL A   1      44.921  30.076  28.044  1.00  0.00    -0.354 N 
ATOM     52  N   UNL A   1      42.572  30.848  29.604  1.00  0.00    -0.248 NA
ATOM     53  C   UNL A   1      41.471  32.372  30.988  1.00  0.00     0.031 C 
ATOM     54  C   UNL A   1      46.529  31.577  27.731  1.00  0.00     0.029 A 
ATOM     55  C   UNL A   1      45.296  31.379  28.330  1.00  0.00     0.049 A 
ATOM     56  H   UNL A   1      44.083  29.652  28.338  1.00  0.00     0.167 HD
ATOM     57  C   UNL A   1      43.318  32.020  29.676  1.00  0.00     0.074 A 
ATOM     58  C   UNL A   1      42.568  32.941  30.506  1.00  0.00     0.031 C 
ATOM     59  C   UNL A   1      44.522  32.302  29.121  1.00  0.00     0.034 A 
BRANCH  46  60
ATOM     60  C   UNL A   1      47.028  27.558  26.058  1.00  0.00     0.023 A 
ATOM     61  C   UNL A   1      47.948  26.701  26.696  1.00  0.00     0.012 A 
ATOM     62  C   UNL A   1      47.189  27.852  24.690  1.00  0.00     0.148 A 
ATOM     63  C   UNL A   1      49.027  26.168  25.991  1.00  0.00     0.002 A 
ATOM     64  C   UNL A   1      48.245  27.286  23.986  1.00  0.00     0.091 A 
ATOM     65  F   UNL A   1      46.318  28.688  24.108  1.00  0.00    -0.205 F 
ATOM     66  C   UNL A   1      49.170  26.452  24.636  1.00  0.00     0.022 A 
BRANCH  64  67
ATOM     67  S   UNL A   1      48.472  27.533  22.220  1.00  0.00     0.127 S 
ATOM     68  O   UNL A   1      49.655  28.391  22.192  1.00  0.00    -0.237 OA
ATOM     69  O   UNL A   1      48.698  26.168  21.742  1.00  0.00    -0.237 OA
ATOM     70  O   UNL A   1      47.240  28.146  21.742  1.00  0.00    -0.744 OA
ENDBRANCH  64  67
ENDBRANCH  46  60
BRANCH  47  71
ATOM     71  C   UNL A   1      39.169  30.597  31.399  1.00  0.00     0.023 A 
ATOM     72  C   UNL A   1      38.978  30.060  32.687  1.00  0.00     0.012 A 
ATOM     73  C   UNL A   1      38.274  31.574  30.923  1.00  0.00     0.148 A 
ATOM     74  C   UNL A   1      37.902  30.470  33.475  1.00  0.00     0.002 A 
ATOM     75  C   UNL A   1      37.237  32.019  31.735  1.00  0.00     0.091 A 
ATOM     76  F   UNL A   1      38.459  32.057  29.686  1.00  0.00    -0.205 F 
ATOM     77  C   UNL A   1      37.040  31.457  33.005  1.00  0.00     0.022 A 
BRANCH  75  78
ATOM     78  S   UNL A   1      36.166  33.381  31.261  1.00  0.00     0.127 S 
ATOM     79  O   UNL A   1      34.846  32.761  31.326  1.00  0.00    -0.237 OA
ATOM     80  O   UNL A   1      36.440  34.361  32.312  1.00  0.00    -0.237 OA
ATOM     81  O   UNL A   1      36.614  33.787  29.935  1.00  0.00    -0.744 OA
ENDBRANCH  75  78
ENDBRANCH  47  71
BRANCH  59  82
ATOM     82  C   UNL A   1      45.109  33.667  29.380  1.00  0.00     0.023 A 
ATOM     83  C   UNL A   1      45.937  33.866  30.503  1.00  0.00     0.012 A 
ATOM     84  C   UNL A   1      44.892  34.733  28.486  1.00  0.00     0.148 A 
ATOM     85  C   UNL A   1      46.510  35.113  30.752  1.00  0.00     0.002 A 
ATOM     86  C   UNL A   1      45.504  35.962  28.714  1.00  0.00     0.091 A 
ATOM     87  F   UNL A   1      44.085  34.535  27.433  1.00  0.00    -0.205 F 
ATOM     88  C   UNL A   1      46.303  36.157  29.852  1.00  0.00     0.022 A 
BRANCH  86  89
ATOM     89  S   UNL A   1      45.365  37.332  27.561  1.00  0.00     0.127 S 
ATOM     90  O   UNL A   1      46.103  38.384  28.257  1.00  0.00    -0.237 OA
ATOM     91  O   UNL A   1      46.030  36.808  26.367  1.00  0.00    -0.237 OA
ATOM     92  O   UNL A   1      43.937  37.569  27.397  1.00  0.00    -0.744 OA
ENDBRANCH  86  89
ENDBRANCH  59  82
ENDBRANCH  33  34
ENDBRANCH  26  28
ENDBRANCH  25  26
ENDBRANCH  24  25
ENDBRANCH  23  24
ENDBRANCH   1  23
TORSDOF 20
ENDMDL
