MODEL 1
REMARK VINA RESULT:     -11.8      0.000      0.000
REMARK SMILES O=C(OCCOCCOC(=O)C1(n2ccnc2)CCN(C(=O)C2(c3ccccc3)CC2)CC1)c1ccc(-c2c3nc(c(-c4cccc(S(=O)(=O)[O-])c4F)c4ccc([nH]4)c(-c4cccc(S(=O)(=O)[O-])c4F)c4nc(c(-c5cccc(S(=O)(=O)[O-])c5F)c5ccc2[nH]5)C=C4)C=C3)cc1
REMARK SMILES IDX 5 1 4 2 3 3 2 4 1 5 34 6 35 7 96 8 36 9 95 10 37 11 38 12
REMARK SMILES IDX 39 13 89 14 40 15 94 16 88 17 90 18 41 19 93 20 87 21 86 22
REMARK SMILES IDX 42 24 74 25 54 26 73 27 55 28 58 29 72 30 91 31 56 32 57 33
REMARK SMILES IDX 71 35 92 36 59 37 43 38 44 39 52 40 45 41 47 42 53 43 46 44
REMARK SMILES IDX 48 45 49 46 50 47 51 48 75 49 76 50 84 51 77 52 79 53 85 54
REMARK SMILES IDX 78 55 80 56 81 57 82 58 83 59 60 60 61 61 69 62 62 63 64 64
REMARK SMILES IDX 70 65 63 66 65 67 66 68 67 69 68 70 6 71 7 72 8 73 9 74
REMARK SMILES IDX 10 75 11 76 12 77 18 78 33 79 19 80 32 81 20 82 21 83 22 84
REMARK SMILES IDX 13 85 14 86 17 87 15 88 16 89 23 90 30 91 31 92 24 93 25 94
REMARK SMILES IDX 29 95 26 96 28 97 27 98
REMARK H PARENT 90 23 58 34
REMARK Flexibility Score: inf
ROOT
ATOM      1  C   UNL A   1      31.912  31.711  26.614  1.00  0.00     0.202 C 
ENDROOT
BRANCH   1   2
ATOM      2  C   UNL A   1      31.848  33.249  26.695  1.00  0.00     0.261 C 
BRANCH   2   3
ATOM      3  O   UNL A   1      32.015  33.720  28.037  1.00  0.00    -0.460 OA
BRANCH   3   4
ATOM      4  C   UNL A   1      32.928  34.636  28.466  1.00  0.00     0.338 C 
ATOM      5  O   UNL A   1      32.585  35.785  28.651  1.00  0.00    -0.246 OA
BRANCH   4   6
ATOM      6  C   UNL A   1      34.320  34.226  28.777  1.00  0.00     0.060 A 
ATOM      7  C   UNL A   1      35.362  34.168  27.850  1.00  0.00     0.016 A 
ATOM      8  C   UNL A   1      34.561  33.855  30.101  1.00  0.00     0.016 A 
ATOM      9  C   UNL A   1      36.510  33.467  28.145  1.00  0.00     0.010 A 
ATOM     10  C   UNL A   1      35.772  33.279  30.443  1.00  0.00     0.010 A 
ATOM     11  C   UNL A   1      36.699  32.993  29.440  1.00  0.00    -0.014 A 
BRANCH  11  12
ATOM     12  C   UNL A   1      37.974  32.349  29.723  1.00  0.00     0.031 A 
ATOM     13  C   UNL A   1      38.056  30.919  29.301  1.00  0.00     0.074 A 
ATOM     14  C   UNL A   1      39.040  33.034  30.177  1.00  0.00     0.049 A 
ATOM     15  N   UNL A   1      38.415  29.889  29.999  1.00  0.00    -0.248 NA
ATOM     16  C   UNL A   1      37.545  30.587  27.960  1.00  0.00     0.031 C 
ATOM     17  C   UNL A   1      39.153  34.484  30.351  1.00  0.00     0.029 A 
ATOM     18  N   UNL A   1      40.312  32.590  30.384  1.00  0.00    -0.354 N 
ATOM     19  C   UNL A   1      38.370  28.809  29.115  1.00  0.00     0.074 A 
ATOM     20  C   UNL A   1      37.672  29.262  27.943  1.00  0.00     0.031 C 
ATOM     21  C   UNL A   1      40.458  34.822  30.319  1.00  0.00     0.029 A 
ATOM     22  C   UNL A   1      41.251  33.607  30.265  1.00  0.00     0.049 A 
ATOM     23  H   UNL A   1      40.539  31.655  30.593  1.00  0.00     0.167 HD
ATOM     24  C   UNL A   1      39.106  27.683  29.306  1.00  0.00     0.034 A 
ATOM     25  C   UNL A   1      42.571  33.459  30.016  1.00  0.00     0.034 A 
ATOM     26  C   UNL A   1      39.538  27.541  30.669  1.00  0.00     0.049 A 
ATOM     27  C   UNL A   1      42.940  32.061  30.336  1.00  0.00     0.074 A 
ATOM     28  C   UNL A   1      38.908  27.433  31.890  1.00  0.00     0.029 A 
ATOM     29  N   UNL A   1      40.855  27.810  30.943  1.00  0.00    -0.354 N 
ATOM     30  N   UNL A   1      42.949  31.565  31.542  1.00  0.00    -0.248 NA
ATOM     31  C   UNL A   1      42.956  31.084  29.258  1.00  0.00     0.031 C 
ATOM     32  C   UNL A   1      39.774  28.086  32.814  1.00  0.00     0.029 A 
ATOM     33  C   UNL A   1      40.889  28.536  32.103  1.00  0.00     0.049 A 
ATOM     34  H   UNL A   1      41.632  27.534  30.405  1.00  0.00     0.167 HD
ATOM     35  C   UNL A   1      42.537  30.249  31.381  1.00  0.00     0.074 A 
ATOM     36  C   UNL A   1      42.696  29.976  29.956  1.00  0.00     0.031 C 
ATOM     37  C   UNL A   1      41.829  29.607  32.357  1.00  0.00     0.034 A 
BRANCH  24  38
ATOM     38  C   UNL A   1      39.729  26.877  28.189  1.00  0.00     0.023 A 
ATOM     39  C   UNL A   1      39.346  25.522  28.067  1.00  0.00     0.012 A 
ATOM     40  C   UNL A   1      40.854  27.291  27.437  1.00  0.00     0.148 A 
ATOM     41  C   UNL A   1      40.074  24.620  27.284  1.00  0.00     0.002 A 
ATOM     42  C   UNL A   1      41.519  26.411  26.591  1.00  0.00     0.091 A 
ATOM     43  F   UNL A   1      41.389  28.500  27.633  1.00  0.00    -0.205 F 
ATOM     44  C   UNL A   1      41.157  25.066  26.535  1.00  0.00     0.022 A 
BRANCH  42  45
ATOM     45  S   UNL A   1      42.874  26.977  25.555  1.00  0.00     0.127 S 
ATOM     46  O   UNL A   1      43.277  25.738  24.896  1.00  0.00    -0.237 OA
ATOM     47  O   UNL A   1      42.210  27.952  24.690  1.00  0.00    -0.237 OA
ATOM     48  O   UNL A   1      43.836  27.565  26.479  1.00  0.00    -0.744 OA
ENDBRANCH  42  45
ENDBRANCH  24  38
BRANCH  25  49
ATOM     49  C   UNL A   1      43.483  34.376  29.300  1.00  0.00     0.023 A 
ATOM     50  C   UNL A   1      44.054  35.461  29.991  1.00  0.00     0.012 A 
ATOM     51  C   UNL A   1      43.974  34.072  28.009  1.00  0.00     0.148 A 
ATOM     52  C   UNL A   1      45.090  36.209  29.422  1.00  0.00     0.002 A 
ATOM     53  C   UNL A   1      44.989  34.834  27.439  1.00  0.00     0.091 A 
ATOM     54  F   UNL A   1      43.514  32.983  27.378  1.00  0.00    -0.205 F 
ATOM     55  C   UNL A   1      45.558  35.897  28.148  1.00  0.00     0.022 A 
BRANCH  53  56
ATOM     56  S   UNL A   1      45.629  34.487  25.795  1.00  0.00     0.127 S 
ATOM     57  O   UNL A   1      46.183  33.142  25.958  1.00  0.00    -0.237 OA
ATOM     58  O   UNL A   1      44.422  34.557  24.977  1.00  0.00    -0.237 OA
ATOM     59  O   UNL A   1      46.633  35.514  25.542  1.00  0.00    -0.744 OA
ENDBRANCH  53  56
ENDBRANCH  25  49
BRANCH  37  60
ATOM     60  C   UNL A   1      41.749  30.241  33.725  1.00  0.00     0.023 A 
ATOM     61  C   UNL A   1      42.747  30.033  34.698  1.00  0.00     0.012 A 
ATOM     62  C   UNL A   1      40.765  31.217  33.964  1.00  0.00     0.148 A 
ATOM     63  C   UNL A   1      42.751  30.759  35.892  1.00  0.00     0.002 A 
ATOM     64  C   UNL A   1      40.802  31.974  35.130  1.00  0.00     0.091 A 
ATOM     65  F   UNL A   1      39.822  31.416  33.030  1.00  0.00    -0.205 F 
ATOM     66  C   UNL A   1      41.787  31.740  36.101  1.00  0.00     0.022 A 
BRANCH  64  67
ATOM     67  S   UNL A   1      39.679  33.353  35.380  1.00  0.00     0.127 S 
ATOM     68  O   UNL A   1      38.376  32.692  35.385  1.00  0.00    -0.237 OA
ATOM     69  O   UNL A   1      40.101  33.881  36.680  1.00  0.00    -0.237 OA
ATOM     70  O   UNL A   1      39.925  34.263  34.267  1.00  0.00    -0.744 OA
ENDBRANCH  64  67
ENDBRANCH  37  60
ENDBRANCH  11  12
ENDBRANCH   4   6
ENDBRANCH   3   4
ENDBRANCH   2   3
ENDBRANCH   1   2
BRANCH   1  71
ATOM     71  O   UNL A   1      32.920  31.014  27.345  1.00  0.00    -0.374 OA
BRANCH  71  72
ATOM     72  C   UNL A   1      32.879  29.587  27.402  1.00  0.00     0.202 C 
BRANCH  72  73
ATOM     73  C   UNL A   1      34.157  28.811  27.086  1.00  0.00     0.261 C 
BRANCH  73  74
ATOM     74  O   UNL A   1      33.901  27.559  26.419  1.00  0.00    -0.461 OA
BRANCH  74  75
ATOM     75  C   UNL A   1      33.591  27.663  25.099  1.00  0.00     0.332 C 
ATOM     76  O   UNL A   1      33.935  28.605  24.389  1.00  0.00    -0.249 OA
BRANCH  75  77
ATOM     77  C   UNL A   1      32.713  26.503  24.577  1.00  0.00     0.146 C 
ATOM     78  C   UNL A   1      32.101  25.568  25.656  1.00  0.00     0.062 C 
ATOM     79  C   UNL A   1      33.619  25.639  23.663  1.00  0.00     0.062 C 
ATOM     80  C   UNL A   1      32.987  24.452  26.215  1.00  0.00     0.122 C 
ATOM     81  C   UNL A   1      34.649  24.882  24.481  1.00  0.00     0.122 C 
ATOM     82  N   UNL A   1      33.998  23.913  25.329  1.00  0.00    -0.342 N 
ATOM     83  C   UNL A   1      34.734  22.841  25.859  1.00  0.00     0.233 C 
ATOM     84  O   UNL A   1      34.786  22.642  27.073  1.00  0.00    -0.274 OA
BRANCH  77  85
ATOM     85  N   UNL A   1      31.614  27.136  23.818  1.00  0.00    -0.320 N 
ATOM     86  C   UNL A   1      30.508  27.746  24.359  1.00  0.00     0.108 A 
ATOM     87  C   UNL A   1      31.518  27.281  22.460  1.00  0.00     0.200 A 
ATOM     88  C   UNL A   1      29.783  28.205  23.289  1.00  0.00     0.130 A 
ATOM     89  N   UNL A   1      30.415  27.905  22.114  1.00  0.00    -0.245 NA
ENDBRANCH  77  85
BRANCH  83  90
ATOM     90  C   UNL A   1      35.321  21.791  24.937  1.00  0.00     0.074 C 
ATOM     91  C   UNL A   1      36.538  21.937  24.027  1.00  0.00     0.023 C 
ATOM     92  C   UNL A   1      36.714  21.300  25.360  1.00  0.00     0.023 C 
BRANCH  90  93
ATOM     93  C   UNL A   1      34.296  20.726  24.519  1.00  0.00    -0.032 A 
ATOM     94  C   UNL A   1      34.456  19.376  24.877  1.00  0.00     0.005 A 
ATOM     95  C   UNL A   1      33.191  21.054  23.712  1.00  0.00     0.005 A 
ATOM     96  C   UNL A   1      33.553  18.399  24.449  1.00  0.00     0.000 A 
ATOM     97  C   UNL A   1      32.287  20.081  23.280  1.00  0.00     0.000 A 
ATOM     98  C   UNL A   1      32.470  18.752  23.648  1.00  0.00     0.000 A 
ENDBRANCH  90  93
ENDBRANCH  83  90
ENDBRANCH  75  77
ENDBRANCH  74  75
ENDBRANCH  73  74
ENDBRANCH  72  73
ENDBRANCH  71  72
ENDBRANCH   1  71
TORSDOF 20
ENDMDL
MODEL 2
REMARK VINA RESULT:     -11.7      3.541      7.215
REMARK SMILES O=C(OCCOCCOC(=O)C1(n2ccnc2)CCN(C(=O)C2(c3ccccc3)CC2)CC1)c1ccc(-c2c3nc(c(-c4cccc(S(=O)(=O)[O-])c4F)c4ccc([nH]4)c(-c4cccc(S(=O)(=O)[O-])c4F)c4nc(c(-c5cccc(S(=O)(=O)[O-])c5F)c5ccc2[nH]5)C=C4)C=C3)cc1
REMARK SMILES IDX 5 1 4 2 3 3 2 4 1 5 34 6 35 7 96 8 36 9 95 10 37 11 38 12
REMARK SMILES IDX 39 13 89 14 40 15 94 16 88 17 90 18 41 19 93 20 87 21 86 22
REMARK SMILES IDX 42 24 74 25 54 26 73 27 55 28 58 29 72 30 91 31 56 32 57 33
REMARK SMILES IDX 71 35 92 36 59 37 43 38 44 39 52 40 45 41 47 42 53 43 46 44
REMARK SMILES IDX 48 45 49 46 50 47 51 48 75 49 76 50 84 51 77 52 79 53 85 54
REMARK SMILES IDX 78 55 80 56 81 57 82 58 83 59 60 60 61 61 69 62 62 63 64 64
REMARK SMILES IDX 70 65 63 66 65 67 66 68 67 69 68 70 6 71 7 72 8 73 9 74
REMARK SMILES IDX 10 75 11 76 12 77 18 78 33 79 19 80 32 81 20 82 21 83 22 84
REMARK SMILES IDX 13 85 14 86 17 87 15 88 16 89 23 90 30 91 31 92 24 93 25 94
REMARK SMILES IDX 29 95 26 96 28 97 27 98
REMARK H PARENT 90 23 58 34
REMARK Flexibility Score: inf
ROOT
ATOM      1  C   UNL A   1      33.455  31.883  28.006  1.00  0.00     0.202 C 
ENDROOT
BRANCH   1   2
ATOM      2  C   UNL A   1      34.307  33.043  28.559  1.00  0.00     0.261 C 
BRANCH   2   3
ATOM      3  O   UNL A   1      35.589  32.596  29.011  1.00  0.00    -0.460 OA
BRANCH   3   4
ATOM      4  C   UNL A   1      35.869  32.023  30.215  1.00  0.00     0.338 C 
ATOM      5  O   UNL A   1      35.036  32.039  31.097  1.00  0.00    -0.246 OA
BRANCH   4   6
ATOM      6  C   UNL A   1      37.157  31.316  30.433  1.00  0.00     0.060 A 
ATOM      7  C   UNL A   1      38.332  31.920  30.881  1.00  0.00     0.016 A 
ATOM      8  C   UNL A   1      37.157  29.953  30.136  1.00  0.00     0.016 A 
ATOM      9  C   UNL A   1      39.539  31.274  30.733  1.00  0.00     0.010 A 
ATOM     10  C   UNL A   1      38.352  29.254  30.125  1.00  0.00     0.010 A 
ATOM     11  C   UNL A   1      39.548  29.944  30.322  1.00  0.00    -0.014 A 
BRANCH  11  12
ATOM     12  C   UNL A   1      40.843  29.279  30.281  1.00  0.00     0.031 A 
ATOM     13  C   UNL A   1      41.432  28.978  31.620  1.00  0.00     0.074 A 
ATOM     14  C   UNL A   1      41.384  28.830  29.133  1.00  0.00     0.049 A 
ATOM     15  N   UNL A   1      42.613  29.267  32.068  1.00  0.00    -0.248 NA
ATOM     16  C   UNL A   1      40.533  28.392  32.629  1.00  0.00     0.031 C 
ATOM     17  C   UNL A   1      40.763  28.816  27.806  1.00  0.00     0.029 A 
ATOM     18  N   UNL A   1      42.525  28.105  28.956  1.00  0.00    -0.354 N 
ATOM     19  C   UNL A   1      42.668  28.711  33.347  1.00  0.00     0.074 A 
ATOM     20  C   UNL A   1      41.323  28.345  33.699  1.00  0.00     0.031 C 
ATOM     21  C   UNL A   1      41.362  27.867  27.058  1.00  0.00     0.029 A 
ATOM     22  C   UNL A   1      42.479  27.323  27.808  1.00  0.00     0.049 A 
ATOM     23  H   UNL A   1      43.293  28.134  29.571  1.00  0.00     0.167 HD
ATOM     24  C   UNL A   1      43.843  28.378  33.944  1.00  0.00     0.034 A 
ATOM     25  C   UNL A   1      43.229  26.227  27.551  1.00  0.00     0.034 A 
ATOM     26  C   UNL A   1      44.964  29.053  33.352  1.00  0.00     0.049 A 
ATOM     27  C   UNL A   1      44.399  26.254  28.457  1.00  0.00     0.074 A 
ATOM     28  C   UNL A   1      45.333  30.370  33.177  1.00  0.00     0.029 A 
ATOM     29  N   UNL A   1      45.782  28.317  32.533  1.00  0.00    -0.354 N 
ATOM     30  N   UNL A   1      45.364  27.128  28.380  1.00  0.00    -0.248 NA
ATOM     31  C   UNL A   1      44.326  25.513  29.707  1.00  0.00     0.031 C 
ATOM     32  C   UNL A   1      46.037  30.397  31.938  1.00  0.00     0.029 A 
ATOM     33  C   UNL A   1      46.070  29.092  31.443  1.00  0.00     0.049 A 
ATOM     34  H   UNL A   1      46.103  27.401  32.699  1.00  0.00     0.167 HD
ATOM     35  C   UNL A   1      45.736  27.355  29.698  1.00  0.00     0.074 A 
ATOM     36  C   UNL A   1      45.169  26.238  30.447  1.00  0.00     0.031 C 
ATOM     37  C   UNL A   1      46.209  28.572  30.099  1.00  0.00     0.034 A 
BRANCH  24  38
ATOM     38  C   UNL A   1      44.026  27.177  34.845  1.00  0.00     0.023 A 
ATOM     39  C   UNL A   1      44.501  27.409  36.155  1.00  0.00     0.012 A 
ATOM     40  C   UNL A   1      44.021  25.835  34.397  1.00  0.00     0.148 A 
ATOM     41  C   UNL A   1      44.994  26.370  36.953  1.00  0.00     0.002 A 
ATOM     42  C   UNL A   1      44.427  24.797  35.227  1.00  0.00     0.091 A 
ATOM     43  F   UNL A   1      43.760  25.552  33.117  1.00  0.00    -0.205 F 
ATOM     44  C   UNL A   1      44.947  25.059  36.493  1.00  0.00     0.022 A 
BRANCH  42  45
ATOM     45  S   UNL A   1      44.307  23.087  34.688  1.00  0.00     0.127 S 
ATOM     46  O   UNL A   1      44.782  22.372  35.869  1.00  0.00    -0.237 OA
ATOM     47  O   UNL A   1      42.877  22.952  34.415  1.00  0.00    -0.237 OA
ATOM     48  O   UNL A   1      45.146  23.006  33.499  1.00  0.00    -0.744 OA
ENDBRANCH  42  45
ENDBRANCH  24  38
BRANCH  25  49
ATOM     49  C   UNL A   1      42.880  25.042  26.740  1.00  0.00     0.023 A 
ATOM     50  C   UNL A   1      43.691  24.691  25.645  1.00  0.00     0.012 A 
ATOM     51  C   UNL A   1      41.889  24.124  27.161  1.00  0.00     0.148 A 
ATOM     52  C   UNL A   1      43.533  23.460  24.999  1.00  0.00     0.002 A 
ATOM     53  C   UNL A   1      41.721  22.911  26.500  1.00  0.00     0.091 A 
ATOM     54  F   UNL A   1      41.176  24.396  28.261  1.00  0.00    -0.205 F 
ATOM     55  C   UNL A   1      42.549  22.571  25.425  1.00  0.00     0.022 A 
BRANCH  53  56
ATOM     56  S   UNL A   1      40.463  21.725  26.995  1.00  0.00     0.127 S 
ATOM     57  O   UNL A   1      39.232  22.504  26.849  1.00  0.00    -0.237 OA
ATOM     58  O   UNL A   1      40.638  20.666  26.007  1.00  0.00    -0.237 OA
ATOM     59  O   UNL A   1      40.780  21.372  28.374  1.00  0.00    -0.744 OA
ENDBRANCH  53  56
ENDBRANCH  25  49
BRANCH  37  60
ATOM     60  C   UNL A   1      46.596  29.578  29.041  1.00  0.00     0.023 A 
ATOM     61  C   UNL A   1      47.881  29.590  28.463  1.00  0.00     0.012 A 
ATOM     62  C   UNL A   1      45.595  30.390  28.478  1.00  0.00     0.148 A 
ATOM     63  C   UNL A   1      48.172  30.409  27.369  1.00  0.00     0.002 A 
ATOM     64  C   UNL A   1      45.873  31.165  27.357  1.00  0.00     0.091 A 
ATOM     65  F   UNL A   1      44.371  30.368  29.028  1.00  0.00    -0.205 F 
ATOM     66  C   UNL A   1      47.163  31.185  26.807  1.00  0.00     0.022 A 
BRANCH  64  67
ATOM     67  S   UNL A   1      44.574  32.062  26.502  1.00  0.00     0.127 S 
ATOM     68  O   UNL A   1      44.148  33.026  27.513  1.00  0.00    -0.237 OA
ATOM     69  O   UNL A   1      45.285  32.648  25.362  1.00  0.00    -0.237 OA
ATOM     70  O   UNL A   1      43.587  31.057  26.126  1.00  0.00    -0.744 OA
ENDBRANCH  64  67
ENDBRANCH  37  60
ENDBRANCH  11  12
ENDBRANCH   4   6
ENDBRANCH   3   4
ENDBRANCH   2   3
ENDBRANCH   1   2
BRANCH   1  71
ATOM     71  O   UNL A   1      32.288  32.177  27.239  1.00  0.00    -0.374 OA
BRANCH  71  72
ATOM     72  C   UNL A   1      31.730  31.162  26.402  1.00  0.00     0.202 C 
BRANCH  72  73
ATOM     73  C   UNL A   1      32.210  29.723  26.588  1.00  0.00     0.261 C 
BRANCH  73  74
ATOM     74  O   UNL A   1      31.407  28.767  25.868  1.00  0.00    -0.461 OA
BRANCH  74  75
ATOM     75  C   UNL A   1      32.086  28.010  24.964  1.00  0.00     0.332 C 
ATOM     76  O   UNL A   1      33.303  28.065  24.805  1.00  0.00    -0.249 OA
BRANCH  75  77
ATOM     77  C   UNL A   1      31.173  27.103  24.109  1.00  0.00     0.146 C 
ATOM     78  C   UNL A   1      30.217  26.160  24.891  1.00  0.00     0.062 C 
ATOM     79  C   UNL A   1      32.111  26.216  23.250  1.00  0.00     0.062 C 
ATOM     80  C   UNL A   1      30.791  24.842  25.416  1.00  0.00     0.122 C 
ATOM     81  C   UNL A   1      32.823  25.187  24.110  1.00  0.00     0.122 C 
ATOM     82  N   UNL A   1      31.872  24.250  24.656  1.00  0.00    -0.342 N 
ATOM     83  C   UNL A   1      32.313  23.005  25.132  1.00  0.00     0.233 C 
ATOM     84  O   UNL A   1      32.080  22.644  26.286  1.00  0.00    -0.274 OA
BRANCH  77  85
ATOM     85  N   UNL A   1      30.364  28.013  23.273  1.00  0.00    -0.320 N 
ATOM     86  C   UNL A   1      28.995  28.124  23.295  1.00  0.00     0.108 A 
ATOM     87  C   UNL A   1      30.819  28.941  22.375  1.00  0.00     0.200 A 
ATOM     88  C   UNL A   1      28.692  29.102  22.380  1.00  0.00     0.130 A 
ATOM     89  N   UNL A   1      29.831  29.597  21.810  1.00  0.00    -0.245 NA
ENDBRANCH  77  85
BRANCH  83  90
ATOM     90  C   UNL A   1      32.916  21.994  24.176  1.00  0.00     0.074 C 
ATOM     91  C   UNL A   1      32.244  20.749  23.603  1.00  0.00     0.023 C 
ATOM     92  C   UNL A   1      32.267  21.991  22.783  1.00  0.00     0.023 C 
BRANCH  90  93
ATOM     93  C   UNL A   1      34.451  21.959  24.238  1.00  0.00    -0.032 A 
ATOM     94  C   UNL A   1      35.234  22.864  23.501  1.00  0.00     0.005 A 
ATOM     95  C   UNL A   1      35.129  20.981  24.989  1.00  0.00     0.005 A 
ATOM     96  C   UNL A   1      36.630  22.796  23.513  1.00  0.00     0.000 A 
ATOM     97  C   UNL A   1      36.524  20.907  25.004  1.00  0.00     0.000 A 
ATOM     98  C   UNL A   1      37.274  21.815  24.263  1.00  0.00     0.000 A 
ENDBRANCH  90  93
ENDBRANCH  83  90
ENDBRANCH  75  77
ENDBRANCH  74  75
ENDBRANCH  73  74
ENDBRANCH  72  73
ENDBRANCH  71  72
ENDBRANCH   1  71
TORSDOF 20
ENDMDL
MODEL 3
REMARK VINA RESULT:     -11.7      2.731      8.226
REMARK SMILES O=C(OCCOCCOC(=O)C1(n2ccnc2)CCN(C(=O)C2(c3ccccc3)CC2)CC1)c1ccc(-c2c3nc(c(-c4cccc(S(=O)(=O)[O-])c4F)c4ccc([nH]4)c(-c4cccc(S(=O)(=O)[O-])c4F)c4nc(c(-c5cccc(S(=O)(=O)[O-])c5F)c5ccc2[nH]5)C=C4)C=C3)cc1
REMARK SMILES IDX 5 1 4 2 3 3 2 4 1 5 34 6 35 7 96 8 36 9 95 10 37 11 38 12
REMARK SMILES IDX 39 13 89 14 40 15 94 16 88 17 90 18 41 19 93 20 87 21 86 22
REMARK SMILES IDX 42 24 74 25 54 26 73 27 55 28 58 29 72 30 91 31 56 32 57 33
REMARK SMILES IDX 71 35 92 36 59 37 43 38 44 39 52 40 45 41 47 42 53 43 46 44
REMARK SMILES IDX 48 45 49 46 50 47 51 48 75 49 76 50 84 51 77 52 79 53 85 54
REMARK SMILES IDX 78 55 80 56 81 57 82 58 83 59 60 60 61 61 69 62 62 63 64 64
REMARK SMILES IDX 70 65 63 66 65 67 66 68 67 69 68 70 6 71 7 72 8 73 9 74
REMARK SMILES IDX 10 75 11 76 12 77 18 78 33 79 19 80 32 81 20 82 21 83 22 84
REMARK SMILES IDX 13 85 14 86 17 87 15 88 16 89 23 90 30 91 31 92 24 93 25 94
REMARK SMILES IDX 29 95 26 96 28 97 27 98
REMARK H PARENT 90 23 58 34
REMARK Flexibility Score: inf
ROOT
ATOM      1  C   UNL A   1      39.232  23.106  26.453  1.00  0.00     0.202 C 
ENDROOT
BRANCH   1   2
ATOM      2  C   UNL A   1      40.444  22.828  27.364  1.00  0.00     0.261 C 
BRANCH   2   3
ATOM      3  O   UNL A   1      41.656  22.693  26.614  1.00  0.00    -0.460 OA
BRANCH   3   4
ATOM      4  C   UNL A   1      42.382  23.704  26.059  1.00  0.00     0.338 C 
ATOM      5  O   UNL A   1      42.893  23.549  24.970  1.00  0.00    -0.246 OA
BRANCH   4   6
ATOM      6  C   UNL A   1      42.491  25.018  26.743  1.00  0.00     0.060 A 
ATOM      7  C   UNL A   1      43.400  25.315  27.759  1.00  0.00     0.016 A 
ATOM      8  C   UNL A   1      41.587  25.995  26.325  1.00  0.00     0.016 A 
ATOM      9  C   UNL A   1      43.208  26.425  28.552  1.00  0.00     0.010 A 
ATOM     10  C   UNL A   1      41.485  27.182  27.030  1.00  0.00     0.010 A 
ATOM     11  C   UNL A   1      42.224  27.345  28.202  1.00  0.00    -0.014 A 
BRANCH  11  12
ATOM     12  C   UNL A   1      42.133  28.549  29.016  1.00  0.00     0.031 A 
ATOM     13  C   UNL A   1      43.103  29.623  28.649  1.00  0.00     0.074 A 
ATOM     14  C   UNL A   1      41.148  28.736  29.913  1.00  0.00     0.049 A 
ATOM     15  N   UNL A   1      43.929  30.263  29.415  1.00  0.00    -0.248 NA
ATOM     16  C   UNL A   1      43.256  29.926  27.216  1.00  0.00     0.031 C 
ATOM     17  C   UNL A   1      39.985  27.876  30.147  1.00  0.00     0.029 A 
ATOM     18  N   UNL A   1      40.877  29.843  30.662  1.00  0.00    -0.354 N 
ATOM     19  C   UNL A   1      44.557  31.194  28.586  1.00  0.00     0.074 A 
ATOM     20  C   UNL A   1      44.235  30.827  27.233  1.00  0.00     0.031 C 
ATOM     21  C   UNL A   1      39.008  28.613  30.712  1.00  0.00     0.029 A 
ATOM     22  C   UNL A   1      39.532  29.937  30.998  1.00  0.00     0.049 A 
ATOM     23  H   UNL A   1      41.558  30.500  30.933  1.00  0.00     0.167 HD
ATOM     24  C   UNL A   1      45.111  32.338  29.067  1.00  0.00     0.034 A 
ATOM     25  C   UNL A   1      38.871  31.057  31.366  1.00  0.00     0.034 A 
ATOM     26  C   UNL A   1      45.383  32.259  30.475  1.00  0.00     0.049 A 
ATOM     27  C   UNL A   1      39.874  32.058  31.792  1.00  0.00     0.074 A 
ATOM     28  C   UNL A   1      46.156  31.450  31.280  1.00  0.00     0.029 A 
ATOM     29  N   UNL A   1      44.541  32.941  31.317  1.00  0.00    -0.354 N 
ATOM     30  N   UNL A   1      40.609  31.947  32.863  1.00  0.00    -0.248 NA
ATOM     31  C   UNL A   1      40.333  33.038  30.819  1.00  0.00     0.031 C 
ATOM     32  C   UNL A   1      45.439  31.352  32.506  1.00  0.00     0.029 A 
ATOM     33  C   UNL A   1      44.280  32.122  32.382  1.00  0.00     0.049 A 
ATOM     34  H   UNL A   1      44.190  33.851  31.181  1.00  0.00     0.167 HD
ATOM     35  C   UNL A   1      41.829  32.508  32.510  1.00  0.00     0.074 A 
ATOM     36  C   UNL A   1      41.553  33.283  31.305  1.00  0.00     0.031 C 
ATOM     37  C   UNL A   1      42.998  32.054  33.051  1.00  0.00     0.034 A 
BRANCH  24  38
ATOM     38  C   UNL A   1      45.097  33.660  28.334  1.00  0.00     0.023 A 
ATOM     39  C   UNL A   1      46.343  34.258  28.039  1.00  0.00     0.012 A 
ATOM     40  C   UNL A   1      43.947  34.468  28.167  1.00  0.00     0.148 A 
ATOM     41  C   UNL A   1      46.441  35.599  27.651  1.00  0.00     0.002 A 
ATOM     42  C   UNL A   1      44.044  35.771  27.695  1.00  0.00     0.091 A 
ATOM     43  F   UNL A   1      42.755  34.041  28.594  1.00  0.00    -0.205 F 
ATOM     44  C   UNL A   1      45.289  36.356  27.468  1.00  0.00     0.022 A 
BRANCH  42  45
ATOM     45  S   UNL A   1      42.570  36.748  27.377  1.00  0.00     0.127 S 
ATOM     46  O   UNL A   1      42.136  37.076  28.731  1.00  0.00    -0.237 OA
ATOM     47  O   UNL A   1      43.108  37.871  26.609  1.00  0.00    -0.237 OA
ATOM     48  O   UNL A   1      41.695  35.872  26.608  1.00  0.00    -0.744 OA
ENDBRANCH  42  45
ENDBRANCH  24  38
BRANCH  25  49
ATOM     49  C   UNL A   1      37.448  31.399  31.154  1.00  0.00     0.023 A 
ATOM     50  C   UNL A   1      36.631  31.674  32.266  1.00  0.00     0.012 A 
ATOM     51  C   UNL A   1      36.939  31.677  29.864  1.00  0.00     0.148 A 
ATOM     52  C   UNL A   1      35.354  32.222  32.101  1.00  0.00     0.002 A 
ATOM     53  C   UNL A   1      35.660  32.201  29.705  1.00  0.00     0.091 A 
ATOM     54  F   UNL A   1      37.739  31.517  28.801  1.00  0.00    -0.205 F 
ATOM     55  C   UNL A   1      34.868  32.485  30.823  1.00  0.00     0.022 A 
BRANCH  53  56
ATOM     56  S   UNL A   1      34.973  32.553  28.082  1.00  0.00     0.127 S 
ATOM     57  O   UNL A   1      35.005  31.236  27.442  1.00  0.00    -0.237 OA
ATOM     58  O   UNL A   1      33.637  33.039  28.415  1.00  0.00    -0.237 OA
ATOM     59  O   UNL A   1      35.875  33.527  27.478  1.00  0.00    -0.744 OA
ENDBRANCH  53  56
ENDBRANCH  25  49
BRANCH  37  60
ATOM     60  C   UNL A   1      42.929  31.137  34.249  1.00  0.00     0.023 A 
ATOM     61  C   UNL A   1      42.966  31.634  35.567  1.00  0.00     0.012 A 
ATOM     62  C   UNL A   1      42.621  29.779  34.047  1.00  0.00     0.148 A 
ATOM     63  C   UNL A   1      42.729  30.796  36.659  1.00  0.00     0.002 A 
ATOM     64  C   UNL A   1      42.334  28.960  35.133  1.00  0.00     0.091 A 
ATOM     65  F   UNL A   1      42.580  29.314  32.789  1.00  0.00    -0.205 F 
ATOM     66  C   UNL A   1      42.398  29.462  36.442  1.00  0.00     0.022 A 
BRANCH  64  67
ATOM     67  S   UNL A   1      41.753  27.278  34.901  1.00  0.00     0.127 S 
ATOM     68  O   UNL A   1      42.936  26.615  34.357  1.00  0.00    -0.237 OA
ATOM     69  O   UNL A   1      41.396  26.869  36.262  1.00  0.00    -0.237 OA
ATOM     70  O   UNL A   1      40.611  27.380  33.999  1.00  0.00    -0.744 OA
ENDBRANCH  64  67
ENDBRANCH  37  60
ENDBRANCH  11  12
ENDBRANCH   4   6
ENDBRANCH   3   4
ENDBRANCH   2   3
ENDBRANCH   1   2
BRANCH   1  71
ATOM     71  O   UNL A   1      38.192  22.133  26.358  1.00  0.00    -0.374 OA
BRANCH  71  72
ATOM     72  C   UNL A   1      37.890  21.558  25.086  1.00  0.00     0.202 C 
BRANCH  72  73
ATOM     73  C   UNL A   1      36.535  20.876  24.901  1.00  0.00     0.261 C 
BRANCH  73  74
ATOM     74  O   UNL A   1      35.551  21.740  24.298  1.00  0.00    -0.461 OA
BRANCH  74  75
ATOM     75  C   UNL A   1      34.500  22.061  25.100  1.00  0.00     0.332 C 
ATOM     76  O   UNL A   1      34.609  22.330  26.294  1.00  0.00    -0.249 OA
BRANCH  75  77
ATOM     77  C   UNL A   1      33.134  22.006  24.379  1.00  0.00     0.146 C 
ATOM     78  C   UNL A   1      33.108  22.538  22.919  1.00  0.00     0.062 C 
ATOM     79  C   UNL A   1      32.158  22.874  25.214  1.00  0.00     0.062 C 
ATOM     80  C   UNL A   1      32.991  24.050  22.715  1.00  0.00     0.122 C 
ATOM     81  C   UNL A   1      32.497  24.348  25.086  1.00  0.00     0.122 C 
ATOM     82  N   UNL A   1      32.278  24.795  23.732  1.00  0.00    -0.342 N 
ATOM     83  C   UNL A   1      32.130  26.165  23.463  1.00  0.00     0.233 C 
ATOM     84  O   UNL A   1      32.861  26.739  22.656  1.00  0.00    -0.274 OA
BRANCH  77  85
ATOM     85  N   UNL A   1      32.735  20.584  24.374  1.00  0.00    -0.320 N 
ATOM     86  C   UNL A   1      32.428  19.837  23.262  1.00  0.00     0.108 A 
ATOM     87  C   UNL A   1      32.649  19.741  25.450  1.00  0.00     0.200 A 
ATOM     88  C   UNL A   1      32.144  18.579  23.734  1.00  0.00     0.130 A 
ATOM     89  N   UNL A   1      32.277  18.533  25.093  1.00  0.00    -0.245 NA
ENDBRANCH  77  85
BRANCH  83  90
ATOM     90  C   UNL A   1      30.941  26.925  24.016  1.00  0.00     0.074 C 
ATOM     91  C   UNL A   1      29.624  27.225  23.305  1.00  0.00     0.023 C 
ATOM     92  C   UNL A   1      29.690  26.057  24.225  1.00  0.00     0.023 C 
BRANCH  90  93
ATOM     93  C   UNL A   1      31.326  27.890  25.149  1.00  0.00    -0.032 A 
ATOM     94  C   UNL A   1      31.505  27.437  26.467  1.00  0.00     0.005 A 
ATOM     95  C   UNL A   1      31.455  29.272  24.918  1.00  0.00     0.005 A 
ATOM     96  C   UNL A   1      31.799  28.322  27.507  1.00  0.00     0.000 A 
ATOM     97  C   UNL A   1      31.747  30.162  25.954  1.00  0.00     0.000 A 
ATOM     98  C   UNL A   1      31.917  29.686  27.250  1.00  0.00     0.000 A 
ENDBRANCH  90  93
ENDBRANCH  83  90
ENDBRANCH  75  77
ENDBRANCH  74  75
ENDBRANCH  73  74
ENDBRANCH  72  73
ENDBRANCH  71  72
ENDBRANCH   1  71
TORSDOF 20
ENDMDL
