MODEL 1
REMARK VINA RESULT:     -10.4      0.000      0.000
REMARK SMILES CC(C)[NH2+][C@]1(C(=O)OCCOCCOC(=O)c2ccc(-c3c4nc(c(-c5cccc(S(=O)(=O)[O-])c5F)c5ccc([nH]5)c(-c5cccc(S(=O)(=O)[O-])c5F)c5nc(c(-c6cccc(S(=O)(=O)[O-])c6F)c6ccc3[nH]6)C=C5)C=C4)cc2)CCC[C@@H](Sc2nnnn2C)C1
REMARK SMILES IDX 12 1 11 2 10 3 9 4 8 5 6 6 7 7 5 8 80 9 91 10 81 11 83 12
REMARK SMILES IDX 82 13 4 14 2 17 1 18 3 19 84 20 85 21 86 22 89 23 87 24
REMARK SMILES IDX 88 25 90 26 13 27 14 28 15 29 16 30 17 31 18 32 79 33 19 34
REMARK SMILES IDX 78 35 20 36 21 37 22 38 72 39 23 40 77 41 71 42 73 43 24 44
REMARK SMILES IDX 76 45 70 46 69 47 25 49 57 50 37 51 56 52 38 53 41 54 55 55
REMARK SMILES IDX 74 56 39 57 40 58 54 60 75 61 42 62 26 63 27 64 35 65 28 66
REMARK SMILES IDX 30 67 36 68 29 69 31 70 32 71 33 72 34 73 58 74 59 75 67 76
REMARK SMILES IDX 60 77 62 78 68 79 61 80 63 81 64 82 65 83 66 84 43 85 44 86
REMARK SMILES IDX 52 87 45 88 47 89 53 90 46 91 48 92 49 93 50 94 51 95
REMARK H PARENT 4 15 4 16 73 48 41 59
REMARK Flexibility Score: inf
ROOT
ATOM      1  C   UNL A   1      31.990  31.850  26.690  1.00  0.00     0.202 C 
ENDROOT
BRANCH   1   2
ATOM      2  O   UNL A   1      33.134  31.006  26.814  1.00  0.00    -0.374 OA
BRANCH   2   3
ATOM      3  C   UNL A   1      32.883  29.657  27.216  1.00  0.00     0.202 C 
BRANCH   3   4
ATOM      4  C   UNL A   1      31.785  28.937  26.428  1.00  0.00     0.261 C 
BRANCH   4   5
ATOM      5  O   UNL A   1      32.322  27.864  25.633  1.00  0.00    -0.459 OA
BRANCH   5   6
ATOM      6  C   UNL A   1      32.393  28.105  24.293  1.00  0.00     0.368 C 
ATOM      7  O   UNL A   1      32.705  29.184  23.799  1.00  0.00    -0.245 OA
BRANCH   6   8
ATOM      8  C   UNL A   1      32.004  26.849  23.457  1.00  0.00     0.195 C 
ATOM      9  C   UNL A   1      33.142  26.684  22.403  1.00  0.00     0.081 C 
ATOM     10  C   UNL A   1      31.969  25.534  24.283  1.00  0.00     0.096 C 
ATOM     11  C   UNL A   1      33.061  25.411  21.557  1.00  0.00     0.008 C 
ATOM     12  C   UNL A   1      31.784  24.289  23.405  1.00  0.00     0.061 C 
ATOM     13  C   UNL A   1      32.941  24.150  22.413  1.00  0.00     0.015 C 
BRANCH   8  14
ATOM     14  N   UNL A   1      30.735  27.124  22.735  1.00  0.00    -0.330 N 
ATOM     15  H   UNL A   1      30.945  27.801  22.001  1.00  0.00     0.347 HD
ATOM     16  H   UNL A   1      30.420  26.209  22.414  1.00  0.00     0.347 HD
BRANCH  14  17
ATOM     17  C   UNL A   1      29.606  27.655  23.511  1.00  0.00     0.176 C 
ATOM     18  C   UNL A   1      29.015  28.814  22.705  1.00  0.00     0.075 C 
ATOM     19  C   UNL A   1      28.518  26.625  23.808  1.00  0.00     0.075 C 
ENDBRANCH  14  17
ENDBRANCH   8  14
BRANCH  12  20
ATOM     20  S   UNL A   1      31.448  22.784  24.384  1.00  0.00    -0.081 SA
BRANCH  20  21
ATOM     21  C   UNL A   1      33.012  22.145  24.708  1.00  0.00     0.209 A 
ATOM     22  N   UNL A   1      33.493  21.019  24.235  1.00  0.00    -0.102 NA
ATOM     23  N   UNL A   1      33.931  22.694  25.553  1.00  0.00    -0.224 N 
ATOM     24  N   UNL A   1      34.744  20.886  24.792  1.00  0.00    -0.023 NA
ATOM     25  N   UNL A   1      35.029  21.916  25.577  1.00  0.00    -0.045 NA
ATOM     26  C   UNL A   1      33.916  23.927  26.289  1.00  0.00     0.179 C 
ENDBRANCH  20  21
ENDBRANCH  12  20
ENDBRANCH   6   8
ENDBRANCH   5   6
ENDBRANCH   4   5
ENDBRANCH   3   4
ENDBRANCH   2   3
ENDBRANCH   1   2
BRANCH   1  27
ATOM     27  C   UNL A   1      31.975  33.069  27.611  1.00  0.00     0.261 C 
BRANCH  27  28
ATOM     28  O   UNL A   1      33.266  33.700  27.609  1.00  0.00    -0.460 OA
BRANCH  28  29
ATOM     29  C   UNL A   1      33.859  33.741  28.822  1.00  0.00     0.338 C 
ATOM     30  O   UNL A   1      33.409  34.252  29.843  1.00  0.00    -0.246 OA
BRANCH  29  31
ATOM     31  C   UNL A   1      35.076  32.912  28.826  1.00  0.00     0.060 A 
ATOM     32  C   UNL A   1      34.990  31.679  29.484  1.00  0.00     0.016 A 
ATOM     33  C   UNL A   1      36.289  33.344  28.278  1.00  0.00     0.016 A 
ATOM     34  C   UNL A   1      36.136  30.931  29.707  1.00  0.00     0.010 A 
ATOM     35  C   UNL A   1      37.442  32.583  28.494  1.00  0.00     0.010 A 
ATOM     36  C   UNL A   1      37.377  31.416  29.277  1.00  0.00    -0.014 A 
BRANCH  36  37
ATOM     37  C   UNL A   1      38.595  30.821  29.875  1.00  0.00     0.031 A 
ATOM     38  C   UNL A   1      38.994  31.241  31.266  1.00  0.00     0.074 A 
ATOM     39  C   UNL A   1      39.280  29.859  29.235  1.00  0.00     0.049 A 
ATOM     40  N   UNL A   1      39.943  30.772  32.032  1.00  0.00    -0.248 NA
ATOM     41  C   UNL A   1      38.216  32.333  31.874  1.00  0.00     0.031 C 
ATOM     42  C   UNL A   1      38.994  29.375  27.887  1.00  0.00     0.029 A 
ATOM     43  N   UNL A   1      40.363  29.122  29.640  1.00  0.00    -0.354 N 
ATOM     44  C   UNL A   1      39.890  31.524  33.200  1.00  0.00     0.074 A 
ATOM     45  C   UNL A   1      38.838  32.500  33.029  1.00  0.00     0.031 C 
ATOM     46  C   UNL A   1      39.897  28.433  27.564  1.00  0.00     0.029 A 
ATOM     47  C   UNL A   1      40.822  28.251  28.682  1.00  0.00     0.049 A 
ATOM     48  H   UNL A   1      40.770  29.208  30.532  1.00  0.00     0.167 HD
ATOM     49  C   UNL A   1      40.628  31.398  34.328  1.00  0.00     0.034 A 
ATOM     50  C   UNL A   1      41.872  27.408  28.706  1.00  0.00     0.034 A 
ATOM     51  C   UNL A   1      41.660  30.413  34.504  1.00  0.00     0.049 A 
ATOM     52  C   UNL A   1      42.673  27.268  29.973  1.00  0.00     0.074 A 
ATOM     53  C   UNL A   1      42.441  30.172  35.619  1.00  0.00     0.029 A 
ATOM     54  N   UNL A   1      42.062  29.512  33.530  1.00  0.00    -0.354 N 
ATOM     55  N   UNL A   1      42.526  27.895  31.116  1.00  0.00    -0.248 NA
ATOM     56  C   UNL A   1      43.749  26.268  29.972  1.00  0.00     0.031 C 
ATOM     57  C   UNL A   1      43.332  29.137  35.311  1.00  0.00     0.029 A 
ATOM     58  C   UNL A   1      43.085  28.714  34.014  1.00  0.00     0.049 A 
ATOM     59  H   UNL A   1      41.677  29.448  32.626  1.00  0.00     0.167 HD
ATOM     60  C   UNL A   1      43.468  27.345  31.980  1.00  0.00     0.074 A 
ATOM     61  C   UNL A   1      44.165  26.318  31.232  1.00  0.00     0.031 C 
ATOM     62  C   UNL A   1      43.738  27.667  33.270  1.00  0.00     0.034 A 
BRANCH  49  63
ATOM     63  C   UNL A   1      40.318  32.340  35.462  1.00  0.00     0.023 A 
ATOM     64  C   UNL A   1      41.091  33.507  35.634  1.00  0.00     0.012 A 
ATOM     65  C   UNL A   1      39.264  32.074  36.356  1.00  0.00     0.148 A 
ATOM     66  C   UNL A   1      40.852  34.369  36.704  1.00  0.00     0.002 A 
ATOM     67  C   UNL A   1      39.000  32.964  37.393  1.00  0.00     0.091 A 
ATOM     68  F   UNL A   1      38.556  30.946  36.198  1.00  0.00    -0.205 F 
ATOM     69  C   UNL A   1      39.802  34.101  37.577  1.00  0.00     0.022 A 
BRANCH  67  70
ATOM     70  S   UNL A   1      37.619  32.741  38.518  1.00  0.00     0.127 S 
ATOM     71  O   UNL A   1      36.484  33.105  37.672  1.00  0.00    -0.237 OA
ATOM     72  O   UNL A   1      37.705  31.316  38.840  1.00  0.00    -0.237 OA
ATOM     73  O   UNL A   1      37.878  33.627  39.643  1.00  0.00    -0.744 OA
ENDBRANCH  67  70
ENDBRANCH  49  63
BRANCH  50  74
ATOM     74  C   UNL A   1      42.179  26.597  27.496  1.00  0.00     0.023 A 
ATOM     75  C   UNL A   1      42.907  27.165  26.433  1.00  0.00     0.012 A 
ATOM     76  C   UNL A   1      41.807  25.240  27.429  1.00  0.00     0.148 A 
ATOM     77  C   UNL A   1      43.244  26.399  25.316  1.00  0.00     0.002 A 
ATOM     78  C   UNL A   1      42.197  24.468  26.341  1.00  0.00     0.091 A 
ATOM     79  F   UNL A   1      41.104  24.725  28.447  1.00  0.00    -0.205 F 
ATOM     80  C   UNL A   1      42.900  25.050  25.275  1.00  0.00     0.022 A 
BRANCH  78  81
ATOM     81  S   UNL A   1      41.930  22.694  26.277  1.00  0.00     0.127 S 
ATOM     82  O   UNL A   1      40.472  22.610  26.260  1.00  0.00    -0.237 OA
ATOM     83  O   UNL A   1      42.583  22.338  25.017  1.00  0.00    -0.237 OA
ATOM     84  O   UNL A   1      42.581  22.153  27.462  1.00  0.00    -0.744 OA
ENDBRANCH  78  81
ENDBRANCH  50  74
BRANCH  62  85
ATOM     85  C   UNL A   1      44.815  26.881  33.972  1.00  0.00     0.023 A 
ATOM     86  C   UNL A   1      46.160  27.289  33.875  1.00  0.00     0.012 A 
ATOM     87  C   UNL A   1      44.487  25.775  34.783  1.00  0.00     0.148 A 
ATOM     88  C   UNL A   1      47.165  26.586  34.540  1.00  0.00     0.002 A 
ATOM     89  C   UNL A   1      45.487  25.111  35.481  1.00  0.00     0.091 A 
ATOM     90  F   UNL A   1      43.205  25.388  34.849  1.00  0.00    -0.205 F 
ATOM     91  C   UNL A   1      46.828  25.506  35.351  1.00  0.00     0.022 A 
BRANCH  89  92
ATOM     92  S   UNL A   1      45.124  23.770  36.621  1.00  0.00     0.127 S 
ATOM     93  O   UNL A   1      44.255  24.430  37.592  1.00  0.00    -0.237 OA
ATOM     94  O   UNL A   1      44.447  22.799  35.759  1.00  0.00    -0.237 OA
ATOM     95  O   UNL A   1      46.414  23.322  37.128  1.00  0.00    -0.744 OA
ENDBRANCH  89  92
ENDBRANCH  62  85
ENDBRANCH  36  37
ENDBRANCH  29  31
ENDBRANCH  28  29
ENDBRANCH  27  28
ENDBRANCH   1  27
TORSDOF 21
ENDMDL
MODEL 2
REMARK VINA RESULT:     -10.3      1.385      2.055
REMARK SMILES CC(C)[NH2+][C@]1(C(=O)OCCOCCOC(=O)c2ccc(-c3c4nc(c(-c5cccc(S(=O)(=O)[O-])c5F)c5ccc([nH]5)c(-c5cccc(S(=O)(=O)[O-])c5F)c5nc(c(-c6cccc(S(=O)(=O)[O-])c6F)c6ccc3[nH]6)C=C5)C=C4)cc2)CCC[C@@H](Sc2nnnn2C)C1
REMARK SMILES IDX 12 1 11 2 10 3 9 4 8 5 6 6 7 7 5 8 80 9 91 10 81 11 83 12
REMARK SMILES IDX 82 13 4 14 2 17 1 18 3 19 84 20 85 21 86 22 89 23 87 24
REMARK SMILES IDX 88 25 90 26 13 27 14 28 15 29 16 30 17 31 18 32 79 33 19 34
REMARK SMILES IDX 78 35 20 36 21 37 22 38 72 39 23 40 77 41 71 42 73 43 24 44
REMARK SMILES IDX 76 45 70 46 69 47 25 49 57 50 37 51 56 52 38 53 41 54 55 55
REMARK SMILES IDX 74 56 39 57 40 58 54 60 75 61 42 62 26 63 27 64 35 65 28 66
REMARK SMILES IDX 30 67 36 68 29 69 31 70 32 71 33 72 34 73 58 74 59 75 67 76
REMARK SMILES IDX 60 77 62 78 68 79 61 80 63 81 64 82 65 83 66 84 43 85 44 86
REMARK SMILES IDX 52 87 45 88 47 89 53 90 46 91 48 92 49 93 50 94 51 95
REMARK H PARENT 4 15 4 16 73 48 41 59
REMARK Flexibility Score: inf
ROOT
ATOM      1  C   UNL A   1      31.800  30.015  25.773  1.00  0.00     0.202 C 
ENDROOT
BRANCH   1   2
ATOM      2  O   UNL A   1      31.812  29.070  24.703  1.00  0.00    -0.374 OA
BRANCH   2   3
ATOM      3  C   UNL A   1      32.612  29.412  23.569  1.00  0.00     0.202 C 
BRANCH   3   4
ATOM      4  C   UNL A   1      32.829  28.280  22.560  1.00  0.00     0.261 C 
BRANCH   4   5
ATOM      5  O   UNL A   1      33.683  27.252  23.095  1.00  0.00    -0.459 OA
BRANCH   5   6
ATOM      6  C   UNL A   1      33.397  25.982  22.688  1.00  0.00     0.368 C 
ATOM      7  O   UNL A   1      33.601  25.555  21.557  1.00  0.00    -0.245 OA
BRANCH   6   8
ATOM      8  C   UNL A   1      32.753  25.140  23.830  1.00  0.00     0.195 C 
ATOM      9  C   UNL A   1      31.937  24.022  23.110  1.00  0.00     0.081 C 
ATOM     10  C   UNL A   1      33.788  24.421  24.738  1.00  0.00     0.096 C 
ATOM     11  C   UNL A   1      31.334  22.964  24.036  1.00  0.00     0.008 C 
ATOM     12  C   UNL A   1      33.132  23.443  25.723  1.00  0.00     0.061 C 
ATOM     13  C   UNL A   1      32.375  22.346  24.971  1.00  0.00     0.015 C 
BRANCH   8  14
ATOM     14  N   UNL A   1      31.804  25.998  24.585  1.00  0.00    -0.330 N 
ATOM     15  H   UNL A   1      32.051  25.927  25.572  1.00  0.00     0.347 HD
ATOM     16  H   UNL A   1      31.910  26.924  24.170  1.00  0.00     0.347 HD
BRANCH  14  17
ATOM     17  C   UNL A   1      30.370  25.702  24.469  1.00  0.00     0.176 C 
ATOM     18  C   UNL A   1      29.807  25.652  25.891  1.00  0.00     0.075 C 
ATOM     19  C   UNL A   1      29.589  26.722  23.641  1.00  0.00     0.075 C 
ENDBRANCH  14  17
ENDBRANCH   8  14
BRANCH  12  20
ATOM     20  S   UNL A   1      34.303  22.823  26.980  1.00  0.00    -0.081 SA
BRANCH  20  21
ATOM     21  C   UNL A   1      35.799  22.725  26.136  1.00  0.00     0.209 A 
ATOM     22  N   UNL A   1      36.742  23.638  26.137  1.00  0.00    -0.102 NA
ATOM     23  N   UNL A   1      36.170  21.712  25.301  1.00  0.00    -0.224 N 
ATOM     24  N   UNL A   1      37.721  23.163  25.296  1.00  0.00    -0.023 NA
ATOM     25  N   UNL A   1      37.392  21.976  24.801  1.00  0.00    -0.045 NA
ATOM     26  C   UNL A   1      35.524  20.470  24.980  1.00  0.00     0.179 C 
ENDBRANCH  20  21
ENDBRANCH  12  20
ENDBRANCH   6   8
ENDBRANCH   5   6
ENDBRANCH   4   5
ENDBRANCH   3   4
ENDBRANCH   2   3
ENDBRANCH   1   2
BRANCH   1  27
ATOM     27  C   UNL A   1      33.175  30.498  26.233  1.00  0.00     0.261 C 
BRANCH  27  28
ATOM     28  O   UNL A   1      33.161  30.742  27.649  1.00  0.00    -0.460 OA
BRANCH  28  29
ATOM     29  C   UNL A   1      33.964  31.753  28.040  1.00  0.00     0.338 C 
ATOM     30  O   UNL A   1      33.613  32.862  28.431  1.00  0.00    -0.246 OA
BRANCH  29  31
ATOM     31  C   UNL A   1      35.361  31.296  28.123  1.00  0.00     0.060 A 
ATOM     32  C   UNL A   1      35.562  29.917  28.251  1.00  0.00     0.016 A 
ATOM     33  C   UNL A   1      36.446  32.180  28.152  1.00  0.00     0.016 A 
ATOM     34  C   UNL A   1      36.827  29.424  28.536  1.00  0.00     0.010 A 
ATOM     35  C   UNL A   1      37.723  31.680  28.426  1.00  0.00     0.010 A 
ATOM     36  C   UNL A   1      37.899  30.311  28.696  1.00  0.00    -0.014 A 
BRANCH  36  37
ATOM     37  C   UNL A   1      39.110  29.810  29.388  1.00  0.00     0.031 A 
ATOM     38  C   UNL A   1      39.432  30.349  30.757  1.00  0.00     0.074 A 
ATOM     39  C   UNL A   1      39.854  28.829  28.853  1.00  0.00     0.049 A 
ATOM     40  N   UNL A   1      40.363  29.977  31.595  1.00  0.00    -0.248 NA
ATOM     41  C   UNL A   1      38.591  31.455  31.247  1.00  0.00     0.031 C 
ATOM     42  C   UNL A   1      39.645  28.233  27.536  1.00  0.00     0.029 A 
ATOM     43  N   UNL A   1      40.944  28.167  29.357  1.00  0.00    -0.354 N 
ATOM     44  C   UNL A   1      40.234  30.813  32.698  1.00  0.00     0.074 A 
ATOM     45  C   UNL A   1      39.157  31.733  32.409  1.00  0.00     0.031 C 
ATOM     46  C   UNL A   1      40.593  27.305  27.324  1.00  0.00     0.029 A 
ATOM     47  C   UNL A   1      41.474  27.244  28.489  1.00  0.00     0.049 A 
ATOM     48  H   UNL A   1      41.309  28.336  30.256  1.00  0.00     0.167 HD
ATOM     49  C   UNL A   1      40.926  30.801  33.861  1.00  0.00     0.034 A 
ATOM     50  C   UNL A   1      42.551  26.445  28.621  1.00  0.00     0.034 A 
ATOM     51  C   UNL A   1      41.984  29.873  34.155  1.00  0.00     0.049 A 
ATOM     52  C   UNL A   1      43.301  26.433  29.927  1.00  0.00     0.074 A 
ATOM     53  C   UNL A   1      42.724  29.748  35.315  1.00  0.00     0.029 A 
ATOM     54  N   UNL A   1      42.459  28.917  33.271  1.00  0.00    -0.354 N 
ATOM     55  N   UNL A   1      43.083  27.139  31.010  1.00  0.00    -0.248 NA
ATOM     56  C   UNL A   1      44.411  25.478  30.047  1.00  0.00     0.031 C 
ATOM     57  C   UNL A   1      43.662  28.727  35.125  1.00  0.00     0.029 A 
ATOM     58  C   UNL A   1      43.487  28.198  33.856  1.00  0.00     0.049 A 
ATOM     59  H   UNL A   1      42.115  28.769  32.359  1.00  0.00     0.167 HD
ATOM     60  C   UNL A   1      44.005  26.693  31.952  1.00  0.00     0.074 A 
ATOM     61  C   UNL A   1      44.770  25.640  31.314  1.00  0.00     0.031 C 
ATOM     62  C   UNL A   1      44.208  27.122  33.223  1.00  0.00     0.034 A 
BRANCH  49  63
ATOM     63  C   UNL A   1      40.534  31.814  34.905  1.00  0.00     0.023 A 
ATOM     64  C   UNL A   1      41.267  33.014  35.026  1.00  0.00     0.012 A 
ATOM     65  C   UNL A   1      39.445  31.583  35.766  1.00  0.00     0.148 A 
ATOM     66  C   UNL A   1      40.951  33.945  36.015  1.00  0.00     0.002 A 
ATOM     67  C   UNL A   1      39.106  32.538  36.719  1.00  0.00     0.091 A 
ATOM     68  F   UNL A   1      38.777  30.426  35.659  1.00  0.00    -0.205 F 
ATOM     69  C   UNL A   1      39.866  33.710  36.855  1.00  0.00     0.022 A 
BRANCH  67  70
ATOM     70  S   UNL A   1      37.676  32.356  37.790  1.00  0.00     0.127 S 
ATOM     71  O   UNL A   1      38.111  33.071  38.990  1.00  0.00    -0.237 OA
ATOM     72  O   UNL A   1      36.626  33.031  37.027  1.00  0.00    -0.237 OA
ATOM     73  O   UNL A   1      37.479  30.922  37.946  1.00  0.00    -0.744 OA
ENDBRANCH  67  70
ENDBRANCH  49  63
BRANCH  50  74
ATOM     74  C   UNL A   1      42.939  25.558  27.491  1.00  0.00     0.023 A 
ATOM     75  C   UNL A   1      43.924  25.971  26.574  1.00  0.00     0.012 A 
ATOM     76  C   UNL A   1      42.377  24.271  27.365  1.00  0.00     0.148 A 
ATOM     77  C   UNL A   1      44.330  25.126  25.541  1.00  0.00     0.002 A 
ATOM     78  C   UNL A   1      42.829  23.414  26.370  1.00  0.00     0.091 A 
ATOM     79  F   UNL A   1      41.432  23.904  28.241  1.00  0.00    -0.205 F 
ATOM     80  C   UNL A   1      43.793  23.845  25.446  1.00  0.00     0.022 A 
BRANCH  78  81
ATOM     81  S   UNL A   1      42.305  21.699  26.268  1.00  0.00     0.127 S 
ATOM     82  O   UNL A   1      42.558  21.227  27.627  1.00  0.00    -0.237 OA
ATOM     83  O   UNL A   1      40.891  21.839  25.916  1.00  0.00    -0.237 OA
ATOM     84  O   UNL A   1      43.125  21.095  25.227  1.00  0.00    -0.744 OA
ENDBRANCH  78  81
ENDBRANCH  50  74
BRANCH  62  85
ATOM     85  C   UNL A   1      45.280  26.434  34.027  1.00  0.00     0.023 A 
ATOM     86  C   UNL A   1      46.608  26.903  33.974  1.00  0.00     0.012 A 
ATOM     87  C   UNL A   1      44.960  25.363  34.886  1.00  0.00     0.148 A 
ATOM     88  C   UNL A   1      47.607  26.291  34.732  1.00  0.00     0.002 A 
ATOM     89  C   UNL A   1      45.951  24.792  35.675  1.00  0.00     0.091 A 
ATOM     90  F   UNL A   1      43.696  24.917  34.910  1.00  0.00    -0.205 F 
ATOM     91  C   UNL A   1      47.277  25.245  35.590  1.00  0.00     0.022 A 
BRANCH  89  92
ATOM     92  S   UNL A   1      45.589  23.504  36.874  1.00  0.00     0.127 S 
ATOM     93  O   UNL A   1      44.785  24.228  37.857  1.00  0.00    -0.237 OA
ATOM     94  O   UNL A   1      44.843  22.530  36.075  1.00  0.00    -0.237 OA
ATOM     95  O   UNL A   1      46.882  23.027  37.344  1.00  0.00    -0.744 OA
ENDBRANCH  89  92
ENDBRANCH  62  85
ENDBRANCH  36  37
ENDBRANCH  29  31
ENDBRANCH  28  29
ENDBRANCH  27  28
ENDBRANCH   1  27
TORSDOF 21
ENDMDL
MODEL 3
REMARK VINA RESULT:     -10.3      5.209      8.639
REMARK SMILES CC(C)[NH2+][C@]1(C(=O)OCCOCCOC(=O)c2ccc(-c3c4nc(c(-c5cccc(S(=O)(=O)[O-])c5F)c5ccc([nH]5)c(-c5cccc(S(=O)(=O)[O-])c5F)c5nc(c(-c6cccc(S(=O)(=O)[O-])c6F)c6ccc3[nH]6)C=C5)C=C4)cc2)CCC[C@@H](Sc2nnnn2C)C1
REMARK SMILES IDX 12 1 11 2 10 3 9 4 8 5 6 6 7 7 5 8 80 9 91 10 81 11 83 12
REMARK SMILES IDX 82 13 4 14 2 17 1 18 3 19 84 20 85 21 86 22 89 23 87 24
REMARK SMILES IDX 88 25 90 26 13 27 14 28 15 29 16 30 17 31 18 32 79 33 19 34
REMARK SMILES IDX 78 35 20 36 21 37 22 38 72 39 23 40 77 41 71 42 73 43 24 44
REMARK SMILES IDX 76 45 70 46 69 47 25 49 57 50 37 51 56 52 38 53 41 54 55 55
REMARK SMILES IDX 74 56 39 57 40 58 54 60 75 61 42 62 26 63 27 64 35 65 28 66
REMARK SMILES IDX 30 67 36 68 29 69 31 70 32 71 33 72 34 73 58 74 59 75 67 76
REMARK SMILES IDX 60 77 62 78 68 79 61 80 63 81 64 82 65 83 66 84 43 85 44 86
REMARK SMILES IDX 52 87 45 88 47 89 53 90 46 91 48 92 49 93 50 94 51 95
REMARK H PARENT 4 15 4 16 73 48 41 59
REMARK Flexibility Score: inf
ROOT
ATOM      1  C   UNL A   1      37.592  19.889  24.781  1.00  0.00     0.202 C 
ENDROOT
BRANCH   1   2
ATOM      2  O   UNL A   1      37.100  21.077  25.401  1.00  0.00    -0.374 OA
BRANCH   2   3
ATOM      3  C   UNL A   1      37.320  22.298  24.689  1.00  0.00     0.202 C 
BRANCH   3   4
ATOM      4  C   UNL A   1      36.053  23.083  24.338  1.00  0.00     0.261 C 
BRANCH   4   5
ATOM      5  O   UNL A   1      35.604  23.885  25.446  1.00  0.00    -0.459 OA
BRANCH   5   6
ATOM      6  C   UNL A   1      34.652  23.311  26.237  1.00  0.00     0.368 C 
ATOM      7  O   UNL A   1      34.880  22.776  27.317  1.00  0.00    -0.245 OA
BRANCH   6   8
ATOM      8  C   UNL A   1      33.237  23.393  25.591  1.00  0.00     0.195 C 
ATOM      9  C   UNL A   1      32.246  22.937  26.706  1.00  0.00     0.081 C 
ATOM     10  C   UNL A   1      32.817  24.833  25.184  1.00  0.00     0.096 C 
ATOM     11  C   UNL A   1      30.764  23.085  26.355  1.00  0.00     0.008 C 
ATOM     12  C   UNL A   1      31.349  24.917  24.740  1.00  0.00     0.061 C 
ATOM     13  C   UNL A   1      30.416  24.496  25.877  1.00  0.00     0.015 C 
BRANCH   8  14
ATOM     14  N   UNL A   1      33.160  22.419  24.472  1.00  0.00    -0.330 N 
ATOM     15  H   UNL A   1      32.511  22.800  23.783  1.00  0.00     0.347 HD
ATOM     16  H   UNL A   1      34.125  22.314  24.158  1.00  0.00     0.347 HD
BRANCH  14  17
ATOM     17  C   UNL A   1      32.719  21.053  24.780  1.00  0.00     0.176 C 
ATOM     18  C   UNL A   1      32.066  20.497  23.513  1.00  0.00     0.075 C 
ATOM     19  C   UNL A   1      33.845  20.123  25.231  1.00  0.00     0.075 C 
ENDBRANCH  14  17
ENDBRANCH   8  14
BRANCH  12  20
ATOM     20  S   UNL A   1      30.938  26.529  23.987  1.00  0.00    -0.081 SA
BRANCH  20  21
ATOM     21  C   UNL A   1      32.162  26.754  22.799  1.00  0.00     0.209 A 
ATOM     22  N   UNL A   1      32.383  25.974  21.767  1.00  0.00    -0.102 NA
ATOM     23  N   UNL A   1      33.106  27.738  22.815  1.00  0.00    -0.224 N 
ATOM     24  N   UNL A   1      33.478  26.504  21.127  1.00  0.00    -0.023 NA
ATOM     25  N   UNL A   1      33.911  27.596  21.745  1.00  0.00    -0.045 NA
ATOM     26  C   UNL A   1      33.288  28.857  23.697  1.00  0.00     0.179 C 
ENDBRANCH  20  21
ENDBRANCH  12  20
ENDBRANCH   6   8
ENDBRANCH   5   6
ENDBRANCH   4   5
ENDBRANCH   3   4
ENDBRANCH   2   3
ENDBRANCH   1   2
BRANCH   1  27
ATOM     27  C   UNL A   1      38.992  19.458  25.216  1.00  0.00     0.261 C 
BRANCH  27  28
ATOM     28  O   UNL A   1      39.307  20.033  26.495  1.00  0.00    -0.460 OA
BRANCH  28  29
ATOM     29  C   UNL A   1      40.618  20.307  26.666  1.00  0.00     0.338 C 
ATOM     30  O   UNL A   1      41.566  19.622  26.295  1.00  0.00    -0.246 OA
BRANCH  29  31
ATOM     31  C   UNL A   1      40.792  21.664  27.209  1.00  0.00     0.060 A 
ATOM     32  C   UNL A   1      40.107  22.693  26.552  1.00  0.00     0.016 A 
ATOM     33  C   UNL A   1      41.652  21.948  28.275  1.00  0.00     0.016 A 
ATOM     34  C   UNL A   1      40.372  24.016  26.872  1.00  0.00     0.010 A 
ATOM     35  C   UNL A   1      41.910  23.282  28.605  1.00  0.00     0.010 A 
ATOM     36  C   UNL A   1      41.329  24.317  27.849  1.00  0.00    -0.014 A 
BRANCH  36  37
ATOM     37  C   UNL A   1      41.879  25.693  27.876  1.00  0.00     0.031 A 
ATOM     38  C   UNL A   1      41.071  26.779  28.537  1.00  0.00     0.074 A 
ATOM     39  C   UNL A   1      43.110  25.954  27.408  1.00  0.00     0.049 A 
ATOM     40  N   UNL A   1      41.398  28.020  28.783  1.00  0.00    -0.248 NA
ATOM     41  C   UNL A   1      39.715  26.416  28.980  1.00  0.00     0.031 C 
ATOM     42  C   UNL A   1      43.983  24.988  26.743  1.00  0.00     0.029 A 
ATOM     43  N   UNL A   1      43.835  27.117  27.418  1.00  0.00    -0.354 N 
ATOM     44  C   UNL A   1      40.284  28.590  29.390  1.00  0.00     0.074 A 
ATOM     45  C   UNL A   1      39.262  27.570  29.444  1.00  0.00     0.031 C 
ATOM     46  C   UNL A   1      45.121  25.606  26.387  1.00  0.00     0.029 A 
ATOM     47  C   UNL A   1      45.056  27.008  26.797  1.00  0.00     0.049 A 
ATOM     48  H   UNL A   1      43.512  27.950  27.832  1.00  0.00     0.167 HD
ATOM     49  C   UNL A   1      40.131  29.840  29.885  1.00  0.00     0.034 A 
ATOM     50  C   UNL A   1      46.008  27.936  26.583  1.00  0.00     0.034 A 
ATOM     51  C   UNL A   1      41.156  30.848  29.849  1.00  0.00     0.049 A 
ATOM     52  C   UNL A   1      45.829  29.318  27.154  1.00  0.00     0.074 A 
ATOM     53  C   UNL A   1      41.120  32.133  30.357  1.00  0.00     0.029 A 
ATOM     54  N   UNL A   1      42.399  30.684  29.259  1.00  0.00    -0.354 N 
ATOM     55  N   UNL A   1      44.822  29.803  27.840  1.00  0.00    -0.248 NA
ATOM     56  C   UNL A   1      46.938  30.263  26.967  1.00  0.00     0.031 C 
ATOM     57  C   UNL A   1      42.337  32.754  30.055  1.00  0.00     0.029 A 
ATOM     58  C   UNL A   1      43.141  31.846  29.384  1.00  0.00     0.049 A 
ATOM     59  H   UNL A   1      42.710  29.861  28.815  1.00  0.00     0.167 HD
ATOM     60  C   UNL A   1      45.187  31.097  28.196  1.00  0.00     0.074 A 
ATOM     61  C   UNL A   1      46.519  31.312  27.665  1.00  0.00     0.031 C 
ATOM     62  C   UNL A   1      44.483  32.027  28.888  1.00  0.00     0.034 A 
BRANCH  49  63
ATOM     63  C   UNL A   1      38.809  30.167  30.530  1.00  0.00     0.023 A 
ATOM     64  C   UNL A   1      38.532  29.703  31.834  1.00  0.00     0.012 A 
ATOM     65  C   UNL A   1      37.841  30.931  29.851  1.00  0.00     0.148 A 
ATOM     66  C   UNL A   1      37.298  29.954  32.432  1.00  0.00     0.002 A 
ATOM     67  C   UNL A   1      36.630  31.218  30.473  1.00  0.00     0.091 A 
ATOM     68  F   UNL A   1      38.106  31.339  28.602  1.00  0.00    -0.205 F 
ATOM     69  C   UNL A   1      36.352  30.718  31.755  1.00  0.00     0.022 A 
BRANCH  67  70
ATOM     70  S   UNL A   1      35.384  32.260  29.709  1.00  0.00     0.127 S 
ATOM     71  O   UNL A   1      34.936  31.422  28.598  1.00  0.00    -0.237 OA
ATOM     72  O   UNL A   1      34.406  32.419  30.785  1.00  0.00    -0.237 OA
ATOM     73  O   UNL A   1      36.071  33.488  29.336  1.00  0.00    -0.744 OA
ENDBRANCH  67  70
ENDBRANCH  49  63
BRANCH  50  74
ATOM     74  C   UNL A   1      47.235  27.556  25.831  1.00  0.00     0.023 A 
ATOM     75  C   UNL A   1      48.272  26.858  26.478  1.00  0.00     0.012 A 
ATOM     76  C   UNL A   1      47.344  27.829  24.452  1.00  0.00     0.148 A 
ATOM     77  C   UNL A   1      49.404  26.453  25.770  1.00  0.00     0.002 A 
ATOM     78  C   UNL A   1      48.447  27.372  23.742  1.00  0.00     0.091 A 
ATOM     79  F   UNL A   1      46.351  28.506  23.860  1.00  0.00    -0.205 F 
ATOM     80  C   UNL A   1      49.486  26.698  24.401  1.00  0.00     0.022 A 
BRANCH  78  81
ATOM     81  S   UNL A   1      48.563  27.509  21.955  1.00  0.00     0.127 S 
ATOM     82  O   UNL A   1      47.294  28.152  21.621  1.00  0.00    -0.237 OA
ATOM     83  O   UNL A   1      49.745  28.357  21.796  1.00  0.00    -0.237 OA
ATOM     84  O   UNL A   1      48.730  26.149  21.463  1.00  0.00    -0.744 OA
ENDBRANCH  78  81
ENDBRANCH  50  74
BRANCH  62  85
ATOM     85  C   UNL A   1      45.146  33.356  29.143  1.00  0.00     0.023 A 
ATOM     86  C   UNL A   1      45.889  33.556  30.323  1.00  0.00     0.012 A 
ATOM     87  C   UNL A   1      45.086  34.386  28.182  1.00  0.00     0.148 A 
ATOM     88  C   UNL A   1      46.528  34.773  30.561  1.00  0.00     0.002 A 
ATOM     89  C   UNL A   1      45.766  35.576  28.404  1.00  0.00     0.091 A 
ATOM     90  F   UNL A   1      44.358  34.186  27.074  1.00  0.00    -0.205 F 
ATOM     91  C   UNL A   1      46.477  35.778  29.598  1.00  0.00     0.022 A 
BRANCH  89  92
ATOM     92  S   UNL A   1      45.827  36.882  27.171  1.00  0.00     0.127 S 
ATOM     93  O   UNL A   1      46.744  37.836  27.791  1.00  0.00    -0.237 OA
ATOM     94  O   UNL A   1      46.368  36.187  26.002  1.00  0.00    -0.237 OA
ATOM     95  O   UNL A   1      44.453  37.339  27.012  1.00  0.00    -0.744 OA
ENDBRANCH  89  92
ENDBRANCH  62  85
ENDBRANCH  36  37
ENDBRANCH  29  31
ENDBRANCH  28  29
ENDBRANCH  27  28
ENDBRANCH   1  27
TORSDOF 21
ENDMDL
