MODEL 1
REMARK VINA RESULT:     -11.6      0.000      0.000
REMARK SMILES O=C(OCCOCCOC(=O)[C@H]1[C@@H](C(=O)Nc2cc(F)ccc2F)[C@@H]2C=C[C@H]1O2)c1ccc(-c2c3nc(c(-c4cccc(S(=O)(=O)[O-])c4F)c4ccc([nH]4)c(-c4cccc(S(=O)(=O)[O-])c4F)c4nc(c(-c5cccc(S(=O)(=O)[O-])c5F)c5ccc2[nH]5)C=C4)C=C3)cc1
REMARK SMILES IDX 5 1 4 2 3 3 2 4 1 5 30 6 31 7 92 8 32 9 91 10 33 11 34 12
REMARK SMILES IDX 35 13 85 14 36 15 90 16 84 17 86 18 37 19 89 20 83 21 82 22
REMARK SMILES IDX 38 24 70 25 50 26 69 27 51 28 54 29 68 30 87 31 52 32 53 33
REMARK SMILES IDX 67 35 88 36 55 37 39 38 40 39 48 40 41 41 43 42 49 43 42 44
REMARK SMILES IDX 44 45 45 46 46 47 47 48 71 49 72 50 80 51 73 52 75 53 81 54
REMARK SMILES IDX 74 55 76 56 77 57 78 58 79 59 56 60 57 61 65 62 58 63 60 64
REMARK SMILES IDX 66 65 59 66 61 67 62 68 63 69 64 70 6 71 7 72 8 73 9 74
REMARK SMILES IDX 10 75 11 76 12 77 13 78 28 79 25 80 27 81 29 82 26 83 14 84
REMARK SMILES IDX 15 85 16 86 17 88 18 89 23 90 19 91 22 92 24 93 20 94 21 95
REMARK H PARENT 86 23 54 34 16 87
REMARK Flexibility Score: inf
ROOT
ATOM      1  C   UNL A   1      34.943  20.942  24.560  1.00  0.00     0.202 C 
ENDROOT
BRANCH   1   2
ATOM      2  C   UNL A   1      36.352  21.527  24.456  1.00  0.00     0.261 C 
BRANCH   2   3
ATOM      3  O   UNL A   1      37.014  21.458  25.726  1.00  0.00    -0.460 OA
BRANCH   3   4
ATOM      4  C   UNL A   1      38.358  21.488  25.913  1.00  0.00     0.338 C 
ATOM      5  O   UNL A   1      39.028  20.517  25.570  1.00  0.00    -0.246 OA
BRANCH   4   6
ATOM      6  C   UNL A   1      39.061  22.707  26.408  1.00  0.00     0.060 A 
ATOM      7  C   UNL A   1      38.695  24.019  26.101  1.00  0.00     0.016 A 
ATOM      8  C   UNL A   1      40.133  22.510  27.291  1.00  0.00     0.016 A 
ATOM      9  C   UNL A   1      39.386  25.101  26.600  1.00  0.00     0.010 A 
ATOM     10  C   UNL A   1      40.826  23.603  27.822  1.00  0.00     0.010 A 
ATOM     11  C   UNL A   1      40.452  24.900  27.459  1.00  0.00    -0.014 A 
BRANCH  11  12
ATOM     12  C   UNL A   1      41.245  26.090  27.784  1.00  0.00     0.031 A 
ATOM     13  C   UNL A   1      40.612  27.121  28.657  1.00  0.00     0.074 A 
ATOM     14  C   UNL A   1      42.550  26.137  27.466  1.00  0.00     0.049 A 
ATOM     15  N   UNL A   1      41.052  28.298  28.992  1.00  0.00    -0.248 NA
ATOM     16  C   UNL A   1      39.310  26.766  29.251  1.00  0.00     0.031 C 
ATOM     17  C   UNL A   1      43.297  25.070  26.790  1.00  0.00     0.029 A 
ATOM     18  N   UNL A   1      43.483  27.112  27.684  1.00  0.00    -0.354 N 
ATOM     19  C   UNL A   1      40.042  28.864  29.755  1.00  0.00     0.074 A 
ATOM     20  C   UNL A   1      38.990  27.883  29.882  1.00  0.00     0.031 C 
ATOM     21  C   UNL A   1      44.572  25.460  26.638  1.00  0.00     0.029 A 
ATOM     22  C   UNL A   1      44.702  26.830  27.115  1.00  0.00     0.049 A 
ATOM     23  H   UNL A   1      43.300  27.932  28.198  1.00  0.00     0.167 HD
ATOM     24  C   UNL A   1      39.998  30.111  30.270  1.00  0.00     0.034 A 
ATOM     25  C   UNL A   1      45.766  27.633  26.934  1.00  0.00     0.034 A 
ATOM     26  C   UNL A   1      41.079  31.045  30.129  1.00  0.00     0.049 A 
ATOM     27  C   UNL A   1      45.664  29.047  27.434  1.00  0.00     0.074 A 
ATOM     28  C   UNL A   1      41.148  32.358  30.548  1.00  0.00     0.029 A 
ATOM     29  N   UNL A   1      42.286  30.753  29.506  1.00  0.00    -0.354 N 
ATOM     30  N   UNL A   1      44.684  29.618  28.096  1.00  0.00    -0.248 NA
ATOM     31  C   UNL A   1      46.803  29.931  27.165  1.00  0.00     0.031 C 
ATOM     32  C   UNL A   1      42.385  32.872  30.144  1.00  0.00     0.029 A 
ATOM     33  C   UNL A   1      43.107  31.863  29.522  1.00  0.00     0.049 A 
ATOM     34  H   UNL A   1      42.522  29.882  29.113  1.00  0.00     0.167 HD
ATOM     35  C   UNL A   1      45.099  30.918  28.352  1.00  0.00     0.074 A 
ATOM     36  C   UNL A   1      46.429  31.043  27.784  1.00  0.00     0.031 C 
ATOM     37  C   UNL A   1      44.445  31.923  28.985  1.00  0.00     0.034 A 
BRANCH  24  38
ATOM     38  C   UNL A   1      38.717  30.534  30.927  1.00  0.00     0.023 A 
ATOM     39  C   UNL A   1      38.466  30.238  32.282  1.00  0.00     0.012 A 
ATOM     40  C   UNL A   1      37.732  31.200  30.170  1.00  0.00     0.148 A 
ATOM     41  C   UNL A   1      37.235  30.556  32.859  1.00  0.00     0.002 A 
ATOM     42  C   UNL A   1      36.530  31.558  30.765  1.00  0.00     0.091 A 
ATOM     43  F   UNL A   1      37.976  31.437  28.874  1.00  0.00    -0.205 F 
ATOM     44  C   UNL A   1      36.272  31.222  32.104  1.00  0.00     0.022 A 
BRANCH  42  45
ATOM     45  S   UNL A   1      35.259  32.476  29.892  1.00  0.00     0.127 S 
ATOM     46  O   UNL A   1      34.853  31.516  28.867  1.00  0.00    -0.237 OA
ATOM     47  O   UNL A   1      34.269  32.700  30.946  1.00  0.00    -0.237 OA
ATOM     48  O   UNL A   1      35.902  33.684  29.395  1.00  0.00    -0.744 OA
ENDBRANCH  42  45
ENDBRANCH  24  38
BRANCH  25  49
ATOM     49  C   UNL A   1      46.967  27.138  26.205  1.00  0.00     0.023 A 
ATOM     50  C   UNL A   1      47.063  27.302  24.810  1.00  0.00     0.012 A 
ATOM     51  C   UNL A   1      48.030  26.518  26.895  1.00  0.00     0.148 A 
ATOM     52  C   UNL A   1      48.180  26.837  24.115  1.00  0.00     0.002 A 
ATOM     53  C   UNL A   1      49.165  26.110  26.205  1.00  0.00     0.091 A 
ATOM     54  F   UNL A   1      47.915  26.350  28.220  1.00  0.00    -0.205 F 
ATOM     55  C   UNL A   1      49.236  26.252  24.812  1.00  0.00     0.022 A 
BRANCH  53  56
ATOM     56  S   UNL A   1      50.620  25.462  27.037  1.00  0.00     0.127 S 
ATOM     57  O   UNL A   1      50.081  24.273  27.694  1.00  0.00    -0.237 OA
ATOM     58  O   UNL A   1      51.514  25.193  25.912  1.00  0.00    -0.237 OA
ATOM     59  O   UNL A   1      51.072  26.521  27.928  1.00  0.00    -0.744 OA
ENDBRANCH  53  56
ENDBRANCH  25  49
BRANCH  37  60
ATOM     60  C   UNL A   1      45.180  33.221  29.158  1.00  0.00     0.023 A 
ATOM     61  C   UNL A   1      46.067  33.397  30.237  1.00  0.00     0.012 A 
ATOM     62  C   UNL A   1      45.061  34.227  28.180  1.00  0.00     0.148 A 
ATOM     63  C   UNL A   1      46.807  34.572  30.354  1.00  0.00     0.002 A 
ATOM     64  C   UNL A   1      45.844  35.368  28.272  1.00  0.00     0.091 A 
ATOM     65  F   UNL A   1      44.195  34.040  27.173  1.00  0.00    -0.205 F 
ATOM     66  C   UNL A   1      46.706  35.549  29.364  1.00  0.00     0.022 A 
BRANCH  64  67
ATOM     67  S   UNL A   1      45.864  36.620  26.985  1.00  0.00     0.127 S 
ATOM     68  O   UNL A   1      46.340  35.854  25.835  1.00  0.00    -0.237 OA
ATOM     69  O   UNL A   1      44.456  37.015  26.918  1.00  0.00    -0.237 OA
ATOM     70  O   UNL A   1      46.764  37.666  27.453  1.00  0.00    -0.744 OA
ENDBRANCH  64  67
ENDBRANCH  37  60
ENDBRANCH  11  12
ENDBRANCH   4   6
ENDBRANCH   3   4
ENDBRANCH   2   3
ENDBRANCH   1   2
BRANCH   1  71
ATOM     71  O   UNL A   1      33.931  21.665  23.862  1.00  0.00    -0.374 OA
BRANCH  71  72
ATOM     72  C   UNL A   1      34.367  22.881  23.256  1.00  0.00     0.202 C 
BRANCH  72  73
ATOM     73  C   UNL A   1      33.339  23.376  22.243  1.00  0.00     0.261 C 
BRANCH  73  74
ATOM     74  O   UNL A   1      32.473  24.361  22.857  1.00  0.00    -0.463 OA
BRANCH  74  75
ATOM     75  C   UNL A   1      32.542  25.609  22.302  1.00  0.00     0.312 C 
ATOM     76  O   UNL A   1      33.392  25.935  21.499  1.00  0.00    -0.252 OA
BRANCH  75  77
ATOM     77  C   UNL A   1      31.536  26.542  22.943  1.00  0.00     0.147 C 
ATOM     78  C   UNL A   1      31.978  27.301  24.229  1.00  0.00     0.129 C 
ATOM     79  C   UNL A   1      31.032  27.709  22.078  1.00  0.00     0.157 C 
ATOM     80  C   UNL A   1      31.571  28.736  23.917  1.00  0.00     0.155 C 
ATOM     81  C   UNL A   1      29.749  28.250  22.637  1.00  0.00     0.004 C 
ATOM     82  O   UNL A   1      31.890  28.787  22.504  1.00  0.00    -0.365 OA
ATOM     83  C   UNL A   1      30.074  28.858  23.786  1.00  0.00     0.004 C 
BRANCH  78  84
ATOM     84  C   UNL A   1      33.375  27.135  24.835  1.00  0.00     0.231 C 
ATOM     85  O   UNL A   1      34.190  28.040  24.579  1.00  0.00    -0.274 OA
ATOM     86  N   UNL A   1      33.828  26.175  25.682  1.00  0.00    -0.323 N 
ATOM     87  H   UNL A   1      34.745  26.352  25.993  1.00  0.00     0.170 HD
BRANCH  86  88
ATOM     88  C   UNL A   1      33.300  24.988  26.218  1.00  0.00     0.080 A 
ATOM     89  C   UNL A   1      31.945  24.726  26.349  1.00  0.00     0.068 A 
ATOM     90  C   UNL A   1      34.207  23.970  26.558  1.00  0.00     0.146 A 
ATOM     91  C   UNL A   1      31.521  23.542  26.955  1.00  0.00     0.125 A 
ATOM     92  C   UNL A   1      33.788  22.786  27.159  1.00  0.00     0.044 A 
ATOM     93  F   UNL A   1      35.519  24.150  26.340  1.00  0.00    -0.205 F 
ATOM     94  F   UNL A   1      30.210  23.328  27.131  1.00  0.00    -0.207 F 
ATOM     95  C   UNL A   1      32.429  22.580  27.379  1.00  0.00     0.042 A 
ENDBRANCH  86  88
ENDBRANCH  78  84
ENDBRANCH  75  77
ENDBRANCH  74  75
ENDBRANCH  73  74
ENDBRANCH  72  73
ENDBRANCH  71  72
ENDBRANCH   1  71
TORSDOF 19
ENDMDL
MODEL 2
REMARK VINA RESULT:     -11.6      1.432      8.165
REMARK SMILES O=C(OCCOCCOC(=O)[C@H]1[C@@H](C(=O)Nc2cc(F)ccc2F)[C@@H]2C=C[C@H]1O2)c1ccc(-c2c3nc(c(-c4cccc(S(=O)(=O)[O-])c4F)c4ccc([nH]4)c(-c4cccc(S(=O)(=O)[O-])c4F)c4nc(c(-c5cccc(S(=O)(=O)[O-])c5F)c5ccc2[nH]5)C=C4)C=C3)cc1
REMARK SMILES IDX 5 1 4 2 3 3 2 4 1 5 30 6 31 7 92 8 32 9 91 10 33 11 34 12
REMARK SMILES IDX 35 13 85 14 36 15 90 16 84 17 86 18 37 19 89 20 83 21 82 22
REMARK SMILES IDX 38 24 70 25 50 26 69 27 51 28 54 29 68 30 87 31 52 32 53 33
REMARK SMILES IDX 67 35 88 36 55 37 39 38 40 39 48 40 41 41 43 42 49 43 42 44
REMARK SMILES IDX 44 45 45 46 46 47 47 48 71 49 72 50 80 51 73 52 75 53 81 54
REMARK SMILES IDX 74 55 76 56 77 57 78 58 79 59 56 60 57 61 65 62 58 63 60 64
REMARK SMILES IDX 66 65 59 66 61 67 62 68 63 69 64 70 6 71 7 72 8 73 9 74
REMARK SMILES IDX 10 75 11 76 12 77 13 78 28 79 25 80 27 81 29 82 26 83 14 84
REMARK SMILES IDX 15 85 16 86 17 88 18 89 23 90 19 91 22 92 24 93 20 94 21 95
REMARK H PARENT 86 23 54 34 16 87
REMARK Flexibility Score: inf
ROOT
ATOM      1  C   UNL A   1      37.890  20.216  24.945  1.00  0.00     0.202 C 
ENDROOT
BRANCH   1   2
ATOM      2  C   UNL A   1      38.780  19.212  25.678  1.00  0.00     0.261 C 
BRANCH   2   3
ATOM      3  O   UNL A   1      40.142  19.656  25.672  1.00  0.00    -0.460 OA
BRANCH   3   4
ATOM      4  C   UNL A   1      40.838  20.074  26.760  1.00  0.00     0.338 C 
ATOM      5  O   UNL A   1      41.374  19.236  27.481  1.00  0.00    -0.246 OA
BRANCH   4   6
ATOM      6  C   UNL A   1      41.076  21.520  27.040  1.00  0.00     0.060 A 
ATOM      7  C   UNL A   1      40.663  22.571  26.218  1.00  0.00     0.016 A 
ATOM      8  C   UNL A   1      41.711  21.839  28.250  1.00  0.00     0.016 A 
ATOM      9  C   UNL A   1      40.909  23.886  26.543  1.00  0.00     0.010 A 
ATOM     10  C   UNL A   1      41.944  23.172  28.600  1.00  0.00     0.010 A 
ATOM     11  C   UNL A   1      41.550  24.194  27.730  1.00  0.00    -0.014 A 
BRANCH  11  12
ATOM     12  C   UNL A   1      41.942  25.596  27.901  1.00  0.00     0.031 A 
ATOM     13  C   UNL A   1      43.257  26.017  27.337  1.00  0.00     0.074 A 
ATOM     14  C   UNL A   1      41.055  26.490  28.372  1.00  0.00     0.049 A 
ATOM     15  N   UNL A   1      43.876  27.155  27.454  1.00  0.00    -0.248 NA
ATOM     16  C   UNL A   1      43.963  25.022  26.510  1.00  0.00     0.031 C 
ATOM     17  C   UNL A   1      39.671  26.191  28.753  1.00  0.00     0.029 A 
ATOM     18  N   UNL A   1      41.180  27.833  28.591  1.00  0.00    -0.354 N 
ATOM     19  C   UNL A   1      45.086  26.983  26.798  1.00  0.00     0.074 A 
ATOM     20  C   UNL A   1      45.094  25.652  26.238  1.00  0.00     0.031 C 
ATOM     21  C   UNL A   1      39.080  27.321  29.173  1.00  0.00     0.029 A 
ATOM     22  C   UNL A   1      40.071  28.389  29.182  1.00  0.00     0.049 A 
ATOM     23  H   UNL A   1      41.984  28.350  28.350  1.00  0.00     0.167 HD
ATOM     24  C   UNL A   1      46.108  27.861  26.710  1.00  0.00     0.034 A 
ATOM     25  C   UNL A   1      39.916  29.605  29.738  1.00  0.00     0.034 A 
ATOM     26  C   UNL A   1      46.045  29.180  27.272  1.00  0.00     0.049 A 
ATOM     27  C   UNL A   1      41.096  30.537  29.710  1.00  0.00     0.074 A 
ATOM     28  C   UNL A   1      47.024  30.152  27.308  1.00  0.00     0.029 A 
ATOM     29  N   UNL A   1      44.927  29.706  27.908  1.00  0.00    -0.354 N 
ATOM     30  N   UNL A   1      42.273  30.360  29.154  1.00  0.00    -0.248 NA
ATOM     31  C   UNL A   1      40.937  31.830  30.383  1.00  0.00     0.031 C 
ATOM     32  C   UNL A   1      46.509  31.253  28.001  1.00  0.00     0.029 A 
ATOM     33  C   UNL A   1      45.191  30.987  28.348  1.00  0.00     0.049 A 
ATOM     34  H   UNL A   1      44.071  29.233  28.025  1.00  0.00     0.167 HD
ATOM     35  C   UNL A   1      42.985  31.529  29.382  1.00  0.00     0.074 A 
ATOM     36  C   UNL A   1      42.098  32.414  30.115  1.00  0.00     0.031 C 
ATOM     37  C   UNL A   1      44.256  31.847  29.031  1.00  0.00     0.034 A 
BRANCH  24  38
ATOM     38  C   UNL A   1      47.377  27.371  26.075  1.00  0.00     0.023 A 
ATOM     39  C   UNL A   1      47.625  27.575  24.703  1.00  0.00     0.012 A 
ATOM     40  C   UNL A   1      48.315  26.661  26.851  1.00  0.00     0.148 A 
ATOM     41  C   UNL A   1      48.765  27.037  24.104  1.00  0.00     0.002 A 
ATOM     42  C   UNL A   1      49.471  26.173  26.258  1.00  0.00     0.091 A 
ATOM     43  F   UNL A   1      48.040  26.446  28.144  1.00  0.00    -0.205 F 
ATOM     44  C   UNL A   1      49.691  26.344  24.882  1.00  0.00     0.022 A 
BRANCH  42  45
ATOM     45  S   UNL A   1      50.750  25.329  27.192  1.00  0.00     0.127 S 
ATOM     46  O   UNL A   1      50.002  24.217  27.779  1.00  0.00    -0.237 OA
ATOM     47  O   UNL A   1      51.690  24.944  26.139  1.00  0.00    -0.237 OA
ATOM     48  O   UNL A   1      51.266  26.303  28.143  1.00  0.00    -0.744 OA
ENDBRANCH  42  45
ENDBRANCH  24  38
BRANCH  25  49
ATOM     49  C   UNL A   1      38.636  29.970  30.407  1.00  0.00     0.023 A 
ATOM     50  C   UNL A   1      38.363  29.504  31.706  1.00  0.00     0.012 A 
ATOM     51  C   UNL A   1      37.693  30.798  29.764  1.00  0.00     0.148 A 
ATOM     52  C   UNL A   1      37.165  29.835  32.342  1.00  0.00     0.002 A 
ATOM     53  C   UNL A   1      36.529  31.172  30.424  1.00  0.00     0.091 A 
ATOM     54  F   UNL A   1      37.959  31.217  28.518  1.00  0.00    -0.205 F 
ATOM     55  C   UNL A   1      36.253  30.677  31.708  1.00  0.00     0.022 A 
BRANCH  53  56
ATOM     56  S   UNL A   1      35.361  32.349  29.732  1.00  0.00     0.127 S 
ATOM     57  O   UNL A   1      34.358  32.430  30.791  1.00  0.00    -0.237 OA
ATOM     58  O   UNL A   1      36.193  33.541  29.578  1.00  0.00    -0.237 OA
ATOM     59  O   UNL A   1      34.906  31.765  28.478  1.00  0.00    -0.744 OA
ENDBRANCH  53  56
ENDBRANCH  25  49
BRANCH  37  60
ATOM     60  C   UNL A   1      44.740  33.227  29.375  1.00  0.00     0.023 A 
ATOM     61  C   UNL A   1      45.383  33.468  30.605  1.00  0.00     0.012 A 
ATOM     62  C   UNL A   1      44.644  34.259  28.422  1.00  0.00     0.148 A 
ATOM     63  C   UNL A   1      45.900  34.730  30.891  1.00  0.00     0.002 A 
ATOM     64  C   UNL A   1      45.213  35.495  28.691  1.00  0.00     0.091 A 
ATOM     65  F   UNL A   1      44.011  34.005  27.268  1.00  0.00    -0.205 F 
ATOM     66  C   UNL A   1      45.828  35.736  29.929  1.00  0.00     0.022 A 
BRANCH  64  67
ATOM     67  S   UNL A   1      45.270  36.808  27.468  1.00  0.00     0.127 S 
ATOM     68  O   UNL A   1      46.061  36.189  26.406  1.00  0.00    -0.237 OA
ATOM     69  O   UNL A   1      43.853  36.992  27.148  1.00  0.00    -0.237 OA
ATOM     70  O   UNL A   1      45.894  37.947  28.127  1.00  0.00    -0.744 OA
ENDBRANCH  64  67
ENDBRANCH  37  60
ENDBRANCH  11  12
ENDBRANCH   4   6
ENDBRANCH   3   4
ENDBRANCH   2   3
ENDBRANCH   1   2
BRANCH   1  71
ATOM     71  O   UNL A   1      37.538  21.377  25.695  1.00  0.00    -0.374 OA
BRANCH  71  72
ATOM     72  C   UNL A   1      37.151  22.506  24.914  1.00  0.00     0.202 C 
BRANCH  72  73
ATOM     73  C   UNL A   1      36.816  23.693  25.813  1.00  0.00     0.261 C 
BRANCH  73  74
ATOM     74  O   UNL A   1      35.450  24.116  25.583  1.00  0.00    -0.463 OA
BRANCH  74  75
ATOM     75  C   UNL A   1      34.500  23.330  26.177  1.00  0.00     0.312 C 
ATOM     76  O   UNL A   1      34.544  22.997  27.343  1.00  0.00    -0.252 OA
BRANCH  75  77
ATOM     77  C   UNL A   1      33.508  22.817  25.155  1.00  0.00     0.147 C 
ATOM     78  C   UNL A   1      31.997  23.088  25.420  1.00  0.00     0.129 C 
ATOM     79  C   UNL A   1      33.651  23.360  23.723  1.00  0.00     0.157 C 
ATOM     80  C   UNL A   1      31.526  23.646  24.082  1.00  0.00     0.155 C 
ATOM     81  C   UNL A   1      32.946  22.457  22.755  1.00  0.00     0.004 C 
ATOM     82  O   UNL A   1      32.687  24.432  23.715  1.00  0.00    -0.365 OA
ATOM     83  C   UNL A   1      31.636  22.610  22.994  1.00  0.00     0.004 C 
BRANCH  78  84
ATOM     84  C   UNL A   1      31.510  23.852  26.654  1.00  0.00     0.231 C 
ATOM     85  O   UNL A   1      31.121  23.154  27.608  1.00  0.00    -0.274 OA
ATOM     86  N   UNL A   1      31.518  25.190  26.887  1.00  0.00    -0.323 N 
ATOM     87  H   UNL A   1      31.231  25.414  27.801  1.00  0.00     0.170 HD
BRANCH  86  88
ATOM     88  C   UNL A   1      31.837  26.331  26.131  1.00  0.00     0.080 A 
ATOM     89  C   UNL A   1      33.099  26.901  26.071  1.00  0.00     0.068 A 
ATOM     90  C   UNL A   1      30.827  26.871  25.315  1.00  0.00     0.146 A 
ATOM     91  C   UNL A   1      33.299  28.073  25.341  1.00  0.00     0.125 A 
ATOM     92  C   UNL A   1      31.025  28.039  24.582  1.00  0.00     0.044 A 
ATOM     93  F   UNL A   1      29.626  26.277  25.265  1.00  0.00    -0.205 F 
ATOM     94  F   UNL A   1      34.509  28.648  25.342  1.00  0.00    -0.207 F 
ATOM     95  C   UNL A   1      32.270  28.658  24.614  1.00  0.00     0.042 A 
ENDBRANCH  86  88
ENDBRANCH  78  84
ENDBRANCH  75  77
ENDBRANCH  74  75
ENDBRANCH  73  74
ENDBRANCH  72  73
ENDBRANCH  71  72
ENDBRANCH   1  71
TORSDOF 19
ENDMDL
MODEL 3
REMARK VINA RESULT:     -11.6      1.969      3.058
REMARK SMILES O=C(OCCOCCOC(=O)[C@H]1[C@@H](C(=O)Nc2cc(F)ccc2F)[C@@H]2C=C[C@H]1O2)c1ccc(-c2c3nc(c(-c4cccc(S(=O)(=O)[O-])c4F)c4ccc([nH]4)c(-c4cccc(S(=O)(=O)[O-])c4F)c4nc(c(-c5cccc(S(=O)(=O)[O-])c5F)c5ccc2[nH]5)C=C4)C=C3)cc1
REMARK SMILES IDX 5 1 4 2 3 3 2 4 1 5 30 6 31 7 92 8 32 9 91 10 33 11 34 12
REMARK SMILES IDX 35 13 85 14 36 15 90 16 84 17 86 18 37 19 89 20 83 21 82 22
REMARK SMILES IDX 38 24 70 25 50 26 69 27 51 28 54 29 68 30 87 31 52 32 53 33
REMARK SMILES IDX 67 35 88 36 55 37 39 38 40 39 48 40 41 41 43 42 49 43 42 44
REMARK SMILES IDX 44 45 45 46 46 47 47 48 71 49 72 50 80 51 73 52 75 53 81 54
REMARK SMILES IDX 74 55 76 56 77 57 78 58 79 59 56 60 57 61 65 62 58 63 60 64
REMARK SMILES IDX 66 65 59 66 61 67 62 68 63 69 64 70 6 71 7 72 8 73 9 74
REMARK SMILES IDX 10 75 11 76 12 77 13 78 28 79 25 80 27 81 29 82 26 83 14 84
REMARK SMILES IDX 15 85 16 86 17 88 18 89 23 90 19 91 22 92 24 93 20 94 21 95
REMARK H PARENT 86 23 54 34 16 87
REMARK Flexibility Score: inf
ROOT
ATOM      1  C   UNL A   1      34.898  21.755  24.766  1.00  0.00     0.202 C 
ENDROOT
BRANCH   1   2
ATOM      2  C   UNL A   1      36.031  21.821  25.791  1.00  0.00     0.261 C 
BRANCH   2   3
ATOM      3  O   UNL A   1      37.285  21.516  25.167  1.00  0.00    -0.460 OA
BRANCH   3   4
ATOM      4  C   UNL A   1      38.484  21.461  25.799  1.00  0.00     0.338 C 
ATOM      5  O   UNL A   1      39.073  20.384  25.864  1.00  0.00    -0.246 OA
BRANCH   4   6
ATOM      6  C   UNL A   1      39.168  22.686  26.307  1.00  0.00     0.060 A 
ATOM      7  C   UNL A   1      38.797  23.995  25.994  1.00  0.00     0.016 A 
ATOM      8  C   UNL A   1      40.223  22.498  27.213  1.00  0.00     0.016 A 
ATOM      9  C   UNL A   1      39.469  25.082  26.507  1.00  0.00     0.010 A 
ATOM     10  C   UNL A   1      40.896  23.595  27.758  1.00  0.00     0.010 A 
ATOM     11  C   UNL A   1      40.519  24.890  27.387  1.00  0.00    -0.014 A 
BRANCH  11  12
ATOM     12  C   UNL A   1      41.295  26.086  27.729  1.00  0.00     0.031 A 
ATOM     13  C   UNL A   1      40.653  27.090  28.626  1.00  0.00     0.074 A 
ATOM     14  C   UNL A   1      42.597  26.160  27.401  1.00  0.00     0.049 A 
ATOM     15  N   UNL A   1      41.077  28.267  28.979  1.00  0.00    -0.248 NA
ATOM     16  C   UNL A   1      39.362  26.703  29.223  1.00  0.00     0.031 C 
ATOM     17  C   UNL A   1      43.355  25.119  26.700  1.00  0.00     0.029 A 
ATOM     18  N   UNL A   1      43.515  27.145  27.631  1.00  0.00    -0.354 N 
ATOM     19  C   UNL A   1      40.064  28.802  29.761  1.00  0.00     0.074 A 
ATOM     20  C   UNL A   1      39.029  27.803  29.878  1.00  0.00     0.031 C 
ATOM     21  C   UNL A   1      44.623  25.531  26.545  1.00  0.00     0.029 A 
ATOM     22  C   UNL A   1      44.734  26.895  27.046  1.00  0.00     0.049 A 
ATOM     23  H   UNL A   1      43.323  27.953  28.161  1.00  0.00     0.167 HD
ATOM     24  C   UNL A   1      40.005  30.039  30.300  1.00  0.00     0.034 A 
ATOM     25  C   UNL A   1      45.784  27.718  26.872  1.00  0.00     0.034 A 
ATOM     26  C   UNL A   1      41.070  30.993  30.168  1.00  0.00     0.049 A 
ATOM     27  C   UNL A   1      45.663  29.120  27.400  1.00  0.00     0.074 A 
ATOM     28  C   UNL A   1      41.120  32.298  30.612  1.00  0.00     0.029 A 
ATOM     29  N   UNL A   1      42.276  30.732  29.531  1.00  0.00    -0.354 N 
ATOM     30  N   UNL A   1      44.680  29.663  28.080  1.00  0.00    -0.248 NA
ATOM     31  C   UNL A   1      46.786  30.027  27.139  1.00  0.00     0.031 C 
ATOM     32  C   UNL A   1      42.345  32.840  30.208  1.00  0.00     0.029 A 
ATOM     33  C   UNL A   1      43.079  31.854  29.561  1.00  0.00     0.049 A 
ATOM     34  H   UNL A   1      42.522  29.873  29.119  1.00  0.00     0.167 HD
ATOM     35  C   UNL A   1      45.076  30.964  28.357  1.00  0.00     0.074 A 
ATOM     36  C   UNL A   1      46.399  31.121  27.781  1.00  0.00     0.031 C 
ATOM     37  C   UNL A   1      44.411  31.946  29.015  1.00  0.00     0.034 A 
BRANCH  24  38
ATOM     38  C   UNL A   1      38.722  30.429  30.976  1.00  0.00     0.023 A 
ATOM     39  C   UNL A   1      38.460  30.049  32.307  1.00  0.00     0.012 A 
ATOM     40  C   UNL A   1      37.747  31.148  30.256  1.00  0.00     0.148 A 
ATOM     41  C   UNL A   1      37.229  30.338  32.896  1.00  0.00     0.002 A 
ATOM     42  C   UNL A   1      36.544  31.477  30.866  1.00  0.00     0.091 A 
ATOM     43  F   UNL A   1      38.001  31.466  28.980  1.00  0.00    -0.205 F 
ATOM     44  C   UNL A   1      36.275  31.059  32.179  1.00  0.00     0.022 A 
BRANCH  42  45
ATOM     45  S   UNL A   1      35.285  32.458  30.046  1.00  0.00     0.127 S 
ATOM     46  O   UNL A   1      36.049  33.636  29.636  1.00  0.00    -0.237 OA
ATOM     47  O   UNL A   1      34.882  31.579  28.947  1.00  0.00    -0.237 OA
ATOM     48  O   UNL A   1      34.250  32.702  31.041  1.00  0.00    -0.744 OA
ENDBRANCH  42  45
ENDBRANCH  24  38
BRANCH  25  49
ATOM     49  C   UNL A   1      46.987  27.256  26.124  1.00  0.00     0.023 A 
ATOM     50  C   UNL A   1      47.909  26.388  26.740  1.00  0.00     0.012 A 
ATOM     51  C   UNL A   1      47.213  27.660  24.792  1.00  0.00     0.148 A 
ATOM     52  C   UNL A   1      49.043  25.953  26.053  1.00  0.00     0.002 A 
ATOM     53  C   UNL A   1      48.313  27.177  24.094  1.00  0.00     0.091 A 
ATOM     54  F   UNL A   1      46.337  28.503  24.227  1.00  0.00    -0.205 F 
ATOM     55  C   UNL A   1      49.240  26.337  24.728  1.00  0.00     0.022 A 
BRANCH  53  56
ATOM     56  S   UNL A   1      48.577  27.521  22.350  1.00  0.00     0.127 S 
ATOM     57  O   UNL A   1      49.848  28.241  22.378  1.00  0.00    -0.237 OA
ATOM     58  O   UNL A   1      48.644  26.173  21.786  1.00  0.00    -0.237 OA
ATOM     59  O   UNL A   1      47.423  28.298  21.921  1.00  0.00    -0.744 OA
ENDBRANCH  53  56
ENDBRANCH  25  49
BRANCH  37  60
ATOM     60  C   UNL A   1      45.127  33.253  29.206  1.00  0.00     0.023 A 
ATOM     61  C   UNL A   1      45.943  33.457  30.335  1.00  0.00     0.012 A 
ATOM     62  C   UNL A   1      45.064  34.238  28.202  1.00  0.00     0.148 A 
ATOM     63  C   UNL A   1      46.667  34.639  30.474  1.00  0.00     0.002 A 
ATOM     64  C   UNL A   1      45.833  35.386  28.319  1.00  0.00     0.091 A 
ATOM     65  F   UNL A   1      44.264  34.024  27.147  1.00  0.00    -0.205 F 
ATOM     66  C   UNL A   1      46.624  35.595  29.460  1.00  0.00     0.022 A 
BRANCH  64  67
ATOM     67  S   UNL A   1      45.928  36.611  27.010  1.00  0.00     0.127 S 
ATOM     68  O   UNL A   1      44.553  37.107  26.969  1.00  0.00    -0.237 OA
ATOM     69  O   UNL A   1      46.905  37.560  27.547  1.00  0.00    -0.237 OA
ATOM     70  O   UNL A   1      46.369  35.897  25.820  1.00  0.00    -0.744 OA
ENDBRANCH  64  67
ENDBRANCH  37  60
ENDBRANCH  11  12
ENDBRANCH   4   6
ENDBRANCH   3   4
ENDBRANCH   2   3
ENDBRANCH   1   2
BRANCH   1  71
ATOM     71  O   UNL A   1      33.872  22.732  24.932  1.00  0.00    -0.374 OA
BRANCH  71  72
ATOM     72  C   UNL A   1      32.540  22.225  24.874  1.00  0.00     0.202 C 
BRANCH  72  73
ATOM     73  C   UNL A   1      31.537  23.301  25.278  1.00  0.00     0.261 C 
BRANCH  73  74
ATOM     74  O   UNL A   1      32.175  24.274  26.140  1.00  0.00    -0.463 OA
BRANCH  74  75
ATOM     75  C   UNL A   1      31.483  25.444  26.292  1.00  0.00     0.312 C 
ATOM     76  O   UNL A   1      30.275  25.521  26.199  1.00  0.00    -0.252 OA
BRANCH  75  77
ATOM     77  C   UNL A   1      32.430  26.619  26.423  1.00  0.00     0.147 C 
ATOM     78  C   UNL A   1      33.109  27.142  25.122  1.00  0.00     0.129 C 
ATOM     79  C   UNL A   1      31.836  27.922  26.983  1.00  0.00     0.157 C 
ATOM     80  C   UNL A   1      32.868  28.644  25.211  1.00  0.00     0.155 C 
ATOM     81  C   UNL A   1      32.933  28.816  27.482  1.00  0.00     0.004 C 
ATOM     82  O   UNL A   1      31.534  28.653  25.777  1.00  0.00    -0.365 OA
ATOM     83  C   UNL A   1      33.589  29.240  26.393  1.00  0.00     0.004 C 
BRANCH  78  84
ATOM     84  C   UNL A   1      32.836  26.517  23.752  1.00  0.00     0.231 C 
ATOM     85  O   UNL A   1      33.652  25.657  23.373  1.00  0.00    -0.274 OA
ATOM     86  N   UNL A   1      31.779  26.711  22.921  1.00  0.00    -0.323 N 
ATOM     87  H   UNL A   1      31.803  26.115  22.137  1.00  0.00     0.170 HD
BRANCH  86  88
ATOM     88  C   UNL A   1      30.661  27.562  22.913  1.00  0.00     0.080 A 
ATOM     89  C   UNL A   1      29.413  27.217  23.409  1.00  0.00     0.068 A 
ATOM     90  C   UNL A   1      30.850  28.876  22.452  1.00  0.00     0.146 A 
ATOM     91  C   UNL A   1      28.348  28.112  23.296  1.00  0.00     0.125 A 
ATOM     92  C   UNL A   1      29.790  29.773  22.341  1.00  0.00     0.044 A 
ATOM     93  F   UNL A   1      32.072  29.276  22.068  1.00  0.00    -0.205 F 
ATOM     94  F   UNL A   1      27.133  27.743  23.724  1.00  0.00    -0.207 F 
ATOM     95  C   UNL A   1      28.520  29.377  22.749  1.00  0.00     0.042 A 
ENDBRANCH  86  88
ENDBRANCH  78  84
ENDBRANCH  75  77
ENDBRANCH  74  75
ENDBRANCH  73  74
ENDBRANCH  72  73
ENDBRANCH  71  72
ENDBRANCH   1  71
TORSDOF 19
ENDMDL
