MODEL 1
REMARK VINA RESULT:     -12.2      0.000      0.000
REMARK SMILES Cc1ccc([C@@]23C[C@@H]4C[C@@H](C[C@@](C(=O)N5CCC(C(=O)OCCOCCOC(=O)c6ccc(-c7c8nc(c(-c9cccc(S(=O)(=O)[O-])c9F)c9ccc([nH]9)c(-c9cccc(S(=O)(=O)[O-])c9F)c9nc(c(-c%10cccc(S(=O)(=O)[O-])c%10F)c%10ccc7[nH]%10)C=C9)C=C8)cc6)CC5)(C4)C2)C3)cc1
REMARK SMILES IDX 25 1 24 2 23 3 22 4 21 5 19 6 20 7 18 8 13 9 14 10 15 11
REMARK SMILES IDX 16 12 94 13 17 14 93 15 12 16 6 17 7 18 96 19 97 20 8 21
REMARK SMILES IDX 10 22 9 23 95 24 11 25 5 26 1 27 2 28 3 29 99 30 4 31 98 32
REMARK SMILES IDX 26 33 27 34 28 35 29 36 30 37 31 38 92 39 32 40 91 41 33 42
REMARK SMILES IDX 34 43 35 44 85 45 36 46 90 47 84 48 86 49 37 50 89 51 83 52
REMARK SMILES IDX 82 53 38 55 70 56 50 57 69 58 51 59 54 60 68 61 87 62 52 63
REMARK SMILES IDX 53 64 67 66 88 67 55 68 39 69 40 70 48 71 41 72 43 73 49 74
REMARK SMILES IDX 42 75 44 76 45 77 46 78 47 79 71 80 72 81 80 82 73 83 75 84
REMARK SMILES IDX 81 85 74 86 76 87 77 88 78 89 79 90 56 91 57 92 65 93 58 94
REMARK SMILES IDX 60 95 66 96 59 97 61 98 62 99 63 100 64 101
REMARK H PARENT 86 54 54 65
REMARK Flexibility Score: inf
ROOT
ATOM      1  C   UNL A   1      34.176  34.977  28.519  1.00  0.00     0.202 C 
ENDROOT
BRANCH   1   2
ATOM      2  O   UNL A   1      34.505  33.726  27.975  1.00  0.00    -0.374 OA
BRANCH   2   3
ATOM      3  C   UNL A   1      33.526  32.707  28.047  1.00  0.00     0.202 C 
BRANCH   3   4
ATOM      4  C   UNL A   1      34.277  31.449  27.756  1.00  0.00     0.261 C 
BRANCH   4   5
ATOM      5  O   UNL A   1      33.376  30.330  27.579  1.00  0.00    -0.463 OA
BRANCH   5   6
ATOM      6  C   UNL A   1      33.785  29.189  26.926  1.00  0.00     0.309 C 
ATOM      7  O   UNL A   1      34.863  28.649  26.960  1.00  0.00    -0.252 OA
BRANCH   6   8
ATOM      8  C   UNL A   1      32.630  28.612  26.157  1.00  0.00     0.103 C 
ATOM      9  C   UNL A   1      31.917  24.766  26.038  1.00  0.00     0.228 C 
ATOM     10  O   UNL A   1      31.632  24.376  27.171  1.00  0.00    -0.274 OA
ATOM     11  N   UNL A   1      31.595  26.057  25.581  1.00  0.00    -0.342 N 
ATOM     12  C   UNL A   1      30.763  26.909  26.412  1.00  0.00     0.120 C 
ATOM     13  C   UNL A   1      32.224  26.808  24.481  1.00  0.00     0.120 C 
ATOM     14  C   UNL A   1      31.660  27.905  27.113  1.00  0.00     0.037 C 
ATOM     15  C   UNL A   1      33.245  27.737  25.064  1.00  0.00     0.037 C 
BRANCH   9  16
ATOM     16  C   UNL A   1      32.542  23.798  25.021  1.00  0.00     0.051 C 
ATOM     17  C   UNL A   1      34.875  22.816  24.598  1.00  0.00    -0.003 C 
ATOM     18  C   UNL A   1      34.201  21.426  24.821  1.00  0.00     0.015 C 
ATOM     19  C   UNL A   1      34.045  23.877  25.306  1.00  0.00     0.028 C 
ATOM     20  C   UNL A   1      34.765  23.195  23.101  1.00  0.00     0.015 C 
ATOM     21  C   UNL A   1      32.752  21.399  24.299  1.00  0.00    -0.009 C 
ATOM     22  C   UNL A   1      33.274  23.224  22.658  1.00  0.00    -0.009 C 
ATOM     23  C   UNL A   1      32.713  21.802  22.819  1.00  0.00     0.007 C 
ATOM     24  C   UNL A   1      31.910  22.394  25.099  1.00  0.00     0.020 C 
ATOM     25  C   UNL A   1      32.432  24.210  23.529  1.00  0.00     0.020 C 
BRANCH  17  26
ATOM     26  C   UNL A   1      36.308  22.823  25.169  1.00  0.00    -0.042 A 
ATOM     27  C   UNL A   1      40.245  22.746  27.004  1.00  0.00     0.044 C 
ATOM     28  C   UNL A   1      38.891  22.752  26.366  1.00  0.00    -0.051 A 
ATOM     29  C   UNL A   1      38.097  23.885  26.487  1.00  0.00     0.004 A 
ATOM     30  C   UNL A   1      38.397  21.657  25.648  1.00  0.00     0.004 A 
ATOM     31  C   UNL A   1      36.841  23.921  25.885  1.00  0.00     0.004 A 
ATOM     32  C   UNL A   1      37.123  21.690  25.060  1.00  0.00     0.004 A 
ENDBRANCH  17  26
ENDBRANCH   9  16
ENDBRANCH   6   8
ENDBRANCH   5   6
ENDBRANCH   4   5
ENDBRANCH   3   4
ENDBRANCH   2   3
ENDBRANCH   1   2
BRANCH   1  33
ATOM     33  C   UNL A   1      34.022  34.931  30.037  1.00  0.00     0.261 C 
BRANCH  33  34
ATOM     34  O   UNL A   1      35.183  34.294  30.610  1.00  0.00    -0.460 OA
BRANCH  34  35
ATOM     35  C   UNL A   1      34.928  33.175  31.350  1.00  0.00     0.338 C 
ATOM     36  O   UNL A   1      34.095  33.125  32.239  1.00  0.00    -0.246 OA
BRANCH  35  37
ATOM     37  C   UNL A   1      35.958  32.130  31.067  1.00  0.00     0.060 A 
ATOM     38  C   UNL A   1      36.093  31.023  31.924  1.00  0.00     0.016 A 
ATOM     39  C   UNL A   1      36.954  32.395  30.131  1.00  0.00     0.016 A 
ATOM     40  C   UNL A   1      37.304  30.316  31.985  1.00  0.00     0.010 A 
ATOM     41  C   UNL A   1      38.160  31.729  30.233  1.00  0.00     0.010 A 
ATOM     42  C   UNL A   1      38.373  30.746  31.217  1.00  0.00    -0.014 A 
BRANCH  42  43
ATOM     43  C   UNL A   1      39.751  30.260  31.315  1.00  0.00     0.031 A 
ATOM     44  C   UNL A   1      40.006  28.930  30.734  1.00  0.00     0.074 A 
ATOM     45  C   UNL A   1      40.803  31.081  31.582  1.00  0.00     0.049 A 
ATOM     46  N   UNL A   1      41.158  28.361  30.733  1.00  0.00    -0.248 NA
ATOM     47  C   UNL A   1      38.961  28.101  30.128  1.00  0.00     0.031 C 
ATOM     48  C   UNL A   1      42.149  31.013  31.005  1.00  0.00     0.029 A 
ATOM     49  N   UNL A   1      40.888  32.209  32.403  1.00  0.00    -0.354 N 
ATOM     50  C   UNL A   1      41.091  27.378  29.784  1.00  0.00     0.074 A 
ATOM     51  C   UNL A   1      39.690  27.110  29.608  1.00  0.00     0.031 C 
ATOM     52  C   UNL A   1      42.965  31.865  31.647  1.00  0.00     0.029 A 
ATOM     53  C   UNL A   1      42.223  32.418  32.765  1.00  0.00     0.049 A 
ATOM     54  H   UNL A   1      40.127  32.768  32.684  1.00  0.00     0.167 HD
ATOM     55  C   UNL A   1      42.229  27.066  29.113  1.00  0.00     0.034 A 
ATOM     56  C   UNL A   1      42.600  32.488  34.067  1.00  0.00     0.034 A 
ATOM     57  C   UNL A   1      43.412  27.674  29.770  1.00  0.00     0.049 A 
ATOM     58  C   UNL A   1      43.485  31.306  34.347  1.00  0.00     0.074 A 
ATOM     59  C   UNL A   1      44.338  28.637  29.405  1.00  0.00     0.029 A 
ATOM     60  N   UNL A   1      43.587  27.492  31.152  1.00  0.00    -0.354 N 
ATOM     61  N   UNL A   1      43.643  30.347  33.476  1.00  0.00    -0.248 NA
ATOM     62  C   UNL A   1      44.322  31.117  35.518  1.00  0.00     0.031 C 
ATOM     63  C   UNL A   1      44.985  29.103  30.600  1.00  0.00     0.029 A 
ATOM     64  C   UNL A   1      44.501  28.390  31.690  1.00  0.00     0.049 A 
ATOM     65  H   UNL A   1      43.116  26.808  31.679  1.00  0.00     0.167 HD
ATOM     66  C   UNL A   1      44.559  29.447  33.888  1.00  0.00     0.074 A 
ATOM     67  C   UNL A   1      44.970  29.982  35.184  1.00  0.00     0.031 C 
ATOM     68  C   UNL A   1      44.848  28.347  33.126  1.00  0.00     0.034 A 
BRANCH  55  69
ATOM     69  C   UNL A   1      42.241  26.339  27.776  1.00  0.00     0.023 A 
ATOM     70  C   UNL A   1      41.296  26.744  26.813  1.00  0.00     0.012 A 
ATOM     71  C   UNL A   1      43.076  25.244  27.402  1.00  0.00     0.148 A 
ATOM     72  C   UNL A   1      41.210  26.140  25.550  1.00  0.00     0.002 A 
ATOM     73  C   UNL A   1      43.052  24.705  26.111  1.00  0.00     0.091 A 
ATOM     74  F   UNL A   1      43.829  24.625  28.317  1.00  0.00    -0.205 F 
ATOM     75  C   UNL A   1      42.108  25.145  25.184  1.00  0.00     0.022 A 
BRANCH  73  76
ATOM     76  S   UNL A   1      44.242  23.469  25.544  1.00  0.00     0.127 S 
ATOM     77  O   UNL A   1      43.534  22.844  24.427  1.00  0.00    -0.237 OA
ATOM     78  O   UNL A   1      45.387  24.292  25.151  1.00  0.00    -0.237 OA
ATOM     79  O   UNL A   1      44.497  22.596  26.683  1.00  0.00    -0.744 OA
ENDBRANCH  73  76
ENDBRANCH  55  69
BRANCH  56  80
ATOM     80  C   UNL A   1      41.567  33.159  34.919  1.00  0.00     0.023 A 
ATOM     81  C   UNL A   1      41.243  34.504  34.577  1.00  0.00     0.012 A 
ATOM     82  C   UNL A   1      40.617  32.406  35.627  1.00  0.00     0.148 A 
ATOM     83  C   UNL A   1      39.968  35.031  34.819  1.00  0.00     0.002 A 
ATOM     84  C   UNL A   1      39.329  32.918  35.812  1.00  0.00     0.091 A 
ATOM     85  F   UNL A   1      40.955  31.178  36.037  1.00  0.00    -0.205 F 
ATOM     86  C   UNL A   1      38.996  34.217  35.387  1.00  0.00     0.022 A 
BRANCH  84  87
ATOM     87  S   UNL A   1      37.975  31.887  36.396  1.00  0.00     0.127 S 
ATOM     88  O   UNL A   1      36.857  32.823  36.377  1.00  0.00    -0.237 OA
ATOM     89  O   UNL A   1      37.915  30.846  35.368  1.00  0.00    -0.237 OA
ATOM     90  O   UNL A   1      38.384  31.410  37.709  1.00  0.00    -0.744 OA
ENDBRANCH  84  87
ENDBRANCH  56  80
BRANCH  68  91
ATOM     91  C   UNL A   1      45.489  27.104  33.700  1.00  0.00     0.023 A 
ATOM     92  C   UNL A   1      46.886  26.974  33.826  1.00  0.00     0.012 A 
ATOM     93  C   UNL A   1      44.703  26.090  34.295  1.00  0.00     0.148 A 
ATOM     94  C   UNL A   1      47.480  25.870  34.435  1.00  0.00     0.002 A 
ATOM     95  C   UNL A   1      45.294  25.069  35.026  1.00  0.00     0.091 A 
ATOM     96  F   UNL A   1      43.371  26.094  34.153  1.00  0.00    -0.205 F 
ATOM     97  C   UNL A   1      46.683  24.930  35.061  1.00  0.00     0.022 A 
BRANCH  95  98
ATOM     98  S   UNL A   1      44.322  23.989  36.081  1.00  0.00     0.127 S 
ATOM     99  O   UNL A   1      43.319  23.488  35.144  1.00  0.00    -0.237 OA
ATOM    100  O   UNL A   1      45.316  22.999  36.499  1.00  0.00    -0.237 OA
ATOM    101  O   UNL A   1      43.825  24.829  37.159  1.00  0.00    -0.744 OA
ENDBRANCH  95  98
ENDBRANCH  68  91
ENDBRANCH  42  43
ENDBRANCH  35  37
ENDBRANCH  34  35
ENDBRANCH  33  34
ENDBRANCH   1  33
TORSDOF 19
ENDMDL
MODEL 2
REMARK VINA RESULT:     -12.0      2.991      9.222
REMARK SMILES Cc1ccc([C@@]23C[C@@H]4C[C@@H](C[C@@](C(=O)N5CCC(C(=O)OCCOCCOC(=O)c6ccc(-c7c8nc(c(-c9cccc(S(=O)(=O)[O-])c9F)c9ccc([nH]9)c(-c9cccc(S(=O)(=O)[O-])c9F)c9nc(c(-c%10cccc(S(=O)(=O)[O-])c%10F)c%10ccc7[nH]%10)C=C9)C=C8)cc6)CC5)(C4)C2)C3)cc1
REMARK SMILES IDX 25 1 24 2 23 3 22 4 21 5 19 6 20 7 18 8 13 9 14 10 15 11
REMARK SMILES IDX 16 12 94 13 17 14 93 15 12 16 6 17 7 18 96 19 97 20 8 21
REMARK SMILES IDX 10 22 9 23 95 24 11 25 5 26 1 27 2 28 3 29 99 30 4 31 98 32
REMARK SMILES IDX 26 33 27 34 28 35 29 36 30 37 31 38 92 39 32 40 91 41 33 42
REMARK SMILES IDX 34 43 35 44 85 45 36 46 90 47 84 48 86 49 37 50 89 51 83 52
REMARK SMILES IDX 82 53 38 55 70 56 50 57 69 58 51 59 54 60 68 61 87 62 52 63
REMARK SMILES IDX 53 64 67 66 88 67 55 68 39 69 40 70 48 71 41 72 43 73 49 74
REMARK SMILES IDX 42 75 44 76 45 77 46 78 47 79 71 80 72 81 80 82 73 83 75 84
REMARK SMILES IDX 81 85 74 86 76 87 77 88 78 89 79 90 56 91 57 92 65 93 58 94
REMARK SMILES IDX 60 95 66 96 59 97 61 98 62 99 63 100 64 101
REMARK H PARENT 86 54 54 65
REMARK Flexibility Score: inf
ROOT
ATOM      1  C   UNL A   1      41.070  22.779  27.931  1.00  0.00     0.202 C 
ENDROOT
BRANCH   1   2
ATOM      2  O   UNL A   1      40.051  21.919  27.493  1.00  0.00    -0.374 OA
BRANCH   2   3
ATOM      3  C   UNL A   1      40.107  21.474  26.151  1.00  0.00     0.202 C 
BRANCH   3   4
ATOM      4  C   UNL A   1      38.679  21.431  25.715  1.00  0.00     0.261 C 
BRANCH   4   5
ATOM      5  O   UNL A   1      37.868  22.351  26.484  1.00  0.00    -0.463 OA
BRANCH   5   6
ATOM      6  C   UNL A   1      37.066  23.279  25.859  1.00  0.00     0.309 C 
ATOM      7  O   UNL A   1      37.293  24.444  25.641  1.00  0.00    -0.252 OA
BRANCH   6   8
ATOM      8  C   UNL A   1      35.806  22.612  25.385  1.00  0.00     0.103 C 
ATOM      9  C   UNL A   1      33.156  24.477  23.191  1.00  0.00     0.228 C 
ATOM     10  O   UNL A   1      33.664  24.764  22.106  1.00  0.00    -0.274 OA
ATOM     11  N   UNL A   1      33.514  23.323  23.911  1.00  0.00    -0.342 N 
ATOM     12  C   UNL A   1      34.396  22.353  23.288  1.00  0.00     0.120 C 
ATOM     13  C   UNL A   1      33.353  23.073  25.353  1.00  0.00     0.120 C 
ATOM     14  C   UNL A   1      35.786  22.549  23.852  1.00  0.00     0.037 C 
ATOM     15  C   UNL A   1      34.652  23.378  26.035  1.00  0.00     0.037 C 
BRANCH   9  16
ATOM     16  C   UNL A   1      32.005  25.327  23.754  1.00  0.00     0.051 C 
ATOM     17  C   UNL A   1      31.794  27.348  25.321  1.00  0.00    -0.003 C 
ATOM     18  C   UNL A   1      31.128  28.070  24.108  1.00  0.00     0.015 C 
ATOM     19  C   UNL A   1      32.679  26.228  24.793  1.00  0.00     0.028 C 
ATOM     20  C   UNL A   1      30.700  26.609  26.131  1.00  0.00     0.015 C 
ATOM     21  C   UNL A   1      30.296  27.100  23.247  1.00  0.00    -0.009 C 
ATOM     22  C   UNL A   1      29.951  25.591  25.223  1.00  0.00    -0.009 C 
ATOM     23  C   UNL A   1      29.247  26.389  24.113  1.00  0.00     0.007 C 
ATOM     24  C   UNL A   1      31.222  26.047  22.637  1.00  0.00     0.020 C 
ATOM     25  C   UNL A   1      30.932  24.563  24.575  1.00  0.00     0.020 C 
BRANCH  17  26
ATOM     26  C   UNL A   1      32.653  28.336  26.137  1.00  0.00    -0.042 A 
ATOM     27  C   UNL A   1      35.142  31.234  28.205  1.00  0.00     0.044 C 
ATOM     28  C   UNL A   1      34.269  30.249  27.493  1.00  0.00    -0.051 A 
ATOM     29  C   UNL A   1      34.818  29.046  27.070  1.00  0.00     0.004 A 
ATOM     30  C   UNL A   1      32.915  30.496  27.240  1.00  0.00     0.004 A 
ATOM     31  C   UNL A   1      34.020  28.106  26.422  1.00  0.00     0.004 A 
ATOM     32  C   UNL A   1      32.119  29.555  26.569  1.00  0.00     0.004 A 
ENDBRANCH  17  26
ENDBRANCH   9  16
ENDBRANCH   6   8
ENDBRANCH   5   6
ENDBRANCH   4   5
ENDBRANCH   3   4
ENDBRANCH   2   3
ENDBRANCH   1   2
BRANCH   1  33
ATOM     33  C   UNL A   1      41.329  23.923  26.954  1.00  0.00     0.261 C 
BRANCH  33  34
ATOM     34  O   UNL A   1      40.545  25.067  27.349  1.00  0.00    -0.460 OA
BRANCH  34  35
ATOM     35  C   UNL A   1      40.619  26.143  26.510  1.00  0.00     0.338 C 
ATOM     36  O   UNL A   1      41.141  26.110  25.409  1.00  0.00    -0.246 OA
BRANCH  35  37
ATOM     37  C   UNL A   1      40.183  27.381  27.226  1.00  0.00     0.060 A 
ATOM     38  C   UNL A   1      41.079  28.452  27.392  1.00  0.00     0.016 A 
ATOM     39  C   UNL A   1      39.002  27.356  27.963  1.00  0.00     0.016 A 
ATOM     40  C   UNL A   1      40.894  29.377  28.430  1.00  0.00     0.010 A 
ATOM     41  C   UNL A   1      38.855  28.239  29.015  1.00  0.00     0.010 A 
ATOM     42  C   UNL A   1      39.841  29.199  29.311  1.00  0.00    -0.014 A 
BRANCH  42  43
ATOM     43  C   UNL A   1      39.628  29.938  30.557  1.00  0.00     0.031 A 
ATOM     44  C   UNL A   1      39.037  31.279  30.415  1.00  0.00     0.074 A 
ATOM     45  C   UNL A   1      39.624  29.336  31.777  1.00  0.00     0.049 A 
ATOM     46  N   UNL A   1      38.783  32.056  31.407  1.00  0.00    -0.248 NA
ATOM     47  C   UNL A   1      38.711  31.884  29.121  1.00  0.00     0.031 C 
ATOM     48  C   UNL A   1      38.753  29.645  32.915  1.00  0.00     0.029 A 
ATOM     49  N   UNL A   1      40.375  28.262  32.262  1.00  0.00    -0.354 N 
ATOM     50  C   UNL A   1      37.900  32.990  30.937  1.00  0.00     0.074 A 
ATOM     51  C   UNL A   1      38.060  32.984  29.509  1.00  0.00     0.031 C 
ATOM     52  C   UNL A   1      39.167  28.975  34.003  1.00  0.00     0.029 A 
ATOM     53  C   UNL A   1      40.413  28.315  33.659  1.00  0.00     0.049 A 
ATOM     54  H   UNL A   1      40.812  27.575  31.706  1.00  0.00     0.167 HD
ATOM     55  C   UNL A   1      36.991  33.497  31.809  1.00  0.00     0.034 A 
ATOM     56  C   UNL A   1      41.590  28.344  34.335  1.00  0.00     0.034 A 
ATOM     57  C   UNL A   1      37.341  33.137  33.205  1.00  0.00     0.049 A 
ATOM     58  C   UNL A   1      41.685  29.678  35.021  1.00  0.00     0.074 A 
ATOM     59  C   UNL A   1      36.748  32.358  34.185  1.00  0.00     0.029 A 
ATOM     60  N   UNL A   1      38.648  33.376  33.658  1.00  0.00    -0.354 N 
ATOM     61  N   UNL A   1      40.825  30.632  34.789  1.00  0.00    -0.248 NA
ATOM     62  C   UNL A   1      42.635  30.045  36.057  1.00  0.00     0.031 C 
ATOM     63  C   UNL A   1      37.748  32.047  35.167  1.00  0.00     0.029 A 
ATOM     64  C   UNL A   1      38.937  32.679  34.824  1.00  0.00     0.049 A 
ATOM     65  H   UNL A   1      39.287  33.970  33.202  1.00  0.00     0.167 HD
ATOM     66  C   UNL A   1      41.036  31.696  35.590  1.00  0.00     0.074 A 
ATOM     67  C   UNL A   1      42.188  31.275  36.384  1.00  0.00     0.031 C 
ATOM     68  C   UNL A   1      40.255  32.816  35.481  1.00  0.00     0.034 A 
BRANCH  55  69
ATOM     69  C   UNL A   1      35.706  34.186  31.373  1.00  0.00     0.023 A 
ATOM     70  C   UNL A   1      35.180  33.833  30.114  1.00  0.00     0.012 A 
ATOM     71  C   UNL A   1      34.993  35.200  32.079  1.00  0.00     0.148 A 
ATOM     72  C   UNL A   1      34.006  34.408  29.607  1.00  0.00     0.002 A 
ATOM     73  C   UNL A   1      33.774  35.706  31.614  1.00  0.00     0.091 A 
ATOM     74  F   UNL A   1      35.534  35.780  33.156  1.00  0.00    -0.205 F 
ATOM     75  C   UNL A   1      33.284  35.319  30.369  1.00  0.00     0.022 A 
BRANCH  73  76
ATOM     76  S   UNL A   1      32.745  36.828  32.588  1.00  0.00     0.127 S 
ATOM     77  O   UNL A   1      33.383  36.774  33.902  1.00  0.00    -0.237 OA
ATOM     78  O   UNL A   1      32.916  38.101  31.884  1.00  0.00    -0.237 OA
ATOM     79  O   UNL A   1      31.391  36.293  32.532  1.00  0.00    -0.744 OA
ENDBRANCH  73  76
ENDBRANCH  55  69
BRANCH  56  80
ATOM     80  C   UNL A   1      42.641  27.507  33.673  1.00  0.00     0.023 A 
ATOM     81  C   UNL A   1      43.655  28.212  32.963  1.00  0.00     0.012 A 
ATOM     82  C   UNL A   1      42.932  26.215  34.139  1.00  0.00     0.148 A 
ATOM     83  C   UNL A   1      44.951  27.697  32.838  1.00  0.00     0.002 A 
ATOM     84  C   UNL A   1      44.242  25.732  34.063  1.00  0.00     0.091 A 
ATOM     85  F   UNL A   1      41.952  25.511  34.719  1.00  0.00    -0.205 F 
ATOM     86  C   UNL A   1      45.256  26.480  33.437  1.00  0.00     0.022 A 
BRANCH  84  87
ATOM     87  S   UNL A   1      44.757  24.248  34.940  1.00  0.00     0.127 S 
ATOM     88  O   UNL A   1      44.003  23.212  34.242  1.00  0.00    -0.237 OA
ATOM     89  O   UNL A   1      46.199  24.225  34.688  1.00  0.00    -0.237 OA
ATOM     90  O   UNL A   1      44.396  24.471  36.332  1.00  0.00    -0.744 OA
ENDBRANCH  84  87
ENDBRANCH  56  80
BRANCH  68  91
ATOM     91  C   UNL A   1      40.694  34.168  35.992  1.00  0.00     0.023 A 
ATOM     92  C   UNL A   1      40.117  34.760  37.133  1.00  0.00     0.012 A 
ATOM     93  C   UNL A   1      41.827  34.818  35.446  1.00  0.00     0.148 A 
ATOM     94  C   UNL A   1      40.578  35.964  37.661  1.00  0.00     0.002 A 
ATOM     95  C   UNL A   1      42.369  35.937  36.062  1.00  0.00     0.091 A 
ATOM     96  F   UNL A   1      42.386  34.368  34.316  1.00  0.00    -0.205 F 
ATOM     97  C   UNL A   1      41.723  36.540  37.143  1.00  0.00     0.022 A 
BRANCH  95  98
ATOM     98  S   UNL A   1      43.991  36.560  35.609  1.00  0.00     0.127 S 
ATOM     99  O   UNL A   1      44.277  37.470  36.715  1.00  0.00    -0.237 OA
ATOM    100  O   UNL A   1      44.794  35.336  35.601  1.00  0.00    -0.237 OA
ATOM    101  O   UNL A   1      43.829  37.176  34.301  1.00  0.00    -0.744 OA
ENDBRANCH  95  98
ENDBRANCH  68  91
ENDBRANCH  42  43
ENDBRANCH  35  37
ENDBRANCH  34  35
ENDBRANCH  33  34
ENDBRANCH   1  33
TORSDOF 19
ENDMDL
MODEL 3
REMARK VINA RESULT:     -12.0      2.836      9.282
REMARK SMILES Cc1ccc([C@@]23C[C@@H]4C[C@@H](C[C@@](C(=O)N5CCC(C(=O)OCCOCCOC(=O)c6ccc(-c7c8nc(c(-c9cccc(S(=O)(=O)[O-])c9F)c9ccc([nH]9)c(-c9cccc(S(=O)(=O)[O-])c9F)c9nc(c(-c%10cccc(S(=O)(=O)[O-])c%10F)c%10ccc7[nH]%10)C=C9)C=C8)cc6)CC5)(C4)C2)C3)cc1
REMARK SMILES IDX 25 1 24 2 23 3 22 4 21 5 19 6 20 7 18 8 13 9 14 10 15 11
REMARK SMILES IDX 16 12 94 13 17 14 93 15 12 16 6 17 7 18 96 19 97 20 8 21
REMARK SMILES IDX 10 22 9 23 95 24 11 25 5 26 1 27 2 28 3 29 99 30 4 31 98 32
REMARK SMILES IDX 26 33 27 34 28 35 29 36 30 37 31 38 92 39 32 40 91 41 33 42
REMARK SMILES IDX 34 43 35 44 85 45 36 46 90 47 84 48 86 49 37 50 89 51 83 52
REMARK SMILES IDX 82 53 38 55 70 56 50 57 69 58 51 59 54 60 68 61 87 62 52 63
REMARK SMILES IDX 53 64 67 66 88 67 55 68 39 69 40 70 48 71 41 72 43 73 49 74
REMARK SMILES IDX 42 75 44 76 45 77 46 78 47 79 71 80 72 81 80 82 73 83 75 84
REMARK SMILES IDX 81 85 74 86 76 87 77 88 78 89 79 90 56 91 57 92 65 93 58 94
REMARK SMILES IDX 60 95 66 96 59 97 61 98 62 99 63 100 64 101
REMARK H PARENT 86 54 54 65
REMARK Flexibility Score: inf
ROOT
ATOM      1  C   UNL A   1      41.103  22.876  27.905  1.00  0.00     0.202 C 
ENDROOT
BRANCH   1   2
ATOM      2  O   UNL A   1      40.200  21.889  27.480  1.00  0.00    -0.374 OA
BRANCH   2   3
ATOM      3  C   UNL A   1      40.217  21.540  26.109  1.00  0.00     0.202 C 
BRANCH   3   4
ATOM      4  C   UNL A   1      38.774  21.431  25.736  1.00  0.00     0.261 C 
BRANCH   4   5
ATOM      5  O   UNL A   1      37.971  22.389  26.467  1.00  0.00    -0.463 OA
BRANCH   5   6
ATOM      6  C   UNL A   1      37.143  23.269  25.806  1.00  0.00     0.309 C 
ATOM      7  O   UNL A   1      37.365  24.408  25.479  1.00  0.00    -0.252 OA
BRANCH   6   8
ATOM      8  C   UNL A   1      35.857  22.576  25.454  1.00  0.00     0.103 C 
ATOM      9  C   UNL A   1      33.063  24.316  23.337  1.00  0.00     0.228 C 
ATOM     10  O   UNL A   1      33.498  24.541  22.207  1.00  0.00    -0.274 OA
ATOM     11  N   UNL A   1      33.471  23.204  24.096  1.00  0.00    -0.342 N 
ATOM     12  C   UNL A   1      34.314  22.200  23.472  1.00  0.00     0.120 C 
ATOM     13  C   UNL A   1      33.406  23.035  25.557  1.00  0.00     0.120 C 
ATOM     14  C   UNL A   1      35.737  22.427  23.932  1.00  0.00     0.037 C 
ATOM     15  C   UNL A   1      34.746  23.377  26.134  1.00  0.00     0.037 C 
BRANCH   9  16
ATOM     16  C   UNL A   1      31.948  25.196  23.926  1.00  0.00     0.051 C 
ATOM     17  C   UNL A   1      31.834  27.318  25.365  1.00  0.00    -0.003 C 
ATOM     18  C   UNL A   1      31.073  27.952  24.159  1.00  0.00     0.015 C 
ATOM     19  C   UNL A   1      32.688  26.169  24.849  1.00  0.00     0.028 C 
ATOM     20  C   UNL A   1      30.811  26.630  26.302  1.00  0.00     0.015 C 
ATOM     21  C   UNL A   1      30.188  26.922  23.431  1.00  0.00    -0.009 C 
ATOM     22  C   UNL A   1      30.007  25.549  25.524  1.00  0.00    -0.009 C 
ATOM     23  C   UNL A   1      29.214  26.266  24.418  1.00  0.00     0.007 C 
ATOM     24  C   UNL A   1      31.077  25.834  22.825  1.00  0.00     0.020 C 
ATOM     25  C   UNL A   1      30.947  24.485  24.875  1.00  0.00     0.020 C 
BRANCH  17  26
ATOM     26  C   UNL A   1      32.741  28.363  26.045  1.00  0.00    -0.042 A 
ATOM     27  C   UNL A   1      35.216  31.212  28.198  1.00  0.00     0.044 C 
ATOM     28  C   UNL A   1      34.379  30.216  27.457  1.00  0.00    -0.051 A 
ATOM     29  C   UNL A   1      33.070  30.548  27.132  1.00  0.00     0.004 A 
ATOM     30  C   UNL A   1      34.869  28.962  27.078  1.00  0.00     0.004 A 
ATOM     31  C   UNL A   1      32.279  29.645  26.426  1.00  0.00     0.004 A 
ATOM     32  C   UNL A   1      34.061  28.047  26.385  1.00  0.00     0.004 A 
ENDBRANCH  17  26
ENDBRANCH   9  16
ENDBRANCH   6   8
ENDBRANCH   5   6
ENDBRANCH   4   5
ENDBRANCH   3   4
ENDBRANCH   2   3
ENDBRANCH   1   2
BRANCH   1  33
ATOM     33  C   UNL A   1      41.279  23.989  26.874  1.00  0.00     0.261 C 
BRANCH  33  34
ATOM     34  O   UNL A   1      40.463  25.116  27.253  1.00  0.00    -0.460 OA
BRANCH  34  35
ATOM     35  C   UNL A   1      40.592  26.221  26.460  1.00  0.00     0.338 C 
ATOM     36  O   UNL A   1      41.177  26.224  25.391  1.00  0.00    -0.246 OA
BRANCH  35  37
ATOM     37  C   UNL A   1      40.121  27.435  27.195  1.00  0.00     0.060 A 
ATOM     38  C   UNL A   1      40.969  28.547  27.335  1.00  0.00     0.016 A 
ATOM     39  C   UNL A   1      38.967  27.352  27.970  1.00  0.00     0.016 A 
ATOM     40  C   UNL A   1      40.775  29.460  28.382  1.00  0.00     0.010 A 
ATOM     41  C   UNL A   1      38.813  28.224  29.030  1.00  0.00     0.010 A 
ATOM     42  C   UNL A   1      39.761  29.230  29.297  1.00  0.00    -0.014 A 
BRANCH  42  43
ATOM     43  C   UNL A   1      39.555  29.955  30.552  1.00  0.00     0.031 A 
ATOM     44  C   UNL A   1      38.974  31.303  30.427  1.00  0.00     0.074 A 
ATOM     45  C   UNL A   1      39.546  29.338  31.764  1.00  0.00     0.049 A 
ATOM     46  N   UNL A   1      38.726  32.069  31.428  1.00  0.00    -0.248 NA
ATOM     47  C   UNL A   1      38.652  31.926  29.141  1.00  0.00     0.031 C 
ATOM     48  C   UNL A   1      38.678  29.640  32.906  1.00  0.00     0.029 A 
ATOM     49  N   UNL A   1      40.289  28.252  32.236  1.00  0.00    -0.354 N 
ATOM     50  C   UNL A   1      37.850  33.015  30.970  1.00  0.00     0.074 A 
ATOM     51  C   UNL A   1      38.010  33.026  29.543  1.00  0.00     0.031 C 
ATOM     52  C   UNL A   1      39.086  28.953  33.986  1.00  0.00     0.029 A 
ATOM     53  C   UNL A   1      40.327  28.287  33.633  1.00  0.00     0.049 A 
ATOM     54  H   UNL A   1      40.719  27.568  31.672  1.00  0.00     0.167 HD
ATOM     55  C   UNL A   1      36.945  33.518  31.849  1.00  0.00     0.034 A 
ATOM     56  C   UNL A   1      41.505  28.299  34.309  1.00  0.00     0.034 A 
ATOM     57  C   UNL A   1      37.293  33.138  33.240  1.00  0.00     0.049 A 
ATOM     58  C   UNL A   1      41.610  29.623  35.012  1.00  0.00     0.074 A 
ATOM     59  C   UNL A   1      36.694  32.352  34.211  1.00  0.00     0.029 A 
ATOM     60  N   UNL A   1      38.602  33.362  33.696  1.00  0.00    -0.354 N 
ATOM     61  N   UNL A   1      40.758  30.586  34.792  1.00  0.00    -0.248 NA
ATOM     62  C   UNL A   1      42.563  29.970  36.051  1.00  0.00     0.031 C 
ATOM     63  C   UNL A   1      37.692  32.021  35.189  1.00  0.00     0.029 A 
ATOM     64  C   UNL A   1      38.886  32.648  34.853  1.00  0.00     0.049 A 
ATOM     65  H   UNL A   1      39.245  33.956  33.247  1.00  0.00     0.167 HD
ATOM     66  C   UNL A   1      40.977  31.639  35.606  1.00  0.00     0.074 A 
ATOM     67  C   UNL A   1      42.126  31.199  36.394  1.00  0.00     0.031 C 
ATOM     68  C   UNL A   1      40.204  32.766  35.511  1.00  0.00     0.034 A 
BRANCH  55  69
ATOM     69  C   UNL A   1      35.665  34.223  31.422  1.00  0.00     0.023 A 
ATOM     70  C   UNL A   1      35.090  33.829  30.198  1.00  0.00     0.012 A 
ATOM     71  C   UNL A   1      35.003  35.287  32.103  1.00  0.00     0.148 A 
ATOM     72  C   UNL A   1      33.916  34.413  29.701  1.00  0.00     0.002 A 
ATOM     73  C   UNL A   1      33.783  35.806  31.653  1.00  0.00     0.091 A 
ATOM     74  F   UNL A   1      35.593  35.899  33.135  1.00  0.00    -0.205 F 
ATOM     75  C   UNL A   1      33.243  35.377  30.443  1.00  0.00     0.022 A 
BRANCH  73  76
ATOM     76  S   UNL A   1      32.817  36.999  32.606  1.00  0.00     0.127 S 
ATOM     77  O   UNL A   1      31.462  36.460  32.497  1.00  0.00    -0.237 OA
ATOM     78  O   UNL A   1      33.406  36.886  33.941  1.00  0.00    -0.237 OA
ATOM     79  O   UNL A   1      33.023  38.293  31.970  1.00  0.00    -0.744 OA
ENDBRANCH  73  76
ENDBRANCH  55  69
BRANCH  56  80
ATOM     80  C   UNL A   1      42.549  27.462  33.637  1.00  0.00     0.023 A 
ATOM     81  C   UNL A   1      43.551  28.167  32.908  1.00  0.00     0.012 A 
ATOM     82  C   UNL A   1      42.851  26.173  34.105  1.00  0.00     0.148 A 
ATOM     83  C   UNL A   1      44.846  27.655  32.768  1.00  0.00     0.002 A 
ATOM     84  C   UNL A   1      44.161  25.694  34.012  1.00  0.00     0.091 A 
ATOM     85  F   UNL A   1      41.881  25.469  34.702  1.00  0.00    -0.205 F 
ATOM     86  C   UNL A   1      45.164  26.442  33.368  1.00  0.00     0.022 A 
BRANCH  84  87
ATOM     87  S   UNL A   1      44.694  24.216  34.889  1.00  0.00     0.127 S 
ATOM     88  O   UNL A   1      43.680  23.247  34.484  1.00  0.00    -0.237 OA
ATOM     89  O   UNL A   1      46.022  23.981  34.320  1.00  0.00    -0.237 OA
ATOM     90  O   UNL A   1      44.701  24.578  36.299  1.00  0.00    -0.744 OA
ENDBRANCH  84  87
ENDBRANCH  56  80
BRANCH  68  91
ATOM     91  C   UNL A   1      40.655  34.109  36.039  1.00  0.00     0.023 A 
ATOM     92  C   UNL A   1      41.054  35.153  35.182  1.00  0.00     0.012 A 
ATOM     93  C   UNL A   1      40.528  34.429  37.412  1.00  0.00     0.148 A 
ATOM     94  C   UNL A   1      41.386  36.420  35.657  1.00  0.00     0.002 A 
ATOM     95  C   UNL A   1      40.719  35.730  37.858  1.00  0.00     0.091 A 
ATOM     96  F   UNL A   1      40.232  33.477  38.305  1.00  0.00    -0.205 F 
ATOM     97  C   UNL A   1      41.190  36.718  36.992  1.00  0.00     0.022 A 
BRANCH  95  98
ATOM     98  S   UNL A   1      40.219  36.235  39.507  1.00  0.00     0.127 S 
ATOM     99  O   UNL A   1      41.309  35.703  40.321  1.00  0.00    -0.237 OA
ATOM    100  O   UNL A   1      40.202  37.694  39.385  1.00  0.00    -0.237 OA
ATOM    101  O   UNL A   1      38.910  35.639  39.725  1.00  0.00    -0.744 OA
ENDBRANCH  95  98
ENDBRANCH  68  91
ENDBRANCH  42  43
ENDBRANCH  35  37
ENDBRANCH  34  35
ENDBRANCH  33  34
ENDBRANCH   1  33
TORSDOF 19
ENDMDL
