MODEL 1
REMARK VINA RESULT:     -11.9      0.000      0.000
REMARK SMILES Cc1cc2c(c(C)c1Cl)C=C(C(=O)OCCOCCOC(=O)c1ccc(-c3c4nc(c(-c5cccc(S(=O)(=O)[O-])c5F)c5ccc([nH]5)c(-c5cccc(S(=O)(=O)[O-])c5F)c5nc(c(-c6cccc(S(=O)(=O)[O-])c6F)c6ccc3[nH]6)C=C5)C=C4)cc1)[C@H](C(F)(F)F)O2
REMARK SMILES IDX 18 1 17 2 16 3 15 4 14 5 12 6 13 7 11 8 1 9 2 10 3 11 8 12
REMARK SMILES IDX 4 13 6 14 9 15 5 16 91 17 7 18 10 19 86 20 87 21 88 22 89 23
REMARK SMILES IDX 90 24 19 25 20 26 21 27 22 28 23 29 24 30 85 31 25 32 84 33
REMARK SMILES IDX 26 34 27 35 28 36 78 37 29 38 83 39 77 40 79 41 30 42 82 43
REMARK SMILES IDX 76 44 75 45 31 47 63 48 43 49 62 50 44 51 47 52 61 53 80 54
REMARK SMILES IDX 45 55 46 56 60 58 81 59 48 60 32 61 33 62 41 63 34 64 36 65
REMARK SMILES IDX 42 66 35 67 37 68 38 69 39 70 40 71 64 72 65 73 73 74 66 75
REMARK SMILES IDX 68 76 74 77 67 78 69 79 70 80 71 81 72 82 49 83 50 84 58 85
REMARK SMILES IDX 51 86 53 87 59 88 52 89 54 90 55 91 56 92 57 93
REMARK H PARENT 79 46 47 57
REMARK Flexibility Score: inf
ROOT
ATOM      1  C   UNL A   1      35.969  19.986  25.002  1.00  0.00     0.202 C 
ENDROOT
BRANCH   1   2
ATOM      2  O   UNL A   1      35.380  21.286  24.915  1.00  0.00    -0.374 OA
BRANCH   2   3
ATOM      3  C   UNL A   1      35.104  21.949  26.151  1.00  0.00     0.202 C 
BRANCH   3   4
ATOM      4  C   UNL A   1      33.658  21.868  26.650  1.00  0.00     0.261 C 
BRANCH   4   5
ATOM      5  O   UNL A   1      33.213  23.160  27.096  1.00  0.00    -0.460 OA
BRANCH   5   6
ATOM      6  C   UNL A   1      31.911  23.410  26.866  1.00  0.00     0.338 C 
ATOM      7  O   UNL A   1      30.968  22.956  27.498  1.00  0.00    -0.246 OA
BRANCH   6   8
ATOM      8  C   UNL A   1      31.755  24.429  25.807  1.00  0.00     0.087 C 
ATOM      9  C   UNL A   1      29.861  29.770  22.685  1.00  0.00     0.046 C 
ATOM     10  C   UNL A   1      30.497  28.779  23.623  1.00  0.00    -0.028 A 
ATOM     11  C   UNL A   1      30.460  27.426  23.247  1.00  0.00     0.052 A 
ATOM     12  C   UNL A   1      31.043  29.127  24.876  1.00  0.00     0.047 A 
ATOM     13  C   UNL A   1      30.933  26.432  24.099  1.00  0.00     0.128 A 
ATOM     14  C   UNL A   1      31.560  28.136  25.741  1.00  0.00    -0.021 A 
ATOM     15  Cl  UNL A   1      31.028  30.793  25.374  1.00  0.00    -0.084 Cl
ATOM     16  C   UNL A   1      31.475  26.777  25.342  1.00  0.00     0.022 A 
ATOM     17  O   UNL A   1      30.742  25.141  23.677  1.00  0.00    -0.475 OA
ATOM     18  C   UNL A   1      32.160  28.477  27.086  1.00  0.00     0.047 C 
ATOM     19  C   UNL A   1      31.810  25.691  26.251  1.00  0.00     0.027 C 
ATOM     20  C   UNL A   1      31.459  24.077  24.376  1.00  0.00     0.316 C 
BRANCH  20  21
ATOM     21  C   UNL A   1      32.680  23.672  23.523  1.00  0.00     0.430 C 
ATOM     22  F   UNL A   1      33.838  24.151  24.042  1.00  0.00    -0.167 F 
ATOM     23  F   UNL A   1      32.833  22.337  23.405  1.00  0.00    -0.167 F 
ATOM     24  F   UNL A   1      32.573  24.162  22.264  1.00  0.00    -0.167 F 
ENDBRANCH  20  21
ENDBRANCH   6   8
ENDBRANCH   5   6
ENDBRANCH   4   5
ENDBRANCH   3   4
ENDBRANCH   2   3
ENDBRANCH   1   2
BRANCH   1  25
ATOM     25  C   UNL A   1      37.497  19.900  24.869  1.00  0.00     0.261 C 
BRANCH  25  26
ATOM     26  O   UNL A   1      38.144  21.101  25.321  1.00  0.00    -0.460 OA
BRANCH  26  27
ATOM     27  C   UNL A   1      39.280  20.908  26.032  1.00  0.00     0.338 C 
ATOM     28  O   UNL A   1      39.978  19.905  26.038  1.00  0.00    -0.246 OA
BRANCH  27  29
ATOM     29  C   UNL A   1      39.705  22.183  26.650  1.00  0.00     0.060 A 
ATOM     30  C   UNL A   1      39.075  23.352  26.203  1.00  0.00     0.016 A 
ATOM     31  C   UNL A   1      40.709  22.247  27.618  1.00  0.00     0.016 A 
ATOM     32  C   UNL A   1      39.486  24.595  26.678  1.00  0.00     0.010 A 
ATOM     33  C   UNL A   1      41.128  23.497  28.086  1.00  0.00     0.010 A 
ATOM     34  C   UNL A   1      40.547  24.678  27.589  1.00  0.00    -0.014 A 
BRANCH  34  35
ATOM     35  C   UNL A   1      41.148  26.003  27.883  1.00  0.00     0.031 A 
ATOM     36  C   UNL A   1      42.549  26.285  27.407  1.00  0.00     0.074 A 
ATOM     37  C   UNL A   1      40.447  26.959  28.522  1.00  0.00     0.049 A 
ATOM     38  N   UNL A   1      43.267  27.368  27.548  1.00  0.00    -0.248 NA
ATOM     39  C   UNL A   1      43.230  25.206  26.671  1.00  0.00     0.031 C 
ATOM     40  C   UNL A   1      39.075  26.817  29.006  1.00  0.00     0.029 A 
ATOM     41  N   UNL A   1      40.800  28.236  28.880  1.00  0.00    -0.354 N 
ATOM     42  C   UNL A   1      44.485  27.098  26.936  1.00  0.00     0.074 A 
ATOM     43  C   UNL A   1      44.420  25.741  26.441  1.00  0.00     0.031 C 
ATOM     44  C   UNL A   1      38.707  27.960  29.611  1.00  0.00     0.029 A 
ATOM     45  C   UNL A   1      39.823  28.903  29.581  1.00  0.00     0.049 A 
ATOM     46  H   UNL A   1      41.672  28.637  28.656  1.00  0.00     0.167 HD
ATOM     47  C   UNL A   1      45.552  27.915  26.776  1.00  0.00     0.034 A 
ATOM     48  C   UNL A   1      39.834  30.130  30.145  1.00  0.00     0.034 A 
ATOM     49  C   UNL A   1      45.607  29.272  27.245  1.00  0.00     0.049 A 
ATOM     50  C   UNL A   1      41.060  30.997  30.000  1.00  0.00     0.074 A 
ATOM     51  C   UNL A   1      46.639  30.184  27.106  1.00  0.00     0.029 A 
ATOM     52  N   UNL A   1      44.598  29.913  27.945  1.00  0.00    -0.354 N 
ATOM     53  N   UNL A   1      42.166  30.762  29.334  1.00  0.00    -0.248 NA
ATOM     54  C   UNL A   1      41.030  32.312  30.658  1.00  0.00     0.031 C 
ATOM     55  C   UNL A   1      46.266  31.366  27.749  1.00  0.00     0.029 A 
ATOM     56  C   UNL A   1      44.987  31.204  28.256  1.00  0.00     0.049 A 
ATOM     57  H   UNL A   1      43.732  29.509  28.185  1.00  0.00     0.167 HD
ATOM     58  C   UNL A   1      42.944  31.908  29.463  1.00  0.00     0.074 A 
ATOM     59  C   UNL A   1      42.174  32.848  30.250  1.00  0.00     0.031 C 
ATOM     60  C   UNL A   1      44.190  32.154  28.989  1.00  0.00     0.034 A 
BRANCH  47  61
ATOM     61  C   UNL A   1      46.746  27.389  26.022  1.00  0.00     0.023 A 
ATOM     62  C   UNL A   1      46.872  27.665  24.646  1.00  0.00     0.012 A 
ATOM     63  C   UNL A   1      47.795  26.734  26.697  1.00  0.00     0.148 A 
ATOM     64  C   UNL A   1      48.019  27.289  23.949  1.00  0.00     0.002 A 
ATOM     65  C   UNL A   1      48.956  26.405  26.006  1.00  0.00     0.091 A 
ATOM     66  F   UNL A   1      47.646  26.465  28.001  1.00  0.00    -0.205 F 
ATOM     67  C   UNL A   1      49.066  26.674  24.631  1.00  0.00     0.022 A 
BRANCH  65  68
ATOM     68  S   UNL A   1      50.397  25.694  26.807  1.00  0.00     0.127 S 
ATOM     69  O   UNL A   1      51.312  25.530  25.678  1.00  0.00    -0.237 OA
ATOM     70  O   UNL A   1      50.773  26.747  27.750  1.00  0.00    -0.237 OA
ATOM     71  O   UNL A   1      49.948  24.452  27.421  1.00  0.00    -0.744 OA
ENDBRANCH  65  68
ENDBRANCH  47  61
BRANCH  48  72
ATOM     72  C   UNL A   1      38.629  30.633  30.869  1.00  0.00     0.023 A 
ATOM     73  C   UNL A   1      38.522  30.435  32.259  1.00  0.00     0.012 A 
ATOM     74  C   UNL A   1      37.597  31.313  30.194  1.00  0.00     0.148 A 
ATOM     75  C   UNL A   1      37.397  30.875  32.958  1.00  0.00     0.002 A 
ATOM     76  C   UNL A   1      36.508  31.804  30.906  1.00  0.00     0.091 A 
ATOM     77  F   UNL A   1      37.705  31.477  28.868  1.00  0.00    -0.205 F 
ATOM     78  C   UNL A   1      36.396  31.568  32.284  1.00  0.00     0.022 A 
BRANCH  76  79
ATOM     79  S   UNL A   1      35.240  32.826  30.148  1.00  0.00     0.127 S 
ATOM     80  O   UNL A   1      34.687  31.923  29.143  1.00  0.00    -0.237 OA
ATOM     81  O   UNL A   1      34.359  33.100  31.283  1.00  0.00    -0.237 OA
ATOM     82  O   UNL A   1      35.935  33.998  29.631  1.00  0.00    -0.744 OA
ENDBRANCH  76  79
ENDBRANCH  48  72
BRANCH  60  83
ATOM     83  C   UNL A   1      44.812  33.499  29.273  1.00  0.00     0.023 A 
ATOM     84  C   UNL A   1      45.580  33.681  30.439  1.00  0.00     0.012 A 
ATOM     85  C   UNL A   1      44.739  34.541  28.324  1.00  0.00     0.148 A 
ATOM     86  C   UNL A   1      46.244  34.886  30.671  1.00  0.00     0.002 A 
ATOM     87  C   UNL A   1      45.448  35.717  28.535  1.00  0.00     0.091 A 
ATOM     88  F   UNL A   1      43.994  34.353  27.224  1.00  0.00    -0.205 F 
ATOM     89  C   UNL A   1      46.191  35.896  29.713  1.00  0.00     0.022 A 
BRANCH  87  90
ATOM     90  S   UNL A   1      45.532  37.032  27.313  1.00  0.00     0.127 S 
ATOM     91  O   UNL A   1      44.129  37.432  27.211  1.00  0.00    -0.237 OA
ATOM     92  O   UNL A   1      46.399  38.010  27.971  1.00  0.00    -0.237 OA
ATOM     93  O   UNL A   1      46.095  36.432  26.111  1.00  0.00    -0.744 OA
ENDBRANCH  87  90
ENDBRANCH  60  83
ENDBRANCH  34  35
ENDBRANCH  27  29
ENDBRANCH  26  27
ENDBRANCH  25  26
ENDBRANCH   1  25
TORSDOF 18
ENDMDL
MODEL 2
REMARK VINA RESULT:     -11.8      4.835     10.104
REMARK SMILES Cc1cc2c(c(C)c1Cl)C=C(C(=O)OCCOCCOC(=O)c1ccc(-c3c4nc(c(-c5cccc(S(=O)(=O)[O-])c5F)c5ccc([nH]5)c(-c5cccc(S(=O)(=O)[O-])c5F)c5nc(c(-c6cccc(S(=O)(=O)[O-])c6F)c6ccc3[nH]6)C=C5)C=C4)cc1)[C@H](C(F)(F)F)O2
REMARK SMILES IDX 18 1 17 2 16 3 15 4 14 5 12 6 13 7 11 8 1 9 2 10 3 11 8 12
REMARK SMILES IDX 4 13 6 14 9 15 5 16 91 17 7 18 10 19 86 20 87 21 88 22 89 23
REMARK SMILES IDX 90 24 19 25 20 26 21 27 22 28 23 29 24 30 85 31 25 32 84 33
REMARK SMILES IDX 26 34 27 35 28 36 78 37 29 38 83 39 77 40 79 41 30 42 82 43
REMARK SMILES IDX 76 44 75 45 31 47 63 48 43 49 62 50 44 51 47 52 61 53 80 54
REMARK SMILES IDX 45 55 46 56 60 58 81 59 48 60 32 61 33 62 41 63 34 64 36 65
REMARK SMILES IDX 42 66 35 67 37 68 38 69 39 70 40 71 64 72 65 73 73 74 66 75
REMARK SMILES IDX 68 76 74 77 67 78 69 79 70 80 71 81 72 82 49 83 50 84 58 85
REMARK SMILES IDX 51 86 53 87 59 88 52 89 54 90 55 91 56 92 57 93
REMARK H PARENT 79 46 47 57
REMARK Flexibility Score: inf
ROOT
ATOM      1  C   UNL A   1      31.432  29.076  25.385  1.00  0.00     0.202 C 
ENDROOT
BRANCH   1   2
ATOM      2  O   UNL A   1      31.673  28.731  24.018  1.00  0.00    -0.374 OA
BRANCH   2   3
ATOM      3  C   UNL A   1      32.867  29.249  23.427  1.00  0.00     0.202 C 
BRANCH   3   4
ATOM      4  C   UNL A   1      33.994  28.239  23.191  1.00  0.00     0.261 C 
BRANCH   4   5
ATOM      5  O   UNL A   1      33.623  26.951  23.707  1.00  0.00    -0.460 OA
BRANCH   5   6
ATOM      6  C   UNL A   1      33.551  25.978  22.779  1.00  0.00     0.338 C 
ATOM      7  O   UNL A   1      33.736  26.114  21.578  1.00  0.00    -0.246 OA
BRANCH   6   8
ATOM      8  C   UNL A   1      33.339  24.663  23.418  1.00  0.00     0.087 C 
ATOM      9  C   UNL A   1      33.927  18.373  24.814  1.00  0.00     0.046 C 
ATOM     10  C   UNL A   1      34.140  19.853  24.643  1.00  0.00    -0.028 A 
ATOM     11  C   UNL A   1      33.009  20.633  24.350  1.00  0.00     0.052 A 
ATOM     12  C   UNL A   1      35.408  20.469  24.678  1.00  0.00     0.047 A 
ATOM     13  C   UNL A   1      33.128  21.993  24.077  1.00  0.00     0.128 A 
ATOM     14  C   UNL A   1      35.545  21.856  24.437  1.00  0.00    -0.021 A 
ATOM     15  Cl  UNL A   1      36.817  19.495  24.971  1.00  0.00    -0.084 Cl
ATOM     16  C   UNL A   1      34.386  22.605  24.112  1.00  0.00     0.022 A 
ATOM     17  O   UNL A   1      31.975  22.629  23.693  1.00  0.00    -0.475 OA
ATOM     18  C   UNL A   1      36.889  22.548  24.476  1.00  0.00     0.047 C 
ATOM     19  C   UNL A   1      34.469  23.989  23.668  1.00  0.00     0.027 C 
ATOM     20  C   UNL A   1      31.973  24.090  23.669  1.00  0.00     0.316 C 
BRANCH  20  21
ATOM     21  C   UNL A   1      31.263  24.595  24.945  1.00  0.00     0.430 C 
ATOM     22  F   UNL A   1      30.461  25.657  24.688  1.00  0.00    -0.167 F 
ATOM     23  F   UNL A   1      30.489  23.659  25.533  1.00  0.00    -0.167 F 
ATOM     24  F   UNL A   1      32.166  24.991  25.875  1.00  0.00    -0.167 F 
ENDBRANCH  20  21
ENDBRANCH   6   8
ENDBRANCH   5   6
ENDBRANCH   4   5
ENDBRANCH   3   4
ENDBRANCH   2   3
ENDBRANCH   1   2
BRANCH   1  25
ATOM     25  C   UNL A   1      31.789  30.506  25.818  1.00  0.00     0.261 C 
BRANCH  25  26
ATOM     26  O   UNL A   1      32.465  30.531  27.087  1.00  0.00    -0.460 OA
BRANCH  26  27
ATOM     27  C   UNL A   1      33.209  31.638  27.319  1.00  0.00     0.338 C 
ATOM     28  O   UNL A   1      32.807  32.792  27.372  1.00  0.00    -0.246 OA
BRANCH  27  29
ATOM     29  C   UNL A   1      34.572  31.246  27.735  1.00  0.00     0.060 A 
ATOM     30  C   UNL A   1      34.818  29.878  27.915  1.00  0.00     0.016 A 
ATOM     31  C   UNL A   1      35.580  32.182  27.973  1.00  0.00     0.016 A 
ATOM     32  C   UNL A   1      36.054  29.444  28.389  1.00  0.00     0.010 A 
ATOM     33  C   UNL A   1      36.818  31.745  28.460  1.00  0.00     0.010 A 
ATOM     34  C   UNL A   1      37.046  30.380  28.709  1.00  0.00    -0.014 A 
BRANCH  34  35
ATOM     35  C   UNL A   1      38.249  29.933  29.456  1.00  0.00     0.031 A 
ATOM     36  C   UNL A   1      38.466  30.450  30.854  1.00  0.00     0.074 A 
ATOM     37  C   UNL A   1      39.112  29.050  28.920  1.00  0.00     0.049 A 
ATOM     38  N   UNL A   1      39.439  30.192  31.687  1.00  0.00    -0.248 NA
ATOM     39  C   UNL A   1      37.449  31.373  31.386  1.00  0.00     0.031 C 
ATOM     40  C   UNL A   1      38.997  28.458  27.589  1.00  0.00     0.029 A 
ATOM     41  N   UNL A   1      40.264  28.505  29.432  1.00  0.00    -0.354 N 
ATOM     42  C   UNL A   1      39.164  30.932  32.832  1.00  0.00     0.074 A 
ATOM     43  C   UNL A   1      37.944  31.666  32.580  1.00  0.00     0.031 C 
ATOM     44  C   UNL A   1      40.043  27.640  27.384  1.00  0.00     0.029 A 
ATOM     45  C   UNL A   1      40.917  27.671  28.555  1.00  0.00     0.049 A 
ATOM     46  H   UNL A   1      40.591  28.694  30.342  1.00  0.00     0.167 HD
ATOM     47  C   UNL A   1      39.850  30.975  33.997  1.00  0.00     0.034 A 
ATOM     48  C   UNL A   1      42.092  27.018  28.680  1.00  0.00     0.034 A 
ATOM     49  C   UNL A   1      41.049  30.225  34.256  1.00  0.00     0.049 A 
ATOM     50  C   UNL A   1      42.864  27.131  29.971  1.00  0.00     0.074 A 
ATOM     51  C   UNL A   1      41.799  30.187  35.419  1.00  0.00     0.029 A 
ATOM     52  N   UNL A   1      41.676  29.389  33.347  1.00  0.00    -0.354 N 
ATOM     53  N   UNL A   1      42.540  27.756  31.078  1.00  0.00    -0.248 NA
ATOM     54  C   UNL A   1      44.153  26.423  30.043  1.00  0.00     0.031 C 
ATOM     55  C   UNL A   1      42.897  29.353  35.202  1.00  0.00     0.029 A 
ATOM     56  C   UNL A   1      42.811  28.841  33.918  1.00  0.00     0.049 A 
ATOM     57  H   UNL A   1      41.360  29.212  32.432  1.00  0.00     0.167 HD
ATOM     58  C   UNL A   1      43.561  27.489  31.985  1.00  0.00     0.074 A 
ATOM     59  C   UNL A   1      44.504  26.624  31.308  1.00  0.00     0.031 C 
ATOM     60  C   UNL A   1      43.714  27.933  33.256  1.00  0.00     0.034 A 
BRANCH  47  61
ATOM     61  C   UNL A   1      39.306  31.827  35.113  1.00  0.00     0.023 A 
ATOM     62  C   UNL A   1      38.446  31.250  36.069  1.00  0.00     0.012 A 
ATOM     63  C   UNL A   1      39.741  33.157  35.286  1.00  0.00     0.148 A 
ATOM     64  C   UNL A   1      38.019  31.984  37.174  1.00  0.00     0.002 A 
ATOM     65  C   UNL A   1      39.349  33.867  36.415  1.00  0.00     0.091 A 
ATOM     66  F   UNL A   1      40.544  33.691  34.355  1.00  0.00    -0.205 F 
ATOM     67  C   UNL A   1      38.482  33.285  37.355  1.00  0.00     0.022 A 
BRANCH  65  68
ATOM     68  S   UNL A   1      39.960  35.513  36.790  1.00  0.00     0.127 S 
ATOM     69  O   UNL A   1      41.406  35.296  36.803  1.00  0.00    -0.237 OA
ATOM     70  O   UNL A   1      39.470  36.287  35.650  1.00  0.00    -0.237 OA
ATOM     71  O   UNL A   1      39.380  35.878  38.074  1.00  0.00    -0.744 OA
ENDBRANCH  65  68
ENDBRANCH  47  61
BRANCH  48  72
ATOM     72  C   UNL A   1      42.598  26.163  27.565  1.00  0.00     0.023 A 
ATOM     73  C   UNL A   1      43.540  26.690  26.660  1.00  0.00     0.012 A 
ATOM     74  C   UNL A   1      42.160  24.835  27.401  1.00  0.00     0.148 A 
ATOM     75  C   UNL A   1      44.013  25.922  25.595  1.00  0.00     0.002 A 
ATOM     76  C   UNL A   1      42.681  24.055  26.374  1.00  0.00     0.091 A 
ATOM     77  F   UNL A   1      41.248  24.356  28.258  1.00  0.00    -0.205 F 
ATOM     78  C   UNL A   1      43.592  24.602  25.459  1.00  0.00     0.022 A 
BRANCH  76  79
ATOM     79  S   UNL A   1      42.304  22.307  26.204  1.00  0.00     0.127 S 
ATOM     80  O   UNL A   1      43.072  21.948  25.015  1.00  0.00    -0.237 OA
ATOM     81  O   UNL A   1      42.823  21.765  27.460  1.00  0.00    -0.237 OA
ATOM     82  O   UNL A   1      40.856  22.227  26.069  1.00  0.00    -0.744 OA
ENDBRANCH  76  79
ENDBRANCH  48  72
BRANCH  60  83
ATOM     83  C   UNL A   1      44.927  27.484  34.032  1.00  0.00     0.023 A 
ATOM     84  C   UNL A   1      46.082  28.289  34.051  1.00  0.00     0.012 A 
ATOM     85  C   UNL A   1      44.878  26.328  34.839  1.00  0.00     0.148 A 
ATOM     86  C   UNL A   1      47.177  27.940  34.840  1.00  0.00     0.002 A 
ATOM     87  C   UNL A   1      45.952  26.017  35.665  1.00  0.00     0.091 A 
ATOM     88  F   UNL A   1      43.774  25.567  34.800  1.00  0.00    -0.205 F 
ATOM     89  C   UNL A   1      47.107  26.814  35.657  1.00  0.00     0.022 A 
BRANCH  87  90
ATOM     90  S   UNL A   1      45.913  24.651  36.833  1.00  0.00     0.127 S 
ATOM     91  O   UNL A   1      45.874  23.496  35.938  1.00  0.00    -0.237 OA
ATOM     92  O   UNL A   1      47.177  24.824  37.550  1.00  0.00    -0.237 OA
ATOM     93  O   UNL A   1      44.721  24.848  37.646  1.00  0.00    -0.744 OA
ENDBRANCH  87  90
ENDBRANCH  60  83
ENDBRANCH  34  35
ENDBRANCH  27  29
ENDBRANCH  26  27
ENDBRANCH  25  26
ENDBRANCH   1  25
TORSDOF 18
ENDMDL
MODEL 3
REMARK VINA RESULT:     -11.7      1.344      7.585
REMARK SMILES Cc1cc2c(c(C)c1Cl)C=C(C(=O)OCCOCCOC(=O)c1ccc(-c3c4nc(c(-c5cccc(S(=O)(=O)[O-])c5F)c5ccc([nH]5)c(-c5cccc(S(=O)(=O)[O-])c5F)c5nc(c(-c6cccc(S(=O)(=O)[O-])c6F)c6ccc3[nH]6)C=C5)C=C4)cc1)[C@H](C(F)(F)F)O2
REMARK SMILES IDX 18 1 17 2 16 3 15 4 14 5 12 6 13 7 11 8 1 9 2 10 3 11 8 12
REMARK SMILES IDX 4 13 6 14 9 15 5 16 91 17 7 18 10 19 86 20 87 21 88 22 89 23
REMARK SMILES IDX 90 24 19 25 20 26 21 27 22 28 23 29 24 30 85 31 25 32 84 33
REMARK SMILES IDX 26 34 27 35 28 36 78 37 29 38 83 39 77 40 79 41 30 42 82 43
REMARK SMILES IDX 76 44 75 45 31 47 63 48 43 49 62 50 44 51 47 52 61 53 80 54
REMARK SMILES IDX 45 55 46 56 60 58 81 59 48 60 32 61 33 62 41 63 34 64 36 65
REMARK SMILES IDX 42 66 35 67 37 68 38 69 39 70 40 71 64 72 65 73 73 74 66 75
REMARK SMILES IDX 68 76 74 77 67 78 69 79 70 80 71 81 72 82 49 83 50 84 58 85
REMARK SMILES IDX 51 86 53 87 59 88 52 89 54 90 55 91 56 92 57 93
REMARK H PARENT 79 46 47 57
REMARK Flexibility Score: inf
ROOT
ATOM      1  C   UNL A   1      36.182  19.654  24.997  1.00  0.00     0.202 C 
ENDROOT
BRANCH   1   2
ATOM      2  O   UNL A   1      35.428  20.757  25.506  1.00  0.00    -0.374 OA
BRANCH   2   3
ATOM      3  C   UNL A   1      34.010  20.698  25.332  1.00  0.00     0.202 C 
BRANCH   3   4
ATOM      4  C   UNL A   1      33.176  21.498  26.336  1.00  0.00     0.261 C 
BRANCH   4   5
ATOM      5  O   UNL A   1      31.896  21.825  25.770  1.00  0.00    -0.460 OA
BRANCH   5   6
ATOM      6  C   UNL A   1      31.335  22.944  26.269  1.00  0.00     0.338 C 
ATOM      7  O   UNL A   1      30.947  23.104  27.416  1.00  0.00    -0.246 OA
BRANCH   6   8
ATOM      8  C   UNL A   1      31.361  24.030  25.267  1.00  0.00     0.087 C 
ATOM      9  C   UNL A   1      30.151  29.655  22.310  1.00  0.00     0.046 C 
ATOM     10  C   UNL A   1      30.618  28.572  23.245  1.00  0.00    -0.028 A 
ATOM     11  C   UNL A   1      30.543  27.249  22.780  1.00  0.00     0.052 A 
ATOM     12  C   UNL A   1      31.037  28.811  24.570  1.00  0.00     0.047 A 
ATOM     13  C   UNL A   1      30.858  26.178  23.612  1.00  0.00     0.128 A 
ATOM     14  C   UNL A   1      31.394  27.739  25.420  1.00  0.00    -0.021 A 
ATOM     15  Cl  UNL A   1      31.064  30.442  25.171  1.00  0.00    -0.084 Cl
ATOM     16  C   UNL A   1      31.274  26.415  24.927  1.00  0.00     0.022 A 
ATOM     17  O   UNL A   1      30.639  24.929  23.089  1.00  0.00    -0.475 OA
ATOM     18  C   UNL A   1      31.857  27.962  26.843  1.00  0.00     0.047 C 
ATOM     19  C   UNL A   1      31.440  25.257  25.795  1.00  0.00     0.027 C 
ATOM     20  C   UNL A   1      31.208  23.781  23.792  1.00  0.00     0.316 C 
BRANCH  20  21
ATOM     21  C   UNL A   1      32.493  23.347  23.053  1.00  0.00     0.430 C 
ATOM     22  F   UNL A   1      32.628  23.983  21.863  1.00  0.00    -0.167 F 
ATOM     23  F   UNL A   1      33.621  23.592  23.752  1.00  0.00    -0.167 F 
ATOM     24  F   UNL A   1      32.476  22.017  22.797  1.00  0.00    -0.167 F 
ENDBRANCH  20  21
ENDBRANCH   6   8
ENDBRANCH   5   6
ENDBRANCH   4   5
ENDBRANCH   3   4
ENDBRANCH   2   3
ENDBRANCH   1   2
BRANCH   1  25
ATOM     25  C   UNL A   1      37.685  19.879  24.774  1.00  0.00     0.261 C 
BRANCH  25  26
ATOM     26  O   UNL A   1      38.171  21.020  25.500  1.00  0.00    -0.460 OA
BRANCH  26  27
ATOM     27  C   UNL A   1      39.351  20.835  26.139  1.00  0.00     0.338 C 
ATOM     28  O   UNL A   1      40.039  19.824  26.126  1.00  0.00    -0.246 OA
BRANCH  27  29
ATOM     29  C   UNL A   1      39.829  22.121  26.689  1.00  0.00     0.060 A 
ATOM     30  C   UNL A   1      39.273  23.292  26.156  1.00  0.00     0.016 A 
ATOM     31  C   UNL A   1      40.811  22.193  27.678  1.00  0.00     0.016 A 
ATOM     32  C   UNL A   1      39.738  24.539  26.566  1.00  0.00     0.010 A 
ATOM     33  C   UNL A   1      41.285  23.446  28.082  1.00  0.00     0.010 A 
ATOM     34  C   UNL A   1      40.780  24.623  27.498  1.00  0.00    -0.014 A 
BRANCH  34  35
ATOM     35  C   UNL A   1      41.444  25.931  27.728  1.00  0.00     0.031 A 
ATOM     36  C   UNL A   1      40.691  27.005  28.469  1.00  0.00     0.074 A 
ATOM     37  C   UNL A   1      42.710  26.149  27.325  1.00  0.00     0.049 A 
ATOM     38  N   UNL A   1      41.074  28.214  28.784  1.00  0.00    -0.248 NA
ATOM     39  C   UNL A   1      39.330  26.670  28.921  1.00  0.00     0.031 C 
ATOM     40  C   UNL A   1      43.550  25.181  26.623  1.00  0.00     0.029 A 
ATOM     41  N   UNL A   1      43.505  27.262  27.442  1.00  0.00    -0.354 N 
ATOM     42  C   UNL A   1      40.000  28.790  29.453  1.00  0.00     0.074 A 
ATOM     43  C   UNL A   1      38.940  27.805  29.481  1.00  0.00     0.031 C 
ATOM     44  C   UNL A   1      44.741  25.748  26.361  1.00  0.00     0.029 A 
ATOM     45  C   UNL A   1      44.738  27.125  26.850  1.00  0.00     0.049 A 
ATOM     46  H   UNL A   1      43.218  28.082  27.907  1.00  0.00     0.167 HD
ATOM     47  C   UNL A   1      39.913  30.016  30.016  1.00  0.00     0.034 A 
ATOM     48  C   UNL A   1      45.744  28.014  26.707  1.00  0.00     0.034 A 
ATOM     49  C   UNL A   1      40.975  30.984  30.011  1.00  0.00     0.049 A 
ATOM     50  C   UNL A   1      45.596  29.395  27.298  1.00  0.00     0.074 A 
ATOM     51  C   UNL A   1      40.986  32.246  30.581  1.00  0.00     0.029 A 
ATOM     52  N   UNL A   1      42.209  30.807  29.407  1.00  0.00    -0.354 N 
ATOM     53  N   UNL A   1      44.612  29.889  28.012  1.00  0.00    -0.248 NA
ATOM     54  C   UNL A   1      46.709  30.334  27.089  1.00  0.00     0.031 C 
ATOM     55  C   UNL A   1      42.214  32.843  30.294  1.00  0.00     0.029 A 
ATOM     56  C   UNL A   1      42.984  31.941  29.578  1.00  0.00     0.049 A 
ATOM     57  H   UNL A   1      42.492  29.995  28.927  1.00  0.00     0.167 HD
ATOM     58  C   UNL A   1      45.002  31.177  28.366  1.00  0.00     0.074 A 
ATOM     59  C   UNL A   1      46.323  31.380  27.810  1.00  0.00     0.031 C 
ATOM     60  C   UNL A   1      44.322  32.113  29.072  1.00  0.00     0.034 A 
BRANCH  47  61
ATOM     61  C   UNL A   1      38.640  30.382  30.735  1.00  0.00     0.023 A 
ATOM     62  C   UNL A   1      38.521  30.112  32.113  1.00  0.00     0.012 A 
ATOM     63  C   UNL A   1      37.621  31.100  30.078  1.00  0.00     0.148 A 
ATOM     64  C   UNL A   1      37.403  30.540  32.826  1.00  0.00     0.002 A 
ATOM     65  C   UNL A   1      36.531  31.565  30.806  1.00  0.00     0.091 A 
ATOM     66  F   UNL A   1      37.746  31.329  28.764  1.00  0.00    -0.205 F 
ATOM     67  C   UNL A   1      36.417  31.279  32.176  1.00  0.00     0.022 A 
BRANCH  65  68
ATOM     68  S   UNL A   1      35.253  32.602  30.087  1.00  0.00     0.127 S 
ATOM     69  O   UNL A   1      36.027  33.763  29.649  1.00  0.00    -0.237 OA
ATOM     70  O   UNL A   1      34.751  31.759  29.003  1.00  0.00    -0.237 OA
ATOM     71  O   UNL A   1      34.297  32.865  31.154  1.00  0.00    -0.744 OA
ENDBRANCH  65  68
ENDBRANCH  47  61
BRANCH  48  72
ATOM     72  C   UNL A   1      47.002  27.619  26.009  1.00  0.00     0.023 A 
ATOM     73  C   UNL A   1      48.039  27.007  26.741  1.00  0.00     0.012 A 
ATOM     74  C   UNL A   1      47.176  27.834  24.628  1.00  0.00     0.148 A 
ATOM     75  C   UNL A   1      49.235  26.648  26.119  1.00  0.00     0.002 A 
ATOM     76  C   UNL A   1      48.345  27.417  24.002  1.00  0.00     0.091 A 
ATOM     77  F   UNL A   1      46.188  28.434  23.950  1.00  0.00    -0.205 F 
ATOM     78  C   UNL A   1      49.384  26.842  24.749  1.00  0.00     0.022 A 
BRANCH  76  79
ATOM     79  S   UNL A   1      48.570  27.500  22.222  1.00  0.00     0.127 S 
ATOM     80  O   UNL A   1      47.364  28.207  21.800  1.00  0.00    -0.237 OA
ATOM     81  O   UNL A   1      49.808  28.272  22.113  1.00  0.00    -0.237 OA
ATOM     82  O   UNL A   1      48.682  26.119  21.773  1.00  0.00    -0.744 OA
ENDBRANCH  76  79
ENDBRANCH  48  72
BRANCH  60  83
ATOM     83  C   UNL A   1      44.984  33.445  29.320  1.00  0.00     0.023 A 
ATOM     84  C   UNL A   1      45.845  33.603  30.424  1.00  0.00     0.012 A 
ATOM     85  C   UNL A   1      44.850  34.500  28.393  1.00  0.00     0.148 A 
ATOM     86  C   UNL A   1      46.542  34.795  30.615  1.00  0.00     0.002 A 
ATOM     87  C   UNL A   1      45.591  35.664  28.561  1.00  0.00     0.091 A 
ATOM     88  F   UNL A   1      44.018  34.336  27.354  1.00  0.00    -0.205 F 
ATOM     89  C   UNL A   1      46.427  35.819  29.677  1.00  0.00     0.022 A 
BRANCH  87  90
ATOM     90  S   UNL A   1      45.595  36.994  27.351  1.00  0.00     0.127 S 
ATOM     91  O   UNL A   1      46.292  38.054  28.078  1.00  0.00    -0.237 OA
ATOM     92  O   UNL A   1      46.359  36.406  26.250  1.00  0.00    -0.237 OA
ATOM     93  O   UNL A   1      44.198  37.266  27.044  1.00  0.00    -0.744 OA
ENDBRANCH  87  90
ENDBRANCH  60  83
ENDBRANCH  34  35
ENDBRANCH  27  29
ENDBRANCH  26  27
ENDBRANCH  25  26
ENDBRANCH   1  25
TORSDOF 18
ENDMDL
