MODEL 1
REMARK VINA RESULT:     -12.2      0.000      0.000
REMARK SMILES O=C(OCCOCCOC(=O)[C@]1(NC(=O)C2CCN(C(=O)C3CC3)CC2)CCCc2ccccc21)c1ccc(-c2c3nc(c(-c4cccc(S(=O)(=O)[O-])c4F)c4ccc([nH]4)c(-c4cccc(S(=O)(=O)[O-])c4F)c4nc(c(-c5cccc(S(=O)(=O)[O-])c5F)c5ccc2[nH]5)C=C4)C=C3)cc1
REMARK SMILES IDX 6 1 5 2 4 3 3 4 2 5 1 6 36 7 37 8 98 9 38 10 97 11 39 12
REMARK SMILES IDX 40 13 41 14 91 15 42 16 96 17 90 18 92 19 43 20 95 21 89 22
REMARK SMILES IDX 88 23 44 25 76 26 56 27 75 28 57 29 60 30 74 31 93 32 58 33
REMARK SMILES IDX 59 34 73 36 94 37 61 38 45 39 46 40 54 41 47 42 49 43 55 44
REMARK SMILES IDX 48 45 50 46 51 47 52 48 53 49 77 50 78 51 86 52 79 53 81 54
REMARK SMILES IDX 87 55 80 56 82 57 83 58 84 59 85 60 62 61 63 62 71 63 64 64
REMARK SMILES IDX 66 65 72 66 65 67 67 68 68 69 69 70 70 71 7 72 8 73 9 74
REMARK SMILES IDX 10 75 11 76 12 77 27 78 35 79 28 80 30 81 34 82 29 83 31 84
REMARK SMILES IDX 33 85 32 86 13 87 14 88 15 90 16 91 17 92 26 93 18 94 25 95
REMARK SMILES IDX 19 96 20 97 21 98 22 99 23 100 24 101
REMARK H PARENT 92 24 60 35 13 89
REMARK Flexibility Score: inf
ROOT
ATOM      1  O   UNL A   1      36.015  22.054  26.283  1.00  0.00    -0.374 OA
ENDROOT
BRANCH   1   2
ATOM      2  C   UNL A   1      36.245  21.052  25.297  1.00  0.00     0.202 C 
BRANCH   2   3
ATOM      3  C   UNL A   1      37.627  20.426  24.998  1.00  0.00     0.261 C 
BRANCH   3   4
ATOM      4  O   UNL A   1      38.794  21.242  25.319  1.00  0.00    -0.460 OA
BRANCH   4   5
ATOM      5  C   UNL A   1      39.834  20.915  26.160  1.00  0.00     0.338 C 
ATOM      6  O   UNL A   1      40.194  19.761  26.323  1.00  0.00    -0.246 OA
BRANCH   5   7
ATOM      7  C   UNL A   1      40.428  22.030  26.924  1.00  0.00     0.060 A 
ATOM      8  C   UNL A   1      40.093  23.287  26.496  1.00  0.00     0.016 A 
ATOM      9  C   UNL A   1      41.302  21.922  27.996  1.00  0.00     0.016 A 
ATOM     10  C   UNL A   1      40.959  24.307  26.639  1.00  0.00     0.010 A 
ATOM     11  C   UNL A   1      41.858  23.106  28.511  1.00  0.00     0.010 A 
ATOM     12  C   UNL A   1      41.692  24.307  27.800  1.00  0.00    -0.014 A 
BRANCH  12  13
ATOM     13  C   UNL A   1      42.201  25.647  28.120  1.00  0.00     0.031 A 
ATOM     14  C   UNL A   1      43.500  26.053  27.532  1.00  0.00     0.074 A 
ATOM     15  C   UNL A   1      41.327  26.531  28.663  1.00  0.00     0.049 A 
ATOM     16  N   UNL A   1      44.108  27.196  27.638  1.00  0.00    -0.248 NA
ATOM     17  C   UNL A   1      44.207  25.058  26.704  1.00  0.00     0.031 C 
ATOM     18  C   UNL A   1      39.950  26.209  29.103  1.00  0.00     0.029 A 
ATOM     19  N   UNL A   1      41.392  27.885  28.829  1.00  0.00    -0.354 N 
ATOM     20  C   UNL A   1      45.314  27.028  26.979  1.00  0.00     0.074 A 
ATOM     21  C   UNL A   1      45.335  25.693  26.432  1.00  0.00     0.031 C 
ATOM     22  C   UNL A   1      39.283  27.337  29.369  1.00  0.00     0.029 A 
ATOM     23  C   UNL A   1      40.226  28.435  29.319  1.00  0.00     0.049 A 
ATOM     24  H   UNL A   1      42.193  28.417  28.619  1.00  0.00     0.167 HD
ATOM     25  C   UNL A   1      46.315  27.926  26.881  1.00  0.00     0.034 A 
ATOM     26  C   UNL A   1      39.979  29.680  29.764  1.00  0.00     0.034 A 
ATOM     27  C   UNL A   1      46.217  29.244  27.439  1.00  0.00     0.049 A 
ATOM     28  C   UNL A   1      41.134  30.631  29.699  1.00  0.00     0.074 A 
ATOM     29  C   UNL A   1      47.181  30.226  27.519  1.00  0.00     0.029 A 
ATOM     30  N   UNL A   1      45.060  29.761  28.017  1.00  0.00    -0.354 N 
ATOM     31  N   UNL A   1      42.319  30.442  29.163  1.00  0.00    -0.248 NA
ATOM     32  C   UNL A   1      40.941  31.949  30.303  1.00  0.00     0.031 C 
ATOM     33  C   UNL A   1      46.614  31.330  28.167  1.00  0.00     0.029 A 
ATOM     34  C   UNL A   1      45.283  31.052  28.452  1.00  0.00     0.049 A 
ATOM     35  H   UNL A   1      44.207  29.277  28.101  1.00  0.00     0.167 HD
ATOM     36  C   UNL A   1      43.019  31.617  29.367  1.00  0.00     0.074 A 
ATOM     37  C   UNL A   1      42.099  32.530  30.027  1.00  0.00     0.031 C 
ATOM     38  C   UNL A   1      44.307  31.915  29.071  1.00  0.00     0.034 A 
BRANCH  25  39
ATOM     39  C   UNL A   1      47.584  27.456  26.236  1.00  0.00     0.023 A 
ATOM     40  C   UNL A   1      47.837  27.719  24.875  1.00  0.00     0.012 A 
ATOM     41  C   UNL A   1      48.508  26.696  26.979  1.00  0.00     0.148 A 
ATOM     42  C   UNL A   1      48.976  27.202  24.255  1.00  0.00     0.002 A 
ATOM     43  C   UNL A   1      49.662  26.225  26.368  1.00  0.00     0.091 A 
ATOM     44  F   UNL A   1      48.225  26.424  28.261  1.00  0.00    -0.205 F 
ATOM     45  C   UNL A   1      49.890  26.463  25.002  1.00  0.00     0.022 A 
BRANCH  43  46
ATOM     46  S   UNL A   1      50.926  25.311  27.257  1.00  0.00     0.127 S 
ATOM     47  O   UNL A   1      51.402  26.313  28.209  1.00  0.00    -0.237 OA
ATOM     48  O   UNL A   1      50.147  24.225  27.850  1.00  0.00    -0.237 OA
ATOM     49  O   UNL A   1      51.902  24.895  26.260  1.00  0.00    -0.744 OA
ENDBRANCH  43  46
ENDBRANCH  25  39
BRANCH  26  50
ATOM     50  C   UNL A   1      38.671  30.037  30.393  1.00  0.00     0.023 A 
ATOM     51  C   UNL A   1      38.392  29.664  31.722  1.00  0.00     0.012 A 
ATOM     52  C   UNL A   1      37.686  30.747  29.671  1.00  0.00     0.148 A 
ATOM     53  C   UNL A   1      37.154  29.959  32.301  1.00  0.00     0.002 A 
ATOM     54  C   UNL A   1      36.485  31.098  30.276  1.00  0.00     0.091 A 
ATOM     55  F   UNL A   1      37.939  31.071  28.395  1.00  0.00    -0.205 F 
ATOM     56  C   UNL A   1      36.206  30.685  31.584  1.00  0.00     0.022 A 
BRANCH  54  57
ATOM     57  S   UNL A   1      35.280  32.153  29.460  1.00  0.00     0.127 S 
ATOM     58  O   UNL A   1      36.111  33.270  29.019  1.00  0.00    -0.237 OA
ATOM     59  O   UNL A   1      34.791  31.288  28.386  1.00  0.00    -0.237 OA
ATOM     60  O   UNL A   1      34.282  32.461  30.476  1.00  0.00    -0.744 OA
ENDBRANCH  54  57
ENDBRANCH  26  50
BRANCH  38  61
ATOM     61  C   UNL A   1      44.759  33.298  29.429  1.00  0.00     0.023 A 
ATOM     62  C   UNL A   1      45.369  33.539  30.674  1.00  0.00     0.012 A 
ATOM     63  C   UNL A   1      44.618  34.342  28.499  1.00  0.00     0.148 A 
ATOM     64  C   UNL A   1      45.798  34.820  31.007  1.00  0.00     0.002 A 
ATOM     65  C   UNL A   1      45.105  35.601  28.812  1.00  0.00     0.091 A 
ATOM     66  F   UNL A   1      44.010  34.085  27.332  1.00  0.00    -0.205 F 
ATOM     67  C   UNL A   1      45.679  35.847  30.071  1.00  0.00     0.022 A 
BRANCH  65  68
ATOM     68  S   UNL A   1      45.095  36.943  27.624  1.00  0.00     0.127 S 
ATOM     69  O   UNL A   1      45.369  38.097  28.478  1.00  0.00    -0.237 OA
ATOM     70  O   UNL A   1      46.192  36.570  26.729  1.00  0.00    -0.237 OA
ATOM     71  O   UNL A   1      43.777  36.920  27.004  1.00  0.00    -0.744 OA
ENDBRANCH  65  68
ENDBRANCH  38  61
ENDBRANCH  12  13
ENDBRANCH   5   7
ENDBRANCH   4   5
ENDBRANCH   3   4
ENDBRANCH   2   3
ENDBRANCH   1   2
BRANCH   1  72
ATOM     72  C   UNL A   1      36.323  23.432  26.092  1.00  0.00     0.202 C 
BRANCH  72  73
ATOM     73  C   UNL A   1      35.228  24.388  25.630  1.00  0.00     0.261 C 
BRANCH  73  74
ATOM     74  O   UNL A   1      34.628  24.033  24.378  1.00  0.00    -0.461 OA
BRANCH  74  75
ATOM     75  C   UNL A   1      33.745  24.978  23.979  1.00  0.00     0.336 C 
ATOM     76  O   UNL A   1      34.101  26.072  23.540  1.00  0.00    -0.249 OA
BRANCH  75  77
ATOM     77  C   UNL A   1      32.224  24.615  24.200  1.00  0.00     0.164 C 
ATOM     78  C   UNL A   1      31.514  24.414  22.830  1.00  0.00     0.046 C 
ATOM     79  C   UNL A   1      31.760  25.956  24.827  1.00  0.00    -0.008 A 
ATOM     80  C   UNL A   1      31.599  25.611  21.881  1.00  0.00     0.008 C 
ATOM     81  C   UNL A   1      31.407  27.051  24.013  1.00  0.00    -0.042 A 
ATOM     82  C   UNL A   1      32.044  26.167  26.196  1.00  0.00     0.007 A 
ATOM     83  C   UNL A   1      31.146  26.918  22.529  1.00  0.00     0.036 C 
ATOM     84  C   UNL A   1      31.362  28.331  24.588  1.00  0.00     0.004 A 
ATOM     85  C   UNL A   1      32.006  27.443  26.741  1.00  0.00     0.000 A 
ATOM     86  C   UNL A   1      31.676  28.526  25.934  1.00  0.00     0.000 A 
BRANCH  77  87
ATOM     87  N   UNL A   1      31.731  23.521  25.121  1.00  0.00    -0.336 N 
ATOM     88  C   UNL A   1      31.657  22.159  25.115  1.00  0.00     0.224 C 
ATOM     89  H   UNL A   1      31.362  23.895  25.954  1.00  0.00     0.164 HD
ATOM     90  O   UNL A   1      30.736  21.639  25.752  1.00  0.00    -0.275 OA
BRANCH  88  91
ATOM     91  C   UNL A   1      32.741  21.299  24.502  1.00  0.00     0.082 C 
ATOM     92  C   UNL A   1      32.371  20.776  23.088  1.00  0.00     0.035 C 
ATOM     93  C   UNL A   1      33.157  20.188  25.494  1.00  0.00     0.035 C 
ATOM     94  C   UNL A   1      31.797  19.366  23.008  1.00  0.00     0.120 C 
ATOM     95  C   UNL A   1      32.385  18.884  25.288  1.00  0.00     0.120 C 
ATOM     96  N   UNL A   1      32.514  18.470  23.904  1.00  0.00    -0.342 N 
ATOM     97  C   UNL A   1      33.413  17.551  23.349  1.00  0.00     0.225 C 
ATOM     98  O   UNL A   1      33.638  17.551  22.138  1.00  0.00    -0.275 OA
BRANCH  97  99
ATOM     99  C   UNL A   1      34.063  16.441  24.119  1.00  0.00     0.079 C 
ATOM    100  C   UNL A   1      34.253  16.240  25.593  1.00  0.00     0.014 C 
ATOM    101  C   UNL A   1      33.215  15.433  24.861  1.00  0.00     0.014 C 
ENDBRANCH  97  99
ENDBRANCH  88  91
ENDBRANCH  77  87
ENDBRANCH  75  77
ENDBRANCH  74  75
ENDBRANCH  73  74
ENDBRANCH  72  73
ENDBRANCH   1  72
TORSDOF 20
ENDMDL
MODEL 2
REMARK VINA RESULT:     -12.2      2.113      4.876
REMARK SMILES O=C(OCCOCCOC(=O)[C@]1(NC(=O)C2CCN(C(=O)C3CC3)CC2)CCCc2ccccc21)c1ccc(-c2c3nc(c(-c4cccc(S(=O)(=O)[O-])c4F)c4ccc([nH]4)c(-c4cccc(S(=O)(=O)[O-])c4F)c4nc(c(-c5cccc(S(=O)(=O)[O-])c5F)c5ccc2[nH]5)C=C4)C=C3)cc1
REMARK SMILES IDX 6 1 5 2 4 3 3 4 2 5 1 6 36 7 37 8 98 9 38 10 97 11 39 12
REMARK SMILES IDX 40 13 41 14 91 15 42 16 96 17 90 18 92 19 43 20 95 21 89 22
REMARK SMILES IDX 88 23 44 25 76 26 56 27 75 28 57 29 60 30 74 31 93 32 58 33
REMARK SMILES IDX 59 34 73 36 94 37 61 38 45 39 46 40 54 41 47 42 49 43 55 44
REMARK SMILES IDX 48 45 50 46 51 47 52 48 53 49 77 50 78 51 86 52 79 53 81 54
REMARK SMILES IDX 87 55 80 56 82 57 83 58 84 59 85 60 62 61 63 62 71 63 64 64
REMARK SMILES IDX 66 65 72 66 65 67 67 68 68 69 69 70 70 71 7 72 8 73 9 74
REMARK SMILES IDX 10 75 11 76 12 77 27 78 35 79 28 80 30 81 34 82 29 83 31 84
REMARK SMILES IDX 33 85 32 86 13 87 14 88 15 90 16 91 17 92 26 93 18 94 25 95
REMARK SMILES IDX 19 96 20 97 21 98 22 99 23 100 24 101
REMARK H PARENT 92 24 60 35 13 89
REMARK Flexibility Score: inf
ROOT
ATOM      1  O   UNL A   1      35.389  19.196  24.939  1.00  0.00    -0.374 OA
ENDROOT
BRANCH   1   2
ATOM      2  C   UNL A   1      36.563  19.945  24.645  1.00  0.00     0.202 C 
BRANCH   2   3
ATOM      3  C   UNL A   1      37.153  21.037  25.567  1.00  0.00     0.261 C 
BRANCH   3   4
ATOM      4  O   UNL A   1      38.560  21.371  25.364  1.00  0.00    -0.460 OA
BRANCH   4   5
ATOM      5  C   UNL A   1      39.622  21.028  26.169  1.00  0.00     0.338 C 
ATOM      6  O   UNL A   1      39.963  19.868  26.329  1.00  0.00    -0.246 OA
BRANCH   5   7
ATOM      7  C   UNL A   1      40.268  22.136  26.901  1.00  0.00     0.060 A 
ATOM      8  C   UNL A   1      39.927  23.397  26.489  1.00  0.00     0.016 A 
ATOM      9  C   UNL A   1      41.195  22.018  27.927  1.00  0.00     0.016 A 
ATOM     10  C   UNL A   1      40.812  24.406  26.588  1.00  0.00     0.010 A 
ATOM     11  C   UNL A   1      41.790  23.194  28.413  1.00  0.00     0.010 A 
ATOM     12  C   UNL A   1      41.603  24.397  27.710  1.00  0.00    -0.014 A 
BRANCH  12  13
ATOM     13  C   UNL A   1      42.144  25.731  28.002  1.00  0.00     0.031 A 
ATOM     14  C   UNL A   1      43.389  26.141  27.307  1.00  0.00     0.074 A 
ATOM     15  C   UNL A   1      41.325  26.610  28.632  1.00  0.00     0.049 A 
ATOM     16  N   UNL A   1      44.009  27.280  27.375  1.00  0.00    -0.248 NA
ATOM     17  C   UNL A   1      44.016  25.156  26.407  1.00  0.00     0.031 C 
ATOM     18  C   UNL A   1      39.991  26.286  29.187  1.00  0.00     0.029 A 
ATOM     19  N   UNL A   1      41.411  27.961  28.811  1.00  0.00    -0.354 N 
ATOM     20  C   UNL A   1      45.151  27.118  26.611  1.00  0.00     0.074 A 
ATOM     21  C   UNL A   1      45.118  25.790  26.046  1.00  0.00     0.031 C 
ATOM     22  C   UNL A   1      39.355  27.413  29.526  1.00  0.00     0.029 A 
ATOM     23  C   UNL A   1      40.295  28.508  29.408  1.00  0.00     0.049 A 
ATOM     24  H   UNL A   1      42.193  28.493  28.538  1.00  0.00     0.167 HD
ATOM     25  C   UNL A   1      46.144  28.014  26.438  1.00  0.00     0.034 A 
ATOM     26  C   UNL A   1      40.093  29.747  29.891  1.00  0.00     0.034 A 
ATOM     27  C   UNL A   1      46.101  29.324  27.021  1.00  0.00     0.049 A 
ATOM     28  C   UNL A   1      41.243  30.696  29.737  1.00  0.00     0.074 A 
ATOM     29  C   UNL A   1      47.073  30.301  27.029  1.00  0.00     0.029 A 
ATOM     30  N   UNL A   1      45.002  29.837  27.705  1.00  0.00    -0.354 N 
ATOM     31  N   UNL A   1      42.375  30.510  29.097  1.00  0.00    -0.248 NA
ATOM     32  C   UNL A   1      41.110  32.006  30.375  1.00  0.00     0.031 C 
ATOM     33  C   UNL A   1      46.570  31.398  27.739  1.00  0.00     0.029 A 
ATOM     34  C   UNL A   1      45.268  31.120  28.137  1.00  0.00     0.049 A 
ATOM     35  H   UNL A   1      44.158  29.354  27.857  1.00  0.00     0.167 HD
ATOM     36  C   UNL A   1      43.096  31.680  29.255  1.00  0.00     0.074 A 
ATOM     37  C   UNL A   1      42.242  32.586  30.006  1.00  0.00     0.031 C 
ATOM     38  C   UNL A   1      44.354  31.978  28.850  1.00  0.00     0.034 A 
BRANCH  25  39
ATOM     39  C   UNL A   1      47.350  27.549  25.678  1.00  0.00     0.023 A 
ATOM     40  C   UNL A   1      48.412  26.905  26.343  1.00  0.00     0.012 A 
ATOM     41  C   UNL A   1      47.450  27.806  24.297  1.00  0.00     0.148 A 
ATOM     42  C   UNL A   1      49.571  26.554  25.649  1.00  0.00     0.002 A 
ATOM     43  C   UNL A   1      48.586  27.413  23.604  1.00  0.00     0.091 A 
ATOM     44  F   UNL A   1      46.445  28.457  23.696  1.00  0.00    -0.205 F 
ATOM     45  C   UNL A   1      49.655  26.801  24.281  1.00  0.00     0.022 A 
BRANCH  43  46
ATOM     46  S   UNL A   1      48.768  27.636  21.832  1.00  0.00     0.127 S 
ATOM     47  O   UNL A   1      49.323  26.346  21.425  1.00  0.00    -0.237 OA
ATOM     48  O   UNL A   1      47.385  27.865  21.416  1.00  0.00    -0.237 OA
ATOM     49  O   UNL A   1      49.659  28.774  21.655  1.00  0.00    -0.744 OA
ENDBRANCH  43  46
ENDBRANCH  25  39
BRANCH  26  50
ATOM     50  C   UNL A   1      38.848  30.099  30.638  1.00  0.00     0.023 A 
ATOM     51  C   UNL A   1      38.682  29.702  31.978  1.00  0.00     0.012 A 
ATOM     52  C   UNL A   1      37.809  30.829  30.017  1.00  0.00     0.148 A 
ATOM     53  C   UNL A   1      37.501  29.993  32.668  1.00  0.00     0.002 A 
ATOM     54  C   UNL A   1      36.668  31.176  30.730  1.00  0.00     0.091 A 
ATOM     55  F   UNL A   1      37.954  31.176  28.730  1.00  0.00    -0.205 F 
ATOM     56  C   UNL A   1      36.500  30.739  32.049  1.00  0.00     0.022 A 
BRANCH  54  57
ATOM     57  S   UNL A   1      35.404  32.253  30.041  1.00  0.00     0.127 S 
ATOM     58  O   UNL A   1      34.476  32.378  31.161  1.00  0.00    -0.237 OA
ATOM     59  O   UNL A   1      36.166  33.464  29.734  1.00  0.00    -0.237 OA
ATOM     60  O   UNL A   1      34.899  31.556  28.866  1.00  0.00    -0.744 OA
ENDBRANCH  54  57
ENDBRANCH  26  50
BRANCH  38  61
ATOM     61  C   UNL A   1      44.842  33.354  29.187  1.00  0.00     0.023 A 
ATOM     62  C   UNL A   1      45.532  33.581  30.392  1.00  0.00     0.012 A 
ATOM     63  C   UNL A   1      44.653  34.405  28.274  1.00  0.00     0.148 A 
ATOM     64  C   UNL A   1      45.995  34.856  30.703  1.00  0.00     0.002 A 
ATOM     65  C   UNL A   1      45.172  35.657  28.562  1.00  0.00     0.091 A 
ATOM     66  F   UNL A   1      43.969  34.161  27.146  1.00  0.00    -0.205 F 
ATOM     67  C   UNL A   1      45.827  35.890  29.782  1.00  0.00     0.022 A 
BRANCH  65  68
ATOM     68  S   UNL A   1      45.099  37.007  27.384  1.00  0.00     0.127 S 
ATOM     69  O   UNL A   1      46.031  36.551  26.354  1.00  0.00    -0.237 OA
ATOM     70  O   UNL A   1      43.691  36.992  26.986  1.00  0.00    -0.237 OA
ATOM     71  O   UNL A   1      45.506  38.199  28.114  1.00  0.00    -0.744 OA
ENDBRANCH  65  68
ENDBRANCH  38  61
ENDBRANCH  12  13
ENDBRANCH   5   7
ENDBRANCH   4   5
ENDBRANCH   3   4
ENDBRANCH   2   3
ENDBRANCH   1   2
BRANCH   1  72
ATOM     72  C   UNL A   1      34.079  19.756  24.952  1.00  0.00     0.202 C 
BRANCH  72  73
ATOM     73  C   UNL A   1      33.731  20.821  25.987  1.00  0.00     0.261 C 
BRANCH  73  74
ATOM     74  O   UNL A   1      34.072  22.156  25.595  1.00  0.00    -0.461 OA
BRANCH  74  75
ATOM     75  C   UNL A   1      33.822  23.034  26.595  1.00  0.00     0.336 C 
ATOM     76  O   UNL A   1      34.157  22.822  27.760  1.00  0.00    -0.249 OA
BRANCH  75  77
ATOM     77  C   UNL A   1      32.988  24.309  26.178  1.00  0.00     0.164 C 
ATOM     78  C   UNL A   1      31.592  24.286  26.864  1.00  0.00     0.046 C 
ATOM     79  C   UNL A   1      32.826  23.990  24.669  1.00  0.00    -0.008 A 
ATOM     80  C   UNL A   1      30.755  23.038  26.575  1.00  0.00     0.008 C 
ATOM     81  C   UNL A   1      31.797  23.139  24.217  1.00  0.00    -0.042 A 
ATOM     82  C   UNL A   1      33.922  24.271  23.823  1.00  0.00     0.007 A 
ATOM     83  C   UNL A   1      30.621  22.744  25.081  1.00  0.00     0.036 C 
ATOM     84  C   UNL A   1      31.903  22.578  22.934  1.00  0.00     0.004 A 
ATOM     85  C   UNL A   1      34.013  23.695  22.562  1.00  0.00     0.000 A 
ATOM     86  C   UNL A   1      33.009  22.841  22.124  1.00  0.00     0.000 A 
BRANCH  77  87
ATOM     87  N   UNL A   1      33.500  25.729  26.261  1.00  0.00    -0.336 N 
ATOM     88  C   UNL A   1      33.154  26.954  25.769  1.00  0.00     0.224 C 
ATOM     89  H   UNL A   1      34.305  25.787  26.825  1.00  0.00     0.164 HD
ATOM     90  O   UNL A   1      34.064  27.769  25.587  1.00  0.00    -0.275 OA
BRANCH  88  91
ATOM     91  C   UNL A   1      31.710  27.373  25.603  1.00  0.00     0.082 C 
ATOM     92  C   UNL A   1      31.108  26.945  24.238  1.00  0.00     0.035 C 
ATOM     93  C   UNL A   1      31.560  28.881  25.910  1.00  0.00     0.035 C 
ATOM     94  C   UNL A   1      31.097  27.997  23.134  1.00  0.00     0.120 C 
ATOM     95  C   UNL A   1      31.674  29.760  24.663  1.00  0.00     0.120 C 
ATOM     96  N   UNL A   1      30.723  29.298  23.670  1.00  0.00    -0.342 N 
ATOM     97  C   UNL A   1      29.438  29.785  23.401  1.00  0.00     0.225 C 
ATOM     98  O   UNL A   1      28.625  29.096  22.782  1.00  0.00    -0.275 OA
BRANCH  97  99
ATOM     99  C   UNL A   1      28.986  31.181  23.710  1.00  0.00     0.079 C 
ATOM    100  C   UNL A   1      28.600  32.317  22.809  1.00  0.00     0.014 C 
ATOM    101  C   UNL A   1      27.531  31.561  23.552  1.00  0.00     0.014 C 
ENDBRANCH  97  99
ENDBRANCH  88  91
ENDBRANCH  77  87
ENDBRANCH  75  77
ENDBRANCH  74  75
ENDBRANCH  73  74
ENDBRANCH  72  73
ENDBRANCH   1  72
TORSDOF 20
ENDMDL
MODEL 3
REMARK VINA RESULT:     -12.1      5.248     10.123
REMARK SMILES O=C(OCCOCCOC(=O)[C@]1(NC(=O)C2CCN(C(=O)C3CC3)CC2)CCCc2ccccc21)c1ccc(-c2c3nc(c(-c4cccc(S(=O)(=O)[O-])c4F)c4ccc([nH]4)c(-c4cccc(S(=O)(=O)[O-])c4F)c4nc(c(-c5cccc(S(=O)(=O)[O-])c5F)c5ccc2[nH]5)C=C4)C=C3)cc1
REMARK SMILES IDX 6 1 5 2 4 3 3 4 2 5 1 6 36 7 37 8 98 9 38 10 97 11 39 12
REMARK SMILES IDX 40 13 41 14 91 15 42 16 96 17 90 18 92 19 43 20 95 21 89 22
REMARK SMILES IDX 88 23 44 25 76 26 56 27 75 28 57 29 60 30 74 31 93 32 58 33
REMARK SMILES IDX 59 34 73 36 94 37 61 38 45 39 46 40 54 41 47 42 49 43 55 44
REMARK SMILES IDX 48 45 50 46 51 47 52 48 53 49 77 50 78 51 86 52 79 53 81 54
REMARK SMILES IDX 87 55 80 56 82 57 83 58 84 59 85 60 62 61 63 62 71 63 64 64
REMARK SMILES IDX 66 65 72 66 65 67 67 68 68 69 69 70 70 71 7 72 8 73 9 74
REMARK SMILES IDX 10 75 11 76 12 77 27 78 35 79 28 80 30 81 34 82 29 83 31 84
REMARK SMILES IDX 33 85 32 86 13 87 14 88 15 90 16 91 17 92 26 93 18 94 25 95
REMARK SMILES IDX 19 96 20 97 21 98 22 99 23 100 24 101
REMARK H PARENT 92 24 60 35 13 89
REMARK Flexibility Score: inf
ROOT
ATOM      1  O   UNL A   1      33.338  30.543  26.699  1.00  0.00    -0.374 OA
ENDROOT
BRANCH   1   2
ATOM      2  C   UNL A   1      32.004  31.012  26.872  1.00  0.00     0.202 C 
BRANCH   2   3
ATOM      3  C   UNL A   1      31.623  32.499  27.060  1.00  0.00     0.261 C 
BRANCH   3   4
ATOM      4  O   UNL A   1      32.723  33.428  27.304  1.00  0.00    -0.460 OA
BRANCH   4   5
ATOM      5  C   UNL A   1      33.204  33.848  28.523  1.00  0.00     0.338 C 
ATOM      6  O   UNL A   1      32.548  34.559  29.266  1.00  0.00    -0.246 OA
BRANCH   5   7
ATOM      7  C   UNL A   1      34.594  33.465  28.840  1.00  0.00     0.060 A 
ATOM      8  C   UNL A   1      34.753  32.235  29.422  1.00  0.00     0.016 A 
ATOM      9  C   UNL A   1      35.730  34.237  28.635  1.00  0.00     0.016 A 
ATOM     10  C   UNL A   1      35.763  32.016  30.283  1.00  0.00     0.010 A 
ATOM     11  C   UNL A   1      36.953  33.745  29.121  1.00  0.00     0.010 A 
ATOM     12  C   UNL A   1      36.953  32.628  29.974  1.00  0.00    -0.014 A 
BRANCH  12  13
ATOM     13  C   UNL A   1      38.089  31.961  30.623  1.00  0.00     0.031 A 
ATOM     14  C   UNL A   1      38.264  32.155  32.083  1.00  0.00     0.074 A 
ATOM     15  C   UNL A   1      38.713  30.978  29.927  1.00  0.00     0.049 A 
ATOM     16  N   UNL A   1      39.159  31.627  32.862  1.00  0.00    -0.248 NA
ATOM     17  C   UNL A   1      37.306  33.044  32.765  1.00  0.00     0.031 C 
ATOM     18  C   UNL A   1      38.444  30.629  28.514  1.00  0.00     0.029 A 
ATOM     19  N   UNL A   1      39.597  30.012  30.318  1.00  0.00    -0.354 N 
ATOM     20  C   UNL A   1      38.939  32.194  34.105  1.00  0.00     0.074 A 
ATOM     21  C   UNL A   1      37.796  33.069  33.993  1.00  0.00     0.031 C 
ATOM     22  C   UNL A   1      39.051  29.477  28.207  1.00  0.00     0.029 A 
ATOM     23  C   UNL A   1      39.906  29.113  29.318  1.00  0.00     0.049 A 
ATOM     24  H   UNL A   1      39.976  29.962  31.225  1.00  0.00     0.167 HD
ATOM     25  C   UNL A   1      39.667  32.003  35.224  1.00  0.00     0.034 A 
ATOM     26  C   UNL A   1      40.848  28.155  29.279  1.00  0.00     0.034 A 
ATOM     27  C   UNL A   1      40.784  31.104  35.263  1.00  0.00     0.049 A 
ATOM     28  C   UNL A   1      41.680  28.015  30.517  1.00  0.00     0.074 A 
ATOM     29  C   UNL A   1      41.685  30.885  36.284  1.00  0.00     0.029 A 
ATOM     30  N   UNL A   1      41.147  30.265  34.213  1.00  0.00    -0.354 N 
ATOM     31  N   UNL A   1      41.537  28.628  31.671  1.00  0.00    -0.248 NA
ATOM     32  C   UNL A   1      42.803  27.080  30.458  1.00  0.00     0.031 C 
ATOM     33  C   UNL A   1      42.607  29.928  35.841  1.00  0.00     0.029 A 
ATOM     34  C   UNL A   1      42.256  29.520  34.561  1.00  0.00     0.049 A 
ATOM     35  H   UNL A   1      40.679  30.210  33.348  1.00  0.00     0.167 HD
ATOM     36  C   UNL A   1      42.554  28.156  32.480  1.00  0.00     0.074 A 
ATOM     37  C   UNL A   1      43.271  27.163  31.695  1.00  0.00     0.031 C 
ATOM     38  C   UNL A   1      42.894  28.522  33.739  1.00  0.00     0.034 A 
BRANCH  25  39
ATOM     39  C   UNL A   1      39.314  32.845  36.413  1.00  0.00     0.023 A 
ATOM     40  C   UNL A   1      39.898  34.115  36.590  1.00  0.00     0.012 A 
ATOM     41  C   UNL A   1      38.435  32.342  37.391  1.00  0.00     0.148 A 
ATOM     42  C   UNL A   1      39.637  34.858  37.743  1.00  0.00     0.002 A 
ATOM     43  C   UNL A   1      38.144  33.106  38.513  1.00  0.00     0.091 A 
ATOM     44  F   UNL A   1      37.926  31.114  37.220  1.00  0.00    -0.205 F 
ATOM     45  C   UNL A   1      38.755  34.357  38.698  1.00  0.00     0.022 A 
BRANCH  43  46
ATOM     46  S   UNL A   1      36.981  32.574  39.773  1.00  0.00     0.127 S 
ATOM     47  O   UNL A   1      35.739  32.472  39.007  1.00  0.00    -0.237 OA
ATOM     48  O   UNL A   1      37.552  31.293  40.185  1.00  0.00    -0.237 OA
ATOM     49  O   UNL A   1      36.989  33.609  40.797  1.00  0.00    -0.744 OA
ENDBRANCH  43  46
ENDBRANCH  25  39
BRANCH  26  50
ATOM     50  C   UNL A   1      41.116  27.376  28.032  1.00  0.00     0.023 A 
ATOM     51  C   UNL A   1      41.643  28.011  26.892  1.00  0.00     0.012 A 
ATOM     52  C   UNL A   1      40.841  25.992  27.966  1.00  0.00     0.148 A 
ATOM     53  C   UNL A   1      41.856  27.295  25.710  1.00  0.00     0.002 A 
ATOM     54  C   UNL A   1      41.120  25.272  26.811  1.00  0.00     0.091 A 
ATOM     55  F   UNL A   1      40.306  25.395  29.041  1.00  0.00    -0.205 F 
ATOM     56  C   UNL A   1      41.607  25.925  25.672  1.00  0.00     0.022 A 
BRANCH  54  57
ATOM     57  S   UNL A   1      40.957  23.482  26.740  1.00  0.00     0.127 S 
ATOM     58  O   UNL A   1      39.524  23.323  26.507  1.00  0.00    -0.237 OA
ATOM     59  O   UNL A   1      41.808  23.141  25.600  1.00  0.00    -0.237 OA
ATOM     60  O   UNL A   1      41.455  22.997  28.020  1.00  0.00    -0.744 OA
ENDBRANCH  54  57
ENDBRANCH  26  50
BRANCH  38  61
ATOM     61  C   UNL A   1      44.066  27.804  34.336  1.00  0.00     0.023 A 
ATOM     62  C   UNL A   1      45.352  28.371  34.261  1.00  0.00     0.012 A 
ATOM     63  C   UNL A   1      43.870  26.589  35.015  1.00  0.00     0.148 A 
ATOM     64  C   UNL A   1      46.441  27.712  34.823  1.00  0.00     0.002 A 
ATOM     65  C   UNL A   1      44.948  25.970  35.626  1.00  0.00     0.091 A 
ATOM     66  F   UNL A   1      42.637  26.064  35.046  1.00  0.00    -0.205 F 
ATOM     67  C   UNL A   1      46.236  26.520  35.517  1.00  0.00     0.022 A 
BRANCH  65  68
ATOM     68  S   UNL A   1      44.751  24.499  36.632  1.00  0.00     0.127 S 
ATOM     69  O   UNL A   1      46.129  24.231  37.037  1.00  0.00    -0.237 OA
ATOM     70  O   UNL A   1      43.878  24.976  37.705  1.00  0.00    -0.237 OA
ATOM     71  O   UNL A   1      44.146  23.498  35.764  1.00  0.00    -0.744 OA
ENDBRANCH  65  68
ENDBRANCH  38  61
ENDBRANCH  12  13
ENDBRANCH   5   7
ENDBRANCH   4   5
ENDBRANCH   3   4
ENDBRANCH   2   3
ENDBRANCH   1   2
BRANCH   1  72
ATOM     72  C   UNL A   1      33.668  29.176  26.477  1.00  0.00     0.202 C 
BRANCH  72  73
ATOM     73  C   UNL A   1      33.561  28.598  25.069  1.00  0.00     0.261 C 
BRANCH  73  74
ATOM     74  O   UNL A   1      32.619  29.275  24.226  1.00  0.00    -0.461 OA
BRANCH  74  75
ATOM     75  C   UNL A   1      31.476  28.561  24.106  1.00  0.00     0.336 C 
ATOM     76  O   UNL A   1      30.848  28.149  25.082  1.00  0.00    -0.249 OA
BRANCH  75  77
ATOM     77  C   UNL A   1      31.050  28.215  22.625  1.00  0.00     0.164 C 
ATOM     78  C   UNL A   1      30.961  29.514  21.774  1.00  0.00     0.046 C 
ATOM     79  C   UNL A   1      29.619  27.693  22.918  1.00  0.00    -0.008 A 
ATOM     80  C   UNL A   1      30.007  30.578  22.322  1.00  0.00     0.008 C 
ATOM     81  C   UNL A   1      28.536  28.586  23.047  1.00  0.00    -0.042 A 
ATOM     82  C   UNL A   1      29.494  26.370  23.401  1.00  0.00     0.007 A 
ATOM     83  C   UNL A   1      28.609  30.032  22.610  1.00  0.00     0.036 C 
ATOM     84  C   UNL A   1      27.362  28.135  23.672  1.00  0.00     0.004 A 
ATOM     85  C   UNL A   1      28.328  25.949  24.027  1.00  0.00     0.000 A 
ATOM     86  C   UNL A   1      27.268  26.835  24.172  1.00  0.00     0.000 A 
BRANCH  77  87
ATOM     87  N   UNL A   1      31.719  27.165  21.767  1.00  0.00    -0.336 N 
ATOM     88  C   UNL A   1      32.616  26.152  21.934  1.00  0.00     0.224 C 
ATOM     89  H   UNL A   1      31.426  27.231  20.829  1.00  0.00     0.164 HD
ATOM     90  O   UNL A   1      33.332  25.864  20.970  1.00  0.00    -0.275 OA
BRANCH  88  91
ATOM     91  C   UNL A   1      32.637  25.295  23.182  1.00  0.00     0.082 C 
ATOM     92  C   UNL A   1      34.025  25.269  23.875  1.00  0.00     0.035 C 
ATOM     93  C   UNL A   1      32.065  23.893  22.868  1.00  0.00     0.035 C 
ATOM     94  C   UNL A   1      34.927  24.081  23.558  1.00  0.00     0.120 C 
ATOM     95  C   UNL A   1      33.144  22.880  22.484  1.00  0.00     0.120 C 
ATOM     96  N   UNL A   1      34.155  22.848  23.523  1.00  0.00    -0.342 N 
ATOM     97  C   UNL A   1      34.273  21.956  24.597  1.00  0.00     0.225 C 
ATOM     98  O   UNL A   1      34.963  22.246  25.576  1.00  0.00    -0.275 OA
BRANCH  97  99
ATOM     99  C   UNL A   1      33.704  20.570  24.606  1.00  0.00     0.079 C 
ATOM    100  C   UNL A   1      33.175  19.726  25.728  1.00  0.00     0.014 C 
ATOM    101  C   UNL A   1      32.214  20.361  24.758  1.00  0.00     0.014 C 
ENDBRANCH  97  99
ENDBRANCH  88  91
ENDBRANCH  77  87
ENDBRANCH  75  77
ENDBRANCH  74  75
ENDBRANCH  73  74
ENDBRANCH  72  73
ENDBRANCH   1  72
TORSDOF 20
ENDMDL
