MODEL 1
REMARK VINA RESULT:     -11.4      0.000      0.000
REMARK SMILES Cc1ccc(S(=O)(=O)n2cc(C(=O)C(=O)NCC(=O)N[C@H](Cc3c[nH]c4ccccc34)C(=O)OCCOCCOC(=O)c3ccc(-c4c5nc(c(-c6cccc(S(=O)(=O)[O-])c6F)c6ccc([nH]6)c(-c6cccc(S(=O)(=O)[O-])c6F)c6nc(c(-c7cccc(S(=O)(=O)[O-])c7F)c7ccc4[nH]7)C=C6)C=C5)cc3)c3ccccc32)cc1
REMARK SMILES IDX 35 1 34 2 32 3 33 4 21 5 20 6 18 7 19 8 17 10 16 11 14 12
REMARK SMILES IDX 15 13 12 15 13 16 11 17 9 18 10 19 111 20 106 21 110 22
REMARK SMILES IDX 107 23 109 24 108 25 6 26 7 27 8 28 5 29 1 30 2 31 3 32
REMARK SMILES IDX 113 33 4 34 112 35 22 36 23 37 24 38 31 39 25 40 26 41 30 42
REMARK SMILES IDX 27 44 29 45 28 46 36 47 37 48 38 49 39 50 40 51 41 52 42 53
REMARK SMILES IDX 43 54 44 55 105 56 45 57 104 58 46 59 47 60 48 61 98 62
REMARK SMILES IDX 49 63 103 64 97 65 99 66 50 67 102 68 96 69 95 70 51 72
REMARK SMILES IDX 83 73 63 74 82 75 64 76 67 77 81 78 100 79 65 80 66 81 80 83
REMARK SMILES IDX 101 84 68 85 52 86 53 87 61 88 54 89 56 90 62 91 55 92 57 93
REMARK SMILES IDX 58 94 59 95 60 96 84 97 85 98 93 99 86 100 88 101 94 102
REMARK SMILES IDX 87 103 89 104 90 105 91 106 92 107 69 108 70 109 78 110
REMARK SMILES IDX 71 111 73 112 79 113 72 114 74 115 75 116 76 117 77 118
REMARK H PARENT 20 9 16 14 25 43 99 71 67 82
REMARK Flexibility Score: inf
ROOT
ATOM      1  C   UNL A   1      42.161  20.768  26.871  1.00  0.00     0.261 C 
ENDROOT
BRANCH   1   2
ATOM      2  O   UNL A   1      41.254  21.826  26.521  1.00  0.00    -0.462 OA
BRANCH   2   3
ATOM      3  C   UNL A   1      39.933  21.563  26.317  1.00  0.00     0.329 C 
ATOM      4  O   UNL A   1      39.436  20.572  25.836  1.00  0.00    -0.250 OA
BRANCH   3   5
ATOM      5  C   UNL A   1      39.105  22.765  26.746  1.00  0.00     0.196 C 
BRANCH   5   6
ATOM      6  N   UNL A   1      38.372  23.271  25.583  1.00  0.00    -0.341 N 
ATOM      7  C   UNL A   1      37.090  22.999  25.177  1.00  0.00     0.240 C 
ATOM      8  O   UNL A   1      36.684  23.649  24.204  1.00  0.00    -0.273 OA
ATOM      9  H   UNL A   1      38.872  23.896  25.011  1.00  0.00     0.164 HD
BRANCH   7  10
ATOM     10  C   UNL A   1      36.137  22.014  25.931  1.00  0.00     0.216 C 
BRANCH  10  11
ATOM     11  N   UNL A   1      35.619  20.836  25.233  1.00  0.00    -0.340 N 
ATOM     12  C   UNL A   1      34.319  20.464  24.915  1.00  0.00     0.292 C 
ATOM     13  O   UNL A   1      34.067  19.489  24.217  1.00  0.00    -0.265 OA
ATOM     14  H   UNL A   1      36.309  20.199  24.938  1.00  0.00     0.164 HD
BRANCH  12  15
ATOM     15  C   UNL A   1      33.161  21.312  25.401  1.00  0.00     0.252 C 
ATOM     16  O   UNL A   1      32.104  20.696  25.570  1.00  0.00    -0.283 OA
BRANCH  15  17
ATOM     17  C   UNL A   1      33.202  22.787  25.477  1.00  0.00     0.054 A 
ATOM     18  N   UNL A   1      33.454  24.985  25.971  1.00  0.00    -0.240 N 
ATOM     19  C   UNL A   1      33.319  23.712  26.531  1.00  0.00     0.117 A 
ATOM     20  C   UNL A   1      33.600  24.808  24.575  1.00  0.00     0.065 A 
ATOM     21  C   UNL A   1      33.015  23.579  24.310  1.00  0.00     0.012 A 
ATOM     22  C   UNL A   1      33.826  25.748  23.546  1.00  0.00     0.028 A 
ATOM     23  C   UNL A   1      32.455  23.354  23.037  1.00  0.00     0.011 A 
ATOM     24  C   UNL A   1      33.165  25.548  22.334  1.00  0.00     0.002 A 
ATOM     25  C   UNL A   1      32.452  24.382  22.096  1.00  0.00     0.001 A 
BRANCH  18  26
ATOM     26  S   UNL A   1      32.561  26.450  26.263  1.00  0.00     0.268 S 
ATOM     27  O   UNL A   1      33.623  27.364  26.671  1.00  0.00    -0.201 OA
ATOM     28  O   UNL A   1      31.590  25.968  27.245  1.00  0.00    -0.201 OA
BRANCH  26  29
ATOM     29  C   UNL A   1      31.502  27.489  25.330  1.00  0.00     0.088 A 
ATOM     30  C   UNL A   1      28.754  28.816  22.254  1.00  0.00     0.044 C 
ATOM     31  C   UNL A   1      29.680  28.419  23.367  1.00  0.00    -0.051 A 
ATOM     32  C   UNL A   1      29.554  27.128  23.850  1.00  0.00     0.005 A 
ATOM     33  C   UNL A   1      30.692  29.250  23.904  1.00  0.00     0.005 A 
ATOM     34  C   UNL A   1      30.437  26.690  24.817  1.00  0.00     0.022 A 
ATOM     35  C   UNL A   1      31.621  28.792  24.885  1.00  0.00     0.022 A 
ENDBRANCH  26  29
ENDBRANCH  18  26
ENDBRANCH  15  17
ENDBRANCH  12  15
ENDBRANCH  10  11
ENDBRANCH   7  10
ENDBRANCH   5   6
BRANCH   5  36
ATOM     36  C   UNL A   1      39.941  23.827  27.554  1.00  0.00     0.074 C 
BRANCH  36  37
ATOM     37  C   UNL A   1      40.260  25.189  26.940  1.00  0.00    -0.020 A 
ATOM     38  C   UNL A   1      41.026  25.429  25.809  1.00  0.00     0.087 A 
ATOM     39  C   UNL A   1      39.917  26.503  27.460  1.00  0.00     0.003 A 
ATOM     40  N   UNL A   1      41.380  26.755  25.804  1.00  0.00    -0.361 N 
ATOM     41  C   UNL A   1      40.683  27.444  26.762  1.00  0.00     0.046 A 
ATOM     42  C   UNL A   1      39.134  26.985  28.536  1.00  0.00     0.010 A 
ATOM     43  H   UNL A   1      42.044  27.155  25.196  1.00  0.00     0.166 HD
ATOM     44  C   UNL A   1      40.762  28.801  27.115  1.00  0.00     0.026 A 
ATOM     45  C   UNL A   1      39.158  28.353  28.868  1.00  0.00     0.001 A 
ATOM     46  C   UNL A   1      39.976  29.243  28.178  1.00  0.00     0.002 A 
ENDBRANCH  36  37
ENDBRANCH   5  36
ENDBRANCH   3   5
ENDBRANCH   2   3
ENDBRANCH   1   2
BRANCH   1  47
ATOM     47  C   UNL A   1      43.033  20.302  25.752  1.00  0.00     0.202 C 
BRANCH  47  48
ATOM     48  O   UNL A   1      43.334  21.445  24.977  1.00  0.00    -0.374 OA
BRANCH  48  49
ATOM     49  C   UNL A   1      44.689  21.635  24.659  1.00  0.00     0.202 C 
BRANCH  49  50
ATOM     50  C   UNL A   1      45.002  23.122  24.533  1.00  0.00     0.261 C 
BRANCH  50  51
ATOM     51  O   UNL A   1      44.506  23.791  25.716  1.00  0.00    -0.460 OA
BRANCH  51  52
ATOM     52  C   UNL A   1      45.406  24.613  26.338  1.00  0.00     0.338 C 
ATOM     53  O   UNL A   1      46.211  25.309  25.739  1.00  0.00    -0.246 OA
BRANCH  52  54
ATOM     54  C   UNL A   1      45.430  24.353  27.819  1.00  0.00     0.060 A 
ATOM     55  C   UNL A   1      44.380  23.644  28.428  1.00  0.00     0.016 A 
ATOM     56  C   UNL A   1      46.300  25.087  28.620  1.00  0.00     0.016 A 
ATOM     57  C   UNL A   1      44.090  23.813  29.798  1.00  0.00     0.010 A 
ATOM     58  C   UNL A   1      45.955  25.321  29.943  1.00  0.00     0.010 A 
ATOM     59  C   UNL A   1      44.813  24.737  30.535  1.00  0.00    -0.014 A 
BRANCH  59  60
ATOM     60  C   UNL A   1      44.533  25.180  31.917  1.00  0.00     0.031 A 
ATOM     61  C   UNL A   1      43.691  26.406  31.998  1.00  0.00     0.074 A 
ATOM     62  C   UNL A   1      44.734  24.430  33.042  1.00  0.00     0.049 A 
ATOM     63  N   UNL A   1      43.299  26.964  33.089  1.00  0.00    -0.248 NA
ATOM     64  C   UNL A   1      43.251  27.133  30.808  1.00  0.00     0.031 C 
ATOM     65  C   UNL A   1      43.920  24.508  34.258  1.00  0.00     0.029 A 
ATOM     66  N   UNL A   1      45.613  23.372  33.360  1.00  0.00    -0.354 N 
ATOM     67  C   UNL A   1      42.309  27.861  32.761  1.00  0.00     0.074 A 
ATOM     68  C   UNL A   1      42.431  28.039  31.341  1.00  0.00     0.031 C 
ATOM     69  C   UNL A   1      44.363  23.649  35.186  1.00  0.00     0.029 A 
ATOM     70  C   UNL A   1      45.681  23.246  34.762  1.00  0.00     0.049 A 
ATOM     71  H   UNL A   1      46.097  22.813  32.709  1.00  0.00     0.167 HD
ATOM     72  C   UNL A   1      41.422  28.227  33.727  1.00  0.00     0.034 A 
ATOM     73  C   UNL A   1      46.827  23.447  35.474  1.00  0.00     0.034 A 
ATOM     74  C   UNL A   1      41.894  27.763  35.058  1.00  0.00     0.049 A 
ATOM     75  C   UNL A   1      46.689  24.628  36.412  1.00  0.00     0.074 A 
ATOM     76  C   UNL A   1      41.490  26.765  35.929  1.00  0.00     0.029 A 
ATOM     77  N   UNL A   1      43.159  28.167  35.509  1.00  0.00    -0.354 N 
ATOM     78  N   UNL A   1      45.594  25.334  36.505  1.00  0.00    -0.248 NA
ATOM     79  C   UNL A   1      47.732  25.139  37.295  1.00  0.00     0.031 C 
ATOM     80  C   UNL A   1      42.579  26.490  36.820  1.00  0.00     0.029 A 
ATOM     81  C   UNL A   1      43.633  27.348  36.533  1.00  0.00     0.049 A 
ATOM     82  H   UNL A   1      43.653  28.938  35.148  1.00  0.00     0.167 HD
ATOM     83  C   UNL A   1      45.825  26.478  37.189  1.00  0.00     0.074 A 
ATOM     84  C   UNL A   1      47.138  26.247  37.778  1.00  0.00     0.031 C 
ATOM     85  C   UNL A   1      44.979  27.552  37.102  1.00  0.00     0.034 A 
BRANCH  72  86
ATOM     86  C   UNL A   1      40.040  28.841  33.469  1.00  0.00     0.023 A 
ATOM     87  C   UNL A   1      39.157  28.106  32.646  1.00  0.00     0.012 A 
ATOM     88  C   UNL A   1      39.546  30.106  33.898  1.00  0.00     0.148 A 
ATOM     89  C   UNL A   1      37.891  28.585  32.271  1.00  0.00     0.002 A 
ATOM     90  C   UNL A   1      38.264  30.566  33.566  1.00  0.00     0.091 A 
ATOM     91  F   UNL A   1      40.314  30.935  34.600  1.00  0.00    -0.205 F 
ATOM     92  C   UNL A   1      37.438  29.809  32.739  1.00  0.00     0.022 A 
BRANCH  90  93
ATOM     93  S   UNL A   1      37.599  32.140  34.162  1.00  0.00     0.127 S 
ATOM     94  O   UNL A   1      37.426  31.883  35.592  1.00  0.00    -0.237 OA
ATOM     95  O   UNL A   1      38.679  33.074  33.842  1.00  0.00    -0.237 OA
ATOM     96  O   UNL A   1      36.358  32.377  33.434  1.00  0.00    -0.744 OA
ENDBRANCH  90  93
ENDBRANCH  72  86
BRANCH  73  97
ATOM     97  C   UNL A   1      48.051  22.979  34.760  1.00  0.00     0.023 A 
ATOM     98  C   UNL A   1      48.870  23.965  34.154  1.00  0.00     0.012 A 
ATOM     99  C   UNL A   1      48.618  21.731  35.079  1.00  0.00     0.148 A 
ATOM    100  C   UNL A   1      50.238  23.747  33.960  1.00  0.00     0.002 A 
ATOM    101  C   UNL A   1      49.996  21.561  34.970  1.00  0.00     0.091 A 
ATOM    102  F   UNL A   1      47.821  20.784  35.591  1.00  0.00    -0.205 F 
ATOM    103  C   UNL A   1      50.809  22.570  34.425  1.00  0.00     0.022 A 
BRANCH 101 104
ATOM    104  S   UNL A   1      50.867  20.173  35.700  1.00  0.00     0.127 S 
ATOM    105  O   UNL A   1      50.974  19.257  34.567  1.00  0.00    -0.237 OA
ATOM    106  O   UNL A   1      52.128  20.806  36.089  1.00  0.00    -0.237 OA
ATOM    107  O   UNL A   1      50.037  19.707  36.799  1.00  0.00    -0.744 OA
ENDBRANCH 101 104
ENDBRANCH  73  97
BRANCH  85 108
ATOM    108  C   UNL A   1      45.424  28.921  37.541  1.00  0.00     0.023 A 
ATOM    109  C   UNL A   1      45.322  29.333  38.887  1.00  0.00     0.012 A 
ATOM    110  C   UNL A   1      46.083  29.792  36.650  1.00  0.00     0.148 A 
ATOM    111  C   UNL A   1      45.722  30.601  39.304  1.00  0.00     0.002 A 
ATOM    112  C   UNL A   1      46.605  30.998  37.101  1.00  0.00     0.091 A 
ATOM    113  F   UNL A   1      46.193  29.462  35.354  1.00  0.00    -0.205 F 
ATOM    114  C   UNL A   1      46.378  31.432  38.411  1.00  0.00     0.022 A 
BRANCH 112 115
ATOM    115  S   UNL A   1      47.731  31.949  36.080  1.00  0.00     0.127 S 
ATOM    116  O   UNL A   1      48.297  32.887  37.047  1.00  0.00    -0.237 OA
ATOM    117  O   UNL A   1      48.662  30.926  35.604  1.00  0.00    -0.237 OA
ATOM    118  O   UNL A   1      46.896  32.527  35.034  1.00  0.00    -0.744 OA
ENDBRANCH 112 115
ENDBRANCH  85 108
ENDBRANCH  59  60
ENDBRANCH  52  54
ENDBRANCH  51  52
ENDBRANCH  50  51
ENDBRANCH  49  50
ENDBRANCH  48  49
ENDBRANCH  47  48
ENDBRANCH   1  47
TORSDOF 26
ENDMDL
MODEL 2
REMARK VINA RESULT:     -10.7      2.742      3.723
REMARK SMILES Cc1ccc(S(=O)(=O)n2cc(C(=O)C(=O)NCC(=O)N[C@H](Cc3c[nH]c4ccccc34)C(=O)OCCOCCOC(=O)c3ccc(-c4c5nc(c(-c6cccc(S(=O)(=O)[O-])c6F)c6ccc([nH]6)c(-c6cccc(S(=O)(=O)[O-])c6F)c6nc(c(-c7cccc(S(=O)(=O)[O-])c7F)c7ccc4[nH]7)C=C6)C=C5)cc3)c3ccccc32)cc1
REMARK SMILES IDX 35 1 34 2 32 3 33 4 21 5 20 6 18 7 19 8 17 10 16 11 14 12
REMARK SMILES IDX 15 13 12 15 13 16 11 17 9 18 10 19 111 20 106 21 110 22
REMARK SMILES IDX 107 23 109 24 108 25 6 26 7 27 8 28 5 29 1 30 2 31 3 32
REMARK SMILES IDX 113 33 4 34 112 35 22 36 23 37 24 38 31 39 25 40 26 41 30 42
REMARK SMILES IDX 27 44 29 45 28 46 36 47 37 48 38 49 39 50 40 51 41 52 42 53
REMARK SMILES IDX 43 54 44 55 105 56 45 57 104 58 46 59 47 60 48 61 98 62
REMARK SMILES IDX 49 63 103 64 97 65 99 66 50 67 102 68 96 69 95 70 51 72
REMARK SMILES IDX 83 73 63 74 82 75 64 76 67 77 81 78 100 79 65 80 66 81 80 83
REMARK SMILES IDX 101 84 68 85 52 86 53 87 61 88 54 89 56 90 62 91 55 92 57 93
REMARK SMILES IDX 58 94 59 95 60 96 84 97 85 98 93 99 86 100 88 101 94 102
REMARK SMILES IDX 87 103 89 104 90 105 91 106 92 107 69 108 70 109 78 110
REMARK SMILES IDX 71 111 73 112 79 113 72 114 74 115 75 116 76 117 77 118
REMARK H PARENT 20 9 16 14 25 43 99 71 67 82
REMARK Flexibility Score: inf
ROOT
ATOM      1  C   UNL A   1      42.842  20.711  26.265  1.00  0.00     0.261 C 
ENDROOT
BRANCH   1   2
ATOM      2  O   UNL A   1      41.668  21.494  25.995  1.00  0.00    -0.462 OA
BRANCH   2   3
ATOM      3  C   UNL A   1      40.428  20.975  26.211  1.00  0.00     0.329 C 
ATOM      4  O   UNL A   1      40.056  19.837  26.046  1.00  0.00    -0.250 OA
BRANCH   3   5
ATOM      5  C   UNL A   1      39.488  22.082  26.667  1.00  0.00     0.196 C 
BRANCH   5   6
ATOM      6  N   UNL A   1      38.706  22.539  25.515  1.00  0.00    -0.341 N 
ATOM      7  C   UNL A   1      37.552  22.020  24.986  1.00  0.00     0.240 C 
ATOM      8  O   UNL A   1      37.042  22.671  24.064  1.00  0.00    -0.273 OA
ATOM      9  H   UNL A   1      39.061  23.333  25.055  1.00  0.00     0.164 HD
BRANCH   7  10
ATOM     10  C   UNL A   1      36.839  20.747  25.552  1.00  0.00     0.216 C 
BRANCH  10  11
ATOM     11  N   UNL A   1      35.633  20.242  24.893  1.00  0.00    -0.340 N 
ATOM     12  C   UNL A   1      34.291  20.529  25.107  1.00  0.00     0.292 C 
ATOM     13  O   UNL A   1      33.405  20.098  24.379  1.00  0.00    -0.265 OA
ATOM     14  H   UNL A   1      35.802  19.589  24.176  1.00  0.00     0.164 HD
BRANCH  12  15
ATOM     15  C   UNL A   1      33.897  21.445  26.248  1.00  0.00     0.252 C 
ATOM     16  O   UNL A   1      33.685  20.872  27.321  1.00  0.00    -0.283 OA
BRANCH  15  17
ATOM     17  C   UNL A   1      33.584  22.878  26.076  1.00  0.00     0.054 A 
ATOM     18  N   UNL A   1      33.207  25.109  26.224  1.00  0.00    -0.240 N 
ATOM     19  C   UNL A   1      33.235  23.919  26.956  1.00  0.00     0.117 A 
ATOM     20  C   UNL A   1      33.717  24.813  24.938  1.00  0.00     0.065 A 
ATOM     21  C   UNL A   1      33.505  23.452  24.776  1.00  0.00     0.012 A 
ATOM     22  C   UNL A   1      33.962  25.652  23.829  1.00  0.00     0.028 A 
ATOM     23  C   UNL A   1      33.329  22.942  23.474  1.00  0.00     0.011 A 
ATOM     24  C   UNL A   1      33.671  25.147  22.562  1.00  0.00     0.002 A 
ATOM     25  C   UNL A   1      33.318  23.817  22.390  1.00  0.00     0.001 A 
BRANCH  18  26
ATOM     26  S   UNL A   1      31.963  26.316  26.073  1.00  0.00     0.268 S 
ATOM     27  O   UNL A   1      32.666  27.518  26.507  1.00  0.00    -0.201 OA
ATOM     28  O   UNL A   1      30.927  25.725  26.921  1.00  0.00    -0.201 OA
BRANCH  26  29
ATOM     29  C   UNL A   1      30.938  26.918  24.784  1.00  0.00     0.088 A 
ATOM     30  C   UNL A   1      28.642  29.655  22.333  1.00  0.00     0.044 C 
ATOM     31  C   UNL A   1      29.441  28.656  23.118  1.00  0.00    -0.051 A 
ATOM     32  C   UNL A   1      30.627  29.105  23.673  1.00  0.00     0.005 A 
ATOM     33  C   UNL A   1      29.036  27.322  23.367  1.00  0.00     0.005 A 
ATOM     34  C   UNL A   1      31.356  28.246  24.471  1.00  0.00     0.022 A 
ATOM     35  C   UNL A   1      29.776  26.441  24.211  1.00  0.00     0.022 A 
ENDBRANCH  26  29
ENDBRANCH  18  26
ENDBRANCH  15  17
ENDBRANCH  12  15
ENDBRANCH  10  11
ENDBRANCH   7  10
ENDBRANCH   5   6
BRANCH   5  36
ATOM     36  C   UNL A   1      40.219  23.202  27.497  1.00  0.00     0.074 C 
BRANCH  36  37
ATOM     37  C   UNL A   1      40.394  24.605  26.916  1.00  0.00    -0.020 A 
ATOM     38  C   UNL A   1      41.104  24.947  25.776  1.00  0.00     0.087 A 
ATOM     39  C   UNL A   1      39.942  25.866  27.483  1.00  0.00     0.003 A 
ATOM     40  N   UNL A   1      41.333  26.299  25.801  1.00  0.00    -0.361 N 
ATOM     41  C   UNL A   1      40.599  26.894  26.796  1.00  0.00     0.046 A 
ATOM     42  C   UNL A   1      39.146  26.242  28.591  1.00  0.00     0.010 A 
ATOM     43  H   UNL A   1      41.940  26.777  25.190  1.00  0.00     0.166 HD
ATOM     44  C   UNL A   1      40.561  28.242  27.187  1.00  0.00     0.026 A 
ATOM     45  C   UNL A   1      39.051  27.596  28.963  1.00  0.00     0.001 A 
ATOM     46  C   UNL A   1      39.764  28.578  28.281  1.00  0.00     0.002 A 
ENDBRANCH  36  37
ENDBRANCH   5  36
ENDBRANCH   3   5
ENDBRANCH   2   3
ENDBRANCH   1   2
BRANCH   1  47
ATOM     47  C   UNL A   1      43.991  20.977  25.350  1.00  0.00     0.202 C 
BRANCH  47  48
ATOM     48  O   UNL A   1      43.792  22.274  24.826  1.00  0.00    -0.374 OA
BRANCH  48  49
ATOM     49  C   UNL A   1      44.941  23.073  24.702  1.00  0.00     0.202 C 
BRANCH  49  50
ATOM     50  C   UNL A   1      44.583  24.548  24.851  1.00  0.00     0.261 C 
BRANCH  50  51
ATOM     51  O   UNL A   1      44.380  24.825  26.257  1.00  0.00    -0.460 OA
BRANCH  51  52
ATOM     52  C   UNL A   1      44.952  25.983  26.709  1.00  0.00     0.338 C 
ATOM     53  O   UNL A   1      45.722  26.659  26.044  1.00  0.00    -0.246 OA
BRANCH  52  54
ATOM     54  C   UNL A   1      44.704  26.161  28.181  1.00  0.00     0.060 A 
ATOM     55  C   UNL A   1      43.536  25.642  28.767  1.00  0.00     0.016 A 
ATOM     56  C   UNL A   1      45.444  27.108  28.882  1.00  0.00     0.016 A 
ATOM     57  C   UNL A   1      43.015  26.194  29.955  1.00  0.00     0.010 A 
ATOM     58  C   UNL A   1      44.879  27.708  29.997  1.00  0.00     0.010 A 
ATOM     59  C   UNL A   1      43.630  27.303  30.515  1.00  0.00    -0.014 A 
BRANCH  59  60
ATOM     60  C   UNL A   1      43.127  28.120  31.638  1.00  0.00     0.031 A 
ATOM     61  C   UNL A   1      42.548  29.428  31.220  1.00  0.00     0.074 A 
ATOM     62  C   UNL A   1      42.906  27.666  32.908  1.00  0.00     0.049 A 
ATOM     63  N   UNL A   1      42.028  30.296  32.015  1.00  0.00    -0.248 NA
ATOM     64  C   UNL A   1      42.552  29.876  29.827  1.00  0.00     0.031 C 
ATOM     65  C   UNL A   1      41.860  28.164  33.807  1.00  0.00     0.029 A 
ATOM     66  N   UNL A   1      43.458  26.617  33.675  1.00  0.00    -0.354 N 
ATOM     67  C   UNL A   1      41.340  31.203  31.242  1.00  0.00     0.074 A 
ATOM     68  C   UNL A   1      41.825  30.990  29.907  1.00  0.00     0.031 C 
ATOM     69  C   UNL A   1      41.895  27.523  34.983  1.00  0.00     0.029 A 
ATOM     70  C   UNL A   1      43.170  26.851  35.035  1.00  0.00     0.049 A 
ATOM     71  H   UNL A   1      43.961  25.850  33.318  1.00  0.00     0.167 HD
ATOM     72  C   UNL A   1      40.341  31.921  31.825  1.00  0.00     0.034 A 
ATOM     73  C   UNL A   1      44.132  27.072  35.975  1.00  0.00     0.034 A 
ATOM     74  C   UNL A   1      40.387  31.757  33.302  1.00  0.00     0.049 A 
ATOM     75  C   UNL A   1      44.014  28.463  36.563  1.00  0.00     0.074 A 
ATOM     76  C   UNL A   1      39.601  31.082  34.221  1.00  0.00     0.029 A 
ATOM     77  N   UNL A   1      41.564  32.090  33.986  1.00  0.00    -0.354 N 
ATOM     78  N   UNL A   1      43.090  29.309  36.198  1.00  0.00    -0.248 NA
ATOM     79  C   UNL A   1      44.900  29.039  37.568  1.00  0.00     0.031 C 
ATOM     80  C   UNL A   1      40.374  30.902  35.414  1.00  0.00     0.029 A 
ATOM     81  C   UNL A   1      41.613  31.507  35.252  1.00  0.00     0.049 A 
ATOM     82  H   UNL A   1      42.272  32.668  33.619  1.00  0.00     0.167 HD
ATOM     83  C   UNL A   1      43.374  30.549  36.657  1.00  0.00     0.074 A 
ATOM     84  C   UNL A   1      44.440  30.303  37.620  1.00  0.00     0.031 C 
ATOM     85  C   UNL A   1      42.801  31.668  36.112  1.00  0.00     0.034 A 
BRANCH  72  86
ATOM     86  C   UNL A   1      39.208  32.629  31.071  1.00  0.00     0.023 A 
ATOM     87  C   UNL A   1      39.518  33.868  30.466  1.00  0.00     0.012 A 
ATOM     88  C   UNL A   1      37.845  32.230  30.956  1.00  0.00     0.148 A 
ATOM     89  C   UNL A   1      38.559  34.654  29.808  1.00  0.00     0.002 A 
ATOM     90  C   UNL A   1      36.895  32.989  30.258  1.00  0.00     0.091 A 
ATOM     91  F   UNL A   1      37.404  31.131  31.560  1.00  0.00    -0.205 F 
ATOM     92  C   UNL A   1      37.249  34.211  29.692  1.00  0.00     0.022 A 
BRANCH  90  93
ATOM     93  S   UNL A   1      35.178  32.460  30.046  1.00  0.00     0.127 S 
ATOM     94  O   UNL A   1      34.634  33.508  29.181  1.00  0.00    -0.237 OA
ATOM     95  O   UNL A   1      35.331  31.159  29.396  1.00  0.00    -0.237 OA
ATOM     96  O   UNL A   1      34.585  32.407  31.377  1.00  0.00    -0.744 OA
ENDBRANCH  90  93
ENDBRANCH  72  86
BRANCH  73  97
ATOM     97  C   UNL A   1      45.373  26.275  35.743  1.00  0.00     0.023 A 
ATOM     98  C   UNL A   1      46.496  26.957  35.213  1.00  0.00     0.012 A 
ATOM     99  C   UNL A   1      45.580  25.075  36.449  1.00  0.00     0.148 A 
ATOM    100  C   UNL A   1      47.797  26.507  35.461  1.00  0.00     0.002 A 
ATOM    101  C   UNL A   1      46.879  24.690  36.769  1.00  0.00     0.091 A 
ATOM    102  F   UNL A   1      44.508  24.404  36.889  1.00  0.00    -0.205 F 
ATOM    103  C   UNL A   1      47.988  25.409  36.290  1.00  0.00     0.022 A 
BRANCH 101 104
ATOM    104  S   UNL A   1      47.247  23.412  37.974  1.00  0.00     0.127 S 
ATOM    105  O   UNL A   1      46.820  22.205  37.271  1.00  0.00    -0.237 OA
ATOM    106  O   UNL A   1      48.698  23.557  38.104  1.00  0.00    -0.237 OA
ATOM    107  O   UNL A   1      46.477  23.743  39.163  1.00  0.00    -0.744 OA
ENDBRANCH 101 104
ENDBRANCH  73  97
BRANCH  85 108
ATOM    108  C   UNL A   1      43.393  33.031  36.353  1.00  0.00     0.023 A 
ATOM    109  C   UNL A   1      44.534  33.474  35.650  1.00  0.00     0.012 A 
ATOM    110  C   UNL A   1      42.751  33.965  37.191  1.00  0.00     0.148 A 
ATOM    111  C   UNL A   1      45.097  34.730  35.871  1.00  0.00     0.002 A 
ATOM    112  C   UNL A   1      43.236  35.262  37.301  1.00  0.00     0.091 A 
ATOM    113  F   UNL A   1      41.673  33.595  37.898  1.00  0.00    -0.205 F 
ATOM    114  C   UNL A   1      44.438  35.632  36.689  1.00  0.00     0.022 A 
BRANCH 112 115
ATOM    115  S   UNL A   1      42.254  36.547  38.077  1.00  0.00     0.127 S 
ATOM    116  O   UNL A   1      42.067  36.012  39.424  1.00  0.00    -0.237 OA
ATOM    117  O   UNL A   1      43.140  37.708  37.998  1.00  0.00    -0.237 OA
ATOM    118  O   UNL A   1      41.056  36.655  37.254  1.00  0.00    -0.744 OA
ENDBRANCH 112 115
ENDBRANCH  85 108
ENDBRANCH  59  60
ENDBRANCH  52  54
ENDBRANCH  51  52
ENDBRANCH  50  51
ENDBRANCH  49  50
ENDBRANCH  48  49
ENDBRANCH  47  48
ENDBRANCH   1  47
TORSDOF 26
ENDMDL
MODEL 3
REMARK VINA RESULT:     -10.6      2.562      3.157
REMARK SMILES Cc1ccc(S(=O)(=O)n2cc(C(=O)C(=O)NCC(=O)N[C@H](Cc3c[nH]c4ccccc34)C(=O)OCCOCCOC(=O)c3ccc(-c4c5nc(c(-c6cccc(S(=O)(=O)[O-])c6F)c6ccc([nH]6)c(-c6cccc(S(=O)(=O)[O-])c6F)c6nc(c(-c7cccc(S(=O)(=O)[O-])c7F)c7ccc4[nH]7)C=C6)C=C5)cc3)c3ccccc32)cc1
REMARK SMILES IDX 35 1 34 2 32 3 33 4 21 5 20 6 18 7 19 8 17 10 16 11 14 12
REMARK SMILES IDX 15 13 12 15 13 16 11 17 9 18 10 19 111 20 106 21 110 22
REMARK SMILES IDX 107 23 109 24 108 25 6 26 7 27 8 28 5 29 1 30 2 31 3 32
REMARK SMILES IDX 113 33 4 34 112 35 22 36 23 37 24 38 31 39 25 40 26 41 30 42
REMARK SMILES IDX 27 44 29 45 28 46 36 47 37 48 38 49 39 50 40 51 41 52 42 53
REMARK SMILES IDX 43 54 44 55 105 56 45 57 104 58 46 59 47 60 48 61 98 62
REMARK SMILES IDX 49 63 103 64 97 65 99 66 50 67 102 68 96 69 95 70 51 72
REMARK SMILES IDX 83 73 63 74 82 75 64 76 67 77 81 78 100 79 65 80 66 81 80 83
REMARK SMILES IDX 101 84 68 85 52 86 53 87 61 88 54 89 56 90 62 91 55 92 57 93
REMARK SMILES IDX 58 94 59 95 60 96 84 97 85 98 93 99 86 100 88 101 94 102
REMARK SMILES IDX 87 103 89 104 90 105 91 106 92 107 69 108 70 109 78 110
REMARK SMILES IDX 71 111 73 112 79 113 72 114 74 115 75 116 76 117 77 118
REMARK H PARENT 20 9 16 14 25 43 99 71 67 82
REMARK Flexibility Score: inf
ROOT
ATOM      1  C   UNL A   1      42.319  20.946  27.059  1.00  0.00     0.261 C 
ENDROOT
BRANCH   1   2
ATOM      2  O   UNL A   1      41.396  21.999  26.738  1.00  0.00    -0.462 OA
BRANCH   2   3
ATOM      3  C   UNL A   1      40.090  21.716  26.478  1.00  0.00     0.329 C 
ATOM      4  O   UNL A   1      39.631  20.731  25.947  1.00  0.00    -0.250 OA
BRANCH   3   5
ATOM      5  C   UNL A   1      39.221  22.886  26.915  1.00  0.00     0.196 C 
BRANCH   5   6
ATOM      6  N   UNL A   1      38.485  23.387  25.752  1.00  0.00    -0.341 N 
ATOM      7  C   UNL A   1      37.221  23.071  25.320  1.00  0.00     0.240 C 
ATOM      8  O   UNL A   1      36.803  23.725  24.356  1.00  0.00    -0.273 OA
ATOM      9  H   UNL A   1      38.966  24.045  25.201  1.00  0.00     0.164 HD
BRANCH   7  10
ATOM     10  C   UNL A   1      36.299  22.030  26.038  1.00  0.00     0.216 C 
BRANCH  10  11
ATOM     11  N   UNL A   1      35.936  20.791  25.349  1.00  0.00    -0.340 N 
ATOM     12  C   UNL A   1      34.697  20.218  25.096  1.00  0.00     0.292 C 
ATOM     13  O   UNL A   1      34.565  19.222  24.395  1.00  0.00    -0.265 OA
ATOM     14  H   UNL A   1      36.702  20.276  25.004  1.00  0.00     0.164 HD
BRANCH  12  15
ATOM     15  C   UNL A   1      33.448  20.865  25.661  1.00  0.00     0.252 C 
ATOM     16  O   UNL A   1      32.552  20.074  25.971  1.00  0.00    -0.283 OA
BRANCH  15  17
ATOM     17  C   UNL A   1      33.210  22.323  25.662  1.00  0.00     0.054 A 
ATOM     18  N   UNL A   1      32.937  24.535  26.079  1.00  0.00    -0.240 N 
ATOM     19  C   UNL A   1      32.884  23.264  26.657  1.00  0.00     0.117 A 
ATOM     20  C   UNL A   1      33.472  24.375  24.779  1.00  0.00     0.065 A 
ATOM     21  C   UNL A   1      33.200  23.057  24.443  1.00  0.00     0.012 A 
ATOM     22  C   UNL A   1      33.792  25.330  23.791  1.00  0.00     0.028 A 
ATOM     23  C   UNL A   1      33.041  22.721  23.083  1.00  0.00     0.011 A 
ATOM     24  C   UNL A   1      33.517  25.002  22.463  1.00  0.00     0.002 A 
ATOM     25  C   UNL A   1      33.106  23.723  22.117  1.00  0.00     0.001 A 
BRANCH  18  26
ATOM     26  S   UNL A   1      31.758  25.814  26.049  1.00  0.00     0.268 S 
ATOM     27  O   UNL A   1      32.473  26.887  26.732  1.00  0.00    -0.201 OA
ATOM     28  O   UNL A   1      30.636  25.145  26.707  1.00  0.00    -0.201 OA
BRANCH  26  29
ATOM     29  C   UNL A   1      30.864  26.678  24.813  1.00  0.00     0.088 A 
ATOM     30  C   UNL A   1      29.037  29.937  22.619  1.00  0.00     0.044 C 
ATOM     31  C   UNL A   1      29.669  28.763  23.310  1.00  0.00    -0.051 A 
ATOM     32  C   UNL A   1      30.888  28.986  23.926  1.00  0.00     0.005 A 
ATOM     33  C   UNL A   1      29.077  27.481  23.416  1.00  0.00     0.005 A 
ATOM     34  C   UNL A   1      31.469  27.959  24.643  1.00  0.00     0.022 A 
ATOM     35  C   UNL A   1      29.664  26.427  24.177  1.00  0.00     0.022 A 
ENDBRANCH  26  29
ENDBRANCH  18  26
ENDBRANCH  15  17
ENDBRANCH  12  15
ENDBRANCH  10  11
ENDBRANCH   7  10
ENDBRANCH   5   6
BRANCH   5  36
ATOM     36  C   UNL A   1      40.016  23.961  27.747  1.00  0.00     0.074 C 
BRANCH  36  37
ATOM     37  C   UNL A   1      40.306  25.339  27.153  1.00  0.00    -0.020 A 
ATOM     38  C   UNL A   1      40.809  25.607  25.889  1.00  0.00     0.087 A 
ATOM     39  C   UNL A   1      40.210  26.631  27.813  1.00  0.00     0.003 A 
ATOM     40  N   UNL A   1      41.270  26.899  25.875  1.00  0.00    -0.361 N 
ATOM     41  C   UNL A   1      40.877  27.564  27.009  1.00  0.00     0.046 A 
ATOM     42  C   UNL A   1      39.742  27.086  29.068  1.00  0.00     0.010 A 
ATOM     43  H   UNL A   1      41.809  27.295  25.152  1.00  0.00     0.166 HD
ATOM     44  C   UNL A   1      41.156  28.880  27.410  1.00  0.00     0.026 A 
ATOM     45  C   UNL A   1      39.964  28.419  29.462  1.00  0.00     0.001 A 
ATOM     46  C   UNL A   1      40.677  29.297  28.651  1.00  0.00     0.002 A 
ENDBRANCH  36  37
ENDBRANCH   5  36
ENDBRANCH   3   5
ENDBRANCH   2   3
ENDBRANCH   1   2
BRANCH   1  47
ATOM     47  C   UNL A   1      43.069  20.399  25.890  1.00  0.00     0.202 C 
BRANCH  47  48
ATOM     48  O   UNL A   1      43.346  21.496  25.044  1.00  0.00    -0.374 OA
BRANCH  48  49
ATOM     49  C   UNL A   1      44.629  21.527  24.473  1.00  0.00     0.202 C 
BRANCH  49  50
ATOM     50  C   UNL A   1      45.055  22.965  24.196  1.00  0.00     0.261 C 
BRANCH  50  51
ATOM     51  O   UNL A   1      44.655  23.781  25.324  1.00  0.00    -0.460 OA
BRANCH  51  52
ATOM     52  C   UNL A   1      45.684  24.258  26.089  1.00  0.00     0.338 C 
ATOM     53  O   UNL A   1      46.841  24.316  25.703  1.00  0.00    -0.246 OA
BRANCH  52  54
ATOM     54  C   UNL A   1      45.242  24.457  27.512  1.00  0.00     0.060 A 
ATOM     55  C   UNL A   1      43.906  24.797  27.795  1.00  0.00     0.016 A 
ATOM     56  C   UNL A   1      46.204  24.633  28.501  1.00  0.00     0.016 A 
ATOM     57  C   UNL A   1      43.569  25.475  28.984  1.00  0.00     0.010 A 
ATOM     58  C   UNL A   1      45.882  25.381  29.624  1.00  0.00     0.010 A 
ATOM     59  C   UNL A   1      44.575  25.865  29.853  1.00  0.00    -0.014 A 
BRANCH  59  60
ATOM     60  C   UNL A   1      44.433  26.734  31.040  1.00  0.00     0.031 A 
ATOM     61  C   UNL A   1      44.368  28.188  30.717  1.00  0.00     0.074 A 
ATOM     62  C   UNL A   1      44.088  26.310  32.292  1.00  0.00     0.049 A 
ATOM     63  N   UNL A   1      44.222  29.131  31.579  1.00  0.00    -0.248 NA
ATOM     64  C   UNL A   1      44.507  28.693  29.351  1.00  0.00     0.031 C 
ATOM     65  C   UNL A   1      43.319  27.096  33.261  1.00  0.00     0.029 A 
ATOM     66  N   UNL A   1      44.231  25.084  32.977  1.00  0.00    -0.354 N 
ATOM     67  C   UNL A   1      43.900  30.276  30.887  1.00  0.00     0.074 A 
ATOM     68  C   UNL A   1      44.243  29.988  29.522  1.00  0.00     0.031 C 
ATOM     69  C   UNL A   1      43.139  26.411  34.398  1.00  0.00     0.029 A 
ATOM     70  C   UNL A   1      44.078  25.317  34.359  1.00  0.00     0.049 A 
ATOM     71  H   UNL A   1      44.409  24.211  32.558  1.00  0.00     0.167 HD
ATOM     72  C   UNL A   1      43.248  31.270  31.550  1.00  0.00     0.034 A 
ATOM     73  C   UNL A   1      45.074  25.108  35.266  1.00  0.00     0.034 A 
ATOM     74  C   UNL A   1      43.262  31.004  33.013  1.00  0.00     0.049 A 
ATOM     75  C   UNL A   1      45.489  26.403  35.931  1.00  0.00     0.074 A 
ATOM     76  C   UNL A   1      42.302  30.605  33.929  1.00  0.00     0.029 A 
ATOM     77  N   UNL A   1      44.494  30.837  33.662  1.00  0.00    -0.354 N 
ATOM     78  N   UNL A   1      44.934  27.552  35.653  1.00  0.00    -0.248 NA
ATOM     79  C   UNL A   1      46.547  26.547  36.926  1.00  0.00     0.031 C 
ATOM     80  C   UNL A   1      42.980  30.077  35.076  1.00  0.00     0.029 A 
ATOM     81  C   UNL A   1      44.351  30.195  34.891  1.00  0.00     0.049 A 
ATOM     82  H   UNL A   1      45.356  31.138  33.295  1.00  0.00     0.167 HD
ATOM     83  C   UNL A   1      45.665  28.568  36.164  1.00  0.00     0.074 A 
ATOM     84  C   UNL A   1      46.586  27.886  37.065  1.00  0.00     0.031 C 
ATOM     85  C   UNL A   1      45.533  29.852  35.706  1.00  0.00     0.034 A 
BRANCH  72  86
ATOM     86  C   UNL A   1      42.439  32.391  30.886  1.00  0.00     0.023 A 
ATOM     87  C   UNL A   1      41.032  32.313  30.991  1.00  0.00     0.012 A 
ATOM     88  C   UNL A   1      42.922  33.481  30.105  1.00  0.00     0.148 A 
ATOM     89  C   UNL A   1      40.171  33.232  30.369  1.00  0.00     0.002 A 
ATOM     90  C   UNL A   1      42.068  34.427  29.524  1.00  0.00     0.091 A 
ATOM     91  F   UNL A   1      44.221  33.614  29.853  1.00  0.00    -0.205 F 
ATOM     92  C   UNL A   1      40.687  34.296  29.645  1.00  0.00     0.022 A 
BRANCH  90  93
ATOM     93  S   UNL A   1      42.672  35.854  28.588  1.00  0.00     0.127 S 
ATOM     94  O   UNL A   1      41.428  36.471  28.125  1.00  0.00    -0.237 OA
ATOM     95  O   UNL A   1      43.382  36.619  29.613  1.00  0.00    -0.237 OA
ATOM     96  O   UNL A   1      43.521  35.332  27.524  1.00  0.00    -0.744 OA
ENDBRANCH  90  93
ENDBRANCH  72  86
BRANCH  73  97
ATOM     97  C   UNL A   1      45.929  23.929  34.937  1.00  0.00     0.023 A 
ATOM     98  C   UNL A   1      47.246  24.185  34.483  1.00  0.00     0.012 A 
ATOM     99  C   UNL A   1      45.639  22.671  35.499  1.00  0.00     0.148 A 
ATOM    100  C   UNL A   1      48.269  23.250  34.671  1.00  0.00     0.002 A 
ATOM    101  C   UNL A   1      46.682  21.788  35.767  1.00  0.00     0.091 A 
ATOM    102  F   UNL A   1      44.376  22.416  35.865  1.00  0.00    -0.205 F 
ATOM    103  C   UNL A   1      47.998  22.079  35.367  1.00  0.00     0.022 A 
BRANCH 101 104
ATOM    104  S   UNL A   1      46.491  20.345  36.815  1.00  0.00     0.127 S 
ATOM    105  O   UNL A   1      45.839  20.914  37.993  1.00  0.00    -0.237 OA
ATOM    106  O   UNL A   1      45.622  19.508  35.986  1.00  0.00    -0.237 OA
ATOM    107  O   UNL A   1      47.832  19.826  37.037  1.00  0.00    -0.744 OA
ENDBRANCH 101 104
ENDBRANCH  73  97
BRANCH  85 108
ATOM    108  C   UNL A   1      46.590  30.885  35.993  1.00  0.00     0.023 A 
ATOM    109  C   UNL A   1      47.876  30.802  35.417  1.00  0.00     0.012 A 
ATOM    110  C   UNL A   1      46.292  32.043  36.739  1.00  0.00     0.148 A 
ATOM    111  C   UNL A   1      48.867  31.746  35.682  1.00  0.00     0.002 A 
ATOM    112  C   UNL A   1      47.239  33.049  36.884  1.00  0.00     0.091 A 
ATOM    113  F   UNL A   1      45.092  32.168  37.325  1.00  0.00    -0.205 F 
ATOM    114  C   UNL A   1      48.543  32.881  36.407  1.00  0.00     0.022 A 
BRANCH 112 115
ATOM    115  S   UNL A   1      46.776  34.659  37.525  1.00  0.00     0.127 S 
ATOM    116  O   UNL A   1      46.414  34.342  38.905  1.00  0.00    -0.237 OA
ATOM    117  O   UNL A   1      48.016  35.422  37.378  1.00  0.00    -0.237 OA
ATOM    118  O   UNL A   1      45.693  35.112  36.662  1.00  0.00    -0.744 OA
ENDBRANCH 112 115
ENDBRANCH  85 108
ENDBRANCH  59  60
ENDBRANCH  52  54
ENDBRANCH  51  52
ENDBRANCH  50  51
ENDBRANCH  49  50
ENDBRANCH  48  49
ENDBRANCH  47  48
ENDBRANCH   1  47
TORSDOF 26
ENDMDL
