MODEL 1
REMARK VINA RESULT:      -7.9      0.000      0.000
REMARK SMILES CC[C@H](C)[C@H](NC(=O)N1CCc2cc(OC)c(OC)cc2[C@@H]1c1ccc(F)cc1)C(=O)OCCOCCOC(=O)c1ccc(-c2c3nc(c(-c4cccc(S(=O)(=O)[O-])c4F)c4ccc([nH]4)c(-c4cccc(S(=O)(=O)[O-])c4F)c4nc(c(-c5cccc(S(=O)(=O)[O-])c5F)c5ccc2[nH]5)C=C4)C=C3)cc1
REMARK SMILES IDX 35 1 34 2 33 3 32 4 30 5 31 6 5 7 3 8 4 9 2 10 1 11 6 12
REMARK SMILES IDX 7 13 8 15 9 16 10 17 22 18 11 19 21 20 12 21 20 22 13 23
REMARK SMILES IDX 17 24 14 25 23 26 24 27 29 28 25 29 28 30 26 31 27 32 18 33
REMARK SMILES IDX 19 34 15 35 16 36 36 37 37 38 38 39 39 40 40 41 41 42 42 43
REMARK SMILES IDX 103 44 43 45 102 46 44 47 45 48 46 49 96 50 47 51 101 52
REMARK SMILES IDX 95 53 97 54 48 55 100 56 94 57 93 58 49 60 81 61 61 62 80 63
REMARK SMILES IDX 62 64 65 65 79 66 98 67 63 68 64 69 78 71 99 72 66 73 50 74
REMARK SMILES IDX 51 75 59 76 52 77 54 78 60 79 53 80 55 81 56 82 57 83 58 84
REMARK SMILES IDX 82 85 83 86 91 87 84 88 86 89 92 90 85 91 87 92 88 93 89 94
REMARK SMILES IDX 90 95 67 96 68 97 76 98 69 99 71 100 77 101 70 102 72 103
REMARK SMILES IDX 73 104 74 105 75 106
REMARK H PARENT 6 14 97 59 65 70
REMARK Flexibility Score: inf
ROOT
ATOM      1  O   UNL A   1      36.623  32.911  31.041  1.00  0.00    -0.374 OA
ENDROOT
BRANCH   1   2
ATOM      2  C   UNL A   1      38.033  32.776  31.361  1.00  0.00     0.202 C 
BRANCH   2   3
ATOM      3  C   UNL A   1      38.835  33.994  31.837  1.00  0.00     0.261 C 
BRANCH   3   4
ATOM      4  O   UNL A   1      39.373  33.724  33.109  1.00  0.00    -0.462 OA
BRANCH   4   5
ATOM      5  C   UNL A   1      38.592  34.287  34.056  1.00  0.00     0.329 C 
ATOM      6  O   UNL A   1      37.590  34.960  33.833  1.00  0.00    -0.250 OA
BRANCH   5   7
ATOM      7  C   UNL A   1      39.140  34.026  35.434  1.00  0.00     0.196 C 
BRANCH   7   8
ATOM      8  C   UNL A   1      38.369  32.907  36.215  1.00  0.00     0.019 C 
ATOM      9  C   UNL A   1      38.870  31.494  35.873  1.00  0.00     0.010 C 
BRANCH   8  10
ATOM     10  C   UNL A   1      38.321  33.076  37.749  1.00  0.00     0.002 C 
ATOM     11  C   UNL A   1      37.262  32.221  38.443  1.00  0.00     0.004 C 
ENDBRANCH   8  10
ENDBRANCH   7   8
BRANCH   7  12
ATOM     12  N   UNL A   1      39.501  35.197  36.273  1.00  0.00    -0.324 N 
ATOM     13  C   UNL A   1      40.490  35.988  36.734  1.00  0.00     0.318 C 
ATOM     14  H   UNL A   1      38.662  35.543  36.654  1.00  0.00     0.166 HD
ATOM     15  O   UNL A   1      39.978  36.859  37.444  1.00  0.00    -0.249 OA
BRANCH  13  16
ATOM     16  N   UNL A   1      41.823  36.010  36.250  1.00  0.00    -0.313 N 
ATOM     17  C   UNL A   1      41.568  36.434  34.859  1.00  0.00     0.127 C 
ATOM     18  C   UNL A   1      43.230  36.748  36.954  1.00  0.00     0.148 C 
ATOM     19  C   UNL A   1      42.762  36.648  33.966  1.00  0.00     0.057 C 
ATOM     20  C   UNL A   1      43.787  37.791  35.950  1.00  0.00    -0.014 A 
ATOM     21  C   UNL A   1      43.647  37.690  34.569  1.00  0.00    -0.037 A 
ATOM     22  C   UNL A   1      44.321  38.992  36.451  1.00  0.00     0.057 A 
ATOM     23  C   UNL A   1      44.207  38.679  33.746  1.00  0.00     0.054 A 
ATOM     24  C   UNL A   1      44.891  39.980  35.658  1.00  0.00     0.161 A 
ATOM     25  C   UNL A   1      44.845  39.810  34.278  1.00  0.00     0.161 A 
BRANCH  18  26
ATOM     26  C   UNL A   1      44.517  36.131  37.897  1.00  0.00    -0.021 A 
ATOM     27  C   UNL A   1      44.365  36.035  39.311  1.00  0.00     0.009 A 
ATOM     28  C   UNL A   1      45.754  35.552  37.558  1.00  0.00     0.009 A 
ATOM     29  C   UNL A   1      45.382  35.681  40.236  1.00  0.00     0.039 A 
ATOM     30  C   UNL A   1      46.808  35.206  38.442  1.00  0.00     0.039 A 
ATOM     31  C   UNL A   1      46.627  35.325  39.790  1.00  0.00     0.123 A 
ATOM     32  F   UNL A   1      47.612  35.018  40.641  1.00  0.00    -0.207 F 
ENDBRANCH  18  26
BRANCH  24  33
ATOM     33  O   UNL A   1      45.497  41.077  36.206  1.00  0.00    -0.493 OA
ATOM     34  C   UNL A   1      44.666  41.984  36.927  1.00  0.00     0.278 C 
ENDBRANCH  24  33
BRANCH  25  35
ATOM     35  O   UNL A   1      45.323  40.667  33.324  1.00  0.00    -0.493 OA
ATOM     36  C   UNL A   1      46.266  40.117  32.411  1.00  0.00     0.278 C 
ENDBRANCH  25  35
ENDBRANCH  13  16
ENDBRANCH   7  12
ENDBRANCH   5   7
ENDBRANCH   4   5
ENDBRANCH   3   4
ENDBRANCH   2   3
ENDBRANCH   1   2
BRANCH   1  37
ATOM     37  C   UNL A   1      35.818  33.530  29.972  1.00  0.00     0.202 C 
BRANCH  37  38
ATOM     38  C   UNL A   1      34.528  33.150  28.963  1.00  0.00     0.261 C 
BRANCH  38  39
ATOM     39  O   UNL A   1      34.696  32.130  27.874  1.00  0.00    -0.460 OA
BRANCH  39  40
ATOM     40  C   UNL A   1      34.916  30.761  27.956  1.00  0.00     0.338 C 
ATOM     41  O   UNL A   1      34.161  29.946  27.440  1.00  0.00    -0.246 OA
BRANCH  40  42
ATOM     42  C   UNL A   1      36.281  30.293  28.622  1.00  0.00     0.060 A 
ATOM     43  C   UNL A   1      37.521  30.606  28.074  1.00  0.00     0.016 A 
ATOM     44  C   UNL A   1      36.400  29.417  29.703  1.00  0.00     0.016 A 
ATOM     45  C   UNL A   1      38.775  30.065  28.410  1.00  0.00     0.010 A 
ATOM     46  C   UNL A   1      37.694  28.926  30.148  1.00  0.00     0.010 A 
ATOM     47  C   UNL A   1      38.912  29.208  29.474  1.00  0.00    -0.014 A 
BRANCH  47  48
ATOM     48  C   UNL A   1      40.256  28.550  29.741  1.00  0.00     0.031 A 
ATOM     49  C   UNL A   1      41.131  29.120  30.835  1.00  0.00     0.074 A 
ATOM     50  C   UNL A   1      40.698  27.392  29.175  1.00  0.00     0.049 A 
ATOM     51  N   UNL A   1      42.398  28.919  31.093  1.00  0.00    -0.248 NA
ATOM     52  C   UNL A   1      40.468  30.018  31.791  1.00  0.00     0.031 C 
ATOM     53  C   UNL A   1      39.947  26.517  28.272  1.00  0.00     0.029 A 
ATOM     54  N   UNL A   1      41.924  26.745  29.282  1.00  0.00    -0.354 N 
ATOM     55  C   UNL A   1      42.701  29.745  32.170  1.00  0.00     0.074 A 
ATOM     56  C   UNL A   1      41.473  30.398  32.562  1.00  0.00     0.031 C 
ATOM     57  C   UNL A   1      40.710  25.469  27.915  1.00  0.00     0.029 A 
ATOM     58  C   UNL A   1      42.057  25.652  28.444  1.00  0.00     0.049 A 
ATOM     59  H   UNL A   1      42.633  27.038  29.898  1.00  0.00     0.167 HD
ATOM     60  C   UNL A   1      43.898  29.976  32.758  1.00  0.00     0.034 A 
ATOM     61  C   UNL A   1      43.139  24.929  28.063  1.00  0.00     0.034 A 
ATOM     62  C   UNL A   1      45.120  29.317  32.392  1.00  0.00     0.049 A 
ATOM     63  C   UNL A   1      44.502  25.297  28.599  1.00  0.00     0.074 A 
ATOM     64  C   UNL A   1      46.399  29.559  32.860  1.00  0.00     0.029 A 
ATOM     65  N   UNL A   1      45.217  28.288  31.472  1.00  0.00    -0.354 N 
ATOM     66  N   UNL A   1      44.813  26.174  29.522  1.00  0.00    -0.248 NA
ATOM     67  C   UNL A   1      45.667  24.594  28.033  1.00  0.00     0.031 C 
ATOM     68  C   UNL A   1      47.278  28.708  32.184  1.00  0.00     0.029 A 
ATOM     69  C   UNL A   1      46.536  27.896  31.341  1.00  0.00     0.049 A 
ATOM     70  H   UNL A   1      44.458  27.892  30.985  1.00  0.00     0.167 HD
ATOM     71  C   UNL A   1      46.197  26.114  29.661  1.00  0.00     0.074 A 
ATOM     72  C   UNL A   1      46.669  25.101  28.743  1.00  0.00     0.031 C 
ATOM     73  C   UNL A   1      47.001  26.849  30.467  1.00  0.00     0.034 A 
BRANCH  60  74
ATOM     74  C   UNL A   1      43.961  31.065  33.794  1.00  0.00     0.023 A 
ATOM     75  C   UNL A   1      44.260  32.392  33.434  1.00  0.00     0.012 A 
ATOM     76  C   UNL A   1      43.692  30.753  35.144  1.00  0.00     0.148 A 
ATOM     77  C   UNL A   1      44.323  33.389  34.409  1.00  0.00     0.002 A 
ATOM     78  C   UNL A   1      43.709  31.759  36.100  1.00  0.00     0.091 A 
ATOM     79  F   UNL A   1      43.433  29.478  35.464  1.00  0.00    -0.205 F 
ATOM     80  C   UNL A   1      44.038  33.074  35.737  1.00  0.00     0.022 A 
BRANCH  78  81
ATOM     81  S   UNL A   1      43.285  31.459  37.819  1.00  0.00     0.127 S 
ATOM     82  O   UNL A   1      44.090  30.270  38.114  1.00  0.00    -0.237 OA
ATOM     83  O   UNL A   1      43.762  32.687  38.465  1.00  0.00    -0.237 OA
ATOM     84  O   UNL A   1      41.852  31.263  37.859  1.00  0.00    -0.744 OA
ENDBRANCH  78  81
ENDBRANCH  60  74
BRANCH  61  85
ATOM     85  C   UNL A   1      43.005  23.830  27.045  1.00  0.00     0.023 A 
ATOM     86  C   UNL A   1      43.515  24.000  25.741  1.00  0.00     0.012 A 
ATOM     87  C   UNL A   1      42.370  22.611  27.366  1.00  0.00     0.148 A 
ATOM     88  C   UNL A   1      43.395  22.986  24.785  1.00  0.00     0.002 A 
ATOM     89  C   UNL A   1      42.319  21.579  26.434  1.00  0.00     0.091 A 
ATOM     90  F   UNL A   1      41.837  22.476  28.588  1.00  0.00    -0.205 F 
ATOM     91  C   UNL A   1      42.815  21.769  25.136  1.00  0.00     0.022 A 
BRANCH  89  92
ATOM     92  S   UNL A   1      41.724  19.933  26.844  1.00  0.00     0.127 S 
ATOM     93  O   UNL A   1      42.636  19.539  27.915  1.00  0.00    -0.237 OA
ATOM     94  O   UNL A   1      40.353  20.211  27.273  1.00  0.00    -0.237 OA
ATOM     95  O   UNL A   1      41.825  19.156  25.616  1.00  0.00    -0.744 OA
ENDBRANCH  89  92
ENDBRANCH  61  85
BRANCH  73  96
ATOM     96  C   UNL A   1      48.484  26.584  30.453  1.00  0.00     0.023 A 
ATOM     97  C   UNL A   1      49.327  27.329  29.607  1.00  0.00     0.012 A 
ATOM     98  C   UNL A   1      49.053  25.702  31.396  1.00  0.00     0.148 A 
ATOM     99  C   UNL A   1      50.714  27.195  29.693  1.00  0.00     0.002 A 
ATOM    100  C   UNL A   1      50.434  25.614  31.513  1.00  0.00     0.091 A 
ATOM    101  F   UNL A   1      48.230  24.991  32.181  1.00  0.00    -0.205 F 
ATOM    102  C   UNL A   1      51.266  26.352  30.656  1.00  0.00     0.022 A 
BRANCH 100 103
ATOM    103  S   UNL A   1      51.234  24.647  32.800  1.00  0.00     0.127 S 
ATOM    104  O   UNL A   1      52.643  24.971  32.584  1.00  0.00    -0.237 OA
ATOM    105  O   UNL A   1      50.656  25.216  34.018  1.00  0.00    -0.237 OA
ATOM    106  O   UNL A   1      50.870  23.259  32.547  1.00  0.00    -0.744 OA
ENDBRANCH 100 103
ENDBRANCH  73  96
ENDBRANCH  47  48
ENDBRANCH  40  42
ENDBRANCH  39  40
ENDBRANCH  38  39
ENDBRANCH  37  38
ENDBRANCH   1  37
TORSDOF 24
ENDMDL
MODEL 2
REMARK VINA RESULT:      -7.8      2.661      7.962
REMARK SMILES CC[C@H](C)[C@H](NC(=O)N1CCc2cc(OC)c(OC)cc2[C@@H]1c1ccc(F)cc1)C(=O)OCCOCCOC(=O)c1ccc(-c2c3nc(c(-c4cccc(S(=O)(=O)[O-])c4F)c4ccc([nH]4)c(-c4cccc(S(=O)(=O)[O-])c4F)c4nc(c(-c5cccc(S(=O)(=O)[O-])c5F)c5ccc2[nH]5)C=C4)C=C3)cc1
REMARK SMILES IDX 35 1 34 2 33 3 32 4 30 5 31 6 5 7 3 8 4 9 2 10 1 11 6 12
REMARK SMILES IDX 7 13 8 15 9 16 10 17 22 18 11 19 21 20 12 21 20 22 13 23
REMARK SMILES IDX 17 24 14 25 23 26 24 27 29 28 25 29 28 30 26 31 27 32 18 33
REMARK SMILES IDX 19 34 15 35 16 36 36 37 37 38 38 39 39 40 40 41 41 42 42 43
REMARK SMILES IDX 103 44 43 45 102 46 44 47 45 48 46 49 96 50 47 51 101 52
REMARK SMILES IDX 95 53 97 54 48 55 100 56 94 57 93 58 49 60 81 61 61 62 80 63
REMARK SMILES IDX 62 64 65 65 79 66 98 67 63 68 64 69 78 71 99 72 66 73 50 74
REMARK SMILES IDX 51 75 59 76 52 77 54 78 60 79 53 80 55 81 56 82 57 83 58 84
REMARK SMILES IDX 82 85 83 86 91 87 84 88 86 89 92 90 85 91 87 92 88 93 89 94
REMARK SMILES IDX 90 95 67 96 68 97 76 98 69 99 71 100 77 101 70 102 72 103
REMARK SMILES IDX 73 104 74 105 75 106
REMARK H PARENT 6 14 97 59 65 70
REMARK Flexibility Score: inf
ROOT
ATOM      1  O   UNL A   1      36.191  33.277  31.265  1.00  0.00    -0.374 OA
ENDROOT
BRANCH   1   2
ATOM      2  C   UNL A   1      37.525  33.081  31.803  1.00  0.00     0.202 C 
BRANCH   2   3
ATOM      3  C   UNL A   1      38.572  34.196  31.693  1.00  0.00     0.261 C 
BRANCH   3   4
ATOM      4  O   UNL A   1      39.564  33.997  32.671  1.00  0.00    -0.462 OA
BRANCH   4   5
ATOM      5  C   UNL A   1      39.087  34.370  33.877  1.00  0.00     0.329 C 
ATOM      6  O   UNL A   1      38.161  35.155  34.055  1.00  0.00    -0.250 OA
BRANCH   5   7
ATOM      7  C   UNL A   1      39.877  33.734  34.990  1.00  0.00     0.196 C 
BRANCH   7   8
ATOM      8  C   UNL A   1      38.988  32.999  36.051  1.00  0.00     0.019 C 
ATOM      9  C   UNL A   1      38.507  33.936  37.171  1.00  0.00     0.010 C 
BRANCH   8  10
ATOM     10  C   UNL A   1      37.783  32.217  35.485  1.00  0.00     0.002 C 
ATOM     11  C   UNL A   1      38.149  30.886  34.829  1.00  0.00     0.004 C 
ENDBRANCH   8  10
ENDBRANCH   7   8
BRANCH   7  12
ATOM     12  N   UNL A   1      40.992  34.514  35.586  1.00  0.00    -0.324 N 
ATOM     13  C   UNL A   1      42.089  35.263  35.357  1.00  0.00     0.318 C 
ATOM     14  H   UNL A   1      40.885  34.462  36.563  1.00  0.00     0.166 HD
ATOM     15  O   UNL A   1      42.539  35.620  36.450  1.00  0.00    -0.249 OA
BRANCH  13  16
ATOM     16  N   UNL A   1      42.473  35.801  34.101  1.00  0.00    -0.313 N 
ATOM     17  C   UNL A   1      42.737  37.195  34.506  1.00  0.00     0.127 C 
ATOM     18  C   UNL A   1      43.620  35.181  32.953  1.00  0.00     0.148 C 
ATOM     19  C   UNL A   1      43.246  38.142  33.451  1.00  0.00     0.057 C 
ATOM     20  C   UNL A   1      44.731  36.245  32.751  1.00  0.00    -0.014 A 
ATOM     21  C   UNL A   1      44.528  37.614  32.892  1.00  0.00    -0.037 A 
ATOM     22  C   UNL A   1      46.058  35.811  32.578  1.00  0.00     0.057 A 
ATOM     23  C   UNL A   1      45.596  38.496  32.667  1.00  0.00     0.054 A 
ATOM     24  C   UNL A   1      47.130  36.663  32.342  1.00  0.00     0.161 A 
ATOM     25  C   UNL A   1      46.888  38.033  32.373  1.00  0.00     0.161 A 
BRANCH  18  26
ATOM     26  C   UNL A   1      43.450  34.267  31.517  1.00  0.00    -0.021 A 
ATOM     27  C   UNL A   1      43.882  32.908  31.497  1.00  0.00     0.009 A 
ATOM     28  C   UNL A   1      42.835  34.539  30.281  1.00  0.00     0.009 A 
ATOM     29  C   UNL A   1      43.938  32.068  30.354  1.00  0.00     0.039 A 
ATOM     30  C   UNL A   1      42.884  33.745  29.107  1.00  0.00     0.039 A 
ATOM     31  C   UNL A   1      43.490  32.522  29.142  1.00  0.00     0.123 A 
ATOM     32  F   UNL A   1      43.561  31.763  28.043  1.00  0.00    -0.207 F 
ENDBRANCH  18  26
BRANCH  24  33
ATOM     33  O   UNL A   1      48.380  36.182  32.068  1.00  0.00    -0.493 OA
ATOM     34  C   UNL A   1      48.466  35.073  31.176  1.00  0.00     0.278 C 
ENDBRANCH  24  33
BRANCH  25  35
ATOM     35  O   UNL A   1      47.800  39.037  32.191  1.00  0.00    -0.493 OA
ATOM     36  C   UNL A   1      47.455  40.022  31.222  1.00  0.00     0.278 C 
ENDBRANCH  25  35
ENDBRANCH  13  16
ENDBRANCH   7  12
ENDBRANCH   5   7
ENDBRANCH   4   5
ENDBRANCH   3   4
ENDBRANCH   2   3
ENDBRANCH   1   2
BRANCH   1  37
ATOM     37  C   UNL A   1      35.584  33.448  29.932  1.00  0.00     0.202 C 
BRANCH  37  38
ATOM     38  C   UNL A   1      34.294  32.853  29.032  1.00  0.00     0.261 C 
BRANCH  38  39
ATOM     39  O   UNL A   1      34.547  31.988  27.830  1.00  0.00    -0.460 OA
BRANCH  39  40
ATOM     40  C   UNL A   1      35.091  30.713  27.743  1.00  0.00     0.338 C 
ATOM     41  O   UNL A   1      34.703  29.893  26.920  1.00  0.00    -0.246 OA
BRANCH  40  42
ATOM     42  C   UNL A   1      36.350  30.406  28.661  1.00  0.00     0.060 A 
ATOM     43  C   UNL A   1      37.641  30.785  28.304  1.00  0.00     0.016 A 
ATOM     44  C   UNL A   1      36.344  29.617  29.814  1.00  0.00     0.016 A 
ATOM     45  C   UNL A   1      38.854  30.374  28.886  1.00  0.00     0.010 A 
ATOM     46  C   UNL A   1      37.575  29.266  30.505  1.00  0.00     0.010 A 
ATOM     47  C   UNL A   1      38.866  29.604  30.022  1.00  0.00    -0.014 A 
BRANCH  47  48
ATOM     48  C   UNL A   1      40.188  29.080  30.560  1.00  0.00     0.031 A 
ATOM     49  C   UNL A   1      40.863  27.943  29.827  1.00  0.00     0.074 A 
ATOM     50  C   UNL A   1      40.907  29.636  31.575  1.00  0.00     0.049 A 
ATOM     51  N   UNL A   1      41.839  27.157  30.204  1.00  0.00    -0.248 NA
ATOM     52  C   UNL A   1      40.387  27.681  28.461  1.00  0.00     0.031 C 
ATOM     53  C   UNL A   1      40.598  30.878  32.288  1.00  0.00     0.029 A 
ATOM     54  N   UNL A   1      42.074  29.208  32.197  1.00  0.00    -0.354 N 
ATOM     55  C   UNL A   1      42.017  26.247  29.166  1.00  0.00     0.074 A 
ATOM     56  C   UNL A   1      41.097  26.620  28.116  1.00  0.00     0.031 C 
ATOM     57  C   UNL A   1      41.531  31.108  33.229  1.00  0.00     0.029 A 
ATOM     58  C   UNL A   1      42.439  29.967  33.294  1.00  0.00     0.049 A 
ATOM     59  H   UNL A   1      42.595  28.433  31.884  1.00  0.00     0.167 HD
ATOM     60  C   UNL A   1      42.838  25.174  29.103  1.00  0.00     0.034 A 
ATOM     61  C   UNL A   1      43.327  29.747  34.294  1.00  0.00     0.034 A 
ATOM     62  C   UNL A   1      43.771  24.808  30.131  1.00  0.00     0.049 A 
ATOM     63  C   UNL A   1      44.126  28.465  34.305  1.00  0.00     0.074 A 
ATOM     64  C   UNL A   1      44.571  23.681  30.202  1.00  0.00     0.029 A 
ATOM     65  N   UNL A   1      44.032  25.558  31.264  1.00  0.00    -0.354 N 
ATOM     66  N   UNL A   1      44.197  27.532  33.388  1.00  0.00    -0.248 NA
ATOM     67  C   UNL A   1      44.956  28.192  35.492  1.00  0.00     0.031 C 
ATOM     68  C   UNL A   1      45.280  23.726  31.406  1.00  0.00     0.029 A 
ATOM     69  C   UNL A   1      44.965  24.911  32.053  1.00  0.00     0.049 A 
ATOM     70  H   UNL A   1      43.616  26.425  31.476  1.00  0.00     0.167 HD
ATOM     71  C   UNL A   1      45.086  26.577  33.875  1.00  0.00     0.074 A 
ATOM     72  C   UNL A   1      45.549  27.051  35.161  1.00  0.00     0.031 C 
ATOM     73  C   UNL A   1      45.468  25.407  33.308  1.00  0.00     0.034 A 
BRANCH  60  74
ATOM     74  C   UNL A   1      42.687  24.257  27.920  1.00  0.00     0.023 A 
ATOM     75  C   UNL A   1      41.511  23.507  27.730  1.00  0.00     0.012 A 
ATOM     76  C   UNL A   1      43.732  24.165  26.977  1.00  0.00     0.148 A 
ATOM     77  C   UNL A   1      41.391  22.654  26.631  1.00  0.00     0.002 A 
ATOM     78  C   UNL A   1      43.584  23.351  25.863  1.00  0.00     0.091 A 
ATOM     79  F   UNL A   1      44.850  24.870  27.195  1.00  0.00    -0.205 F 
ATOM     80  C   UNL A   1      42.421  22.584  25.695  1.00  0.00     0.022 A 
BRANCH  78  81
ATOM     81  S   UNL A   1      44.829  23.255  24.571  1.00  0.00     0.127 S 
ATOM     82  O   UNL A   1      44.123  22.480  23.544  1.00  0.00    -0.237 OA
ATOM     83  O   UNL A   1      45.022  24.669  24.233  1.00  0.00    -0.237 OA
ATOM     84  O   UNL A   1      45.979  22.602  25.158  1.00  0.00    -0.744 OA
ENDBRANCH  78  81
ENDBRANCH  60  74
BRANCH  61  85
ATOM     85  C   UNL A   1      43.454  30.719  35.434  1.00  0.00     0.023 A 
ATOM     86  C   UNL A   1      42.560  30.661  36.523  1.00  0.00     0.012 A 
ATOM     87  C   UNL A   1      44.462  31.708  35.442  1.00  0.00     0.148 A 
ATOM     88  C   UNL A   1      42.667  31.562  37.588  1.00  0.00     0.002 A 
ATOM     89  C   UNL A   1      44.608  32.552  36.538  1.00  0.00     0.091 A 
ATOM     90  F   UNL A   1      45.273  31.795  34.378  1.00  0.00    -0.205 F 
ATOM     91  C   UNL A   1      43.702  32.495  37.605  1.00  0.00     0.022 A 
BRANCH  89  92
ATOM     92  S   UNL A   1      45.997  33.681  36.710  1.00  0.00     0.127 S 
ATOM     93  O   UNL A   1      45.625  34.762  35.801  1.00  0.00    -0.237 OA
ATOM     94  O   UNL A   1      45.930  34.020  38.133  1.00  0.00    -0.237 OA
ATOM     95  O   UNL A   1      47.178  32.918  36.330  1.00  0.00    -0.744 OA
ENDBRANCH  89  92
ENDBRANCH  61  85
BRANCH  73  96
ATOM     96  C   UNL A   1      46.470  24.543  34.028  1.00  0.00     0.023 A 
ATOM     97  C   UNL A   1      46.031  23.486  34.848  1.00  0.00     0.012 A 
ATOM     98  C   UNL A   1      47.848  24.687  33.763  1.00  0.00     0.148 A 
ATOM     99  C   UNL A   1      46.949  22.591  35.400  1.00  0.00     0.002 A 
ATOM    100  C   UNL A   1      48.749  23.761  34.271  1.00  0.00     0.091 A 
ATOM    101  F   UNL A   1      48.244  25.711  32.993  1.00  0.00    -0.205 F 
ATOM    102  C   UNL A   1      48.303  22.718  35.098  1.00  0.00     0.022 A 
BRANCH 100 103
ATOM    103  S   UNL A   1      50.494  23.776  33.840  1.00  0.00     0.127 S 
ATOM    104  O   UNL A   1      50.443  23.620  32.388  1.00  0.00    -0.237 OA
ATOM    105  O   UNL A   1      50.914  25.102  34.298  1.00  0.00    -0.237 OA
ATOM    106  O   UNL A   1      51.098  22.665  34.564  1.00  0.00    -0.744 OA
ENDBRANCH 100 103
ENDBRANCH  73  96
ENDBRANCH  47  48
ENDBRANCH  40  42
ENDBRANCH  39  40
ENDBRANCH  38  39
ENDBRANCH  37  38
ENDBRANCH   1  37
TORSDOF 24
ENDMDL
MODEL 3
REMARK VINA RESULT:      -7.8      8.189     16.032
REMARK SMILES CC[C@H](C)[C@H](NC(=O)N1CCc2cc(OC)c(OC)cc2[C@@H]1c1ccc(F)cc1)C(=O)OCCOCCOC(=O)c1ccc(-c2c3nc(c(-c4cccc(S(=O)(=O)[O-])c4F)c4ccc([nH]4)c(-c4cccc(S(=O)(=O)[O-])c4F)c4nc(c(-c5cccc(S(=O)(=O)[O-])c5F)c5ccc2[nH]5)C=C4)C=C3)cc1
REMARK SMILES IDX 35 1 34 2 33 3 32 4 30 5 31 6 5 7 3 8 4 9 2 10 1 11 6 12
REMARK SMILES IDX 7 13 8 15 9 16 10 17 22 18 11 19 21 20 12 21 20 22 13 23
REMARK SMILES IDX 17 24 14 25 23 26 24 27 29 28 25 29 28 30 26 31 27 32 18 33
REMARK SMILES IDX 19 34 15 35 16 36 36 37 37 38 38 39 39 40 40 41 41 42 42 43
REMARK SMILES IDX 103 44 43 45 102 46 44 47 45 48 46 49 96 50 47 51 101 52
REMARK SMILES IDX 95 53 97 54 48 55 100 56 94 57 93 58 49 60 81 61 61 62 80 63
REMARK SMILES IDX 62 64 65 65 79 66 98 67 63 68 64 69 78 71 99 72 66 73 50 74
REMARK SMILES IDX 51 75 59 76 52 77 54 78 60 79 53 80 55 81 56 82 57 83 58 84
REMARK SMILES IDX 82 85 83 86 91 87 84 88 86 89 92 90 85 91 87 92 88 93 89 94
REMARK SMILES IDX 90 95 67 96 68 97 76 98 69 99 71 100 77 101 70 102 72 103
REMARK SMILES IDX 73 104 74 105 75 106
REMARK H PARENT 6 14 97 59 65 70
REMARK Flexibility Score: inf
ROOT
ATOM      1  O   UNL A   1      44.828  38.396  26.692  1.00  0.00    -0.374 OA
ENDROOT
BRANCH   1   2
ATOM      2  C   UNL A   1      46.266  38.268  26.536  1.00  0.00     0.202 C 
BRANCH   2   3
ATOM      3  C   UNL A   1      47.009  39.129  25.506  1.00  0.00     0.261 C 
BRANCH   3   4
ATOM      4  O   UNL A   1      46.692  40.483  25.721  1.00  0.00    -0.462 OA
BRANCH   4   5
ATOM      5  C   UNL A   1      46.593  41.115  24.532  1.00  0.00     0.329 C 
ATOM      6  O   UNL A   1      46.907  40.630  23.449  1.00  0.00    -0.250 OA
BRANCH   5   7
ATOM      7  C   UNL A   1      46.092  42.524  24.709  1.00  0.00     0.196 C 
BRANCH   7   8
ATOM      8  C   UNL A   1      46.524  43.178  26.066  1.00  0.00     0.019 C 
ATOM      9  C   UNL A   1      47.902  43.857  25.984  1.00  0.00     0.010 C 
BRANCH   8  10
ATOM     10  C   UNL A   1      45.507  44.159  26.688  1.00  0.00     0.002 C 
ATOM     11  C   UNL A   1      45.545  44.222  28.214  1.00  0.00     0.004 C 
ENDBRANCH   8  10
ENDBRANCH   7   8
BRANCH   7  12
ATOM     12  N   UNL A   1      44.686  42.816  24.328  1.00  0.00    -0.324 N 
ATOM     13  C   UNL A   1      43.830  43.119  23.332  1.00  0.00     0.318 C 
ATOM     14  H   UNL A   1      44.152  42.765  25.154  1.00  0.00     0.166 HD
ATOM     15  O   UNL A   1      42.698  43.203  23.818  1.00  0.00    -0.249 OA
BRANCH  13  16
ATOM     16  N   UNL A   1      44.121  43.048  21.946  1.00  0.00    -0.313 N 
ATOM     17  C   UNL A   1      42.747  42.939  21.417  1.00  0.00     0.127 C 
ATOM     18  C   UNL A   1      45.153  44.071  20.992  1.00  0.00     0.148 C 
ATOM     19  C   UNL A   1      42.579  42.896  19.920  1.00  0.00     0.057 C 
ATOM     20  C   UNL A   1      44.295  44.724  19.877  1.00  0.00    -0.014 A 
ATOM     21  C   UNL A   1      43.163  44.135  19.323  1.00  0.00    -0.037 A 
ATOM     22  C   UNL A   1      44.567  46.055  19.509  1.00  0.00     0.057 A 
ATOM     23  C   UNL A   1      42.468  44.802  18.302  1.00  0.00     0.054 A 
ATOM     24  C   UNL A   1      43.901  46.732  18.495  1.00  0.00     0.161 A 
ATOM     25  C   UNL A   1      42.840  46.084  17.870  1.00  0.00     0.161 A 
BRANCH  18  26
ATOM     26  C   UNL A   1      46.763  43.905  20.439  1.00  0.00    -0.021 A 
ATOM     27  C   UNL A   1      47.562  42.827  20.923  1.00  0.00     0.009 A 
ATOM     28  C   UNL A   1      47.507  44.583  19.456  1.00  0.00     0.009 A 
ATOM     29  C   UNL A   1      48.946  42.637  20.670  1.00  0.00     0.039 A 
ATOM     30  C   UNL A   1      48.893  44.446  19.185  1.00  0.00     0.039 A 
ATOM     31  C   UNL A   1      49.620  43.496  19.843  1.00  0.00     0.123 A 
ATOM     32  F   UNL A   1      50.931  43.359  19.614  1.00  0.00    -0.207 F 
ENDBRANCH  18  26
BRANCH  24  33
ATOM     33  O   UNL A   1      44.281  47.986  18.102  1.00  0.00    -0.493 OA
ATOM     34  C   UNL A   1      45.664  48.311  18.221  1.00  0.00     0.278 C 
ENDBRANCH  24  33
BRANCH  25  35
ATOM     35  O   UNL A   1      42.044  46.576  16.872  1.00  0.00    -0.493 OA
ATOM     36  C   UNL A   1      41.562  45.621  15.933  1.00  0.00     0.278 C 
ENDBRANCH  25  35
ENDBRANCH  13  16
ENDBRANCH   7  12
ENDBRANCH   5   7
ENDBRANCH   4   5
ENDBRANCH   3   4
ENDBRANCH   2   3
ENDBRANCH   1   2
BRANCH   1  37
ATOM     37  C   UNL A   1      43.889  38.709  27.784  1.00  0.00     0.202 C 
BRANCH  37  38
ATOM     38  C   UNL A   1      43.548  39.959  28.855  1.00  0.00     0.261 C 
BRANCH  38  39
ATOM     39  O   UNL A   1      44.667  40.709  29.521  1.00  0.00    -0.460 OA
BRANCH  39  40
ATOM     40  C   UNL A   1      45.228  40.547  30.781  1.00  0.00     0.338 C 
ATOM     41  O   UNL A   1      46.117  41.278  31.199  1.00  0.00    -0.246 OA
BRANCH  40  42
ATOM     42  C   UNL A   1      44.562  39.459  31.728  1.00  0.00     0.060 A 
ATOM     43  C   UNL A   1      43.565  39.781  32.644  1.00  0.00     0.016 A 
ATOM     44  C   UNL A   1      44.981  38.133  31.865  1.00  0.00     0.016 A 
ATOM     45  C   UNL A   1      43.069  38.987  33.695  1.00  0.00     0.010 A 
ATOM     46  C   UNL A   1      44.407  37.252  32.869  1.00  0.00     0.010 A 
ATOM     47  C   UNL A   1      43.465  37.681  33.840  1.00  0.00    -0.014 A 
BRANCH  47  48
ATOM     48  C   UNL A   1      43.001  36.886  35.050  1.00  0.00     0.031 A 
ATOM     49  C   UNL A   1      41.968  35.801  34.844  1.00  0.00     0.074 A 
ATOM     50  C   UNL A   1      43.535  36.962  36.301  1.00  0.00     0.049 A 
ATOM     51  N   UNL A   1      41.229  35.162  35.716  1.00  0.00    -0.248 NA
ATOM     52  C   UNL A   1      41.769  35.352  33.458  1.00  0.00     0.031 C 
ATOM     53  C   UNL A   1      44.699  37.752  36.709  1.00  0.00     0.029 A 
ATOM     54  N   UNL A   1      43.148  36.350  37.488  1.00  0.00    -0.354 N 
ATOM     55  C   UNL A   1      40.409  34.320  34.973  1.00  0.00     0.074 A 
ATOM     56  C   UNL A   1      40.787  34.475  33.587  1.00  0.00     0.031 C 
ATOM     57  C   UNL A   1      44.929  37.580  38.023  1.00  0.00     0.029 A 
ATOM     58  C   UNL A   1      43.853  36.778  38.597  1.00  0.00     0.049 A 
ATOM     59  H   UNL A   1      42.436  35.672  37.534  1.00  0.00     0.167 HD
ATOM     60  C   UNL A   1      39.403  33.518  35.394  1.00  0.00     0.034 A 
ATOM     61  C   UNL A   1      43.628  36.633  39.927  1.00  0.00     0.034 A 
ATOM     62  C   UNL A   1      39.034  33.339  36.770  1.00  0.00     0.049 A 
ATOM     63  C   UNL A   1      42.409  35.873  40.392  1.00  0.00     0.074 A 
ATOM     64  C   UNL A   1      37.965  32.628  37.286  1.00  0.00     0.029 A 
ATOM     65  N   UNL A   1      39.721  33.871  37.847  1.00  0.00    -0.354 N 
ATOM     66  N   UNL A   1      41.549  35.183  39.682  1.00  0.00    -0.248 NA
ATOM     67  C   UNL A   1      42.113  35.880  41.836  1.00  0.00     0.031 C 
ATOM     68  C   UNL A   1      37.976  32.774  38.676  1.00  0.00     0.029 A 
ATOM     69  C   UNL A   1      39.088  33.524  39.027  1.00  0.00     0.049 A 
ATOM     70  H   UNL A   1      40.538  34.415  37.783  1.00  0.00     0.167 HD
ATOM     71  C   UNL A   1      40.628  34.664  40.588  1.00  0.00     0.074 A 
ATOM     72  C   UNL A   1      41.043  35.097  41.905  1.00  0.00     0.031 C 
ATOM     73  C   UNL A   1      39.530  33.909  40.342  1.00  0.00     0.034 A 
BRANCH  60  74
ATOM     74  C   UNL A   1      38.562  32.852  34.339  1.00  0.00     0.023 A 
ATOM     75  C   UNL A   1      38.964  31.640  33.749  1.00  0.00     0.012 A 
ATOM     76  C   UNL A   1      37.340  33.443  33.954  1.00  0.00     0.148 A 
ATOM     77  C   UNL A   1      38.175  31.040  32.766  1.00  0.00     0.002 A 
ATOM     78  C   UNL A   1      36.539  32.815  33.011  1.00  0.00     0.091 A 
ATOM     79  F   UNL A   1      36.992  34.609  34.513  1.00  0.00    -0.205 F 
ATOM     80  C   UNL A   1      36.961  31.622  32.405  1.00  0.00     0.022 A 
BRANCH  78  81
ATOM     81  S   UNL A   1      34.928  33.454  32.539  1.00  0.00     0.127 S 
ATOM     82  O   UNL A   1      35.299  34.503  31.584  1.00  0.00    -0.237 OA
ATOM     83  O   UNL A   1      34.304  32.275  31.928  1.00  0.00    -0.237 OA
ATOM     84  O   UNL A   1      34.299  33.919  33.756  1.00  0.00    -0.744 OA
ENDBRANCH  78  81
ENDBRANCH  60  74
BRANCH  61  85
ATOM     85  C   UNL A   1      44.525  37.299  40.933  1.00  0.00     0.023 A 
ATOM     86  C   UNL A   1      45.482  36.546  41.643  1.00  0.00     0.012 A 
ATOM     87  C   UNL A   1      44.431  38.684  41.192  1.00  0.00     0.148 A 
ATOM     88  C   UNL A   1      46.321  37.154  42.583  1.00  0.00     0.002 A 
ATOM     89  C   UNL A   1      45.317  39.295  42.073  1.00  0.00     0.091 A 
ATOM     90  F   UNL A   1      43.482  39.385  40.556  1.00  0.00    -0.205 F 
ATOM     91  C   UNL A   1      46.253  38.530  42.785  1.00  0.00     0.022 A 
BRANCH  89  92
ATOM     92  S   UNL A   1      45.398  41.079  42.283  1.00  0.00     0.127 S 
ATOM     93  O   UNL A   1      46.402  41.216  43.335  1.00  0.00    -0.237 OA
ATOM     94  O   UNL A   1      45.833  41.515  40.955  1.00  0.00    -0.237 OA
ATOM     95  O   UNL A   1      44.050  41.498  42.641  1.00  0.00    -0.744 OA
ENDBRANCH  89  92
ENDBRANCH  61  85
BRANCH  73  96
ATOM     96  C   UNL A   1      38.692  33.445  41.504  1.00  0.00     0.023 A 
ATOM     97  C   UNL A   1      37.562  34.185  41.901  1.00  0.00     0.012 A 
ATOM     98  C   UNL A   1      38.939  32.189  42.098  1.00  0.00     0.148 A 
ATOM     99  C   UNL A   1      36.697  33.688  42.877  1.00  0.00     0.002 A 
ATOM    100  C   UNL A   1      38.045  31.677  43.029  1.00  0.00     0.091 A 
ATOM    101  F   UNL A   1      40.030  31.508  41.716  1.00  0.00    -0.205 F 
ATOM    102  C   UNL A   1      36.929  32.429  43.427  1.00  0.00     0.022 A 
BRANCH 100 103
ATOM    103  S   UNL A   1      38.198  30.018  43.702  1.00  0.00     0.127 S 
ATOM    104  O   UNL A   1      38.147  29.199  42.492  1.00  0.00    -0.237 OA
ATOM    105  O   UNL A   1      39.509  30.067  44.351  1.00  0.00    -0.237 OA
ATOM    106  O   UNL A   1      37.075  29.847  44.615  1.00  0.00    -0.744 OA
ENDBRANCH 100 103
ENDBRANCH  73  96
ENDBRANCH  47  48
ENDBRANCH  40  42
ENDBRANCH  39  40
ENDBRANCH  38  39
ENDBRANCH  37  38
ENDBRANCH   1  37
TORSDOF 24
ENDMDL
