MODEL 1
REMARK VINA RESULT:     -10.8      0.000      0.000
REMARK SMILES O=C(OCCOCCOC(=O)c1ccc(-c2c(F)cccc2F)cn1)c1ccc(-c2c3nc(c(-c4cccc(S(=O)(=O)[O-])c4F)c4ccc([nH]4)c(-c4cccc(S(=O)(=O)[O-])c4F)c4nc(c(-c5cccc(S(=O)(=O)[O-])c5F)c5ccc2[nH]5)C=C4)C=C3)cc1
REMARK SMILES IDX 5 1 4 2 3 3 2 4 1 5 26 6 27 7 88 8 28 9 87 10 29 11 30 12
REMARK SMILES IDX 31 13 81 14 32 15 86 16 80 17 82 18 33 19 85 20 79 21 78 22
REMARK SMILES IDX 34 24 66 25 46 26 65 27 47 28 50 29 64 30 83 31 48 32 49 33
REMARK SMILES IDX 63 35 84 36 51 37 35 38 36 39 44 40 37 41 39 42 45 43 38 44
REMARK SMILES IDX 40 45 41 46 42 47 43 48 67 49 68 50 76 51 69 52 71 53 77 54
REMARK SMILES IDX 70 55 72 56 73 57 74 58 75 59 52 60 53 61 61 62 54 63 56 64
REMARK SMILES IDX 62 65 55 66 57 67 58 68 59 69 60 70 6 71 7 72 8 73 9 74
REMARK SMILES IDX 10 75 11 76 12 77 13 78 25 79 14 80 24 81 15 82 16 83 17 84
REMARK SMILES IDX 22 85 18 86 19 87 21 88 23 89 20 90
REMARK H PARENT 82 23 50 34
REMARK Flexibility Score: inf
ROOT
ATOM      1  C   UNL A   1      33.238  33.782  28.098  1.00  0.00     0.202 C 
ENDROOT
BRANCH   1   2
ATOM      2  C   UNL A   1      34.475  32.930  28.397  1.00  0.00     0.261 C 
BRANCH   2   3
ATOM      3  O   UNL A   1      34.125  31.536  28.432  1.00  0.00    -0.460 OA
BRANCH   3   4
ATOM      4  C   UNL A   1      34.761  30.486  27.859  1.00  0.00     0.338 C 
ATOM      5  O   UNL A   1      34.152  29.841  27.007  1.00  0.00    -0.246 OA
BRANCH   4   6
ATOM      6  C   UNL A   1      36.160  30.066  28.190  1.00  0.00     0.060 A 
ATOM      7  C   UNL A   1      37.299  30.393  27.451  1.00  0.00     0.016 A 
ATOM      8  C   UNL A   1      36.343  29.362  29.393  1.00  0.00     0.016 A 
ATOM      9  C   UNL A   1      38.567  29.989  27.847  1.00  0.00     0.010 A 
ATOM     10  C   UNL A   1      37.620  28.984  29.822  1.00  0.00     0.010 A 
ATOM     11  C   UNL A   1      38.735  29.284  29.034  1.00  0.00    -0.014 A 
BRANCH  11  12
ATOM     12  C   UNL A   1      40.091  28.823  29.380  1.00  0.00     0.031 A 
ATOM     13  C   UNL A   1      40.817  29.504  30.497  1.00  0.00     0.074 A 
ATOM     14  C   UNL A   1      40.598  27.743  28.759  1.00  0.00     0.049 A 
ATOM     15  N   UNL A   1      41.998  29.249  30.987  1.00  0.00    -0.248 NA
ATOM     16  C   UNL A   1      40.111  30.612  31.164  1.00  0.00     0.031 C 
ATOM     17  C   UNL A   1      39.918  26.981  27.708  1.00  0.00     0.029 A 
ATOM     18  N   UNL A   1      41.789  27.090  28.928  1.00  0.00    -0.354 N 
ATOM     19  C   UNL A   1      42.197  30.187  31.991  1.00  0.00     0.074 A 
ATOM     20  C   UNL A   1      41.011  31.012  32.051  1.00  0.00     0.031 C 
ATOM     21  C   UNL A   1      40.703  25.961  27.330  1.00  0.00     0.029 A 
ATOM     22  C   UNL A   1      41.954  26.024  28.077  1.00  0.00     0.049 A 
ATOM     23  H   UNL A   1      42.461  27.357  29.597  1.00  0.00     0.167 HD
ATOM     24  C   UNL A   1      43.277  30.341  32.790  1.00  0.00     0.034 A 
ATOM     25  C   UNL A   1      43.013  25.207  27.910  1.00  0.00     0.034 A 
ATOM     26  C   UNL A   1      44.439  29.501  32.715  1.00  0.00     0.049 A 
ATOM     27  C   UNL A   1      44.214  25.424  28.791  1.00  0.00     0.074 A 
ATOM     28  C   UNL A   1      45.607  29.576  33.448  1.00  0.00     0.029 A 
ATOM     29  N   UNL A   1      44.577  28.429  31.843  1.00  0.00    -0.354 N 
ATOM     30  N   UNL A   1      44.376  26.287  29.766  1.00  0.00    -0.248 NA
ATOM     31  C   UNL A   1      45.371  24.548  28.564  1.00  0.00     0.031 C 
ATOM     32  C   UNL A   1      46.461  28.560  33.004  1.00  0.00     0.029 A 
ATOM     33  C   UNL A   1      45.814  27.838  32.011  1.00  0.00     0.049 A 
ATOM     34  H   UNL A   1      43.893  28.134  31.199  1.00  0.00     0.167 HD
ATOM     35  C   UNL A   1      45.642  26.050  30.282  1.00  0.00     0.074 A 
ATOM     36  C   UNL A   1      46.194  24.939  29.529  1.00  0.00     0.031 C 
ATOM     37  C   UNL A   1      46.304  26.700  31.271  1.00  0.00     0.034 A 
BRANCH  24  38
ATOM     38  C   UNL A   1      43.241  31.468  33.783  1.00  0.00     0.023 A 
ATOM     39  C   UNL A   1      43.743  32.736  33.426  1.00  0.00     0.012 A 
ATOM     40  C   UNL A   1      42.723  31.267  35.077  1.00  0.00     0.148 A 
ATOM     41  C   UNL A   1      43.763  33.777  34.354  1.00  0.00     0.002 A 
ATOM     42  C   UNL A   1      42.714  32.319  35.985  1.00  0.00     0.091 A 
ATOM     43  F   UNL A   1      42.279  30.045  35.404  1.00  0.00    -0.205 F 
ATOM     44  C   UNL A   1      43.242  33.571  35.629  1.00  0.00     0.022 A 
BRANCH  42  45
ATOM     45  S   UNL A   1      42.024  32.166  37.636  1.00  0.00     0.127 S 
ATOM     46  O   UNL A   1      42.218  33.515  38.164  1.00  0.00    -0.237 OA
ATOM     47  O   UNL A   1      40.632  31.815  37.355  1.00  0.00    -0.237 OA
ATOM     48  O   UNL A   1      42.792  31.120  38.297  1.00  0.00    -0.744 OA
ENDBRANCH  42  45
ENDBRANCH  24  38
BRANCH  25  49
ATOM     49  C   UNL A   1      42.971  24.120  26.890  1.00  0.00     0.023 A 
ATOM     50  C   UNL A   1      43.646  24.283  25.665  1.00  0.00     0.012 A 
ATOM     51  C   UNL A   1      42.294  22.909  27.140  1.00  0.00     0.148 A 
ATOM     52  C   UNL A   1      43.629  23.272  24.702  1.00  0.00     0.002 A 
ATOM     53  C   UNL A   1      42.328  21.884  26.201  1.00  0.00     0.091 A 
ATOM     54  F   UNL A   1      41.633  22.776  28.299  1.00  0.00    -0.205 F 
ATOM     55  C   UNL A   1      42.981  22.069  24.974  1.00  0.00     0.022 A 
BRANCH  53  56
ATOM     56  S   UNL A   1      41.631  20.261  26.530  1.00  0.00     0.127 S 
ATOM     57  O   UNL A   1      40.200  20.550  26.563  1.00  0.00    -0.237 OA
ATOM     58  O   UNL A   1      42.077  19.492  25.368  1.00  0.00    -0.237 OA
ATOM     59  O   UNL A   1      42.222  19.833  27.791  1.00  0.00    -0.744 OA
ENDBRANCH  53  56
ENDBRANCH  25  49
BRANCH  37  60
ATOM     60  C   UNL A   1      47.689  26.220  31.604  1.00  0.00     0.023 A 
ATOM     61  C   UNL A   1      48.788  26.696  30.861  1.00  0.00     0.012 A 
ATOM     62  C   UNL A   1      47.908  25.377  32.709  1.00  0.00     0.148 A 
ATOM     63  C   UNL A   1      50.085  26.320  31.203  1.00  0.00     0.002 A 
ATOM     64  C   UNL A   1      49.207  25.045  33.073  1.00  0.00     0.091 A 
ATOM     65  F   UNL A   1      46.845  24.919  33.387  1.00  0.00    -0.205 F 
ATOM     66  C   UNL A   1      50.295  25.508  32.315  1.00  0.00     0.022 A 
BRANCH  64  67
ATOM     67  S   UNL A   1      49.572  24.092  34.549  1.00  0.00     0.127 S 
ATOM     68  O   UNL A   1      49.010  24.940  35.600  1.00  0.00    -0.237 OA
ATOM     69  O   UNL A   1      48.837  22.849  34.310  1.00  0.00    -0.237 OA
ATOM     70  O   UNL A   1      51.021  23.937  34.575  1.00  0.00    -0.744 OA
ENDBRANCH  64  67
ENDBRANCH  37  60
ENDBRANCH  11  12
ENDBRANCH   4   6
ENDBRANCH   3   4
ENDBRANCH   2   3
ENDBRANCH   1   2
BRANCH   1  71
ATOM     71  O   UNL A   1      32.902  34.696  29.142  1.00  0.00    -0.374 OA
BRANCH  71  72
ATOM     72  C   UNL A   1      33.177  36.077  28.883  1.00  0.00     0.202 C 
BRANCH  72  73
ATOM     73  C   UNL A   1      33.229  36.835  30.212  1.00  0.00     0.261 C 
BRANCH  73  74
ATOM     74  O   UNL A   1      32.146  36.364  31.031  1.00  0.00    -0.459 OA
BRANCH  74  75
ATOM     75  C   UNL A   1      32.387  36.441  32.369  1.00  0.00     0.356 C 
ATOM     76  O   UNL A   1      31.758  37.085  33.191  1.00  0.00    -0.244 OA
BRANCH  75  77
ATOM     77  C   UNL A   1      33.468  35.467  32.686  1.00  0.00     0.148 A 
ATOM     78  C   UNL A   1      34.781  35.892  32.840  1.00  0.00     0.037 A 
ATOM     79  N   UNL A   1      33.093  34.163  32.764  1.00  0.00    -0.249 NA
ATOM     80  C   UNL A   1      35.751  34.937  33.129  1.00  0.00     0.013 A 
ATOM     81  C   UNL A   1      34.060  33.260  33.034  1.00  0.00     0.121 A 
ATOM     82  C   UNL A   1      35.395  33.587  33.251  1.00  0.00     0.006 A 
BRANCH  82  83
ATOM     83  C   UNL A   1      36.365  32.589  33.691  1.00  0.00     0.055 A 
ATOM     84  C   UNL A   1      36.612  31.461  32.898  1.00  0.00     0.134 A 
ATOM     85  C   UNL A   1      37.081  32.706  34.885  1.00  0.00     0.134 A 
ATOM     86  F   UNL A   1      35.960  31.304  31.736  1.00  0.00    -0.206 F 
ATOM     87  C   UNL A   1      37.528  30.482  33.277  1.00  0.00     0.040 A 
ATOM     88  C   UNL A   1      37.997  31.731  35.282  1.00  0.00     0.040 A 
ATOM     89  F   UNL A   1      36.892  33.766  35.685  1.00  0.00    -0.206 F 
ATOM     90  C   UNL A   1      38.222  30.614  34.477  1.00  0.00     0.006 A 
ENDBRANCH  82  83
ENDBRANCH  75  77
ENDBRANCH  74  75
ENDBRANCH  73  74
ENDBRANCH  72  73
ENDBRANCH  71  72
ENDBRANCH   1  71
TORSDOF 18
ENDMDL
MODEL 2
REMARK VINA RESULT:     -10.6      2.100      2.754
REMARK SMILES O=C(OCCOCCOC(=O)c1ccc(-c2c(F)cccc2F)cn1)c1ccc(-c2c3nc(c(-c4cccc(S(=O)(=O)[O-])c4F)c4ccc([nH]4)c(-c4cccc(S(=O)(=O)[O-])c4F)c4nc(c(-c5cccc(S(=O)(=O)[O-])c5F)c5ccc2[nH]5)C=C4)C=C3)cc1
REMARK SMILES IDX 5 1 4 2 3 3 2 4 1 5 26 6 27 7 88 8 28 9 87 10 29 11 30 12
REMARK SMILES IDX 31 13 81 14 32 15 86 16 80 17 82 18 33 19 85 20 79 21 78 22
REMARK SMILES IDX 34 24 66 25 46 26 65 27 47 28 50 29 64 30 83 31 48 32 49 33
REMARK SMILES IDX 63 35 84 36 51 37 35 38 36 39 44 40 37 41 39 42 45 43 38 44
REMARK SMILES IDX 40 45 41 46 42 47 43 48 67 49 68 50 76 51 69 52 71 53 77 54
REMARK SMILES IDX 70 55 72 56 73 57 74 58 75 59 52 60 53 61 61 62 54 63 56 64
REMARK SMILES IDX 62 65 55 66 57 67 58 68 59 69 60 70 6 71 7 72 8 73 9 74
REMARK SMILES IDX 10 75 11 76 12 77 13 78 25 79 14 80 24 81 15 82 16 83 17 84
REMARK SMILES IDX 22 85 18 86 19 87 21 88 23 89 20 90
REMARK H PARENT 82 23 50 34
REMARK Flexibility Score: inf
ROOT
ATOM      1  C   UNL A   1      33.245  34.704  28.521  1.00  0.00     0.202 C 
ENDROOT
BRANCH   1   2
ATOM      2  C   UNL A   1      33.216  33.340  27.827  1.00  0.00     0.261 C 
BRANCH   2   3
ATOM      3  O   UNL A   1      34.078  32.413  28.510  1.00  0.00    -0.460 OA
BRANCH   3   4
ATOM      4  C   UNL A   1      34.642  31.275  28.041  1.00  0.00     0.338 C 
ATOM      5  O   UNL A   1      34.026  30.638  27.187  1.00  0.00    -0.246 OA
BRANCH   4   6
ATOM      6  C   UNL A   1      35.970  30.745  28.488  1.00  0.00     0.060 A 
ATOM      7  C   UNL A   1      37.214  31.255  28.110  1.00  0.00     0.016 A 
ATOM      8  C   UNL A   1      35.952  29.707  29.437  1.00  0.00     0.016 A 
ATOM      9  C   UNL A   1      38.400  30.724  28.599  1.00  0.00     0.010 A 
ATOM     10  C   UNL A   1      37.140  29.191  29.966  1.00  0.00     0.010 A 
ATOM     11  C   UNL A   1      38.370  29.691  29.529  1.00  0.00    -0.014 A 
BRANCH  11  12
ATOM     12  C   UNL A   1      39.654  29.120  29.970  1.00  0.00     0.031 A 
ATOM     13  C   UNL A   1      40.270  29.630  31.235  1.00  0.00     0.074 A 
ATOM     14  C   UNL A   1      40.185  28.088  29.289  1.00  0.00     0.049 A 
ATOM     15  N   UNL A   1      41.373  29.257  31.822  1.00  0.00    -0.248 NA
ATOM     16  C   UNL A   1      39.538  30.696  31.942  1.00  0.00     0.031 C 
ATOM     17  C   UNL A   1      39.602  27.487  28.086  1.00  0.00     0.029 A 
ATOM     18  N   UNL A   1      41.318  27.354  29.515  1.00  0.00    -0.354 N 
ATOM     19  C   UNL A   1      41.491  30.065  32.944  1.00  0.00     0.074 A 
ATOM     20  C   UNL A   1      40.343  30.943  32.965  1.00  0.00     0.031 C 
ATOM     21  C   UNL A   1      40.382  26.472  27.683  1.00  0.00     0.029 A 
ATOM     22  C   UNL A   1      41.537  26.381  28.569  1.00  0.00     0.049 A 
ATOM     23  H   UNL A   1      41.916  27.508  30.282  1.00  0.00     0.167 HD
ATOM     24  C   UNL A   1      42.474  30.068  33.873  1.00  0.00     0.034 A 
ATOM     25  C   UNL A   1      42.572  25.530  28.429  1.00  0.00     0.034 A 
ATOM     26  C   UNL A   1      43.599  29.177  33.833  1.00  0.00     0.049 A 
ATOM     27  C   UNL A   1      43.669  25.580  29.460  1.00  0.00     0.074 A 
ATOM     28  C   UNL A   1      44.674  29.105  34.697  1.00  0.00     0.029 A 
ATOM     29  N   UNL A   1      43.794  28.203  32.863  1.00  0.00    -0.354 N 
ATOM     30  N   UNL A   1      43.750  26.320  30.541  1.00  0.00    -0.248 NA
ATOM     31  C   UNL A   1      44.805  24.672  29.265  1.00  0.00     0.031 C 
ATOM     32  C   UNL A   1      45.530  28.099  34.237  1.00  0.00     0.029 A 
ATOM     33  C   UNL A   1      44.976  27.528  33.100  1.00  0.00     0.049 A 
ATOM     34  H   UNL A   1      43.179  28.020  32.116  1.00  0.00     0.167 HD
ATOM     35  C   UNL A   1      44.935  25.955  31.166  1.00  0.00     0.074 A 
ATOM     36  C   UNL A   1      45.524  24.906  30.356  1.00  0.00     0.031 C 
ATOM     37  C   UNL A   1      45.501  26.454  32.293  1.00  0.00     0.034 A 
BRANCH  24  38
ATOM     38  C   UNL A   1      42.368  31.079  34.980  1.00  0.00     0.023 A 
ATOM     39  C   UNL A   1      41.685  30.750  36.170  1.00  0.00     0.012 A 
ATOM     40  C   UNL A   1      42.931  32.361  34.836  1.00  0.00     0.148 A 
ATOM     41  C   UNL A   1      41.535  31.696  37.184  1.00  0.00     0.002 A 
ATOM     42  C   UNL A   1      42.806  33.287  35.865  1.00  0.00     0.091 A 
ATOM     43  F   UNL A   1      43.547  32.662  33.684  1.00  0.00    -0.205 F 
ATOM     44  C   UNL A   1      42.102  32.960  37.035  1.00  0.00     0.022 A 
BRANCH  42  45
ATOM     45  S   UNL A   1      43.539  34.925  35.787  1.00  0.00     0.127 S 
ATOM     46  O   UNL A   1      43.083  35.512  37.046  1.00  0.00    -0.237 OA
ATOM     47  O   UNL A   1      44.969  34.619  35.738  1.00  0.00    -0.237 OA
ATOM     48  O   UNL A   1      43.009  35.545  34.581  1.00  0.00    -0.744 OA
ENDBRANCH  42  45
ENDBRANCH  24  38
BRANCH  25  49
ATOM     49  C   UNL A   1      42.605  24.567  27.291  1.00  0.00     0.023 A 
ATOM     50  C   UNL A   1      43.239  24.929  26.087  1.00  0.00     0.012 A 
ATOM     51  C   UNL A   1      42.043  23.280  27.407  1.00  0.00     0.148 A 
ATOM     52  C   UNL A   1      43.291  24.036  25.013  1.00  0.00     0.002 A 
ATOM     53  C   UNL A   1      42.148  22.376  26.355  1.00  0.00     0.091 A 
ATOM     54  F   UNL A   1      41.420  22.957  28.549  1.00  0.00    -0.205 F 
ATOM     55  C   UNL A   1      42.758  22.757  25.151  1.00  0.00     0.022 A 
BRANCH  53  56
ATOM     56  S   UNL A   1      41.603  20.670  26.502  1.00  0.00     0.127 S 
ATOM     57  O   UNL A   1      42.366  20.019  25.440  1.00  0.00    -0.237 OA
ATOM     58  O   UNL A   1      42.024  20.327  27.861  1.00  0.00    -0.237 OA
ATOM     59  O   UNL A   1      40.159  20.706  26.317  1.00  0.00    -0.744 OA
ENDBRANCH  53  56
ENDBRANCH  25  49
BRANCH  37  60
ATOM     60  C   UNL A   1      46.815  25.863  32.722  1.00  0.00     0.023 A 
ATOM     61  C   UNL A   1      46.842  24.903  33.753  1.00  0.00     0.012 A 
ATOM     62  C   UNL A   1      48.003  26.186  32.041  1.00  0.00     0.148 A 
ATOM     63  C   UNL A   1      48.039  24.289  34.114  1.00  0.00     0.002 A 
ATOM     64  C   UNL A   1      49.184  25.535  32.372  1.00  0.00     0.091 A 
ATOM     65  F   UNL A   1      47.956  27.119  31.078  1.00  0.00    -0.205 F 
ATOM     66  C   UNL A   1      49.205  24.595  33.416  1.00  0.00     0.022 A 
BRANCH  64  67
ATOM     67  S   UNL A   1      50.706  25.792  31.457  1.00  0.00     0.127 S 
ATOM     68  O   UNL A   1      51.612  24.850  32.113  1.00  0.00    -0.237 OA
ATOM     69  O   UNL A   1      50.320  25.420  30.096  1.00  0.00    -0.237 OA
ATOM     70  O   UNL A   1      51.038  27.201  31.623  1.00  0.00    -0.744 OA
ENDBRANCH  64  67
ENDBRANCH  37  60
ENDBRANCH  11  12
ENDBRANCH   4   6
ENDBRANCH   3   4
ENDBRANCH   2   3
ENDBRANCH   1   2
BRANCH   1  71
ATOM     71  O   UNL A   1      32.804  34.669  29.879  1.00  0.00    -0.374 OA
BRANCH  71  72
ATOM     72  C   UNL A   1      32.999  35.868  30.636  1.00  0.00     0.202 C 
BRANCH  72  73
ATOM     73  C   UNL A   1      32.429  35.671  32.043  1.00  0.00     0.261 C 
BRANCH  73  74
ATOM     74  O   UNL A   1      33.531  35.431  32.935  1.00  0.00    -0.459 OA
BRANCH  74  75
ATOM     75  C   UNL A   1      33.963  34.139  32.948  1.00  0.00     0.356 C 
ATOM     76  O   UNL A   1      33.294  33.144  33.167  1.00  0.00    -0.244 OA
BRANCH  75  77
ATOM     77  C   UNL A   1      35.379  34.136  32.487  1.00  0.00     0.148 A 
ATOM     78  C   UNL A   1      35.803  33.249  31.506  1.00  0.00     0.037 A 
ATOM     79  N   UNL A   1      36.213  35.007  33.114  1.00  0.00    -0.249 NA
ATOM     80  C   UNL A   1      37.140  33.286  31.120  1.00  0.00     0.013 A 
ATOM     81  C   UNL A   1      37.506  35.010  32.725  1.00  0.00     0.121 A 
ATOM     82  C   UNL A   1      38.020  34.195  31.720  1.00  0.00     0.006 A 
BRANCH  82  83
ATOM     83  C   UNL A   1      39.388  34.350  31.236  1.00  0.00     0.055 A 
ATOM     84  C   UNL A   1      39.624  34.605  29.879  1.00  0.00     0.134 A 
ATOM     85  C   UNL A   1      40.501  34.264  32.077  1.00  0.00     0.134 A 
ATOM     86  F   UNL A   1      38.591  34.708  29.029  1.00  0.00    -0.206 F 
ATOM     87  C   UNL A   1      40.912  34.760  29.372  1.00  0.00     0.040 A 
ATOM     88  C   UNL A   1      41.799  34.411  31.584  1.00  0.00     0.040 A 
ATOM     89  F   UNL A   1      40.341  34.027  33.388  1.00  0.00    -0.206 F 
ATOM     90  C   UNL A   1      42.006  34.659  30.227  1.00  0.00     0.006 A 
ENDBRANCH  82  83
ENDBRANCH  75  77
ENDBRANCH  74  75
ENDBRANCH  73  74
ENDBRANCH  72  73
ENDBRANCH  71  72
ENDBRANCH   1  71
TORSDOF 18
ENDMDL
MODEL 3
REMARK VINA RESULT:     -10.5      4.619      7.615
REMARK SMILES O=C(OCCOCCOC(=O)c1ccc(-c2c(F)cccc2F)cn1)c1ccc(-c2c3nc(c(-c4cccc(S(=O)(=O)[O-])c4F)c4ccc([nH]4)c(-c4cccc(S(=O)(=O)[O-])c4F)c4nc(c(-c5cccc(S(=O)(=O)[O-])c5F)c5ccc2[nH]5)C=C4)C=C3)cc1
REMARK SMILES IDX 5 1 4 2 3 3 2 4 1 5 26 6 27 7 88 8 28 9 87 10 29 11 30 12
REMARK SMILES IDX 31 13 81 14 32 15 86 16 80 17 82 18 33 19 85 20 79 21 78 22
REMARK SMILES IDX 34 24 66 25 46 26 65 27 47 28 50 29 64 30 83 31 48 32 49 33
REMARK SMILES IDX 63 35 84 36 51 37 35 38 36 39 44 40 37 41 39 42 45 43 38 44
REMARK SMILES IDX 40 45 41 46 42 47 43 48 67 49 68 50 76 51 69 52 71 53 77 54
REMARK SMILES IDX 70 55 72 56 73 57 74 58 75 59 52 60 53 61 61 62 54 63 56 64
REMARK SMILES IDX 62 65 55 66 57 67 58 68 59 69 60 70 6 71 7 72 8 73 9 74
REMARK SMILES IDX 10 75 11 76 12 77 13 78 25 79 14 80 24 81 15 82 16 83 17 84
REMARK SMILES IDX 22 85 18 86 19 87 21 88 23 89 20 90
REMARK H PARENT 82 23 50 34
REMARK Flexibility Score: inf
ROOT
ATOM      1  C   UNL A   1      31.824  28.884  27.075  1.00  0.00     0.202 C 
ENDROOT
BRANCH   1   2
ATOM      2  C   UNL A   1      31.554  30.341  26.691  1.00  0.00     0.261 C 
BRANCH   2   3
ATOM      3  O   UNL A   1      32.791  31.029  26.436  1.00  0.00    -0.460 OA
BRANCH   3   4
ATOM      4  C   UNL A   1      33.548  31.759  27.290  1.00  0.00     0.338 C 
ATOM      5  O   UNL A   1      33.173  32.901  27.556  1.00  0.00    -0.246 OA
BRANCH   4   6
ATOM      6  C   UNL A   1      34.804  31.264  27.938  1.00  0.00     0.060 A 
ATOM      7  C   UNL A   1      35.051  29.945  28.323  1.00  0.00     0.016 A 
ATOM      8  C   UNL A   1      35.850  32.192  28.085  1.00  0.00     0.016 A 
ATOM      9  C   UNL A   1      36.259  29.563  28.889  1.00  0.00     0.010 A 
ATOM     10  C   UNL A   1      37.086  31.810  28.617  1.00  0.00     0.010 A 
ATOM     11  C   UNL A   1      37.283  30.492  29.038  1.00  0.00    -0.014 A 
BRANCH  11  12
ATOM     12  C   UNL A   1      38.524  30.054  29.701  1.00  0.00     0.031 A 
ATOM     13  C   UNL A   1      38.807  30.542  31.087  1.00  0.00     0.074 A 
ATOM     14  C   UNL A   1      39.313  29.150  29.093  1.00  0.00     0.049 A 
ATOM     15  N   UNL A   1      39.816  30.266  31.866  1.00  0.00    -0.248 NA
ATOM     16  C   UNL A   1      37.813  31.452  31.682  1.00  0.00     0.031 C 
ATOM     17  C   UNL A   1      39.063  28.572  27.769  1.00  0.00     0.029 A 
ATOM     18  N   UNL A   1      40.470  28.548  29.507  1.00  0.00    -0.354 N 
ATOM     19  C   UNL A   1      39.602  30.996  33.027  1.00  0.00     0.074 A 
ATOM     20  C   UNL A   1      38.362  31.721  32.858  1.00  0.00     0.031 C 
ATOM     21  C   UNL A   1      40.038  27.696  27.483  1.00  0.00     0.029 A 
ATOM     22  C   UNL A   1      41.000  27.684  28.580  1.00  0.00     0.049 A 
ATOM     23  H   UNL A   1      40.882  28.718  30.385  1.00  0.00     0.167 HD
ATOM     24  C   UNL A   1      40.376  31.053  34.134  1.00  0.00     0.034 A 
ATOM     25  C   UNL A   1      42.150  26.981  28.611  1.00  0.00     0.034 A 
ATOM     26  C   UNL A   1      41.599  30.316  34.279  1.00  0.00     0.049 A 
ATOM     27  C   UNL A   1      43.008  27.090  29.843  1.00  0.00     0.074 A 
ATOM     28  C   UNL A   1      42.486  30.314  35.339  1.00  0.00     0.029 A 
ATOM     29  N   UNL A   1      42.110  29.448  33.323  1.00  0.00    -0.354 N 
ATOM     30  N   UNL A   1      42.776  27.752  30.952  1.00  0.00    -0.248 NA
ATOM     31  C   UNL A   1      44.274  26.348  29.838  1.00  0.00     0.031 C 
ATOM     32  C   UNL A   1      43.544  29.459  35.013  1.00  0.00     0.029 A 
ATOM     33  C   UNL A   1      43.305  28.910  33.762  1.00  0.00     0.049 A 
ATOM     34  H   UNL A   1      41.683  29.246  32.459  1.00  0.00     0.167 HD
ATOM     35  C   UNL A   1      43.855  27.493  31.785  1.00  0.00     0.074 A 
ATOM     36  C   UNL A   1      44.729  26.588  31.062  1.00  0.00     0.031 C 
ATOM     37  C   UNL A   1      44.119  27.973  33.026  1.00  0.00     0.034 A 
BRANCH  24  38
ATOM     38  C   UNL A   1      39.920  31.958  35.244  1.00  0.00     0.023 A 
ATOM     39  C   UNL A   1      39.006  31.484  36.208  1.00  0.00     0.012 A 
ATOM     40  C   UNL A   1      40.385  33.284  35.325  1.00  0.00     0.148 A 
ATOM     41  C   UNL A   1      38.535  32.328  37.213  1.00  0.00     0.002 A 
ATOM     42  C   UNL A   1      39.937  34.109  36.350  1.00  0.00     0.091 A 
ATOM     43  F   UNL A   1      41.229  33.723  34.380  1.00  0.00    -0.205 F 
ATOM     44  C   UNL A   1      39.006  33.636  37.288  1.00  0.00     0.022 A 
BRANCH  42  45
ATOM     45  S   UNL A   1      40.518  35.796  36.558  1.00  0.00     0.127 S 
ATOM     46  O   UNL A   1      40.390  35.976  38.003  1.00  0.00    -0.237 OA
ATOM     47  O   UNL A   1      41.896  35.707  36.074  1.00  0.00    -0.237 OA
ATOM     48  O   UNL A   1      39.641  36.627  35.744  1.00  0.00    -0.744 OA
ENDBRANCH  42  45
ENDBRANCH  24  38
BRANCH  25  49
ATOM     49  C   UNL A   1      42.534  26.117  27.458  1.00  0.00     0.023 A 
ATOM     50  C   UNL A   1      43.361  26.633  26.442  1.00  0.00     0.012 A 
ATOM     51  C   UNL A   1      42.114  24.774  27.379  1.00  0.00     0.148 A 
ATOM     52  C   UNL A   1      43.743  25.836  25.360  1.00  0.00     0.002 A 
ATOM     53  C   UNL A   1      42.543  23.969  26.329  1.00  0.00     0.091 A 
ATOM     54  F   UNL A   1      41.306  24.302  28.339  1.00  0.00    -0.205 F 
ATOM     55  C   UNL A   1      43.345  24.503  25.310  1.00  0.00     0.022 A 
BRANCH  53  56
ATOM     56  S   UNL A   1      42.183  22.210  26.263  1.00  0.00     0.127 S 
ATOM     57  O   UNL A   1      42.980  21.784  25.116  1.00  0.00    -0.237 OA
ATOM     58  O   UNL A   1      42.674  21.745  27.560  1.00  0.00    -0.237 OA
ATOM     59  O   UNL A   1      40.738  22.116  26.104  1.00  0.00    -0.744 OA
ENDBRANCH  53  56
ENDBRANCH  25  49
BRANCH  37  60
ATOM     60  C   UNL A   1      45.393  27.520  33.683  1.00  0.00     0.023 A 
ATOM     61  C   UNL A   1      46.566  28.283  33.526  1.00  0.00     0.012 A 
ATOM     62  C   UNL A   1      45.401  26.396  34.530  1.00  0.00     0.148 A 
ATOM     63  C   UNL A   1      47.737  27.920  34.188  1.00  0.00     0.002 A 
ATOM     64  C   UNL A   1      46.558  26.068  35.224  1.00  0.00     0.091 A 
ATOM     65  F   UNL A   1      44.277  25.672  34.646  1.00  0.00    -0.205 F 
ATOM     66  C   UNL A   1      47.729  26.823  35.046  1.00  0.00     0.022 A 
BRANCH  64  67
ATOM     67  S   UNL A   1      46.606  24.736  36.427  1.00  0.00     0.127 S 
ATOM     68  O   UNL A   1      47.875  24.992  37.106  1.00  0.00    -0.237 OA
ATOM     69  O   UNL A   1      45.416  25.001  37.236  1.00  0.00    -0.237 OA
ATOM     70  O   UNL A   1      46.545  23.501  35.655  1.00  0.00    -0.744 OA
ENDBRANCH  64  67
ENDBRANCH  37  60
ENDBRANCH  11  12
ENDBRANCH   4   6
ENDBRANCH   3   4
ENDBRANCH   2   3
ENDBRANCH   1   2
BRANCH   1  71
ATOM     71  O   UNL A   1      32.135  28.044  25.964  1.00  0.00    -0.374 OA
BRANCH  71  72
ATOM     72  C   UNL A   1      31.239  28.114  24.850  1.00  0.00     0.202 C 
BRANCH  72  73
ATOM     73  C   UNL A   1      32.051  28.262  23.561  1.00  0.00     0.261 C 
BRANCH  73  74
ATOM     74  O   UNL A   1      31.723  27.155  22.704  1.00  0.00    -0.459 OA
BRANCH  74  75
ATOM     75  C   UNL A   1      32.806  26.501  22.202  1.00  0.00     0.356 C 
ATOM     76  O   UNL A   1      33.759  26.996  21.625  1.00  0.00    -0.244 OA
BRANCH  75  77
ATOM     77  C   UNL A   1      32.703  25.075  22.620  1.00  0.00     0.148 A 
ATOM     78  C   UNL A   1      31.516  24.573  23.136  1.00  0.00     0.037 A 
ATOM     79  N   UNL A   1      33.839  24.337  22.507  1.00  0.00    -0.249 NA
ATOM     80  C   UNL A   1      31.480  23.234  23.517  1.00  0.00     0.013 A 
ATOM     81  C   UNL A   1      33.774  23.045  22.897  1.00  0.00     0.121 A 
ATOM     82  C   UNL A   1      32.621  22.434  23.383  1.00  0.00     0.006 A 
BRANCH  82  83
ATOM     83  C   UNL A   1      32.570  20.998  23.642  1.00  0.00     0.055 A 
ATOM     84  C   UNL A   1      32.861  20.510  24.922  1.00  0.00     0.134 A 
ATOM     85  C   UNL A   1      32.230  20.065  22.659  1.00  0.00     0.134 A 
ATOM     86  F   UNL A   1      33.184  21.363  25.906  1.00  0.00    -0.206 F 
ATOM     87  C   UNL A   1      32.825  19.149  25.216  1.00  0.00     0.040 A 
ATOM     88  C   UNL A   1      32.195  18.697  22.935  1.00  0.00     0.040 A 
ATOM     89  F   UNL A   1      31.935  20.471  21.415  1.00  0.00    -0.206 F 
ATOM     90  C   UNL A   1      32.495  18.236  24.218  1.00  0.00     0.006 A 
ENDBRANCH  82  83
ENDBRANCH  75  77
ENDBRANCH  74  75
ENDBRANCH  73  74
ENDBRANCH  72  73
ENDBRANCH  71  72
ENDBRANCH   1  71
TORSDOF 18
ENDMDL
