MODEL 1
REMARK VINA RESULT:     -10.6      0.000      0.000
REMARK SMILES CSc1ccccc1[C@H](C(=O)OCCOCCOC(=O)c1ccc(-c2c3nc(c(-c4cccc(S(=O)(=O)[O-])c4F)c4ccc([nH]4)c(-c4cccc(S(=O)(=O)[O-])c4F)c4nc(c(-c5cccc(S(=O)(=O)[O-])c5F)c5ccc2[nH]5)C=C4)C=C3)cc1)[N@H+](C)CCc1cnn(C)c1
REMARK SMILES IDX 14 1 13 2 12 3 10 4 11 5 9 6 8 7 3 8 4 9 5 10 7 11 6 12 2 13
REMARK SMILES IDX 1 14 84 15 85 16 86 18 87 19 88 20 89 21 93 22 90 23 91 24
REMARK SMILES IDX 92 25 15 26 16 27 17 28 18 29 19 30 20 31 21 32 22 33 83 34
REMARK SMILES IDX 23 35 82 36 24 37 25 38 26 39 76 40 27 41 81 42 75 43 77 44
REMARK SMILES IDX 28 45 80 46 74 47 73 48 29 50 61 51 41 52 60 53 42 54 45 55
REMARK SMILES IDX 59 56 78 57 43 58 44 59 58 61 79 62 46 63 30 64 31 65 39 66
REMARK SMILES IDX 32 67 34 68 40 69 33 70 35 71 36 72 37 73 38 74 62 75 63 76
REMARK SMILES IDX 71 77 64 78 66 79 72 80 65 81 67 82 68 83 69 84 70 85 47 86
REMARK SMILES IDX 48 87 56 88 49 89 51 90 57 91 50 92 52 93 53 94 54 95 55 96
REMARK H PARENT 84 17 77 49 45 60
REMARK Flexibility Score: inf
ROOT
ATOM      1  C   UNL A   1      36.206  22.725  25.185  1.00  0.00     0.202 C 
ENDROOT
BRANCH   1   2
ATOM      2  C   UNL A   1      35.784  23.799  24.139  1.00  0.00     0.261 C 
BRANCH   2   3
ATOM      3  O   UNL A   1      35.262  23.453  22.818  1.00  0.00    -0.459 OA
BRANCH   3   4
ATOM      4  C   UNL A   1      33.953  23.715  22.615  1.00  0.00     0.370 C 
ATOM      5  O   UNL A   1      33.494  23.731  21.481  1.00  0.00    -0.245 OA
BRANCH   4   6
ATOM      6  C   UNL A   1      33.024  23.931  23.829  1.00  0.00     0.327 C 
BRANCH   6   7
ATOM      7  C   UNL A   1      31.892  24.969  23.808  1.00  0.00     0.034 A 
ATOM      8  C   UNL A   1      32.112  26.287  24.304  1.00  0.00     0.017 A 
ATOM      9  C   UNL A   1      31.025  27.098  24.660  1.00  0.00     0.015 A 
ATOM     10  C   UNL A   1      29.724  26.665  24.435  1.00  0.00     0.001 A 
ATOM     11  C   UNL A   1      30.586  24.637  23.426  1.00  0.00     0.012 A 
ATOM     12  C   UNL A   1      29.510  25.468  23.761  1.00  0.00     0.001 A 
BRANCH   8  13
ATOM     13  S   UNL A   1      33.746  27.050  24.389  1.00  0.00    -0.129 SA
ATOM     14  C   UNL A   1      33.394  28.667  23.649  1.00  0.00     0.091 C 
ENDBRANCH   8  13
ENDBRANCH   6   7
BRANCH   6  15
ATOM     15  N   UNL A   1      32.397  22.591  24.140  1.00  0.00    -0.322 N 
ATOM     16  C   UNL A   1      32.373  22.339  25.583  1.00  0.00     0.333 C 
ATOM     17  H   UNL A   1      31.453  22.722  23.777  1.00  0.00     0.348 HD
BRANCH  15  18
ATOM     18  C   UNL A   1      32.806  21.382  23.360  1.00  0.00     0.267 C 
BRANCH  18  19
ATOM     19  C   UNL A   1      31.984  20.066  23.300  1.00  0.00     0.100 C 
BRANCH  19  20
ATOM     20  C   UNL A   1      32.525  18.681  23.570  1.00  0.00    -0.004 A 
ATOM     21  C   UNL A   1      33.103  17.845  22.570  1.00  0.00     0.139 A 
ATOM     22  C   UNL A   1      32.630  17.877  24.686  1.00  0.00     0.112 A 
ATOM     23  N   UNL A   1      33.688  16.745  23.054  1.00  0.00    -0.182 NA
ATOM     24  N   UNL A   1      33.498  16.865  24.376  1.00  0.00    -0.276 N 
ATOM     25  C   UNL A   1      34.310  16.105  25.301  1.00  0.00     0.173 C 
ENDBRANCH  19  20
ENDBRANCH  18  19
ENDBRANCH  15  18
ENDBRANCH   6  15
ENDBRANCH   4   6
ENDBRANCH   3   4
ENDBRANCH   2   3
ENDBRANCH   1   2
BRANCH   1  26
ATOM     26  O   UNL A   1      37.450  22.073  24.994  1.00  0.00    -0.374 OA
BRANCH  26  27
ATOM     27  C   UNL A   1      37.524  20.639  25.015  1.00  0.00     0.202 C 
BRANCH  27  28
ATOM     28  C   UNL A   1      38.796  19.921  25.530  1.00  0.00     0.261 C 
BRANCH  28  29
ATOM     29  O   UNL A   1      39.970  20.740  25.621  1.00  0.00    -0.460 OA
BRANCH  29  30
ATOM     30  C   UNL A   1      40.650  20.668  26.790  1.00  0.00     0.338 C 
ATOM     31  O   UNL A   1      41.187  19.690  27.271  1.00  0.00    -0.246 OA
BRANCH  30  32
ATOM     32  C   UNL A   1      40.861  22.056  27.253  1.00  0.00     0.060 A 
ATOM     33  C   UNL A   1      40.191  23.081  26.573  1.00  0.00     0.016 A 
ATOM     34  C   UNL A   1      41.652  22.333  28.370  1.00  0.00     0.016 A 
ATOM     35  C   UNL A   1      40.364  24.403  26.975  1.00  0.00     0.010 A 
ATOM     36  C   UNL A   1      41.834  23.659  28.762  1.00  0.00     0.010 A 
ATOM     37  C   UNL A   1      41.227  24.699  28.037  1.00  0.00    -0.014 A 
BRANCH  37  38
ATOM     38  C   UNL A   1      41.660  26.097  28.253  1.00  0.00     0.031 A 
ATOM     39  C   UNL A   1      43.055  26.472  27.836  1.00  0.00     0.074 A 
ATOM     40  C   UNL A   1      40.838  27.006  28.806  1.00  0.00     0.049 A 
ATOM     41  N   UNL A   1      43.668  27.621  27.935  1.00  0.00    -0.248 NA
ATOM     42  C   UNL A   1      43.872  25.407  27.227  1.00  0.00     0.031 C 
ATOM     43  C   UNL A   1      39.471  26.748  29.256  1.00  0.00     0.029 A 
ATOM     44  N   UNL A   1      41.050  28.327  29.109  1.00  0.00    -0.354 N 
ATOM     45  C   UNL A   1      44.947  27.410  27.435  1.00  0.00     0.074 A 
ATOM     46  C   UNL A   1      45.028  26.024  27.036  1.00  0.00     0.031 C 
ATOM     47  C   UNL A   1      38.978  27.869  29.813  1.00  0.00     0.029 A 
ATOM     48  C   UNL A   1      40.000  28.913  29.775  1.00  0.00     0.049 A 
ATOM     49  H   UNL A   1      41.876  28.809  28.872  1.00  0.00     0.167 HD
ATOM     50  C   UNL A   1      45.960  28.298  27.308  1.00  0.00     0.034 A 
ATOM     51  C   UNL A   1      39.893  30.145  30.313  1.00  0.00     0.034 A 
ATOM     52  C   UNL A   1      45.864  29.680  27.684  1.00  0.00     0.049 A 
ATOM     53  C   UNL A   1      41.039  31.113  30.156  1.00  0.00     0.074 A 
ATOM     54  C   UNL A   1      46.809  30.677  27.535  1.00  0.00     0.029 A 
ATOM     55  N   UNL A   1      44.763  30.256  28.298  1.00  0.00    -0.354 N 
ATOM     56  N   UNL A   1      42.190  30.939  29.551  1.00  0.00    -0.248 NA
ATOM     57  C   UNL A   1      40.858  32.458  30.721  1.00  0.00     0.031 C 
ATOM     58  C   UNL A   1      46.291  31.851  28.090  1.00  0.00     0.029 A 
ATOM     59  C   UNL A   1      45.011  31.592  28.551  1.00  0.00     0.049 A 
ATOM     60  H   UNL A   1      43.928  29.783  28.520  1.00  0.00     0.167 HD
ATOM     61  C   UNL A   1      42.853  32.159  29.632  1.00  0.00     0.074 A 
ATOM     62  C   UNL A   1      41.965  33.071  30.324  1.00  0.00     0.031 C 
ATOM     63  C   UNL A   1      44.090  32.496  29.189  1.00  0.00     0.034 A 
BRANCH  50  64
ATOM     64  C   UNL A   1      47.257  27.808  26.726  1.00  0.00     0.023 A 
ATOM     65  C   UNL A   1      48.239  27.253  27.570  1.00  0.00     0.012 A 
ATOM     66  C   UNL A   1      47.469  27.828  25.334  1.00  0.00     0.148 A 
ATOM     67  C   UNL A   1      49.422  26.740  27.039  1.00  0.00     0.002 A 
ATOM     68  C   UNL A   1      48.629  27.275  24.809  1.00  0.00     0.091 A 
ATOM     69  F   UNL A   1      46.532  28.386  24.555  1.00  0.00    -0.205 F 
ATOM     70  C   UNL A   1      49.610  26.740  25.659  1.00  0.00     0.022 A 
BRANCH  68  71
ATOM     71  S   UNL A   1      48.932  27.156  23.042  1.00  0.00     0.127 S 
ATOM     72  O   UNL A   1      50.393  27.106  22.996  1.00  0.00    -0.237 OA
ATOM     73  O   UNL A   1      48.268  25.897  22.704  1.00  0.00    -0.237 OA
ATOM     74  O   UNL A   1      48.333  28.342  22.448  1.00  0.00    -0.744 OA
ENDBRANCH  68  71
ENDBRANCH  50  64
BRANCH  51  75
ATOM     75  C   UNL A   1      38.652  30.543  31.037  1.00  0.00     0.023 A 
ATOM     76  C   UNL A   1      38.508  30.237  32.405  1.00  0.00     0.012 A 
ATOM     77  C   UNL A   1      37.611  31.222  30.374  1.00  0.00     0.148 A 
ATOM     78  C   UNL A   1      37.335  30.565  33.088  1.00  0.00     0.002 A 
ATOM     79  C   UNL A   1      36.472  31.598  31.075  1.00  0.00     0.091 A 
ATOM     80  F   UNL A   1      37.755  31.485  29.067  1.00  0.00    -0.205 F 
ATOM     81  C   UNL A   1      36.322  31.254  32.426  1.00  0.00     0.022 A 
BRANCH  79  82
ATOM     82  S   UNL A   1      35.184  32.607  30.332  1.00  0.00     0.127 S 
ATOM     83  O   UNL A   1      34.242  32.754  31.439  1.00  0.00    -0.237 OA
ATOM     84  O   UNL A   1      35.917  33.824  29.979  1.00  0.00    -0.237 OA
ATOM     85  O   UNL A   1      34.708  31.846  29.186  1.00  0.00    -0.744 OA
ENDBRANCH  79  82
ENDBRANCH  51  75
BRANCH  63  86
ATOM     86  C   UNL A   1      44.547  33.916  29.398  1.00  0.00     0.023 A 
ATOM     87  C   UNL A   1      45.170  34.282  30.607  1.00  0.00     0.012 A 
ATOM     88  C   UNL A   1      44.431  34.863  28.362  1.00  0.00     0.148 A 
ATOM     89  C   UNL A   1      45.639  35.582  30.795  1.00  0.00     0.002 A 
ATOM     90  C   UNL A   1      44.947  36.141  28.537  1.00  0.00     0.091 A 
ATOM     91  F   UNL A   1      43.821  34.498  27.225  1.00  0.00    -0.205 F 
ATOM     92  C   UNL A   1      45.538  36.506  29.758  1.00  0.00     0.022 A 
BRANCH  90  93
ATOM     93  S   UNL A   1      44.953  37.362  27.220  1.00  0.00     0.127 S 
ATOM     94  O   UNL A   1      45.831  36.734  26.235  1.00  0.00    -0.237 OA
ATOM     95  O   UNL A   1      43.541  37.411  26.835  1.00  0.00    -0.237 OA
ATOM     96  O   UNL A   1      45.458  38.592  27.815  1.00  0.00    -0.744 OA
ENDBRANCH  90  93
ENDBRANCH  63  86
ENDBRANCH  37  38
ENDBRANCH  30  32
ENDBRANCH  29  30
ENDBRANCH  28  29
ENDBRANCH  27  28
ENDBRANCH  26  27
ENDBRANCH   1  26
TORSDOF 23
ENDMDL
MODEL 2
REMARK VINA RESULT:     -10.3      4.786      9.960
REMARK SMILES CSc1ccccc1[C@H](C(=O)OCCOCCOC(=O)c1ccc(-c2c3nc(c(-c4cccc(S(=O)(=O)[O-])c4F)c4ccc([nH]4)c(-c4cccc(S(=O)(=O)[O-])c4F)c4nc(c(-c5cccc(S(=O)(=O)[O-])c5F)c5ccc2[nH]5)C=C4)C=C3)cc1)[N@H+](C)CCc1cnn(C)c1
REMARK SMILES IDX 14 1 13 2 12 3 10 4 11 5 9 6 8 7 3 8 4 9 5 10 7 11 6 12 2 13
REMARK SMILES IDX 1 14 84 15 85 16 86 18 87 19 88 20 89 21 93 22 90 23 91 24
REMARK SMILES IDX 92 25 15 26 16 27 17 28 18 29 19 30 20 31 21 32 22 33 83 34
REMARK SMILES IDX 23 35 82 36 24 37 25 38 26 39 76 40 27 41 81 42 75 43 77 44
REMARK SMILES IDX 28 45 80 46 74 47 73 48 29 50 61 51 41 52 60 53 42 54 45 55
REMARK SMILES IDX 59 56 78 57 43 58 44 59 58 61 79 62 46 63 30 64 31 65 39 66
REMARK SMILES IDX 32 67 34 68 40 69 33 70 35 71 36 72 37 73 38 74 62 75 63 76
REMARK SMILES IDX 71 77 64 78 66 79 72 80 65 81 67 82 68 83 69 84 70 85 47 86
REMARK SMILES IDX 48 87 56 88 49 89 51 90 57 91 50 92 52 93 53 94 54 95 55 96
REMARK H PARENT 84 17 77 49 45 60
REMARK Flexibility Score: inf
ROOT
ATOM      1  C   UNL A   1      30.325  28.615  23.714  1.00  0.00     0.202 C 
ENDROOT
BRANCH   1   2
ATOM      2  C   UNL A   1      31.117  27.406  23.133  1.00  0.00     0.261 C 
BRANCH   2   3
ATOM      3  O   UNL A   1      32.213  26.760  23.853  1.00  0.00    -0.459 OA
BRANCH   3   4
ATOM      4  C   UNL A   1      32.020  25.463  24.179  1.00  0.00     0.370 C 
ATOM      5  O   UNL A   1      30.888  25.022  24.313  1.00  0.00    -0.245 OA
BRANCH   4   6
ATOM      6  C   UNL A   1      33.239  24.526  24.318  1.00  0.00     0.327 C 
BRANCH   6   7
ATOM      7  C   UNL A   1      33.561  23.806  25.636  1.00  0.00     0.034 A 
ATOM      8  C   UNL A   1      34.851  23.239  25.852  1.00  0.00     0.017 A 
ATOM      9  C   UNL A   1      35.035  22.260  26.839  1.00  0.00     0.015 A 
ATOM     10  C   UNL A   1      33.988  21.910  27.684  1.00  0.00     0.001 A 
ATOM     11  C   UNL A   1      32.584  23.569  26.612  1.00  0.00     0.012 A 
ATOM     12  C   UNL A   1      32.789  22.610  27.611  1.00  0.00     0.001 A 
BRANCH   8  13
ATOM     13  S   UNL A   1      36.335  23.807  24.996  1.00  0.00    -0.129 SA
ATOM     14  C   UNL A   1      36.296  22.743  23.528  1.00  0.00     0.091 C 
ENDBRANCH   8  13
ENDBRANCH   6   7
BRANCH   6  15
ATOM     15  N   UNL A   1      33.093  23.464  23.252  1.00  0.00    -0.322 N 
ATOM     16  C   UNL A   1      32.621  24.040  21.990  1.00  0.00     0.333 C 
ATOM     17  H   UNL A   1      34.055  23.135  23.164  1.00  0.00     0.348 HD
BRANCH  15  18
ATOM     18  C   UNL A   1      32.409  22.175  23.578  1.00  0.00     0.267 C 
BRANCH  18  19
ATOM     19  C   UNL A   1      32.960  20.775  23.193  1.00  0.00     0.100 C 
BRANCH  19  20
ATOM     20  C   UNL A   1      33.010  19.571  24.105  1.00  0.00    -0.004 A 
ATOM     21  C   UNL A   1      32.519  19.568  25.444  1.00  0.00     0.139 A 
ATOM     22  C   UNL A   1      33.470  18.277  23.986  1.00  0.00     0.112 A 
ATOM     23  N   UNL A   1      32.485  18.357  26.008  1.00  0.00    -0.182 NA
ATOM     24  N   UNL A   1      32.950  17.563  25.032  1.00  0.00    -0.276 N 
ATOM     25  C   UNL A   1      32.708  16.138  25.074  1.00  0.00     0.173 C 
ENDBRANCH  19  20
ENDBRANCH  18  19
ENDBRANCH  15  18
ENDBRANCH   6  15
ENDBRANCH   4   6
ENDBRANCH   3   4
ENDBRANCH   2   3
ENDBRANCH   1   2
BRANCH   1  26
ATOM     26  O   UNL A   1      31.069  29.729  24.176  1.00  0.00    -0.374 OA
BRANCH  26  27
ATOM     27  C   UNL A   1      31.551  29.764  25.529  1.00  0.00     0.202 C 
BRANCH  27  28
ATOM     28  C   UNL A   1      31.735  31.112  26.268  1.00  0.00     0.261 C 
BRANCH  28  29
ATOM     29  O   UNL A   1      32.607  31.076  27.406  1.00  0.00    -0.460 OA
BRANCH  29  30
ATOM     30  C   UNL A   1      33.443  32.134  27.542  1.00  0.00     0.338 C 
ATOM     31  O   UNL A   1      33.147  33.311  27.529  1.00  0.00    -0.246 OA
BRANCH  30  32
ATOM     32  C   UNL A   1      34.747  31.599  27.987  1.00  0.00     0.060 A 
ATOM     33  C   UNL A   1      34.848  30.219  28.208  1.00  0.00     0.016 A 
ATOM     34  C   UNL A   1      35.862  32.430  28.120  1.00  0.00     0.016 A 
ATOM     35  C   UNL A   1      36.058  29.674  28.630  1.00  0.00     0.010 A 
ATOM     36  C   UNL A   1      37.069  31.883  28.555  1.00  0.00     0.010 A 
ATOM     37  C   UNL A   1      37.156  30.513  28.854  1.00  0.00    -0.014 A 
BRANCH  37  38
ATOM     38  C   UNL A   1      38.325  29.995  29.600  1.00  0.00     0.031 A 
ATOM     39  C   UNL A   1      38.512  30.458  31.019  1.00  0.00     0.074 A 
ATOM     40  C   UNL A   1      39.194  29.142  29.033  1.00  0.00     0.049 A 
ATOM     41  N   UNL A   1      39.459  30.161  31.867  1.00  0.00    -0.248 NA
ATOM     42  C   UNL A   1      37.496  31.383  31.552  1.00  0.00     0.031 C 
ATOM     43  C   UNL A   1      39.113  28.637  27.663  1.00  0.00     0.029 A 
ATOM     44  N   UNL A   1      40.335  28.571  29.536  1.00  0.00    -0.354 N 
ATOM     45  C   UNL A   1      39.174  30.885  33.018  1.00  0.00     0.074 A 
ATOM     46  C   UNL A   1      37.969  31.641  32.763  1.00  0.00     0.031 C 
ATOM     47  C   UNL A   1      40.184  27.859  27.423  1.00  0.00     0.029 A 
ATOM     48  C   UNL A   1      41.031  27.827  28.613  1.00  0.00     0.049 A 
ATOM     49  H   UNL A   1      40.628  28.684  30.470  1.00  0.00     0.167 HD
ATOM     50  C   UNL A   1      39.851  30.908  34.189  1.00  0.00     0.034 A 
ATOM     51  C   UNL A   1      42.227  27.215  28.716  1.00  0.00     0.034 A 
ATOM     52  C   UNL A   1      41.033  30.136  34.445  1.00  0.00     0.049 A 
ATOM     53  C   UNL A   1      42.959  27.258  30.034  1.00  0.00     0.074 A 
ATOM     54  C   UNL A   1      41.757  30.037  35.619  1.00  0.00     0.029 A 
ATOM     55  N   UNL A   1      41.676  29.343  33.507  1.00  0.00    -0.354 N 
ATOM     56  N   UNL A   1      42.602  27.831  31.159  1.00  0.00    -0.248 NA
ATOM     57  C   UNL A   1      44.239  26.538  30.111  1.00  0.00     0.031 C 
ATOM     58  C   UNL A   1      42.857  29.208  35.381  1.00  0.00     0.029 A 
ATOM     59  C   UNL A   1      42.798  28.764  34.070  1.00  0.00     0.049 A 
ATOM     60  H   UNL A   1      41.377  29.212  32.579  1.00  0.00     0.167 HD
ATOM     61  C   UNL A   1      43.592  27.512  32.083  1.00  0.00     0.074 A 
ATOM     62  C   UNL A   1      44.552  26.676  31.392  1.00  0.00     0.031 C 
ATOM     63  C   UNL A   1      43.709  27.888  33.380  1.00  0.00     0.034 A 
BRANCH  50  64
ATOM     64  C   UNL A   1      39.323  31.785  35.291  1.00  0.00     0.023 A 
ATOM     65  C   UNL A   1      38.409  31.261  36.227  1.00  0.00     0.012 A 
ATOM     66  C   UNL A   1      39.794  33.103  35.444  1.00  0.00     0.148 A 
ATOM     67  C   UNL A   1      37.957  32.043  37.290  1.00  0.00     0.002 A 
ATOM     68  C   UNL A   1      39.374  33.860  36.530  1.00  0.00     0.091 A 
ATOM     69  F   UNL A   1      40.642  33.588  34.526  1.00  0.00    -0.205 F 
ATOM     70  C   UNL A   1      38.449  33.336  37.447  1.00  0.00     0.022 A 
BRANCH  68  71
ATOM     71  S   UNL A   1      40.006  35.508  36.865  1.00  0.00     0.127 S 
ATOM     72  O   UNL A   1      39.537  36.248  35.695  1.00  0.00    -0.237 OA
ATOM     73  O   UNL A   1      39.324  35.847  38.115  1.00  0.00    -0.237 OA
ATOM     74  O   UNL A   1      41.451  35.372  36.976  1.00  0.00    -0.744 OA
ENDBRANCH  68  71
ENDBRANCH  50  64
BRANCH  51  75
ATOM     75  C   UNL A   1      42.807  26.495  27.546  1.00  0.00     0.023 A 
ATOM     76  C   UNL A   1      43.717  27.153  26.697  1.00  0.00     0.012 A 
ATOM     77  C   UNL A   1      42.455  25.159  27.270  1.00  0.00     0.148 A 
ATOM     78  C   UNL A   1      44.236  26.507  25.572  1.00  0.00     0.002 A 
ATOM     79  C   UNL A   1      43.021  24.504  26.183  1.00  0.00     0.091 A 
ATOM     80  F   UNL A   1      41.570  24.555  28.075  1.00  0.00    -0.205 F 
ATOM     81  C   UNL A   1      43.897  25.181  25.322  1.00  0.00     0.022 A 
BRANCH  79  82
ATOM     82  S   UNL A   1      42.744  22.756  25.872  1.00  0.00     0.127 S 
ATOM     83  O   UNL A   1      43.191  22.623  24.488  1.00  0.00    -0.237 OA
ATOM     84  O   UNL A   1      43.616  22.128  26.866  1.00  0.00    -0.237 OA
ATOM     85  O   UNL A   1      41.323  22.541  26.107  1.00  0.00    -0.744 OA
ENDBRANCH  79  82
ENDBRANCH  51  75
BRANCH  63  86
ATOM     86  C   UNL A   1      44.890  27.369  34.157  1.00  0.00     0.023 A 
ATOM     87  C   UNL A   1      46.056  28.151  34.269  1.00  0.00     0.012 A 
ATOM     88  C   UNL A   1      44.811  26.141  34.842  1.00  0.00     0.148 A 
ATOM     89  C   UNL A   1      47.140  27.702  35.023  1.00  0.00     0.002 A 
ATOM     90  C   UNL A   1      45.875  25.724  35.633  1.00  0.00     0.091 A 
ATOM     91  F   UNL A   1      43.698  25.404  34.711  1.00  0.00    -0.205 F 
ATOM     92  C   UNL A   1      47.044  26.496  35.713  1.00  0.00     0.022 A 
BRANCH  90  93
ATOM     93  S   UNL A   1      45.798  24.237  36.637  1.00  0.00     0.127 S 
ATOM     94  O   UNL A   1      47.210  23.869  36.732  1.00  0.00    -0.237 OA
ATOM     95  O   UNL A   1      45.212  24.732  37.883  1.00  0.00    -0.237 OA
ATOM     96  O   UNL A   1      44.956  23.301  35.905  1.00  0.00    -0.744 OA
ENDBRANCH  90  93
ENDBRANCH  63  86
ENDBRANCH  37  38
ENDBRANCH  30  32
ENDBRANCH  29  30
ENDBRANCH  28  29
ENDBRANCH  27  28
ENDBRANCH  26  27
ENDBRANCH   1  26
TORSDOF 23
ENDMDL
MODEL 3
REMARK VINA RESULT:     -10.2      2.457      8.464
REMARK SMILES CSc1ccccc1[C@H](C(=O)OCCOCCOC(=O)c1ccc(-c2c3nc(c(-c4cccc(S(=O)(=O)[O-])c4F)c4ccc([nH]4)c(-c4cccc(S(=O)(=O)[O-])c4F)c4nc(c(-c5cccc(S(=O)(=O)[O-])c5F)c5ccc2[nH]5)C=C4)C=C3)cc1)[N@H+](C)CCc1cnn(C)c1
REMARK SMILES IDX 14 1 13 2 12 3 10 4 11 5 9 6 8 7 3 8 4 9 5 10 7 11 6 12 2 13
REMARK SMILES IDX 1 14 84 15 85 16 86 18 87 19 88 20 89 21 93 22 90 23 91 24
REMARK SMILES IDX 92 25 15 26 16 27 17 28 18 29 19 30 20 31 21 32 22 33 83 34
REMARK SMILES IDX 23 35 82 36 24 37 25 38 26 39 76 40 27 41 81 42 75 43 77 44
REMARK SMILES IDX 28 45 80 46 74 47 73 48 29 50 61 51 41 52 60 53 42 54 45 55
REMARK SMILES IDX 59 56 78 57 43 58 44 59 58 61 79 62 46 63 30 64 31 65 39 66
REMARK SMILES IDX 32 67 34 68 40 69 33 70 35 71 36 72 37 73 38 74 62 75 63 76
REMARK SMILES IDX 71 77 64 78 66 79 72 80 65 81 67 82 68 83 69 84 70 85 47 86
REMARK SMILES IDX 48 87 56 88 49 89 51 90 57 91 50 92 52 93 53 94 54 95 55 96
REMARK H PARENT 84 17 77 49 45 60
REMARK Flexibility Score: inf
ROOT
ATOM      1  C   UNL A   1      36.449  23.094  24.828  1.00  0.00     0.202 C 
ENDROOT
BRANCH   1   2
ATOM      2  C   UNL A   1      35.264  24.049  25.161  1.00  0.00     0.261 C 
BRANCH   2   3
ATOM      3  O   UNL A   1      33.927  23.877  24.594  1.00  0.00    -0.459 OA
BRANCH   3   4
ATOM      4  C   UNL A   1      32.896  24.141  25.425  1.00  0.00     0.370 C 
ATOM      5  O   UNL A   1      32.539  23.311  26.249  1.00  0.00    -0.245 OA
BRANCH   4   6
ATOM      6  C   UNL A   1      32.213  25.524  25.372  1.00  0.00     0.327 C 
BRANCH   6   7
ATOM      7  C   UNL A   1      32.833  26.706  24.611  1.00  0.00     0.034 A 
ATOM      8  C   UNL A   1      32.833  28.012  25.182  1.00  0.00     0.017 A 
ATOM      9  C   UNL A   1      33.018  29.138  24.368  1.00  0.00     0.015 A 
ATOM     10  C   UNL A   1      33.307  28.988  23.016  1.00  0.00     0.001 A 
ATOM     11  C   UNL A   1      33.303  26.580  23.297  1.00  0.00     0.012 A 
ATOM     12  C   UNL A   1      33.512  27.712  22.501  1.00  0.00     0.001 A 
BRANCH   8  13
ATOM     13  S   UNL A   1      32.733  28.312  26.959  1.00  0.00    -0.129 SA
ATOM     14  C   UNL A   1      32.072  30.001  26.972  1.00  0.00     0.091 C 
ENDBRANCH   8  13
ENDBRANCH   6   7
BRANCH   6  15
ATOM     15  N   UNL A   1      30.829  25.303  24.804  1.00  0.00    -0.322 N 
ATOM     16  C   UNL A   1      30.876  24.454  23.611  1.00  0.00     0.333 C 
ATOM     17  H   UNL A   1      30.370  24.821  25.576  1.00  0.00     0.348 HD
BRANCH  15  18
ATOM     18  C   UNL A   1      29.902  26.464  24.637  1.00  0.00     0.267 C 
BRANCH  18  19
ATOM     19  C   UNL A   1      29.567  27.122  23.271  1.00  0.00     0.100 C 
BRANCH  19  20
ATOM     20  C   UNL A   1      28.994  28.507  23.082  1.00  0.00    -0.004 A 
ATOM     21  C   UNL A   1      27.598  28.798  23.086  1.00  0.00     0.139 A 
ATOM     22  C   UNL A   1      29.529  29.762  22.872  1.00  0.00     0.112 A 
ATOM     23  N   UNL A   1      27.315  30.104  23.094  1.00  0.00    -0.182 NA
ATOM     24  N   UNL A   1      28.531  30.671  23.100  1.00  0.00    -0.276 N 
ATOM     25  C   UNL A   1      28.690  32.049  23.508  1.00  0.00     0.173 C 
ENDBRANCH  19  20
ENDBRANCH  18  19
ENDBRANCH  15  18
ENDBRANCH   6  15
ENDBRANCH   4   6
ENDBRANCH   3   4
ENDBRANCH   2   3
ENDBRANCH   1   2
BRANCH   1  26
ATOM     26  O   UNL A   1      36.134  21.795  24.356  1.00  0.00    -0.374 OA
BRANCH  26  27
ATOM     27  C   UNL A   1      36.507  20.639  25.123  1.00  0.00     0.202 C 
BRANCH  27  28
ATOM     28  C   UNL A   1      37.960  20.103  25.087  1.00  0.00     0.261 C 
BRANCH  28  29
ATOM     29  O   UNL A   1      38.983  21.084  25.303  1.00  0.00    -0.460 OA
BRANCH  29  30
ATOM     30  C   UNL A   1      39.861  20.812  26.299  1.00  0.00     0.338 C 
ATOM     31  O   UNL A   1      40.371  19.741  26.557  1.00  0.00    -0.246 OA
BRANCH  30  32
ATOM     32  C   UNL A   1      40.303  22.110  26.851  1.00  0.00     0.060 A 
ATOM     33  C   UNL A   1      39.712  23.274  26.342  1.00  0.00     0.016 A 
ATOM     34  C   UNL A   1      41.232  22.173  27.892  1.00  0.00     0.016 A 
ATOM     35  C   UNL A   1      40.101  24.517  26.833  1.00  0.00     0.010 A 
ATOM     36  C   UNL A   1      41.630  23.420  28.372  1.00  0.00     0.010 A 
ATOM     37  C   UNL A   1      41.099  24.595  27.813  1.00  0.00    -0.014 A 
BRANCH  37  38
ATOM     38  C   UNL A   1      41.737  25.900  28.097  1.00  0.00     0.031 A 
ATOM     39  C   UNL A   1      40.898  26.964  28.750  1.00  0.00     0.074 A 
ATOM     40  C   UNL A   1      43.022  26.132  27.782  1.00  0.00     0.049 A 
ATOM     41  N   UNL A   1      41.222  28.184  29.083  1.00  0.00    -0.248 NA
ATOM     42  C   UNL A   1      39.504  26.605  29.068  1.00  0.00     0.031 C 
ATOM     43  C   UNL A   1      43.923  25.176  27.138  1.00  0.00     0.029 A 
ATOM     44  N   UNL A   1      43.785  27.262  27.937  1.00  0.00    -0.354 N 
ATOM     45  C   UNL A   1      40.070  28.748  29.616  1.00  0.00     0.074 A 
ATOM     46  C   UNL A   1      39.034  27.741  29.560  1.00  0.00     0.031 C 
ATOM     47  C   UNL A   1      45.107  25.775  26.919  1.00  0.00     0.029 A 
ATOM     48  C   UNL A   1      45.041  27.157  27.390  1.00  0.00     0.049 A 
ATOM     49  H   UNL A   1      43.462  28.071  28.397  1.00  0.00     0.167 HD
ATOM     50  C   UNL A   1      39.893  29.991  30.119  1.00  0.00     0.034 A 
ATOM     51  C   UNL A   1      46.013  28.083  27.263  1.00  0.00     0.034 A 
ATOM     52  C   UNL A   1      40.933  30.978  30.194  1.00  0.00     0.049 A 
ATOM     53  C   UNL A   1      45.788  29.461  27.834  1.00  0.00     0.074 A 
ATOM     54  C   UNL A   1      40.876  32.244  30.746  1.00  0.00     0.029 A 
ATOM     55  N   UNL A   1      42.213  30.816  29.688  1.00  0.00    -0.354 N 
ATOM     56  N   UNL A   1      44.739  29.932  28.465  1.00  0.00    -0.248 NA
ATOM     57  C   UNL A   1      46.894  30.423  27.710  1.00  0.00     0.031 C 
ATOM     58  C   UNL A   1      42.115  32.861  30.544  1.00  0.00     0.029 A 
ATOM     59  C   UNL A   1      42.952  31.965  29.899  1.00  0.00     0.049 A 
ATOM     60  H   UNL A   1      42.546  30.003  29.244  1.00  0.00     0.167 HD
ATOM     61  C   UNL A   1      45.071  31.229  28.843  1.00  0.00     0.074 A 
ATOM     62  C   UNL A   1      46.427  31.461  28.390  1.00  0.00     0.031 C 
ATOM     63  C   UNL A   1      44.319  32.153  29.491  1.00  0.00     0.034 A 
BRANCH  50  64
ATOM     64  C   UNL A   1      38.531  30.353  30.643  1.00  0.00     0.023 A 
ATOM     65  C   UNL A   1      38.179  30.026  31.967  1.00  0.00     0.012 A 
ATOM     66  C   UNL A   1      37.631  31.087  29.846  1.00  0.00     0.148 A 
ATOM     67  C   UNL A   1      36.943  30.409  32.486  1.00  0.00     0.002 A 
ATOM     68  C   UNL A   1      36.420  31.502  30.385  1.00  0.00     0.091 A 
ATOM     69  F   UNL A   1      37.977  31.362  28.581  1.00  0.00    -0.205 F 
ATOM     70  C   UNL A   1      36.070  31.156  31.700  1.00  0.00     0.022 A 
BRANCH  68  71
ATOM     71  S   UNL A   1      35.261  32.534  29.481  1.00  0.00     0.127 S 
ATOM     72  O   UNL A   1      34.842  31.636  28.406  1.00  0.00    -0.237 OA
ATOM     73  O   UNL A   1      34.235  32.796  30.491  1.00  0.00    -0.237 OA
ATOM     74  O   UNL A   1      36.010  33.707  29.054  1.00  0.00    -0.744 OA
ENDBRANCH  68  71
ENDBRANCH  50  64
BRANCH  51  75
ATOM     75  C   UNL A   1      47.294  27.740  26.582  1.00  0.00     0.023 A 
ATOM     76  C   UNL A   1      48.413  27.351  27.344  1.00  0.00     0.012 A 
ATOM     77  C   UNL A   1      47.409  27.800  25.179  1.00  0.00     0.148 A 
ATOM     78  C   UNL A   1      49.632  27.067  26.725  1.00  0.00     0.002 A 
ATOM     79  C   UNL A   1      48.608  27.459  24.566  1.00  0.00     0.091 A 
ATOM     80  F   UNL A   1      46.341  28.194  24.470  1.00  0.00    -0.205 F 
ATOM     81  C   UNL A   1      49.727  27.111  25.337  1.00  0.00     0.022 A 
BRANCH  79  82
ATOM     82  S   UNL A   1      48.772  27.356  22.779  1.00  0.00     0.127 S 
ATOM     83  O   UNL A   1      50.203  27.579  22.596  1.00  0.00    -0.237 OA
ATOM     84  O   UNL A   1      48.320  25.989  22.511  1.00  0.00    -0.237 OA
ATOM     85  O   UNL A   1      47.892  28.388  22.249  1.00  0.00    -0.744 OA
ENDBRANCH  79  82
ENDBRANCH  51  75
BRANCH  63  86
ATOM     86  C   UNL A   1      44.953  33.486  29.791  1.00  0.00     0.023 A 
ATOM     87  C   UNL A   1      44.918  34.513  28.828  1.00  0.00     0.012 A 
ATOM     88  C   UNL A   1      45.509  33.744  31.060  1.00  0.00     0.148 A 
ATOM     89  C   UNL A   1      45.461  35.767  29.111  1.00  0.00     0.002 A 
ATOM     90  C   UNL A   1      46.001  35.010  31.352  1.00  0.00     0.091 A 
ATOM     91  F   UNL A   1      45.546  32.748  31.957  1.00  0.00    -0.205 F 
ATOM     92  C   UNL A   1      45.991  36.018  30.374  1.00  0.00     0.022 A 
BRANCH  90  93
ATOM     93  S   UNL A   1      46.607  35.451  32.984  1.00  0.00     0.127 S 
ATOM     94  O   UNL A   1      46.986  36.849  32.793  1.00  0.00    -0.237 OA
ATOM     95  O   UNL A   1      45.423  35.248  33.820  1.00  0.00    -0.237 OA
ATOM     96  O   UNL A   1      47.706  34.537  33.265  1.00  0.00    -0.744 OA
ENDBRANCH  90  93
ENDBRANCH  63  86
ENDBRANCH  37  38
ENDBRANCH  30  32
ENDBRANCH  29  30
ENDBRANCH  28  29
ENDBRANCH  27  28
ENDBRANCH  26  27
ENDBRANCH   1  26
TORSDOF 23
ENDMDL
