MODEL 1
REMARK VINA RESULT:     -11.4      0.000      0.000
REMARK SMILES CC(C)[NH2+][C@]1(C(=O)OCCOCCOC(=O)c2ccc(-c3c4nc(c(-c5cccc(S(=O)(=O)[O-])c5F)c5ccc([nH]5)c(-c5cccc(S(=O)(=O)[O-])c5F)c5nc(c(-c6cccc(S(=O)(=O)[O-])c6F)c6ccc3[nH]6)C=C5)C=C4)cc2)CCC[C@@H](Sc2ccc(Cl)cc2)C1
REMARK SMILES IDX 12 1 11 2 10 3 9 4 8 5 6 6 7 7 5 8 80 9 92 10 81 11 83 12
REMARK SMILES IDX 82 13 4 14 2 17 1 18 3 19 84 20 85 21 86 22 91 23 87 24
REMARK SMILES IDX 90 25 88 26 89 27 13 28 14 29 15 30 16 31 17 32 18 33 79 34
REMARK SMILES IDX 19 35 78 36 20 37 21 38 22 39 72 40 23 41 77 42 71 43 73 44
REMARK SMILES IDX 24 45 76 46 70 47 69 48 25 50 57 51 37 52 56 53 38 54 41 55
REMARK SMILES IDX 55 56 74 57 39 58 40 59 54 61 75 62 42 63 26 64 27 65 35 66
REMARK SMILES IDX 28 67 30 68 36 69 29 70 31 71 32 72 33 73 34 74 58 75 59 76
REMARK SMILES IDX 67 77 60 78 62 79 68 80 61 81 63 82 64 83 65 84 66 85 43 86
REMARK SMILES IDX 44 87 52 88 45 89 47 90 53 91 46 92 48 93 49 94 50 95 51 96
REMARK H PARENT 4 15 4 16 73 49 41 60
REMARK Flexibility Score: inf
ROOT
ATOM      1  C   UNL A   1      31.659  29.928  25.339  1.00  0.00     0.202 C 
ENDROOT
BRANCH   1   2
ATOM      2  O   UNL A   1      32.873  29.701  24.627  1.00  0.00    -0.374 OA
BRANCH   2   3
ATOM      3  C   UNL A   1      32.761  28.949  23.414  1.00  0.00     0.202 C 
BRANCH   3   4
ATOM      4  C   UNL A   1      33.630  27.691  23.353  1.00  0.00     0.261 C 
BRANCH   4   5
ATOM      5  O   UNL A   1      32.970  26.601  24.025  1.00  0.00    -0.459 OA
BRANCH   5   6
ATOM      6  C   UNL A   1      33.474  26.204  25.222  1.00  0.00     0.368 C 
ATOM      7  O   UNL A   1      33.995  26.984  26.014  1.00  0.00    -0.245 OA
BRANCH   6   8
ATOM      8  C   UNL A   1      33.202  24.691  25.544  1.00  0.00     0.195 C 
ATOM      9  C   UNL A   1      31.897  24.717  26.412  1.00  0.00     0.081 C 
ATOM     10  C   UNL A   1      32.873  23.896  24.244  1.00  0.00     0.096 C 
ATOM     11  C   UNL A   1      31.215  23.370  26.627  1.00  0.00     0.008 C 
ATOM     12  C   UNL A   1      32.216  22.529  24.500  1.00  0.00     0.058 C 
ATOM     13  C   UNL A   1      30.924  22.674  25.299  1.00  0.00     0.015 C 
BRANCH   8  14
ATOM     14  N   UNL A   1      34.243  24.031  26.380  1.00  0.00    -0.330 N 
ATOM     15  H   UNL A   1      35.131  24.459  26.118  1.00  0.00     0.347 HD
ATOM     16  H   UNL A   1      33.878  24.171  27.321  1.00  0.00     0.347 HD
BRANCH  14  17
ATOM     17  C   UNL A   1      34.466  22.578  26.352  1.00  0.00     0.176 C 
ATOM     18  C   UNL A   1      35.913  22.341  25.888  1.00  0.00     0.075 C 
ATOM     19  C   UNL A   1      34.271  21.839  27.679  1.00  0.00     0.075 C 
ENDBRANCH  14  17
ENDBRANCH   8  14
BRANCH  12  20
ATOM     20  S   UNL A   1      32.013  21.461  23.007  1.00  0.00    -0.122 SA
BRANCH  20  21
ATOM     21  C   UNL A   1      32.480  19.823  23.528  1.00  0.00     0.008 A 
ATOM     22  C   UNL A   1      32.421  18.761  22.617  1.00  0.00     0.016 A 
ATOM     23  C   UNL A   1      32.722  19.541  24.873  1.00  0.00     0.016 A 
ATOM     24  C   UNL A   1      32.623  17.443  23.048  1.00  0.00     0.021 A 
ATOM     25  C   UNL A   1      32.930  18.230  25.308  1.00  0.00     0.021 A 
ATOM     26  C   UNL A   1      32.876  17.184  24.393  1.00  0.00     0.041 A 
ATOM     27  Cl  UNL A   1      33.091  15.565  24.931  1.00  0.00    -0.084 Cl
ENDBRANCH  20  21
ENDBRANCH  12  20
ENDBRANCH   6   8
ENDBRANCH   5   6
ENDBRANCH   4   5
ENDBRANCH   3   4
ENDBRANCH   2   3
ENDBRANCH   1   2
BRANCH   1  28
ATOM     28  C   UNL A   1      31.660  31.137  26.278  1.00  0.00     0.261 C 
BRANCH  28  29
ATOM     29  O   UNL A   1      32.598  30.962  27.349  1.00  0.00    -0.460 OA
BRANCH  29  30
ATOM     30  C   UNL A   1      33.401  32.027  27.558  1.00  0.00     0.338 C 
ATOM     31  O   UNL A   1      33.061  33.203  27.635  1.00  0.00    -0.246 OA
BRANCH  30  32
ATOM     32  C   UNL A   1      34.766  31.574  27.860  1.00  0.00     0.060 A 
ATOM     33  C   UNL A   1      34.963  30.194  27.986  1.00  0.00     0.016 A 
ATOM     34  C   UNL A   1      35.812  32.472  28.092  1.00  0.00     0.016 A 
ATOM     35  C   UNL A   1      36.184  29.709  28.436  1.00  0.00     0.010 A 
ATOM     36  C   UNL A   1      37.039  31.982  28.542  1.00  0.00     0.010 A 
ATOM     37  C   UNL A   1      37.208  30.605  28.771  1.00  0.00    -0.014 A 
BRANCH  37  38
ATOM     38  C   UNL A   1      38.374  30.104  29.532  1.00  0.00     0.031 A 
ATOM     39  C   UNL A   1      38.564  30.565  30.951  1.00  0.00     0.074 A 
ATOM     40  C   UNL A   1      39.223  29.221  28.981  1.00  0.00     0.049 A 
ATOM     41  N   UNL A   1      39.493  30.238  31.809  1.00  0.00    -0.248 NA
ATOM     42  C   UNL A   1      37.575  31.524  31.471  1.00  0.00     0.031 C 
ATOM     43  C   UNL A   1      39.129  28.696  27.619  1.00  0.00     0.029 A 
ATOM     44  N   UNL A   1      40.341  28.620  29.499  1.00  0.00    -0.354 N 
ATOM     45  C   UNL A   1      39.221  30.972  32.958  1.00  0.00     0.074 A 
ATOM     46  C   UNL A   1      38.051  31.777  32.681  1.00  0.00     0.031 C 
ATOM     47  C   UNL A   1      40.157  27.860  27.404  1.00  0.00     0.029 A 
ATOM     48  C   UNL A   1      40.993  27.810  28.603  1.00  0.00     0.049 A 
ATOM     49  H   UNL A   1      40.647  28.758  30.425  1.00  0.00     0.167 HD
ATOM     50  C   UNL A   1      39.872  30.962  34.145  1.00  0.00     0.034 A 
ATOM     51  C   UNL A   1      42.140  27.116  28.735  1.00  0.00     0.034 A 
ATOM     52  C   UNL A   1      41.022  30.145  34.421  1.00  0.00     0.049 A 
ATOM     53  C   UNL A   1      42.863  27.141  30.055  1.00  0.00     0.074 A 
ATOM     54  C   UNL A   1      41.731  30.025  35.602  1.00  0.00     0.029 A 
ATOM     55  N   UNL A   1      41.642  29.319  33.496  1.00  0.00    -0.354 N 
ATOM     56  N   UNL A   1      42.531  27.752  31.168  1.00  0.00    -0.248 NA
ATOM     57  C   UNL A   1      44.101  26.354  30.149  1.00  0.00     0.031 C 
ATOM     58  C   UNL A   1      42.799  29.149  35.383  1.00  0.00     0.029 A 
ATOM     59  C   UNL A   1      42.735  28.696  34.074  1.00  0.00     0.049 A 
ATOM     60  H   UNL A   1      41.349  29.192  32.565  1.00  0.00     0.167 HD
ATOM     61  C   UNL A   1      43.496  27.392  32.104  1.00  0.00     0.074 A 
ATOM     62  C   UNL A   1      44.415  26.498  31.430  1.00  0.00     0.031 C 
ATOM     63  C   UNL A   1      43.614  27.772  33.402  1.00  0.00     0.034 A 
BRANCH  50  64
ATOM     64  C   UNL A   1      39.341  31.857  35.236  1.00  0.00     0.023 A 
ATOM     65  C   UNL A   1      38.349  31.376  36.116  1.00  0.00     0.012 A 
ATOM     66  C   UNL A   1      39.838  33.162  35.404  1.00  0.00     0.148 A 
ATOM     67  C   UNL A   1      37.830  32.196  37.117  1.00  0.00     0.002 A 
ATOM     68  C   UNL A   1      39.349  33.958  36.434  1.00  0.00     0.091 A 
ATOM     69  F   UNL A   1      40.761  33.613  34.543  1.00  0.00    -0.205 F 
ATOM     70  C   UNL A   1      38.335  33.482  37.282  1.00  0.00     0.022 A 
BRANCH  68  71
ATOM     71  S   UNL A   1      39.994  35.599  36.774  1.00  0.00     0.127 S 
ATOM     72  O   UNL A   1      41.427  35.334  36.892  1.00  0.00    -0.237 OA
ATOM     73  O   UNL A   1      39.608  36.339  35.571  1.00  0.00    -0.237 OA
ATOM     74  O   UNL A   1      39.335  36.044  37.994  1.00  0.00    -0.744 OA
ENDBRANCH  68  71
ENDBRANCH  50  64
BRANCH  51  75
ATOM     75  C   UNL A   1      42.644  26.302  27.595  1.00  0.00     0.023 A 
ATOM     76  C   UNL A   1      43.581  26.861  26.705  1.00  0.00     0.012 A 
ATOM     77  C   UNL A   1      42.232  24.968  27.413  1.00  0.00     0.148 A 
ATOM     78  C   UNL A   1      44.081  26.112  25.639  1.00  0.00     0.002 A 
ATOM     79  C   UNL A   1      42.775  24.211  26.382  1.00  0.00     0.091 A 
ATOM     80  F   UNL A   1      41.332  24.461  28.267  1.00  0.00    -0.205 F 
ATOM     81  C   UNL A   1      43.687  24.785  25.484  1.00  0.00     0.022 A 
BRANCH  79  82
ATOM     82  S   UNL A   1      42.426  22.460  26.183  1.00  0.00     0.127 S 
ATOM     83  O   UNL A   1      42.982  21.902  27.413  1.00  0.00    -0.237 OA
ATOM     84  O   UNL A   1      40.964  22.454  26.107  1.00  0.00    -0.237 OA
ATOM     85  O   UNL A   1      43.094  22.060  24.952  1.00  0.00    -0.744 OA
ENDBRANCH  79  82
ENDBRANCH  51  75
BRANCH  63  86
ATOM     86  C   UNL A   1      44.755  27.194  34.198  1.00  0.00     0.023 A 
ATOM     87  C   UNL A   1      45.986  27.876  34.261  1.00  0.00     0.012 A 
ATOM     88  C   UNL A   1      44.579  26.013  34.948  1.00  0.00     0.148 A 
ATOM     89  C   UNL A   1      47.036  27.372  35.031  1.00  0.00     0.002 A 
ATOM     90  C   UNL A   1      45.612  25.547  35.753  1.00  0.00     0.091 A 
ATOM     91  F   UNL A   1      43.406  25.369  34.861  1.00  0.00    -0.205 F 
ATOM     92  C   UNL A   1      46.845  26.217  35.785  1.00  0.00     0.022 A 
BRANCH  90  93
ATOM     93  S   UNL A   1      45.421  24.124  36.834  1.00  0.00     0.127 S 
ATOM     94  O   UNL A   1      46.796  23.904  37.281  1.00  0.00    -0.237 OA
ATOM     95  O   UNL A   1      44.519  24.637  37.865  1.00  0.00    -0.237 OA
ATOM     96  O   UNL A   1      44.855  23.066  36.009  1.00  0.00    -0.744 OA
ENDBRANCH  90  93
ENDBRANCH  63  86
ENDBRANCH  37  38
ENDBRANCH  30  32
ENDBRANCH  29  30
ENDBRANCH  28  29
ENDBRANCH   1  28
TORSDOF 21
ENDMDL
MODEL 2
REMARK VINA RESULT:     -11.0      0.718      7.692
REMARK SMILES CC(C)[NH2+][C@]1(C(=O)OCCOCCOC(=O)c2ccc(-c3c4nc(c(-c5cccc(S(=O)(=O)[O-])c5F)c5ccc([nH]5)c(-c5cccc(S(=O)(=O)[O-])c5F)c5nc(c(-c6cccc(S(=O)(=O)[O-])c6F)c6ccc3[nH]6)C=C5)C=C4)cc2)CCC[C@@H](Sc2ccc(Cl)cc2)C1
REMARK SMILES IDX 12 1 11 2 10 3 9 4 8 5 6 6 7 7 5 8 80 9 92 10 81 11 83 12
REMARK SMILES IDX 82 13 4 14 2 17 1 18 3 19 84 20 85 21 86 22 91 23 87 24
REMARK SMILES IDX 90 25 88 26 89 27 13 28 14 29 15 30 16 31 17 32 18 33 79 34
REMARK SMILES IDX 19 35 78 36 20 37 21 38 22 39 72 40 23 41 77 42 71 43 73 44
REMARK SMILES IDX 24 45 76 46 70 47 69 48 25 50 57 51 37 52 56 53 38 54 41 55
REMARK SMILES IDX 55 56 74 57 39 58 40 59 54 61 75 62 42 63 26 64 27 65 35 66
REMARK SMILES IDX 28 67 30 68 36 69 29 70 31 71 32 72 33 73 34 74 58 75 59 76
REMARK SMILES IDX 67 77 60 78 62 79 68 80 61 81 63 82 64 83 65 84 66 85 43 86
REMARK SMILES IDX 44 87 52 88 45 89 47 90 53 91 46 92 48 93 49 94 50 95 51 96
REMARK H PARENT 4 15 4 16 73 49 41 60
REMARK Flexibility Score: inf
ROOT
ATOM      1  C   UNL A   1      31.304  29.570  24.914  1.00  0.00     0.202 C 
ENDROOT
BRANCH   1   2
ATOM      2  O   UNL A   1      32.274  29.424  23.879  1.00  0.00    -0.374 OA
BRANCH   2   3
ATOM      3  C   UNL A   1      31.993  28.429  22.889  1.00  0.00     0.202 C 
BRANCH   3   4
ATOM      4  C   UNL A   1      32.994  27.274  22.834  1.00  0.00     0.261 C 
BRANCH   4   5
ATOM      5  O   UNL A   1      32.593  26.227  23.738  1.00  0.00    -0.459 OA
BRANCH   5   6
ATOM      6  C   UNL A   1      33.412  25.952  24.785  1.00  0.00     0.368 C 
ATOM      7  O   UNL A   1      34.005  26.827  25.410  1.00  0.00    -0.245 OA
BRANCH   6   8
ATOM      8  C   UNL A   1      33.415  24.436  25.195  1.00  0.00     0.195 C 
ATOM      9  C   UNL A   1      32.318  24.344  26.311  1.00  0.00     0.081 C 
ATOM     10  C   UNL A   1      32.944  23.539  24.012  1.00  0.00     0.096 C 
ATOM     11  C   UNL A   1      31.879  22.934  26.696  1.00  0.00     0.008 C 
ATOM     12  C   UNL A   1      32.541  22.115  24.433  1.00  0.00     0.058 C 
ATOM     13  C   UNL A   1      31.426  22.138  25.474  1.00  0.00     0.015 C 
BRANCH   8  14
ATOM     14  N   UNL A   1      34.681  23.958  25.818  1.00  0.00    -0.330 N 
ATOM     15  H   UNL A   1      34.804  24.507  26.669  1.00  0.00     0.347 HD
ATOM     16  H   UNL A   1      34.515  22.954  25.891  1.00  0.00     0.347 HD
BRANCH  14  17
ATOM     17  C   UNL A   1      35.969  24.004  25.111  1.00  0.00     0.176 C 
ATOM     18  C   UNL A   1      37.023  23.363  26.029  1.00  0.00     0.075 C 
ATOM     19  C   UNL A   1      36.024  23.285  23.760  1.00  0.00     0.075 C 
ENDBRANCH  14  17
ENDBRANCH   8  14
BRANCH  12  20
ATOM     20  S   UNL A   1      32.190  20.952  23.041  1.00  0.00    -0.122 SA
BRANCH  20  21
ATOM     21  C   UNL A   1      32.449  19.321  23.708  1.00  0.00     0.008 A 
ATOM     22  C   UNL A   1      32.553  19.145  25.093  1.00  0.00     0.016 A 
ATOM     23  C   UNL A   1      32.739  18.243  22.871  1.00  0.00     0.016 A 
ATOM     24  C   UNL A   1      32.921  17.903  25.627  1.00  0.00     0.021 A 
ATOM     25  C   UNL A   1      33.101  17.000  23.396  1.00  0.00     0.021 A 
ATOM     26  C   UNL A   1      33.193  16.836  24.774  1.00  0.00     0.041 A 
ATOM     27  Cl  UNL A   1      33.679  15.319  25.424  1.00  0.00    -0.084 Cl
ENDBRANCH  20  21
ENDBRANCH  12  20
ENDBRANCH   6   8
ENDBRANCH   5   6
ENDBRANCH   4   5
ENDBRANCH   3   4
ENDBRANCH   2   3
ENDBRANCH   1   2
BRANCH   1  28
ATOM     28  C   UNL A   1      31.600  30.662  25.946  1.00  0.00     0.261 C 
BRANCH  28  29
ATOM     29  O   UNL A   1      32.805  30.380  26.670  1.00  0.00    -0.460 OA
BRANCH  29  30
ATOM     30  C   UNL A   1      33.367  31.463  27.247  1.00  0.00     0.338 C 
ATOM     31  O   UNL A   1      32.815  32.524  27.519  1.00  0.00    -0.246 OA
BRANCH  30  32
ATOM     32  C   UNL A   1      34.735  31.147  27.682  1.00  0.00     0.060 A 
ATOM     33  C   UNL A   1      35.049  29.794  27.853  1.00  0.00     0.016 A 
ATOM     34  C   UNL A   1      35.665  32.144  27.990  1.00  0.00     0.016 A 
ATOM     35  C   UNL A   1      36.264  29.433  28.423  1.00  0.00     0.010 A 
ATOM     36  C   UNL A   1      36.886  31.779  28.561  1.00  0.00     0.010 A 
ATOM     37  C   UNL A   1      37.162  30.427  28.831  1.00  0.00    -0.014 A 
BRANCH  37  38
ATOM     38  C   UNL A   1      38.295  30.049  29.706  1.00  0.00     0.031 A 
ATOM     39  C   UNL A   1      39.328  29.090  29.179  1.00  0.00     0.074 A 
ATOM     40  C   UNL A   1      38.421  30.583  30.931  1.00  0.00     0.049 A 
ATOM     41  N   UNL A   1      40.411  28.642  29.757  1.00  0.00    -0.248 NA
ATOM     42  C   UNL A   1      39.109  28.567  27.820  1.00  0.00     0.031 C 
ATOM     43  C   UNL A   1      37.487  31.531  31.539  1.00  0.00     0.029 A 
ATOM     44  N   UNL A   1      39.383  30.394  31.889  1.00  0.00    -0.354 N 
ATOM     45  C   UNL A   1      40.986  27.762  28.848  1.00  0.00     0.074 A 
ATOM     46  C   UNL A   1      40.122  27.724  27.688  1.00  0.00     0.031 C 
ATOM     47  C   UNL A   1      37.916  31.831  32.776  1.00  0.00     0.029 A 
ATOM     48  C   UNL A   1      39.138  31.078  33.054  1.00  0.00     0.049 A 
ATOM     49  H   UNL A   1      40.173  29.821  31.754  1.00  0.00     0.167 HD
ATOM     50  C   UNL A   1      42.141  27.064  28.958  1.00  0.00     0.034 A 
ATOM     51  C   UNL A   1      39.821  31.086  34.216  1.00  0.00     0.034 A 
ATOM     52  C   UNL A   1      43.005  27.122  30.105  1.00  0.00     0.049 A 
ATOM     53  C   UNL A   1      41.088  30.280  34.326  1.00  0.00     0.074 A 
ATOM     54  C   UNL A   1      44.220  26.491  30.302  1.00  0.00     0.029 A 
ATOM     55  N   UNL A   1      42.738  27.844  31.259  1.00  0.00    -0.354 N 
ATOM     56  N   UNL A   1      41.679  29.541  33.418  1.00  0.00    -0.248 NA
ATOM     57  C   UNL A   1      41.801  30.338  35.611  1.00  0.00     0.031 C 
ATOM     58  C   UNL A   1      44.672  26.806  31.588  1.00  0.00     0.029 A 
ATOM     59  C   UNL A   1      43.756  27.663  32.178  1.00  0.00     0.049 A 
ATOM     60  H   UNL A   1      41.941  28.403  31.403  1.00  0.00     0.167 HD
ATOM     61  C   UNL A   1      42.851  29.077  34.006  1.00  0.00     0.074 A 
ATOM     62  C   UNL A   1      42.892  29.632  35.344  1.00  0.00     0.031 C 
ATOM     63  C   UNL A   1      43.805  28.261  33.489  1.00  0.00     0.034 A 
BRANCH  50  64
ATOM     64  C   UNL A   1      42.537  26.188  27.797  1.00  0.00     0.023 A 
ATOM     65  C   UNL A   1      43.413  26.687  26.809  1.00  0.00     0.012 A 
ATOM     66  C   UNL A   1      42.062  24.868  27.694  1.00  0.00     0.148 A 
ATOM     67  C   UNL A   1      43.772  25.899  25.716  1.00  0.00     0.002 A 
ATOM     68  C   UNL A   1      42.463  24.073  26.626  1.00  0.00     0.091 A 
ATOM     69  F   UNL A   1      41.210  24.418  28.626  1.00  0.00    -0.205 F 
ATOM     70  C   UNL A   1      43.306  24.591  25.629  1.00  0.00     0.022 A 
BRANCH  68  71
ATOM     71  S   UNL A   1      41.977  22.351  26.471  1.00  0.00     0.127 S 
ATOM     72  O   UNL A   1      42.489  21.786  27.718  1.00  0.00    -0.237 OA
ATOM     73  O   UNL A   1      40.518  22.446  26.399  1.00  0.00    -0.237 OA
ATOM     74  O   UNL A   1      42.611  21.864  25.254  1.00  0.00    -0.744 OA
ENDBRANCH  68  71
ENDBRANCH  50  64
BRANCH  51  75
ATOM     75  C   UNL A   1      39.339  31.924  35.348  1.00  0.00     0.023 A 
ATOM     76  C   UNL A   1      38.448  31.374  36.289  1.00  0.00     0.012 A 
ATOM     77  C   UNL A   1      39.790  33.248  35.519  1.00  0.00     0.148 A 
ATOM     78  C   UNL A   1      37.996  32.135  37.368  1.00  0.00     0.002 A 
ATOM     79  C   UNL A   1      39.378  33.982  36.624  1.00  0.00     0.091 A 
ATOM     80  F   UNL A   1      40.629  33.754  34.604  1.00  0.00    -0.205 F 
ATOM     81  C   UNL A   1      38.469  33.433  37.541  1.00  0.00     0.022 A 
BRANCH  79  82
ATOM     82  S   UNL A   1      40.033  35.612  36.999  1.00  0.00     0.127 S 
ATOM     83  O   UNL A   1      39.571  36.390  35.853  1.00  0.00    -0.237 OA
ATOM     84  O   UNL A   1      39.364  35.918  38.264  1.00  0.00    -0.237 OA
ATOM     85  O   UNL A   1      41.476  35.445  37.106  1.00  0.00    -0.744 OA
ENDBRANCH  79  82
ENDBRANCH  51  75
BRANCH  63  86
ATOM     86  C   UNL A   1      44.998  27.944  34.353  1.00  0.00     0.023 A 
ATOM     87  C   UNL A   1      46.113  28.805  34.358  1.00  0.00     0.012 A 
ATOM     88  C   UNL A   1      44.979  26.832  35.220  1.00  0.00     0.148 A 
ATOM     89  C   UNL A   1      47.205  28.544  35.186  1.00  0.00     0.002 A 
ATOM     90  C   UNL A   1      46.048  26.609  36.079  1.00  0.00     0.091 A 
ATOM     91  F   UNL A   1      43.916  26.015  35.188  1.00  0.00    -0.205 F 
ATOM     92  C   UNL A   1      47.167  27.456  36.055  1.00  0.00     0.022 A 
BRANCH  90  93
ATOM     93  S   UNL A   1      46.042  25.291  37.300  1.00  0.00     0.127 S 
ATOM     94  O   UNL A   1      45.877  24.107  36.459  1.00  0.00    -0.237 OA
ATOM     95  O   UNL A   1      47.365  25.427  37.909  1.00  0.00    -0.237 OA
ATOM     96  O   UNL A   1      44.932  25.580  38.198  1.00  0.00    -0.744 OA
ENDBRANCH  90  93
ENDBRANCH  63  86
ENDBRANCH  37  38
ENDBRANCH  30  32
ENDBRANCH  29  30
ENDBRANCH  28  29
ENDBRANCH   1  28
TORSDOF 21
ENDMDL
MODEL 3
REMARK VINA RESULT:     -10.7      5.237      8.399
REMARK SMILES CC(C)[NH2+][C@]1(C(=O)OCCOCCOC(=O)c2ccc(-c3c4nc(c(-c5cccc(S(=O)(=O)[O-])c5F)c5ccc([nH]5)c(-c5cccc(S(=O)(=O)[O-])c5F)c5nc(c(-c6cccc(S(=O)(=O)[O-])c6F)c6ccc3[nH]6)C=C5)C=C4)cc2)CCC[C@@H](Sc2ccc(Cl)cc2)C1
REMARK SMILES IDX 12 1 11 2 10 3 9 4 8 5 6 6 7 7 5 8 80 9 92 10 81 11 83 12
REMARK SMILES IDX 82 13 4 14 2 17 1 18 3 19 84 20 85 21 86 22 91 23 87 24
REMARK SMILES IDX 90 25 88 26 89 27 13 28 14 29 15 30 16 31 17 32 18 33 79 34
REMARK SMILES IDX 19 35 78 36 20 37 21 38 22 39 72 40 23 41 77 42 71 43 73 44
REMARK SMILES IDX 24 45 76 46 70 47 69 48 25 50 57 51 37 52 56 53 38 54 41 55
REMARK SMILES IDX 55 56 74 57 39 58 40 59 54 61 75 62 42 63 26 64 27 65 35 66
REMARK SMILES IDX 28 67 30 68 36 69 29 70 31 71 32 72 33 73 34 74 58 75 59 76
REMARK SMILES IDX 67 77 60 78 62 79 68 80 61 81 63 82 64 83 65 84 66 85 43 86
REMARK SMILES IDX 44 87 52 88 45 89 47 90 53 91 46 92 48 93 49 94 50 95 51 96
REMARK H PARENT 4 15 4 16 73 49 41 60
REMARK Flexibility Score: inf
ROOT
ATOM      1  C   UNL A   1      37.144  20.237  25.017  1.00  0.00     0.202 C 
ENDROOT
BRANCH   1   2
ATOM      2  O   UNL A   1      36.948  21.458  24.307  1.00  0.00    -0.374 OA
BRANCH   2   3
ATOM      3  C   UNL A   1      37.303  22.657  25.005  1.00  0.00     0.202 C 
BRANCH   3   4
ATOM      4  C   UNL A   1      36.128  23.411  25.631  1.00  0.00     0.261 C 
BRANCH   4   5
ATOM      5  O   UNL A   1      34.882  22.867  25.156  1.00  0.00    -0.459 OA
BRANCH   5   6
ATOM      6  C   UNL A   1      34.030  22.350  26.078  1.00  0.00     0.368 C 
ATOM      7  O   UNL A   1      34.410  21.912  27.160  1.00  0.00    -0.245 OA
BRANCH   6   8
ATOM      8  C   UNL A   1      32.517  22.493  25.681  1.00  0.00     0.195 C 
ATOM      9  C   UNL A   1      31.768  22.532  27.058  1.00  0.00     0.081 C 
ATOM     10  C   UNL A   1      32.254  23.858  24.976  1.00  0.00     0.096 C 
ATOM     11  C   UNL A   1      30.307  22.969  27.007  1.00  0.00     0.008 C 
ATOM     12  C   UNL A   1      30.768  24.250  24.914  1.00  0.00     0.058 C 
ATOM     13  C   UNL A   1      30.152  24.319  26.309  1.00  0.00     0.015 C 
BRANCH   8  14
ATOM     14  N   UNL A   1      31.951  21.336  24.935  1.00  0.00    -0.330 N 
ATOM     15  H   UNL A   1      31.858  20.578  25.612  1.00  0.00     0.347 HD
ATOM     16  H   UNL A   1      31.112  21.740  24.520  1.00  0.00     0.347 HD
BRANCH  14  17
ATOM     17  C   UNL A   1      32.622  20.756  23.762  1.00  0.00     0.176 C 
ATOM     18  C   UNL A   1      32.515  19.226  23.878  1.00  0.00     0.075 C 
ATOM     19  C   UNL A   1      32.066  21.164  22.395  1.00  0.00     0.075 C 
ENDBRANCH  14  17
ENDBRANCH   8  14
BRANCH  12  20
ATOM     20  S   UNL A   1      30.389  25.744  23.895  1.00  0.00    -0.122 SA
BRANCH  20  21
ATOM     21  C   UNL A   1      31.129  27.111  24.764  1.00  0.00     0.008 A 
ATOM     22  C   UNL A   1      31.165  27.108  26.163  1.00  0.00     0.016 A 
ATOM     23  C   UNL A   1      31.506  28.271  24.086  1.00  0.00     0.016 A 
ATOM     24  C   UNL A   1      31.590  28.242  26.867  1.00  0.00     0.021 A 
ATOM     25  C   UNL A   1      31.936  29.404  24.780  1.00  0.00     0.021 A 
ATOM     26  C   UNL A   1      31.974  29.386  26.171  1.00  0.00     0.041 A 
ATOM     27  Cl  UNL A   1      32.464  30.792  27.032  1.00  0.00    -0.084 Cl
ENDBRANCH  20  21
ENDBRANCH  12  20
ENDBRANCH   6   8
ENDBRANCH   5   6
ENDBRANCH   4   5
ENDBRANCH   3   4
ENDBRANCH   2   3
ENDBRANCH   1   2
BRANCH   1  28
ATOM     28  C   UNL A   1      38.584  19.720  25.055  1.00  0.00     0.261 C 
BRANCH  28  29
ATOM     29  O   UNL A   1      39.160  19.880  26.358  1.00  0.00    -0.460 OA
BRANCH  29  30
ATOM     30  C   UNL A   1      40.483  20.149  26.347  1.00  0.00     0.338 C 
ATOM     31  O   UNL A   1      41.370  19.464  25.851  1.00  0.00    -0.246 OA
BRANCH  30  32
ATOM     32  C   UNL A   1      40.726  21.499  26.876  1.00  0.00     0.060 A 
ATOM     33  C   UNL A   1      40.194  22.570  26.149  1.00  0.00     0.016 A 
ATOM     34  C   UNL A   1      41.515  21.722  28.009  1.00  0.00     0.016 A 
ATOM     35  C   UNL A   1      40.527  23.873  26.495  1.00  0.00     0.010 A 
ATOM     36  C   UNL A   1      41.846  23.033  28.356  1.00  0.00     0.010 A 
ATOM     37  C   UNL A   1      41.401  24.107  27.565  1.00  0.00    -0.014 A 
BRANCH  37  38
ATOM     38  C   UNL A   1      41.986  25.456  27.726  1.00  0.00     0.031 A 
ATOM     39  C   UNL A   1      41.204  26.499  28.477  1.00  0.00     0.074 A 
ATOM     40  C   UNL A   1      43.211  25.732  27.249  1.00  0.00     0.049 A 
ATOM     41  N   UNL A   1      41.531  27.733  28.760  1.00  0.00    -0.248 NA
ATOM     42  C   UNL A   1      39.877  26.099  28.972  1.00  0.00     0.031 C 
ATOM     43  C   UNL A   1      44.063  24.795  26.518  1.00  0.00     0.029 A 
ATOM     44  N   UNL A   1      43.944  26.889  27.299  1.00  0.00    -0.354 N 
ATOM     45  C   UNL A   1      40.441  28.265  29.438  1.00  0.00     0.074 A 
ATOM     46  C   UNL A   1      39.435  27.227  29.506  1.00  0.00     0.031 C 
ATOM     47  C   UNL A   1      45.201  25.420  26.174  1.00  0.00     0.029 A 
ATOM     48  C   UNL A   1      45.146  26.804  26.640  1.00  0.00     0.049 A 
ATOM     49  H   UNL A   1      43.638  27.702  27.762  1.00  0.00     0.167 HD
ATOM     50  C   UNL A   1      40.296  29.499  29.974  1.00  0.00     0.034 A 
ATOM     51  C   UNL A   1      46.088  27.744  26.429  1.00  0.00     0.034 A 
ATOM     52  C   UNL A   1      41.307  30.520  29.920  1.00  0.00     0.049 A 
ATOM     53  C   UNL A   1      45.895  29.119  27.011  1.00  0.00     0.074 A 
ATOM     54  C   UNL A   1      41.282  31.789  30.470  1.00  0.00     0.029 A 
ATOM     55  N   UNL A   1      42.522  30.392  29.264  1.00  0.00    -0.354 N 
ATOM     56  N   UNL A   1      44.908  29.574  27.747  1.00  0.00    -0.248 NA
ATOM     57  C   UNL A   1      46.961  30.100  26.764  1.00  0.00     0.031 C 
ATOM     58  C   UNL A   1      42.469  32.439  30.119  1.00  0.00     0.029 A 
ATOM     59  C   UNL A   1      43.250  31.563  29.381  1.00  0.00     0.049 A 
ATOM     60  H   UNL A   1      42.824  29.586  28.785  1.00  0.00     0.167 HD
ATOM     61  C   UNL A   1      45.252  30.879  28.083  1.00  0.00     0.074 A 
ATOM     62  C   UNL A   1      46.545  31.136  27.482  1.00  0.00     0.031 C 
ATOM     63  C   UNL A   1      44.558  31.786  28.816  1.00  0.00     0.034 A 
BRANCH  50  64
ATOM     64  C   UNL A   1      38.998  29.804  30.677  1.00  0.00     0.023 A 
ATOM     65  C   UNL A   1      38.760  29.282  31.967  1.00  0.00     0.012 A 
ATOM     66  C   UNL A   1      38.025  30.621  30.074  1.00  0.00     0.148 A 
ATOM     67  C   UNL A   1      37.556  29.534  32.623  1.00  0.00     0.002 A 
ATOM     68  C   UNL A   1      36.846  30.907  30.755  1.00  0.00     0.091 A 
ATOM     69  F   UNL A   1      38.255  31.087  28.838  1.00  0.00    -0.205 F 
ATOM     70  C   UNL A   1      36.604  30.353  32.023  1.00  0.00     0.022 A 
BRANCH  68  71
ATOM     71  S   UNL A   1      35.596  32.015  30.095  1.00  0.00     0.127 S 
ATOM     72  O   UNL A   1      36.380  33.222  29.835  1.00  0.00    -0.237 OA
ATOM     73  O   UNL A   1      35.156  31.304  28.894  1.00  0.00    -0.237 OA
ATOM     74  O   UNL A   1      34.581  32.136  31.132  1.00  0.00    -0.744 OA
ENDBRANCH  68  71
ENDBRANCH  50  64
BRANCH  51  75
ATOM     75  C   UNL A   1      47.320  27.395  25.669  1.00  0.00     0.023 A 
ATOM     76  C   UNL A   1      48.358  26.696  26.314  1.00  0.00     0.012 A 
ATOM     77  C   UNL A   1      47.451  27.715  24.304  1.00  0.00     0.148 A 
ATOM     78  C   UNL A   1      49.515  26.343  25.618  1.00  0.00     0.002 A 
ATOM     79  C   UNL A   1      48.581  27.313  23.604  1.00  0.00     0.091 A 
ATOM     80  F   UNL A   1      46.454  28.391  23.714  1.00  0.00    -0.205 F 
ATOM     81  C   UNL A   1      49.622  26.641  24.263  1.00  0.00     0.022 A 
BRANCH  79  82
ATOM     82  S   UNL A   1      48.749  27.539  21.829  1.00  0.00     0.127 S 
ATOM     83  O   UNL A   1      49.721  28.627  21.758  1.00  0.00    -0.237 OA
ATOM     84  O   UNL A   1      49.254  26.231  21.409  1.00  0.00    -0.237 OA
ATOM     85  O   UNL A   1      47.414  27.854  21.342  1.00  0.00    -0.744 OA
ENDBRANCH  79  82
ENDBRANCH  51  75
BRANCH  63  86
ATOM     86  C   UNL A   1      45.194  33.132  29.048  1.00  0.00     0.023 A 
ATOM     87  C   UNL A   1      46.015  33.339  30.174  1.00  0.00     0.012 A 
ATOM     88  C   UNL A   1      45.039  34.169  28.106  1.00  0.00     0.148 A 
ATOM     89  C   UNL A   1      46.644  34.568  30.376  1.00  0.00     0.002 A 
ATOM     90  C   UNL A   1      45.711  35.372  28.287  1.00  0.00     0.091 A 
ATOM     91  F   UNL A   1      44.240  33.959  27.050  1.00  0.00    -0.205 F 
ATOM     92  C   UNL A   1      46.502  35.578  29.428  1.00  0.00     0.022 A 
BRANCH  90  93
ATOM     93  S   UNL A   1      45.667  36.692  27.068  1.00  0.00     0.127 S 
ATOM     94  O   UNL A   1      44.228  36.886  26.893  1.00  0.00    -0.237 OA
ATOM     95  O   UNL A   1      46.349  37.781  27.767  1.00  0.00    -0.237 OA
ATOM     96  O   UNL A   1      46.376  36.185  25.902  1.00  0.00    -0.744 OA
ENDBRANCH  90  93
ENDBRANCH  63  86
ENDBRANCH  37  38
ENDBRANCH  30  32
ENDBRANCH  29  30
ENDBRANCH  28  29
ENDBRANCH   1  28
TORSDOF 21
ENDMDL
