MODEL 1
REMARK VINA RESULT:     -10.6      0.000      0.000
REMARK SMILES O=C(CCC(=O)OCCOCCOC(=O)c1ccc(-c2c3nc(c(-c4cccc(S(=O)(=O)[O-])c4F)c4ccc([nH]4)c(-c4cccc(S(=O)(=O)[O-])c4F)c4nc(c(-c5cccc(S(=O)(=O)[O-])c5F)c5ccc2[nH]5)C=C4)C=C3)cc1)Nc1ccc(C(=O)N2CCOCC2)cc1
REMARK SMILES IDX 9 1 8 2 7 3 5 4 6 5 4 6 3 7 2 8 1 9 79 10 80 12 81 13 93 14
REMARK SMILES IDX 82 15 92 16 83 17 84 18 85 19 86 20 87 21 91 22 88 23 90 24
REMARK SMILES IDX 89 25 10 26 11 27 12 28 13 29 14 30 15 31 16 32 17 33 78 34
REMARK SMILES IDX 18 35 77 36 19 37 20 38 21 39 71 40 22 41 76 42 70 43 72 44
REMARK SMILES IDX 23 45 75 46 69 47 68 48 24 50 56 51 36 52 55 53 37 54 40 55
REMARK SMILES IDX 54 56 73 57 38 58 39 59 53 61 74 62 41 63 25 64 26 65 34 66
REMARK SMILES IDX 27 67 29 68 35 69 28 70 30 71 31 72 32 73 33 74 57 75 58 76
REMARK SMILES IDX 66 77 59 78 61 79 67 80 60 81 62 82 63 83 64 84 65 85 42 86
REMARK SMILES IDX 43 87 51 88 44 89 46 90 52 91 45 92 47 93 48 94 49 95 50 96
REMARK H PARENT 79 11 72 49 40 60
REMARK Flexibility Score: inf
ROOT
ATOM      1  C   UNL A   1      34.123  28.399  23.885  1.00  0.00     0.202 C 
ENDROOT
BRANCH   1   2
ATOM      2  C   UNL A   1      33.063  28.901  22.898  1.00  0.00     0.261 C 
BRANCH   2   3
ATOM      3  O   UNL A   1      31.910  28.027  22.894  1.00  0.00    -0.463 OA
BRANCH   3   4
ATOM      4  C   UNL A   1      30.743  28.526  23.387  1.00  0.00     0.306 C 
ATOM      5  O   UNL A   1      30.650  29.490  24.133  1.00  0.00    -0.252 OA
BRANCH   4   6
ATOM      6  C   UNL A   1      29.556  27.717  22.905  1.00  0.00     0.132 C 
BRANCH   6   7
ATOM      7  C   UNL A   1      28.953  26.763  23.934  1.00  0.00     0.112 C 
BRANCH   7   8
ATOM      8  C   UNL A   1      29.927  25.766  24.545  1.00  0.00     0.224 C 
ATOM      9  O   UNL A   1      30.373  25.957  25.673  1.00  0.00    -0.275 OA
ATOM     10  N   UNL A   1      30.191  24.681  23.740  1.00  0.00    -0.326 N 
ATOM     11  H   UNL A   1      29.740  24.665  22.865  1.00  0.00     0.169 HD
BRANCH  10  12
ATOM     12  C   UNL A   1      31.034  23.595  24.027  1.00  0.00     0.041 A 
ATOM     13  C   UNL A   1      32.093  23.377  23.146  1.00  0.00     0.027 A 
ATOM     14  C   UNL A   1      30.899  22.781  25.151  1.00  0.00     0.027 A 
ATOM     15  C   UNL A   1      33.053  22.413  23.442  1.00  0.00     0.016 A 
ATOM     16  C   UNL A   1      31.847  21.786  25.422  1.00  0.00     0.016 A 
ATOM     17  C   UNL A   1      32.935  21.592  24.570  1.00  0.00     0.040 A 
BRANCH  17  18
ATOM     18  C   UNL A   1      34.100  20.744  24.925  1.00  0.00     0.254 C 
ATOM     19  O   UNL A   1      34.028  19.570  24.566  1.00  0.00    -0.269 OA
ATOM     20  N   UNL A   1      35.246  21.268  25.497  1.00  0.00    -0.334 N 
ATOM     21  C   UNL A   1      35.423  22.464  26.316  1.00  0.00     0.148 C 
ATOM     22  C   UNL A   1      36.510  20.610  25.185  1.00  0.00     0.148 C 
ATOM     23  C   UNL A   1      36.432  23.427  25.664  1.00  0.00     0.181 C 
ATOM     24  C   UNL A   1      37.348  21.623  24.401  1.00  0.00     0.181 C 
ATOM     25  O   UNL A   1      37.633  22.777  25.219  1.00  0.00    -0.378 OA
ENDBRANCH  17  18
ENDBRANCH  10  12
ENDBRANCH   7   8
ENDBRANCH   6   7
ENDBRANCH   4   6
ENDBRANCH   3   4
ENDBRANCH   2   3
ENDBRANCH   1   2
BRANCH   1  26
ATOM     26  O   UNL A   1      33.801  27.185  24.569  1.00  0.00    -0.374 OA
BRANCH  26  27
ATOM     27  C   UNL A   1      33.582  27.288  25.972  1.00  0.00     0.202 C 
BRANCH  27  28
ATOM     28  C   UNL A   1      33.055  28.634  26.489  1.00  0.00     0.261 C 
BRANCH  28  29
ATOM     29  O   UNL A   1      33.664  29.025  27.729  1.00  0.00    -0.460 OA
BRANCH  29  30
ATOM     30  C   UNL A   1      34.412  30.152  27.648  1.00  0.00     0.338 C 
ATOM     31  O   UNL A   1      34.033  31.262  27.296  1.00  0.00    -0.246 OA
BRANCH  30  32
ATOM     32  C   UNL A   1      35.760  29.919  28.201  1.00  0.00     0.060 A 
ATOM     33  C   UNL A   1      36.855  30.030  27.334  1.00  0.00     0.016 A 
ATOM     34  C   UNL A   1      35.950  29.525  29.521  1.00  0.00     0.016 A 
ATOM     35  C   UNL A   1      38.140  29.697  27.770  1.00  0.00     0.010 A 
ATOM     36  C   UNL A   1      37.242  29.201  29.949  1.00  0.00     0.010 A 
ATOM     37  C   UNL A   1      38.350  29.250  29.079  1.00  0.00    -0.014 A 
BRANCH  37  38
ATOM     38  C   UNL A   1      39.684  28.736  29.522  1.00  0.00     0.031 A 
ATOM     39  C   UNL A   1      40.491  29.527  30.525  1.00  0.00     0.074 A 
ATOM     40  C   UNL A   1      40.212  27.599  29.022  1.00  0.00     0.049 A 
ATOM     41  N   UNL A   1      41.675  29.272  31.021  1.00  0.00    -0.248 NA
ATOM     42  C   UNL A   1      39.887  30.768  31.039  1.00  0.00     0.031 C 
ATOM     43  C   UNL A   1      39.566  26.706  28.063  1.00  0.00     0.029 A 
ATOM     44  N   UNL A   1      41.451  27.030  29.211  1.00  0.00    -0.354 N 
ATOM     45  C   UNL A   1      41.952  30.310  31.903  1.00  0.00     0.074 A 
ATOM     46  C   UNL A   1      40.853  31.245  31.808  1.00  0.00     0.031 C 
ATOM     47  C   UNL A   1      40.447  25.774  27.659  1.00  0.00     0.029 A 
ATOM     48  C   UNL A   1      41.708  25.976  28.362  1.00  0.00     0.049 A 
ATOM     49  H   UNL A   1      42.091  27.346  29.888  1.00  0.00     0.167 HD
ATOM     50  C   UNL A   1      42.990  30.448  32.763  1.00  0.00     0.034 A 
ATOM     51  C   UNL A   1      42.826  25.247  28.170  1.00  0.00     0.034 A 
ATOM     52  C   UNL A   1      44.065  29.502  32.893  1.00  0.00     0.049 A 
ATOM     53  C   UNL A   1      44.005  25.456  29.084  1.00  0.00     0.074 A 
ATOM     54  C   UNL A   1      45.094  29.489  33.819  1.00  0.00     0.029 A 
ATOM     55  N   UNL A   1      44.268  28.414  32.059  1.00  0.00    -0.354 N 
ATOM     56  N   UNL A   1      44.156  26.326  30.052  1.00  0.00    -0.248 NA
ATOM     57  C   UNL A   1      45.127  24.517  28.940  1.00  0.00     0.031 C 
ATOM     58  C   UNL A   1      45.945  28.419  33.515  1.00  0.00     0.029 A 
ATOM     59  C   UNL A   1      45.420  27.740  32.427  1.00  0.00     0.049 A 
ATOM     60  H   UNL A   1      43.678  28.158  31.313  1.00  0.00     0.167 HD
ATOM     61  C   UNL A   1      45.349  25.989  30.684  1.00  0.00     0.074 A 
ATOM     62  C   UNL A   1      45.884  24.841  29.980  1.00  0.00     0.031 C 
ATOM     63  C   UNL A   1      45.935  26.570  31.761  1.00  0.00     0.034 A 
BRANCH  50  64
ATOM     64  C   UNL A   1      42.977  31.649  33.676  1.00  0.00     0.023 A 
ATOM     65  C   UNL A   1      43.716  32.800  33.330  1.00  0.00     0.012 A 
ATOM     66  C   UNL A   1      42.212  31.650  34.857  1.00  0.00     0.148 A 
ATOM     67  C   UNL A   1      43.738  33.912  34.170  1.00  0.00     0.002 A 
ATOM     68  C   UNL A   1      42.197  32.782  35.664  1.00  0.00     0.091 A 
ATOM     69  F   UNL A   1      41.532  30.543  35.182  1.00  0.00    -0.205 F 
ATOM     70  C   UNL A   1      42.971  33.906  35.331  1.00  0.00     0.022 A 
BRANCH  68  71
ATOM     71  S   UNL A   1      41.177  32.905  37.137  1.00  0.00     0.127 S 
ATOM     72  O   UNL A   1      39.833  32.799  36.571  1.00  0.00    -0.237 OA
ATOM     73  O   UNL A   1      41.608  31.737  37.907  1.00  0.00    -0.237 OA
ATOM     74  O   UNL A   1      41.504  34.187  37.744  1.00  0.00    -0.744 OA
ENDBRANCH  68  71
ENDBRANCH  50  64
BRANCH  51  75
ATOM     75  C   UNL A   1      42.844  24.149  27.159  1.00  0.00     0.023 A 
ATOM     76  C   UNL A   1      43.500  24.366  25.931  1.00  0.00     0.012 A 
ATOM     77  C   UNL A   1      42.220  22.908  27.397  1.00  0.00     0.148 A 
ATOM     78  C   UNL A   1      43.508  23.381  24.943  1.00  0.00     0.002 A 
ATOM     79  C   UNL A   1      42.272  21.912  26.426  1.00  0.00     0.091 A 
ATOM     80  F   UNL A   1      41.573  22.732  28.556  1.00  0.00    -0.205 F 
ATOM     81  C   UNL A   1      42.903  22.153  25.194  1.00  0.00     0.022 A 
BRANCH  79  82
ATOM     82  S   UNL A   1      41.592  20.265  26.661  1.00  0.00     0.127 S 
ATOM     83  O   UNL A   1      41.978  19.601  25.417  1.00  0.00    -0.237 OA
ATOM     84  O   UNL A   1      42.319  19.811  27.847  1.00  0.00    -0.237 OA
ATOM     85  O   UNL A   1      40.159  20.438  26.851  1.00  0.00    -0.744 OA
ENDBRANCH  79  82
ENDBRANCH  51  75
BRANCH  63  86
ATOM     86  C   UNL A   1      47.197  25.941  32.299  1.00  0.00     0.023 A 
ATOM     87  C   UNL A   1      48.456  26.330  31.798  1.00  0.00     0.012 A 
ATOM     88  C   UNL A   1      47.135  24.989  33.336  1.00  0.00     0.148 A 
ATOM     89  C   UNL A   1      49.625  25.745  32.284  1.00  0.00     0.002 A 
ATOM     90  C   UNL A   1      48.307  24.452  33.856  1.00  0.00     0.091 A 
ATOM     91  F   UNL A   1      45.930  24.614  33.791  1.00  0.00    -0.205 F 
ATOM     92  C   UNL A   1      49.552  24.815  33.318  1.00  0.00     0.022 A 
BRANCH  90  93
ATOM     93  S   UNL A   1      48.313  23.329  35.259  1.00  0.00     0.127 S 
ATOM     94  O   UNL A   1      49.180  22.254  34.777  1.00  0.00    -0.237 OA
ATOM     95  O   UNL A   1      48.897  24.155  36.315  1.00  0.00    -0.237 OA
ATOM     96  O   UNL A   1      46.922  22.961  35.482  1.00  0.00    -0.744 OA
ENDBRANCH  90  93
ENDBRANCH  63  86
ENDBRANCH  37  38
ENDBRANCH  30  32
ENDBRANCH  29  30
ENDBRANCH  28  29
ENDBRANCH  27  28
ENDBRANCH  26  27
ENDBRANCH   1  26
TORSDOF 21
ENDMDL
MODEL 2
REMARK VINA RESULT:     -10.4      2.689      3.688
REMARK SMILES O=C(CCC(=O)OCCOCCOC(=O)c1ccc(-c2c3nc(c(-c4cccc(S(=O)(=O)[O-])c4F)c4ccc([nH]4)c(-c4cccc(S(=O)(=O)[O-])c4F)c4nc(c(-c5cccc(S(=O)(=O)[O-])c5F)c5ccc2[nH]5)C=C4)C=C3)cc1)Nc1ccc(C(=O)N2CCOCC2)cc1
REMARK SMILES IDX 9 1 8 2 7 3 5 4 6 5 4 6 3 7 2 8 1 9 79 10 80 12 81 13 93 14
REMARK SMILES IDX 82 15 92 16 83 17 84 18 85 19 86 20 87 21 91 22 88 23 90 24
REMARK SMILES IDX 89 25 10 26 11 27 12 28 13 29 14 30 15 31 16 32 17 33 78 34
REMARK SMILES IDX 18 35 77 36 19 37 20 38 21 39 71 40 22 41 76 42 70 43 72 44
REMARK SMILES IDX 23 45 75 46 69 47 68 48 24 50 56 51 36 52 55 53 37 54 40 55
REMARK SMILES IDX 54 56 73 57 38 58 39 59 53 61 74 62 41 63 25 64 26 65 34 66
REMARK SMILES IDX 27 67 29 68 35 69 28 70 30 71 31 72 32 73 33 74 57 75 58 76
REMARK SMILES IDX 66 77 59 78 61 79 67 80 60 81 62 82 63 83 64 84 65 85 42 86
REMARK SMILES IDX 43 87 51 88 44 89 46 90 52 91 45 92 47 93 48 94 49 95 50 96
REMARK H PARENT 79 11 72 49 40 60
REMARK Flexibility Score: inf
ROOT
ATOM      1  C   UNL A   1      32.800  29.541  26.768  1.00  0.00     0.202 C 
ENDROOT
BRANCH   1   2
ATOM      2  C   UNL A   1      32.777  29.159  25.283  1.00  0.00     0.261 C 
BRANCH   2   3
ATOM      3  O   UNL A   1      31.432  28.836  24.857  1.00  0.00    -0.463 OA
BRANCH   3   4
ATOM      4  C   UNL A   1      31.102  29.107  23.565  1.00  0.00     0.306 C 
ATOM      5  O   UNL A   1      31.860  29.015  22.610  1.00  0.00    -0.252 OA
BRANCH   4   6
ATOM      6  C   UNL A   1      29.661  29.562  23.453  1.00  0.00     0.132 C 
BRANCH   6   7
ATOM      7  C   UNL A   1      28.679  28.507  22.947  1.00  0.00     0.112 C 
BRANCH   7   8
ATOM      8  C   UNL A   1      28.773  27.151  23.630  1.00  0.00     0.224 C 
ATOM      9  O   UNL A   1      27.767  26.636  24.112  1.00  0.00    -0.275 OA
ATOM     10  N   UNL A   1      30.034  26.600  23.603  1.00  0.00    -0.326 N 
ATOM     11  H   UNL A   1      30.735  27.133  23.163  1.00  0.00     0.169 HD
BRANCH  10  12
ATOM     12  C   UNL A   1      30.433  25.365  24.136  1.00  0.00     0.041 A 
ATOM     13  C   UNL A   1      30.826  24.388  23.222  1.00  0.00     0.027 A 
ATOM     14  C   UNL A   1      30.506  25.093  25.502  1.00  0.00     0.027 A 
ATOM     15  C   UNL A   1      31.372  23.190  23.678  1.00  0.00     0.016 A 
ATOM     16  C   UNL A   1      31.019  23.870  25.954  1.00  0.00     0.016 A 
ATOM     17  C   UNL A   1      31.457  22.906  25.046  1.00  0.00     0.040 A 
BRANCH  17  18
ATOM     18  C   UNL A   1      32.240  21.711  25.450  1.00  0.00     0.254 C 
ATOM     19  O   UNL A   1      31.713  20.627  25.206  1.00  0.00    -0.269 OA
ATOM     20  N   UNL A   1      33.530  21.805  25.939  1.00  0.00    -0.334 N 
ATOM     21  C   UNL A   1      34.192  22.906  26.636  1.00  0.00     0.148 C 
ATOM     22  C   UNL A   1      34.436  20.696  25.658  1.00  0.00     0.148 C 
ATOM     23  C   UNL A   1      35.446  23.362  25.870  1.00  0.00     0.181 C 
ATOM     24  C   UNL A   1      35.543  21.253  24.760  1.00  0.00     0.181 C 
ATOM     25  O   UNL A   1      36.288  22.273  25.457  1.00  0.00    -0.378 OA
ENDBRANCH  17  18
ENDBRANCH  10  12
ENDBRANCH   7   8
ENDBRANCH   6   7
ENDBRANCH   4   6
ENDBRANCH   3   4
ENDBRANCH   2   3
ENDBRANCH   1   2
BRANCH   1  26
ATOM     26  O   UNL A   1      33.018  30.928  27.042  1.00  0.00    -0.374 OA
BRANCH  26  27
ATOM     27  C   UNL A   1      31.884  31.781  26.928  1.00  0.00     0.202 C 
BRANCH  27  28
ATOM     28  C   UNL A   1      32.155  33.291  26.952  1.00  0.00     0.261 C 
BRANCH  28  29
ATOM     29  O   UNL A   1      32.327  33.800  28.284  1.00  0.00    -0.460 OA
BRANCH  29  30
ATOM     30  C   UNL A   1      33.450  34.538  28.456  1.00  0.00     0.338 C 
ATOM     31  O   UNL A   1      33.536  35.759  28.438  1.00  0.00    -0.246 OA
BRANCH  30  32
ATOM     32  C   UNL A   1      34.584  33.675  28.835  1.00  0.00     0.060 A 
ATOM     33  C   UNL A   1      34.348  32.643  29.754  1.00  0.00     0.016 A 
ATOM     34  C   UNL A   1      35.872  33.911  28.366  1.00  0.00     0.016 A 
ATOM     35  C   UNL A   1      35.408  31.876  30.246  1.00  0.00     0.010 A 
ATOM     36  C   UNL A   1      36.925  33.133  28.859  1.00  0.00     0.010 A 
ATOM     37  C   UNL A   1      36.719  32.128  29.826  1.00  0.00    -0.014 A 
BRANCH  37  38
ATOM     38  C   UNL A   1      37.884  31.432  30.455  1.00  0.00     0.031 A 
ATOM     39  C   UNL A   1      38.305  31.805  31.858  1.00  0.00     0.074 A 
ATOM     40  C   UNL A   1      38.602  30.501  29.792  1.00  0.00     0.049 A 
ATOM     41  N   UNL A   1      39.297  31.343  32.576  1.00  0.00    -0.248 NA
ATOM     42  C   UNL A   1      37.505  32.832  32.545  1.00  0.00     0.031 C 
ATOM     43  C   UNL A   1      38.327  30.010  28.444  1.00  0.00     0.029 A 
ATOM     44  N   UNL A   1      39.758  29.843  30.148  1.00  0.00    -0.354 N 
ATOM     45  C   UNL A   1      39.237  32.013  33.791  1.00  0.00     0.074 A 
ATOM     46  C   UNL A   1      38.165  32.979  33.683  1.00  0.00     0.031 C 
ATOM     47  C   UNL A   1      39.342  29.224  28.041  1.00  0.00     0.029 A 
ATOM     48  C   UNL A   1      40.319  29.119  29.118  1.00  0.00     0.049 A 
ATOM     49  H   UNL A   1      40.145  29.885  31.051  1.00  0.00     0.167 HD
ATOM     50  C   UNL A   1      39.958  31.808  34.919  1.00  0.00     0.034 A 
ATOM     51  C   UNL A   1      41.483  28.443  29.043  1.00  0.00     0.034 A 
ATOM     52  C   UNL A   1      40.996  30.821  35.048  1.00  0.00     0.049 A 
ATOM     53  C   UNL A   1      42.318  28.280  30.286  1.00  0.00     0.074 A 
ATOM     54  C   UNL A   1      41.698  30.452  36.183  1.00  0.00     0.029 A 
ATOM     55  N   UNL A   1      41.503  30.064  34.004  1.00  0.00    -0.354 N 
ATOM     56  N   UNL A   1      42.120  28.770  31.485  1.00  0.00    -0.248 NA
ATOM     57  C   UNL A   1      43.483  27.388  30.186  1.00  0.00     0.031 C 
ATOM     58  C   UNL A   1      42.660  29.504  35.815  1.00  0.00     0.029 A 
ATOM     59  C   UNL A   1      42.528  29.251  34.459  1.00  0.00     0.049 A 
ATOM     60  H   UNL A   1      41.181  30.099  33.074  1.00  0.00     0.167 HD
ATOM     61  C   UNL A   1      43.085  28.184  32.300  1.00  0.00     0.074 A 
ATOM     62  C   UNL A   1      43.872  27.311  31.452  1.00  0.00     0.031 C 
ATOM     63  C   UNL A   1      43.285  28.345  33.631  1.00  0.00     0.034 A 
BRANCH  50  64
ATOM     64  C   UNL A   1      39.602  32.636  36.129  1.00  0.00     0.023 A 
ATOM     65  C   UNL A   1      40.168  33.917  36.291  1.00  0.00     0.012 A 
ATOM     66  C   UNL A   1      38.686  32.160  37.086  1.00  0.00     0.148 A 
ATOM     67  C   UNL A   1      39.872  34.691  37.413  1.00  0.00     0.002 A 
ATOM     68  C   UNL A   1      38.355  32.958  38.176  1.00  0.00     0.091 A 
ATOM     69  F   UNL A   1      38.172  30.933  36.928  1.00  0.00    -0.205 F 
ATOM     70  C   UNL A   1      38.958  34.215  38.349  1.00  0.00     0.022 A 
BRANCH  68  71
ATOM     71  S   UNL A   1      37.128  32.471  39.392  1.00  0.00     0.127 S 
ATOM     72  O   UNL A   1      37.412  33.403  40.483  1.00  0.00    -0.237 OA
ATOM     73  O   UNL A   1      35.874  32.725  38.684  1.00  0.00    -0.237 OA
ATOM     74  O   UNL A   1      37.388  31.068  39.682  1.00  0.00    -0.744 OA
ENDBRANCH  68  71
ENDBRANCH  50  64
BRANCH  51  75
ATOM     75  C   UNL A   1      41.867  27.744  27.782  1.00  0.00     0.023 A 
ATOM     76  C   UNL A   1      42.290  28.513  26.679  1.00  0.00     0.012 A 
ATOM     77  C   UNL A   1      41.813  26.341  27.662  1.00  0.00     0.148 A 
ATOM     78  C   UNL A   1      42.622  27.903  25.470  1.00  0.00     0.002 A 
ATOM     79  C   UNL A   1      42.190  25.735  26.467  1.00  0.00     0.091 A 
ATOM     80  F   UNL A   1      41.377  25.629  28.709  1.00  0.00    -0.205 F 
ATOM     81  C   UNL A   1      42.581  26.516  25.367  1.00  0.00     0.022 A 
BRANCH  79  82
ATOM     82  S   UNL A   1      42.248  23.953  26.237  1.00  0.00     0.127 S 
ATOM     83  O   UNL A   1      43.121  23.537  27.333  1.00  0.00    -0.237 OA
ATOM     84  O   UNL A   1      40.841  23.588  26.404  1.00  0.00    -0.237 OA
ATOM     85  O   UNL A   1      42.783  23.731  24.902  1.00  0.00    -0.744 OA
ENDBRANCH  79  82
ENDBRANCH  51  75
BRANCH  63  86
ATOM     86  C   UNL A   1      44.361  27.514  34.286  1.00  0.00     0.023 A 
ATOM     87  C   UNL A   1      45.659  28.034  34.455  1.00  0.00     0.012 A 
ATOM     88  C   UNL A   1      44.069  26.224  34.774  1.00  0.00     0.148 A 
ATOM     89  C   UNL A   1      46.661  27.265  35.050  1.00  0.00     0.002 A 
ATOM     90  C   UNL A   1      45.056  25.486  35.417  1.00  0.00     0.091 A 
ATOM     91  F   UNL A   1      42.834  25.733  34.591  1.00  0.00    -0.205 F 
ATOM     92  C   UNL A   1      46.357  25.998  35.539  1.00  0.00     0.022 A 
BRANCH  90  93
ATOM     93  S   UNL A   1      44.726  23.889  36.173  1.00  0.00     0.127 S 
ATOM     94  O   UNL A   1      45.964  23.164  35.891  1.00  0.00    -0.237 OA
ATOM     95  O   UNL A   1      44.534  24.245  37.578  1.00  0.00    -0.237 OA
ATOM     96  O   UNL A   1      43.533  23.374  35.514  1.00  0.00    -0.744 OA
ENDBRANCH  90  93
ENDBRANCH  63  86
ENDBRANCH  37  38
ENDBRANCH  30  32
ENDBRANCH  29  30
ENDBRANCH  28  29
ENDBRANCH  27  28
ENDBRANCH  26  27
ENDBRANCH   1  26
TORSDOF 21
ENDMDL
MODEL 3
REMARK VINA RESULT:     -10.2      4.104      8.116
REMARK SMILES O=C(CCC(=O)OCCOCCOC(=O)c1ccc(-c2c3nc(c(-c4cccc(S(=O)(=O)[O-])c4F)c4ccc([nH]4)c(-c4cccc(S(=O)(=O)[O-])c4F)c4nc(c(-c5cccc(S(=O)(=O)[O-])c5F)c5ccc2[nH]5)C=C4)C=C3)cc1)Nc1ccc(C(=O)N2CCOCC2)cc1
REMARK SMILES IDX 9 1 8 2 7 3 5 4 6 5 4 6 3 7 2 8 1 9 79 10 80 12 81 13 93 14
REMARK SMILES IDX 82 15 92 16 83 17 84 18 85 19 86 20 87 21 91 22 88 23 90 24
REMARK SMILES IDX 89 25 10 26 11 27 12 28 13 29 14 30 15 31 16 32 17 33 78 34
REMARK SMILES IDX 18 35 77 36 19 37 20 38 21 39 71 40 22 41 76 42 70 43 72 44
REMARK SMILES IDX 23 45 75 46 69 47 68 48 24 50 56 51 36 52 55 53 37 54 40 55
REMARK SMILES IDX 54 56 73 57 38 58 39 59 53 61 74 62 41 63 25 64 26 65 34 66
REMARK SMILES IDX 27 67 29 68 35 69 28 70 30 71 31 72 32 73 33 74 57 75 58 76
REMARK SMILES IDX 66 77 59 78 61 79 67 80 60 81 62 82 63 83 64 84 65 85 42 86
REMARK SMILES IDX 43 87 51 88 44 89 46 90 52 91 45 92 47 93 48 94 49 95 50 96
REMARK H PARENT 79 11 72 49 40 60
REMARK Flexibility Score: inf
ROOT
ATOM      1  C   UNL A   1      34.954  34.427  31.619  1.00  0.00     0.202 C 
ENDROOT
BRANCH   1   2
ATOM      2  C   UNL A   1      35.000  35.367  32.829  1.00  0.00     0.261 C 
BRANCH   2   3
ATOM      3  O   UNL A   1      36.260  35.241  33.529  1.00  0.00    -0.463 OA
BRANCH   3   4
ATOM      4  C   UNL A   1      36.466  34.106  34.252  1.00  0.00     0.306 C 
ATOM      5  O   UNL A   1      35.630  33.561  34.958  1.00  0.00    -0.252 OA
BRANCH   4   6
ATOM      6  C   UNL A   1      37.885  33.601  34.085  1.00  0.00     0.132 C 
BRANCH   6   7
ATOM      7  C   UNL A   1      38.926  34.671  33.760  1.00  0.00     0.112 C 
BRANCH   7   8
ATOM      8  C   UNL A   1      39.682  34.467  32.455  1.00  0.00     0.224 C 
ATOM      9  O   UNL A   1      39.062  34.316  31.405  1.00  0.00    -0.275 OA
ATOM     10  N   UNL A   1      41.051  34.509  32.591  1.00  0.00    -0.326 N 
ATOM     11  H   UNL A   1      41.395  34.654  33.502  1.00  0.00     0.169 HD
BRANCH  10  12
ATOM     12  C   UNL A   1      42.011  34.366  31.577  1.00  0.00     0.041 A 
ATOM     13  C   UNL A   1      43.028  35.319  31.541  1.00  0.00     0.027 A 
ATOM     14  C   UNL A   1      42.027  33.312  30.664  1.00  0.00     0.027 A 
ATOM     15  C   UNL A   1      44.093  35.163  30.658  1.00  0.00     0.016 A 
ATOM     16  C   UNL A   1      43.082  33.183  29.752  1.00  0.00     0.016 A 
ATOM     17  C   UNL A   1      44.127  34.107  29.740  1.00  0.00     0.040 A 
BRANCH  17  18
ATOM     18  C   UNL A   1      45.389  33.893  28.989  1.00  0.00     0.254 C 
ATOM     19  O   UNL A   1      46.364  33.579  29.671  1.00  0.00    -0.269 OA
ATOM     20  N   UNL A   1      45.436  33.909  27.606  1.00  0.00    -0.334 N 
ATOM     21  C   UNL A   1      44.570  34.588  26.645  1.00  0.00     0.148 C 
ATOM     22  C   UNL A   1      46.429  33.056  26.960  1.00  0.00     0.148 C 
ATOM     23  C   UNL A   1      43.925  33.577  25.681  1.00  0.00     0.181 C 
ATOM     24  C   UNL A   1      45.650  32.003  26.168  1.00  0.00     0.181 C 
ATOM     25  O   UNL A   1      44.862  32.633  25.137  1.00  0.00    -0.378 OA
ENDBRANCH  17  18
ENDBRANCH  10  12
ENDBRANCH   7   8
ENDBRANCH   6   7
ENDBRANCH   4   6
ENDBRANCH   3   4
ENDBRANCH   2   3
ENDBRANCH   1   2
BRANCH   1  26
ATOM     26  O   UNL A   1      33.748  34.472  30.851  1.00  0.00    -0.374 OA
BRANCH  26  27
ATOM     27  C   UNL A   1      33.885  34.285  29.447  1.00  0.00     0.202 C 
BRANCH  27  28
ATOM     28  C   UNL A   1      35.035  33.382  28.982  1.00  0.00     0.261 C 
BRANCH  28  29
ATOM     29  O   UNL A   1      34.762  32.743  27.725  1.00  0.00    -0.460 OA
BRANCH  29  30
ATOM     30  C   UNL A   1      34.456  31.426  27.827  1.00  0.00     0.338 C 
ATOM     31  O   UNL A   1      33.387  30.897  27.549  1.00  0.00    -0.246 OA
BRANCH  30  32
ATOM     32  C   UNL A   1      35.654  30.643  28.181  1.00  0.00     0.060 A 
ATOM     33  C   UNL A   1      35.563  29.752  29.259  1.00  0.00     0.016 A 
ATOM     34  C   UNL A   1      36.868  30.825  27.526  1.00  0.00     0.016 A 
ATOM     35  C   UNL A   1      36.698  29.079  29.720  1.00  0.00     0.010 A 
ATOM     36  C   UNL A   1      37.996  30.141  27.991  1.00  0.00     0.010 A 
ATOM     37  C   UNL A   1      37.939  29.284  29.109  1.00  0.00    -0.014 A 
BRANCH  37  38
ATOM     38  C   UNL A   1      39.194  28.703  29.681  1.00  0.00     0.031 A 
ATOM     39  C   UNL A   1      39.844  29.364  30.874  1.00  0.00     0.074 A 
ATOM     40  C   UNL A   1      39.790  27.620  29.139  1.00  0.00     0.049 A 
ATOM     41  N   UNL A   1      40.942  29.036  31.507  1.00  0.00    -0.248 NA
ATOM     42  C   UNL A   1      39.171  30.549  31.431  1.00  0.00     0.031 C 
ATOM     43  C   UNL A   1      39.293  26.850  28.002  1.00  0.00     0.029 A 
ATOM     44  N   UNL A   1      40.989  27.014  29.442  1.00  0.00    -0.354 N 
ATOM     45  C   UNL A   1      41.087  29.964  32.530  1.00  0.00     0.074 A 
ATOM     46  C   UNL A   1      40.013  30.922  32.382  1.00  0.00     0.031 C 
ATOM     47  C   UNL A   1      40.225  25.955  27.628  1.00  0.00     0.029 A 
ATOM     48  C   UNL A   1      41.369  26.057  28.527  1.00  0.00     0.049 A 
ATOM     49  H   UNL A   1      41.522  27.243  30.237  1.00  0.00     0.167 HD
ATOM     50  C   UNL A   1      41.987  29.989  33.543  1.00  0.00     0.034 A 
ATOM     51  C   UNL A   1      42.503  25.337  28.419  1.00  0.00     0.034 A 
ATOM     52  C   UNL A   1      43.031  29.017  33.721  1.00  0.00     0.049 A 
ATOM     53  C   UNL A   1      43.534  25.424  29.513  1.00  0.00     0.074 A 
ATOM     54  C   UNL A   1      43.913  28.885  34.780  1.00  0.00     0.029 A 
ATOM     55  N   UNL A   1      43.355  28.026  32.809  1.00  0.00    -0.354 N 
ATOM     56  N   UNL A   1      43.541  26.178  30.585  1.00  0.00    -0.248 NA
ATOM     57  C   UNL A   1      44.666  24.488  29.429  1.00  0.00     0.031 C 
ATOM     58  C   UNL A   1      44.800  27.842  34.486  1.00  0.00     0.029 A 
ATOM     59  C   UNL A   1      44.442  27.297  33.263  1.00  0.00     0.049 A 
ATOM     60  H   UNL A   1      42.882  27.864  31.960  1.00  0.00     0.167 HD
ATOM     61  C   UNL A   1      44.628  25.753  31.342  1.00  0.00     0.074 A 
ATOM     62  C   UNL A   1      45.261  24.682  30.599  1.00  0.00     0.031 C 
ATOM     63  C   UNL A   1      45.049  26.200  32.551  1.00  0.00     0.034 A 
BRANCH  50  64
ATOM     64  C   UNL A   1      41.839  31.080  34.574  1.00  0.00     0.023 A 
ATOM     65  C   UNL A   1      40.893  30.940  35.611  1.00  0.00     0.012 A 
ATOM     66  C   UNL A   1      42.655  32.226  34.536  1.00  0.00     0.148 A 
ATOM     67  C   UNL A   1      40.721  31.945  36.561  1.00  0.00     0.002 A 
ATOM     68  C   UNL A   1      42.515  33.202  35.517  1.00  0.00     0.091 A 
ATOM     69  F   UNL A   1      43.535  32.354  33.534  1.00  0.00    -0.205 F 
ATOM     70  C   UNL A   1      41.540  33.071  36.519  1.00  0.00     0.022 A 
BRANCH  68  71
ATOM     71  S   UNL A   1      43.576  34.648  35.599  1.00  0.00     0.127 S 
ATOM     72  O   UNL A   1      42.726  35.669  34.986  1.00  0.00    -0.237 OA
ATOM     73  O   UNL A   1      43.772  34.805  37.041  1.00  0.00    -0.237 OA
ATOM     74  O   UNL A   1      44.780  34.304  34.856  1.00  0.00    -0.744 OA
ENDBRANCH  68  71
ENDBRANCH  50  64
BRANCH  51  75
ATOM     75  C   UNL A   1      42.670  24.358  27.304  1.00  0.00     0.023 A 
ATOM     76  C   UNL A   1      43.351  24.764  26.139  1.00  0.00     0.012 A 
ATOM     77  C   UNL A   1      42.161  23.046  27.382  1.00  0.00     0.148 A 
ATOM     78  C   UNL A   1      43.497  23.894  25.059  1.00  0.00     0.002 A 
ATOM     79  C   UNL A   1      42.350  22.168  26.320  1.00  0.00     0.091 A 
ATOM     80  F   UNL A   1      41.487  22.690  28.483  1.00  0.00    -0.205 F 
ATOM     81  C   UNL A   1      43.005  22.595  25.153  1.00  0.00     0.022 A 
BRANCH  79  82
ATOM     82  S   UNL A   1      41.825  20.448  26.352  1.00  0.00     0.127 S 
ATOM     83  O   UNL A   1      40.383  20.572  26.150  1.00  0.00    -0.237 OA
ATOM     84  O   UNL A   1      42.557  19.895  25.211  1.00  0.00    -0.237 OA
ATOM     85  O   UNL A   1      42.226  19.924  27.648  1.00  0.00    -0.744 OA
ENDBRANCH  79  82
ENDBRANCH  51  75
BRANCH  63  86
ATOM     86  C   UNL A   1      46.219  25.496  33.194  1.00  0.00     0.023 A 
ATOM     87  C   UNL A   1      47.523  26.014  33.062  1.00  0.00     0.012 A 
ATOM     88  C   UNL A   1      46.016  24.335  33.967  1.00  0.00     0.148 A 
ATOM     89  C   UNL A   1      48.609  25.361  33.644  1.00  0.00     0.002 A 
ATOM     90  C   UNL A   1      47.096  23.722  34.593  1.00  0.00     0.091 A 
ATOM     91  F   UNL A   1      44.773  23.842  34.070  1.00  0.00    -0.205 F 
ATOM     92  C   UNL A   1      48.395  24.223  34.417  1.00  0.00     0.022 A 
BRANCH  90  93
ATOM     93  S   UNL A   1      46.899  22.315  35.693  1.00  0.00     0.127 S 
ATOM     94  O   UNL A   1      48.274  22.087  36.136  1.00  0.00    -0.237 OA
ATOM     95  O   UNL A   1      46.008  22.848  36.723  1.00  0.00    -0.237 OA
ATOM     96  O   UNL A   1      46.316  21.253  34.885  1.00  0.00    -0.744 OA
ENDBRANCH  90  93
ENDBRANCH  63  86
ENDBRANCH  37  38
ENDBRANCH  30  32
ENDBRANCH  29  30
ENDBRANCH  28  29
ENDBRANCH  27  28
ENDBRANCH  26  27
ENDBRANCH   1  26
TORSDOF 21
ENDMDL
