MODEL 1
REMARK VINA RESULT:     -11.3      0.000      0.000
REMARK SMILES CCc1cc(/C=C/C(=O)OCCOCCOC(=O)c2ccc(-c3c4nc(c(-c5cccc(S(=O)(=O)[O-])c5F)c5ccc([nH]5)c(-c5cccc(S(=O)(=O)[O-])c5F)c5nc(c(-c6cccc(S(=O)(=O)[O-])c6F)c6ccc3[nH]6)C=C5)C=C4)cc2)cc(C(=O)c2ccccc2)c1
REMARK SMILES IDX 13 1 12 2 11 3 10 4 8 5 9 6 7 7 6 8 5 9 3 10 4 11 92 12
REMARK SMILES IDX 83 13 82 14 2 15 1 16 84 17 85 18 86 19 87 20 91 21 88 22
REMARK SMILES IDX 90 23 89 24 14 25 15 26 16 27 17 28 18 29 19 30 20 31 81 32
REMARK SMILES IDX 21 33 80 34 22 35 23 36 24 37 74 38 25 39 79 40 73 41 75 42
REMARK SMILES IDX 26 43 78 44 72 45 71 46 27 48 59 49 39 50 58 51 40 52 43 53
REMARK SMILES IDX 57 54 76 55 41 56 42 57 56 59 77 60 44 61 28 62 29 63 37 64
REMARK SMILES IDX 30 65 32 66 38 67 31 68 33 69 34 70 35 71 36 72 60 73 61 74
REMARK SMILES IDX 69 75 62 76 64 77 70 78 63 79 65 80 66 81 67 82 68 83 45 84
REMARK SMILES IDX 46 85 54 86 47 87 49 88 55 89 48 90 50 91 51 92 52 93 53 94
REMARK H PARENT 75 47 43 58
REMARK Flexibility Score: inf
ROOT
ATOM      1  O   UNL A   1      31.356  28.513  25.556  1.00  0.00    -0.374 OA
ENDROOT
BRANCH   1   2
ATOM      2  C   UNL A   1      31.007  29.348  24.448  1.00  0.00     0.202 C 
BRANCH   2   3
ATOM      3  C   UNL A   1      30.060  28.715  23.426  1.00  0.00     0.261 C 
BRANCH   3   4
ATOM      4  O   UNL A   1      30.510  27.401  23.056  1.00  0.00    -0.460 OA
BRANCH   4   5
ATOM      5  C   UNL A   1      29.897  26.374  23.688  1.00  0.00     0.330 C 
ATOM      6  O   UNL A   1      28.698  26.258  23.903  1.00  0.00    -0.247 OA
BRANCH   5   7
ATOM      7  C   UNL A   1      30.832  25.278  24.013  1.00  0.00     0.094 C 
ATOM      8  C   UNL A   1      31.564  24.558  23.146  1.00  0.00     0.015 C 
BRANCH   8   9
ATOM      9  C   UNL A   1      32.412  23.429  23.574  1.00  0.00    -0.024 A 
ATOM     10  C   UNL A   1      34.370  22.567  24.774  1.00  0.00    -0.047 A 
ATOM     11  C   UNL A   1      33.537  23.629  24.393  1.00  0.00     0.011 A 
ATOM     12  C   UNL A   1      34.032  21.275  24.361  1.00  0.00     0.016 A 
ATOM     13  C   UNL A   1      32.878  21.035  23.602  1.00  0.00     0.023 A 
ATOM     14  C   UNL A   1      32.076  22.119  23.207  1.00  0.00     0.020 A 
BRANCH  10  15
ATOM     15  C   UNL A   1      35.561  22.826  25.666  1.00  0.00     0.032 C 
ATOM     16  C   UNL A   1      36.564  21.679  25.733  1.00  0.00     0.009 C 
ENDBRANCH  10  15
BRANCH  13  17
ATOM     17  C   UNL A   1      32.503  19.660  23.155  1.00  0.00     0.193 C 
ATOM     18  O   UNL A   1      31.853  19.502  22.126  1.00  0.00    -0.289 OA
BRANCH  17  19
ATOM     19  C   UNL A   1      32.950  18.454  23.891  1.00  0.00     0.022 A 
ATOM     20  C   UNL A   1      32.408  18.212  25.157  1.00  0.00     0.012 A 
ATOM     21  C   UNL A   1      33.886  17.566  23.347  1.00  0.00     0.012 A 
ATOM     22  C   UNL A   1      32.756  17.054  25.853  1.00  0.00     0.001 A 
ATOM     23  C   UNL A   1      34.225  16.405  24.044  1.00  0.00     0.001 A 
ATOM     24  C   UNL A   1      33.653  16.145  25.290  1.00  0.00     0.000 A 
ENDBRANCH  17  19
ENDBRANCH  13  17
ENDBRANCH   8   9
ENDBRANCH   5   7
ENDBRANCH   4   5
ENDBRANCH   3   4
ENDBRANCH   2   3
ENDBRANCH   1   2
BRANCH   1  25
ATOM     25  C   UNL A   1      31.766  29.184  26.750  1.00  0.00     0.202 C 
BRANCH  25  26
ATOM     26  C   UNL A   1      31.817  30.715  26.667  1.00  0.00     0.261 C 
BRANCH  26  27
ATOM     27  O   UNL A   1      33.152  31.191  26.425  1.00  0.00    -0.460 OA
BRANCH  27  28
ATOM     28  C   UNL A   1      33.647  32.020  27.372  1.00  0.00     0.338 C 
ATOM     29  O   UNL A   1      33.074  32.973  27.889  1.00  0.00    -0.246 OA
BRANCH  28  30
ATOM     30  C   UNL A   1      34.946  31.518  27.859  1.00  0.00     0.060 A 
ATOM     31  C   UNL A   1      35.039  30.153  28.160  1.00  0.00     0.016 A 
ATOM     32  C   UNL A   1      36.037  32.366  28.067  1.00  0.00     0.016 A 
ATOM     33  C   UNL A   1      36.206  29.640  28.723  1.00  0.00     0.010 A 
ATOM     34  C   UNL A   1      37.206  31.848  28.637  1.00  0.00     0.010 A 
ATOM     35  C   UNL A   1      37.283  30.491  29.002  1.00  0.00    -0.014 A 
BRANCH  35  36
ATOM     36  C   UNL A   1      38.430  29.986  29.793  1.00  0.00     0.031 A 
ATOM     37  C   UNL A   1      38.633  30.491  31.196  1.00  0.00     0.074 A 
ATOM     38  C   UNL A   1      39.279  29.081  29.272  1.00  0.00     0.049 A 
ATOM     39  N   UNL A   1      39.565  30.184  32.060  1.00  0.00    -0.248 NA
ATOM     40  C   UNL A   1      37.657  31.478  31.690  1.00  0.00     0.031 C 
ATOM     41  C   UNL A   1      39.194  28.520  27.925  1.00  0.00     0.029 A 
ATOM     42  N   UNL A   1      40.396  28.493  29.812  1.00  0.00    -0.354 N 
ATOM     43  C   UNL A   1      39.305  30.954  33.188  1.00  0.00     0.074 A 
ATOM     44  C   UNL A   1      38.137  31.755  32.893  1.00  0.00     0.031 C 
ATOM     45  C   UNL A   1      40.231  27.688  27.733  1.00  0.00     0.029 A 
ATOM     46  C   UNL A   1      41.062  27.669  28.935  1.00  0.00     0.049 A 
ATOM     47  H   UNL A   1      40.693  28.647  30.738  1.00  0.00     0.167 HD
ATOM     48  C   UNL A   1      39.967  30.979  34.368  1.00  0.00     0.034 A 
ATOM     49  C   UNL A   1      42.218  26.991  29.083  1.00  0.00     0.034 A 
ATOM     50  C   UNL A   1      41.114  30.165  34.669  1.00  0.00     0.049 A 
ATOM     51  C   UNL A   1      42.942  27.044  30.403  1.00  0.00     0.074 A 
ATOM     52  C   UNL A   1      41.821  30.080  35.856  1.00  0.00     0.029 A 
ATOM     53  N   UNL A   1      41.730  29.306  33.774  1.00  0.00    -0.354 N 
ATOM     54  N   UNL A   1      42.607  27.674  31.504  1.00  0.00    -0.248 NA
ATOM     55  C   UNL A   1      44.183  26.265  30.514  1.00  0.00     0.031 C 
ATOM     56  C   UNL A   1      42.879  29.185  35.672  1.00  0.00     0.029 A 
ATOM     57  C   UNL A   1      42.815  28.693  34.377  1.00  0.00     0.049 A 
ATOM     58  H   UNL A   1      41.440  29.153  32.847  1.00  0.00     0.167 HD
ATOM     59  C   UNL A   1      43.573  27.336  32.446  1.00  0.00     0.074 A 
ATOM     60  C   UNL A   1      44.496  26.432  31.793  1.00  0.00     0.031 C 
ATOM     61  C   UNL A   1      43.692  27.747  33.734  1.00  0.00     0.034 A 
BRANCH  48  62
ATOM     62  C   UNL A   1      39.445  31.896  35.443  1.00  0.00     0.023 A 
ATOM     63  C   UNL A   1      38.517  31.405  36.384  1.00  0.00     0.012 A 
ATOM     64  C   UNL A   1      39.911  33.220  35.557  1.00  0.00     0.148 A 
ATOM     65  C   UNL A   1      38.039  32.226  37.405  1.00  0.00     0.002 A 
ATOM     66  C   UNL A   1      39.461  34.020  36.601  1.00  0.00     0.091 A 
ATOM     67  F   UNL A   1      40.774  33.676  34.638  1.00  0.00    -0.205 F 
ATOM     68  C   UNL A   1      38.518  33.529  37.519  1.00  0.00     0.022 A 
BRANCH  66  69
ATOM     69  S   UNL A   1      40.075  35.686  36.876  1.00  0.00     0.127 S 
ATOM     70  O   UNL A   1      39.577  36.383  35.691  1.00  0.00    -0.237 OA
ATOM     71  O   UNL A   1      39.410  36.058  38.126  1.00  0.00    -0.237 OA
ATOM     72  O   UNL A   1      41.522  35.569  36.972  1.00  0.00    -0.744 OA
ENDBRANCH  66  69
ENDBRANCH  48  62
BRANCH  49  73
ATOM     73  C   UNL A   1      42.741  26.161  27.961  1.00  0.00     0.023 A 
ATOM     74  C   UNL A   1      43.761  26.673  27.135  1.00  0.00     0.012 A 
ATOM     75  C   UNL A   1      42.248  24.865  27.718  1.00  0.00     0.148 A 
ATOM     76  C   UNL A   1      44.260  25.922  26.072  1.00  0.00     0.002 A 
ATOM     77  C   UNL A   1      42.787  24.100  26.690  1.00  0.00     0.091 A 
ATOM     78  F   UNL A   1      41.265  24.402  28.502  1.00  0.00    -0.205 F 
ATOM     79  C   UNL A   1      43.782  24.632  25.856  1.00  0.00     0.022 A 
BRANCH  77  80
ATOM     80  S   UNL A   1      42.322  22.386  26.418  1.00  0.00     0.127 S 
ATOM     81  O   UNL A   1      42.765  21.756  27.659  1.00  0.00    -0.237 OA
ATOM     82  O   UNL A   1      40.870  22.489  26.262  1.00  0.00    -0.237 OA
ATOM     83  O   UNL A   1      43.027  21.977  25.211  1.00  0.00    -0.744 OA
ENDBRANCH  77  80
ENDBRANCH  49  73
BRANCH  61  84
ATOM     84  C   UNL A   1      44.837  27.198  34.545  1.00  0.00     0.023 A 
ATOM     85  C   UNL A   1      46.058  27.899  34.599  1.00  0.00     0.012 A 
ATOM     86  C   UNL A   1      44.674  26.031  35.319  1.00  0.00     0.148 A 
ATOM     87  C   UNL A   1      47.109  27.432  35.387  1.00  0.00     0.002 A 
ATOM     88  C   UNL A   1      45.710  25.598  36.140  1.00  0.00     0.091 A 
ATOM     89  F   UNL A   1      43.512  25.367  35.241  1.00  0.00    -0.205 F 
ATOM     90  C   UNL A   1      46.931  26.291  36.166  1.00  0.00     0.022 A 
BRANCH  88  91
ATOM     91  S   UNL A   1      45.536  24.195  37.248  1.00  0.00     0.127 S 
ATOM     92  O   UNL A   1      46.877  24.099  37.821  1.00  0.00    -0.237 OA
ATOM     93  O   UNL A   1      44.506  24.658  38.179  1.00  0.00    -0.237 OA
ATOM     94  O   UNL A   1      45.130  23.072  36.412  1.00  0.00    -0.744 OA
ENDBRANCH  88  91
ENDBRANCH  61  84
ENDBRANCH  35  36
ENDBRANCH  28  30
ENDBRANCH  27  28
ENDBRANCH  26  27
ENDBRANCH  25  26
ENDBRANCH   1  25
TORSDOF 21
ENDMDL
MODEL 2
REMARK VINA RESULT:     -10.8      1.849      7.628
REMARK SMILES CCc1cc(/C=C/C(=O)OCCOCCOC(=O)c2ccc(-c3c4nc(c(-c5cccc(S(=O)(=O)[O-])c5F)c5ccc([nH]5)c(-c5cccc(S(=O)(=O)[O-])c5F)c5nc(c(-c6cccc(S(=O)(=O)[O-])c6F)c6ccc3[nH]6)C=C5)C=C4)cc2)cc(C(=O)c2ccccc2)c1
REMARK SMILES IDX 13 1 12 2 11 3 10 4 8 5 9 6 7 7 6 8 5 9 3 10 4 11 92 12
REMARK SMILES IDX 83 13 82 14 2 15 1 16 84 17 85 18 86 19 87 20 91 21 88 22
REMARK SMILES IDX 90 23 89 24 14 25 15 26 16 27 17 28 18 29 19 30 20 31 81 32
REMARK SMILES IDX 21 33 80 34 22 35 23 36 24 37 74 38 25 39 79 40 73 41 75 42
REMARK SMILES IDX 26 43 78 44 72 45 71 46 27 48 59 49 39 50 58 51 40 52 43 53
REMARK SMILES IDX 57 54 76 55 41 56 42 57 56 59 77 60 44 61 28 62 29 63 37 64
REMARK SMILES IDX 30 65 32 66 38 67 31 68 33 69 34 70 35 71 36 72 60 73 61 74
REMARK SMILES IDX 69 75 62 76 64 77 70 78 63 79 65 80 66 81 67 82 68 83 45 84
REMARK SMILES IDX 46 85 54 86 47 87 49 88 55 89 48 90 50 91 51 92 52 93 53 94
REMARK H PARENT 75 47 43 58
REMARK Flexibility Score: inf
ROOT
ATOM      1  O   UNL A   1      32.498  30.278  25.988  1.00  0.00    -0.374 OA
ENDROOT
BRANCH   1   2
ATOM      2  C   UNL A   1      31.412  30.210  25.059  1.00  0.00     0.202 C 
BRANCH   2   3
ATOM      3  C   UNL A   1      31.051  28.803  24.578  1.00  0.00     0.261 C 
BRANCH   3   4
ATOM      4  O   UNL A   1      31.964  28.361  23.559  1.00  0.00    -0.460 OA
BRANCH   4   5
ATOM      5  C   UNL A   1      31.595  27.245  22.890  1.00  0.00     0.330 C 
ATOM      6  O   UNL A   1      30.851  27.185  21.921  1.00  0.00    -0.247 OA
BRANCH   5   7
ATOM      7  C   UNL A   1      32.300  26.041  23.377  1.00  0.00     0.094 C 
ATOM      8  C   UNL A   1      32.943  25.126  22.633  1.00  0.00     0.015 C 
BRANCH   8   9
ATOM      9  C   UNL A   1      33.549  23.916  23.220  1.00  0.00    -0.024 A 
ATOM     10  C   UNL A   1      35.530  22.606  23.837  1.00  0.00    -0.047 A 
ATOM     11  C   UNL A   1      34.944  23.769  23.316  1.00  0.00     0.011 A 
ATOM     12  C   UNL A   1      34.691  21.595  24.314  1.00  0.00     0.016 A 
ATOM     13  C   UNL A   1      33.296  21.741  24.295  1.00  0.00     0.023 A 
ATOM     14  C   UNL A   1      32.733  22.902  23.740  1.00  0.00     0.020 A 
BRANCH  10  15
ATOM     15  C   UNL A   1      37.033  22.498  23.934  1.00  0.00     0.032 C 
ATOM     16  C   UNL A   1      37.530  21.416  24.885  1.00  0.00     0.009 C 
ENDBRANCH  10  15
BRANCH  13  17
ATOM     17  C   UNL A   1      32.387  20.669  24.802  1.00  0.00     0.193 C 
ATOM     18  O   UNL A   1      31.346  20.967  25.380  1.00  0.00    -0.289 OA
BRANCH  17  19
ATOM     19  C   UNL A   1      32.673  19.233  24.573  1.00  0.00     0.022 A 
ATOM     20  C   UNL A   1      32.905  18.420  25.687  1.00  0.00     0.012 A 
ATOM     21  C   UNL A   1      32.710  18.688  23.285  1.00  0.00     0.012 A 
ATOM     22  C   UNL A   1      33.114  17.050  25.516  1.00  0.00     0.001 A 
ATOM     23  C   UNL A   1      32.912  17.316  23.119  1.00  0.00     0.001 A 
ATOM     24  C   UNL A   1      33.104  16.498  24.234  1.00  0.00     0.000 A 
ENDBRANCH  17  19
ENDBRANCH  13  17
ENDBRANCH   8   9
ENDBRANCH   5   7
ENDBRANCH   4   5
ENDBRANCH   3   4
ENDBRANCH   2   3
ENDBRANCH   1   2
BRANCH   1  25
ATOM     25  C   UNL A   1      32.296  31.101  27.139  1.00  0.00     0.202 C 
BRANCH  25  26
ATOM     26  C   UNL A   1      31.771  32.515  26.860  1.00  0.00     0.261 C 
BRANCH  26  27
ATOM     27  O   UNL A   1      32.833  33.484  26.844  1.00  0.00    -0.460 OA
BRANCH  27  28
ATOM     28  C   UNL A   1      33.204  33.951  28.058  1.00  0.00     0.338 C 
ATOM     29  O   UNL A   1      32.618  34.787  28.736  1.00  0.00    -0.246 OA
BRANCH  28  30
ATOM     30  C   UNL A   1      34.349  33.175  28.572  1.00  0.00     0.060 A 
ATOM     31  C   UNL A   1      34.129  32.366  29.695  1.00  0.00     0.016 A 
ATOM     32  C   UNL A   1      35.623  33.271  28.006  1.00  0.00     0.016 A 
ATOM     33  C   UNL A   1      35.195  31.693  30.290  1.00  0.00     0.010 A 
ATOM     34  C   UNL A   1      36.692  32.598  28.609  1.00  0.00     0.010 A 
ATOM     35  C   UNL A   1      36.490  31.836  29.774  1.00  0.00    -0.014 A 
BRANCH  35  36
ATOM     36  C   UNL A   1      37.644  31.296  30.533  1.00  0.00     0.031 A 
ATOM     37  C   UNL A   1      38.538  30.276  29.882  1.00  0.00     0.074 A 
ATOM     38  C   UNL A   1      37.897  31.714  31.787  1.00  0.00     0.049 A 
ATOM     39  N   UNL A   1      39.596  29.677  30.361  1.00  0.00    -0.248 NA
ATOM     40  C   UNL A   1      38.191  29.876  28.508  1.00  0.00     0.031 C 
ATOM     41  C   UNL A   1      37.103  32.692  32.529  1.00  0.00     0.029 A 
ATOM     42  N   UNL A   1      38.887  31.349  32.665  1.00  0.00    -0.354 N 
ATOM     43  C   UNL A   1      40.027  28.812  29.362  1.00  0.00     0.074 A 
ATOM     44  C   UNL A   1      39.107  28.953  28.255  1.00  0.00     0.031 C 
ATOM     45  C   UNL A   1      37.621  32.829  33.761  1.00  0.00     0.029 A 
ATOM     46  C   UNL A   1      38.772  31.939  33.901  1.00  0.00     0.049 A 
ATOM     47  H   UNL A   1      39.611  30.723  32.432  1.00  0.00     0.167 HD
ATOM     48  C   UNL A   1      41.102  27.989  29.358  1.00  0.00     0.034 A 
ATOM     49  C   UNL A   1      39.504  31.769  35.021  1.00  0.00     0.034 A 
ATOM     50  C   UNL A   1      42.031  27.868  30.450  1.00  0.00     0.049 A 
ATOM     51  C   UNL A   1      40.688  30.838  34.994  1.00  0.00     0.074 A 
ATOM     52  C   UNL A   1      43.181  27.101  30.519  1.00  0.00     0.029 A 
ATOM     53  N   UNL A   1      41.910  28.519  31.666  1.00  0.00    -0.354 N 
ATOM     54  N   UNL A   1      41.160  30.129  33.996  1.00  0.00    -0.248 NA
ATOM     55  C   UNL A   1      41.463  30.712  36.236  1.00  0.00     0.031 C 
ATOM     56  C   UNL A   1      43.744  27.272  31.788  1.00  0.00     0.029 A 
ATOM     57  C   UNL A   1      42.958  28.165  32.499  1.00  0.00     0.049 A 
ATOM     58  H   UNL A   1      41.187  29.142  31.904  1.00  0.00     0.167 HD
ATOM     59  C   UNL A   1      42.305  29.505  34.479  1.00  0.00     0.074 A 
ATOM     60  C   UNL A   1      42.467  29.933  35.852  1.00  0.00     0.031 C 
ATOM     61  C   UNL A   1      43.142  28.645  33.845  1.00  0.00     0.034 A 
BRANCH  48  62
ATOM     62  C   UNL A   1      41.356  27.176  28.116  1.00  0.00     0.023 A 
ATOM     63  C   UNL A   1      41.944  27.791  26.991  1.00  0.00     0.012 A 
ATOM     64  C   UNL A   1      41.066  25.798  28.079  1.00  0.00     0.148 A 
ATOM     65  C   UNL A   1      42.213  27.053  25.839  1.00  0.00     0.002 A 
ATOM     66  C   UNL A   1      41.375  25.061  26.941  1.00  0.00     0.091 A 
ATOM     67  F   UNL A   1      40.485  25.238  29.149  1.00  0.00    -0.205 F 
ATOM     68  C   UNL A   1      41.938  25.688  25.818  1.00  0.00     0.022 A 
BRANCH  66  69
ATOM     69  S   UNL A   1      41.128  23.284  26.845  1.00  0.00     0.127 S 
ATOM     70  O   UNL A   1      39.672  23.194  26.742  1.00  0.00    -0.237 OA
ATOM     71  O   UNL A   1      41.848  22.938  25.619  1.00  0.00    -0.237 OA
ATOM     72  O   UNL A   1      41.705  22.733  28.062  1.00  0.00    -0.744 OA
ENDBRANCH  66  69
ENDBRANCH  48  62
BRANCH  49  73
ATOM     73  C   UNL A   1      39.164  32.534  36.254  1.00  0.00     0.023 A 
ATOM     74  C   UNL A   1      39.674  33.835  36.427  1.00  0.00     0.012 A 
ATOM     75  C   UNL A   1      38.325  31.988  37.245  1.00  0.00     0.148 A 
ATOM     76  C   UNL A   1      39.380  34.568  37.577  1.00  0.00     0.002 A 
ATOM     77  C   UNL A   1      37.992  32.743  38.363  1.00  0.00     0.091 A 
ATOM     78  F   UNL A   1      37.865  30.742  37.071  1.00  0.00    -0.205 F 
ATOM     79  C   UNL A   1      38.531  34.026  38.539  1.00  0.00     0.022 A 
BRANCH  77  80
ATOM     80  S   UNL A   1      36.808  32.177  39.590  1.00  0.00     0.127 S 
ATOM     81  O   UNL A   1      37.026  33.129  40.676  1.00  0.00    -0.237 OA
ATOM     82  O   UNL A   1      35.539  32.332  38.878  1.00  0.00    -0.237 OA
ATOM     83  O   UNL A   1      37.171  30.796  39.874  1.00  0.00    -0.744 OA
ENDBRANCH  77  80
ENDBRANCH  49  73
BRANCH  61  84
ATOM     84  C   UNL A   1      44.335  28.132  34.609  1.00  0.00     0.023 A 
ATOM     85  C   UNL A   1      45.547  28.851  34.582  1.00  0.00     0.012 A 
ATOM     86  C   UNL A   1      44.230  26.984  35.419  1.00  0.00     0.148 A 
ATOM     87  C   UNL A   1      46.644  28.418  35.326  1.00  0.00     0.002 A 
ATOM     88  C   UNL A   1      45.313  26.586  36.195  1.00  0.00     0.091 A 
ATOM     89  F   UNL A   1      43.075  26.303  35.418  1.00  0.00    -0.205 F 
ATOM     90  C   UNL A   1      46.523  27.295  36.141  1.00  0.00     0.022 A 
BRANCH  88  91
ATOM     91  S   UNL A   1      45.216  25.209  37.346  1.00  0.00     0.127 S 
ATOM     92  O   UNL A   1      46.619  25.034  37.719  1.00  0.00    -0.237 OA
ATOM     93  O   UNL A   1      44.365  25.748  38.407  1.00  0.00    -0.237 OA
ATOM     94  O   UNL A   1      44.624  24.106  36.601  1.00  0.00    -0.744 OA
ENDBRANCH  88  91
ENDBRANCH  61  84
ENDBRANCH  35  36
ENDBRANCH  28  30
ENDBRANCH  27  28
ENDBRANCH  26  27
ENDBRANCH  25  26
ENDBRANCH   1  25
TORSDOF 21
ENDMDL
MODEL 3
REMARK VINA RESULT:     -10.7      3.045      8.148
REMARK SMILES CCc1cc(/C=C/C(=O)OCCOCCOC(=O)c2ccc(-c3c4nc(c(-c5cccc(S(=O)(=O)[O-])c5F)c5ccc([nH]5)c(-c5cccc(S(=O)(=O)[O-])c5F)c5nc(c(-c6cccc(S(=O)(=O)[O-])c6F)c6ccc3[nH]6)C=C5)C=C4)cc2)cc(C(=O)c2ccccc2)c1
REMARK SMILES IDX 13 1 12 2 11 3 10 4 8 5 9 6 7 7 6 8 5 9 3 10 4 11 92 12
REMARK SMILES IDX 83 13 82 14 2 15 1 16 84 17 85 18 86 19 87 20 91 21 88 22
REMARK SMILES IDX 90 23 89 24 14 25 15 26 16 27 17 28 18 29 19 30 20 31 81 32
REMARK SMILES IDX 21 33 80 34 22 35 23 36 24 37 74 38 25 39 79 40 73 41 75 42
REMARK SMILES IDX 26 43 78 44 72 45 71 46 27 48 59 49 39 50 58 51 40 52 43 53
REMARK SMILES IDX 57 54 76 55 41 56 42 57 56 59 77 60 44 61 28 62 29 63 37 64
REMARK SMILES IDX 30 65 32 66 38 67 31 68 33 69 34 70 35 71 36 72 60 73 61 74
REMARK SMILES IDX 69 75 62 76 64 77 70 78 63 79 65 80 66 81 67 82 68 83 45 84
REMARK SMILES IDX 46 85 54 86 47 87 49 88 55 89 48 90 50 91 51 92 52 93 53 94
REMARK H PARENT 75 47 43 58
REMARK Flexibility Score: inf
ROOT
ATOM      1  O   UNL A   1      31.413  28.472  26.044  1.00  0.00    -0.374 OA
ENDROOT
BRANCH   1   2
ATOM      2  C   UNL A   1      31.407  29.237  24.836  1.00  0.00     0.202 C 
BRANCH   2   3
ATOM      3  C   UNL A   1      30.419  28.761  23.767  1.00  0.00     0.261 C 
BRANCH   3   4
ATOM      4  O   UNL A   1      30.775  27.454  23.287  1.00  0.00    -0.460 OA
BRANCH   4   5
ATOM      5  C   UNL A   1      30.063  26.428  23.807  1.00  0.00     0.330 C 
ATOM      6  O   UNL A   1      28.847  26.360  23.911  1.00  0.00    -0.247 OA
BRANCH   5   7
ATOM      7  C   UNL A   1      30.918  25.273  24.153  1.00  0.00     0.094 C 
ATOM      8  C   UNL A   1      31.961  24.802  23.450  1.00  0.00     0.015 C 
BRANCH   8   9
ATOM      9  C   UNL A   1      32.700  23.589  23.848  1.00  0.00    -0.024 A 
ATOM     10  C   UNL A   1      34.534  22.514  25.072  1.00  0.00    -0.047 A 
ATOM     11  C   UNL A   1      33.802  23.657  24.718  1.00  0.00     0.011 A 
ATOM     12  C   UNL A   1      34.114  21.275  24.578  1.00  0.00     0.016 A 
ATOM     13  C   UNL A   1      32.977  21.167  23.764  1.00  0.00     0.023 A 
ATOM     14  C   UNL A   1      32.280  22.331  23.398  1.00  0.00     0.020 A 
BRANCH  10  15
ATOM     15  C   UNL A   1      35.703  22.631  26.021  1.00  0.00     0.032 C 
ATOM     16  C   UNL A   1      36.601  23.838  25.773  1.00  0.00     0.009 C 
ENDBRANCH  10  15
BRANCH  13  17
ATOM     17  C   UNL A   1      32.516  19.851  23.229  1.00  0.00     0.193 C 
ATOM     18  O   UNL A   1      31.847  19.802  22.202  1.00  0.00    -0.289 OA
BRANCH  17  19
ATOM     19  C   UNL A   1      32.897  18.572  23.875  1.00  0.00     0.022 A 
ATOM     20  C   UNL A   1      32.517  18.363  25.204  1.00  0.00     0.012 A 
ATOM     21  C   UNL A   1      33.615  17.587  23.187  1.00  0.00     0.012 A 
ATOM     22  C   UNL A   1      32.801  17.147  25.826  1.00  0.00     0.001 A 
ATOM     23  C   UNL A   1      33.891  16.369  23.811  1.00  0.00     0.001 A 
ATOM     24  C   UNL A   1      33.476  16.146  25.124  1.00  0.00     0.000 A 
ENDBRANCH  17  19
ENDBRANCH  13  17
ENDBRANCH   8   9
ENDBRANCH   5   7
ENDBRANCH   4   5
ENDBRANCH   3   4
ENDBRANCH   2   3
ENDBRANCH   1   2
BRANCH   1  25
ATOM     25  C   UNL A   1      31.910  29.133  27.210  1.00  0.00     0.202 C 
BRANCH  25  26
ATOM     26  C   UNL A   1      32.731  30.403  26.952  1.00  0.00     0.261 C 
BRANCH  26  27
ATOM     27  O   UNL A   1      34.144  30.147  27.021  1.00  0.00    -0.460 OA
BRANCH  27  28
ATOM     28  C   UNL A   1      34.802  30.809  27.999  1.00  0.00     0.338 C 
ATOM     29  O   UNL A   1      34.360  31.707  28.707  1.00  0.00    -0.246 OA
BRANCH  28  30
ATOM     30  C   UNL A   1      36.113  30.179  28.246  1.00  0.00     0.060 A 
ATOM     31  C   UNL A   1      36.312  29.568  29.491  1.00  0.00     0.016 A 
ATOM     32  C   UNL A   1      37.146  30.227  27.307  1.00  0.00     0.016 A 
ATOM     33  C   UNL A   1      37.562  29.049  29.823  1.00  0.00     0.010 A 
ATOM     34  C   UNL A   1      38.403  29.709  27.644  1.00  0.00     0.010 A 
ATOM     35  C   UNL A   1      38.627  29.152  28.917  1.00  0.00    -0.014 A 
BRANCH  35  36
ATOM     36  C   UNL A   1      39.998  28.797  29.355  1.00  0.00     0.031 A 
ATOM     37  C   UNL A   1      40.688  27.619  28.723  1.00  0.00     0.074 A 
ATOM     38  C   UNL A   1      40.625  29.519  30.302  1.00  0.00     0.049 A 
ATOM     39  N   UNL A   1      41.881  27.137  28.954  1.00  0.00    -0.248 NA
ATOM     40  C   UNL A   1      39.932  26.885  27.694  1.00  0.00     0.031 C 
ATOM     41  C   UNL A   1      40.061  30.677  30.994  1.00  0.00     0.029 A 
ATOM     42  N   UNL A   1      41.871  29.368  30.859  1.00  0.00    -0.354 N 
ATOM     43  C   UNL A   1      42.011  26.031  28.122  1.00  0.00     0.074 A 
ATOM     44  C   UNL A   1      40.769  25.904  27.391  1.00  0.00     0.031 C 
ATOM     45  C   UNL A   1      40.949  31.115  31.903  1.00  0.00     0.029 A 
ATOM     46  C   UNL A   1      42.134  30.262  31.869  1.00  0.00     0.049 A 
ATOM     47  H   UNL A   1      42.514  28.683  30.563  1.00  0.00     0.167 HD
ATOM     48  C   UNL A   1      43.073  25.206  27.966  1.00  0.00     0.034 A 
ATOM     49  C   UNL A   1      43.204  30.368  32.683  1.00  0.00     0.034 A 
ATOM     50  C   UNL A   1      44.316  25.347  28.676  1.00  0.00     0.049 A 
ATOM     51  C   UNL A   1      44.369  29.431  32.497  1.00  0.00     0.074 A 
ATOM     52  C   UNL A   1      45.470  24.594  28.548  1.00  0.00     0.029 A 
ATOM     53  N   UNL A   1      44.564  26.295  29.656  1.00  0.00    -0.354 N 
ATOM     54  N   UNL A   1      44.527  28.474  31.613  1.00  0.00    -0.248 NA
ATOM     55  C   UNL A   1      45.518  29.610  33.396  1.00  0.00     0.031 C 
ATOM     56  C   UNL A   1      46.409  25.073  29.467  1.00  0.00     0.029 A 
ATOM     57  C   UNL A   1      45.848  26.140  30.149  1.00  0.00     0.049 A 
ATOM     58  H   UNL A   1      43.922  26.977  29.956  1.00  0.00     0.167 HD
ATOM     59  C   UNL A   1      45.805  27.966  31.825  1.00  0.00     0.074 A 
ATOM     60  C   UNL A   1      46.385  28.731  32.908  1.00  0.00     0.031 C 
ATOM     61  C   UNL A   1      46.436  26.949  31.187  1.00  0.00     0.034 A 
BRANCH  48  62
ATOM     62  C   UNL A   1      42.952  24.092  26.961  1.00  0.00     0.023 A 
ATOM     63  C   UNL A   1      43.552  24.232  25.692  1.00  0.00     0.012 A 
ATOM     64  C   UNL A   1      42.296  22.888  27.286  1.00  0.00     0.148 A 
ATOM     65  C   UNL A   1      43.477  23.204  24.753  1.00  0.00     0.002 A 
ATOM     66  C   UNL A   1      42.260  21.853  26.359  1.00  0.00     0.091 A 
ATOM     67  F   UNL A   1      41.711  22.784  28.487  1.00  0.00    -0.205 F 
ATOM     68  C   UNL A   1      42.840  22.013  25.091  1.00  0.00     0.022 A 
BRANCH  66  69
ATOM     69  S   UNL A   1      41.530  20.253  26.727  1.00  0.00     0.127 S 
ATOM     70  O   UNL A   1      40.142  20.619  27.004  1.00  0.00    -0.237 OA
ATOM     71  O   UNL A   1      41.729  19.527  25.471  1.00  0.00    -0.237 OA
ATOM     72  O   UNL A   1      42.276  19.722  27.858  1.00  0.00    -0.744 OA
ENDBRANCH  66  69
ENDBRANCH  48  62
BRANCH  49  73
ATOM     73  C   UNL A   1      43.244  31.436  33.722  1.00  0.00     0.023 A 
ATOM     74  C   UNL A   1      43.842  32.675  33.422  1.00  0.00     0.012 A 
ATOM     75  C   UNL A   1      42.679  31.238  34.996  1.00  0.00     0.148 A 
ATOM     76  C   UNL A   1      43.902  33.687  34.380  1.00  0.00     0.002 A 
ATOM     77  C   UNL A   1      42.694  32.267  35.929  1.00  0.00     0.091 A 
ATOM     78  F   UNL A   1      42.131  30.045  35.269  1.00  0.00    -0.205 F 
ATOM     79  C   UNL A   1      43.319  33.487  35.629  1.00  0.00     0.022 A 
BRANCH  77  80
ATOM     80  S   UNL A   1      41.858  32.145  37.515  1.00  0.00     0.127 S 
ATOM     81  O   UNL A   1      40.500  31.794  37.109  1.00  0.00    -0.237 OA
ATOM     82  O   UNL A   1      42.606  31.069  38.167  1.00  0.00    -0.237 OA
ATOM     83  O   UNL A   1      42.017  33.450  38.141  1.00  0.00    -0.744 OA
ENDBRANCH  77  80
ENDBRANCH  49  73
BRANCH  61  84
ATOM     84  C   UNL A   1      47.845  26.620  31.610  1.00  0.00     0.023 A 
ATOM     85  C   UNL A   1      48.068  25.687  32.641  1.00  0.00     0.012 A 
ATOM     86  C   UNL A   1      48.947  27.174  30.928  1.00  0.00     0.148 A 
ATOM     87  C   UNL A   1      49.365  25.332  33.008  1.00  0.00     0.002 A 
ATOM     88  C   UNL A   1      50.237  26.779  31.267  1.00  0.00     0.091 A 
ATOM     89  F   UNL A   1      48.716  28.074  29.961  1.00  0.00    -0.205 F 
ATOM     90  C   UNL A   1      50.448  25.867  32.314  1.00  0.00     0.022 A 
BRANCH  88  91
ATOM     91  S   UNL A   1      51.684  27.344  30.363  1.00  0.00     0.127 S 
ATOM     92  O   UNL A   1      51.145  27.511  29.015  1.00  0.00    -0.237 OA
ATOM     93  O   UNL A   1      52.011  28.594  31.049  1.00  0.00    -0.237 OA
ATOM     94  O   UNL A   1      52.684  26.295  30.513  1.00  0.00    -0.744 OA
ENDBRANCH  88  91
ENDBRANCH  61  84
ENDBRANCH  35  36
ENDBRANCH  28  30
ENDBRANCH  27  28
ENDBRANCH  26  27
ENDBRANCH  25  26
ENDBRANCH   1  25
TORSDOF 21
ENDMDL
