MODEL 1
REMARK VINA RESULT:     -11.3      0.000      0.000
REMARK SMILES Cc1cccc(C(=O)Nc2cnc(N3CCN(c4cccc(C)c4)[C@H](C)C3)c(C(=O)OCCOCCOC(=O)c3ccc(-c4c5nc(c(-c6cccc(S(=O)(=O)[O-])c6F)c6ccc([nH]6)c(-c6cccc(S(=O)(=O)[O-])c6F)c6nc(c(-c7cccc(S(=O)(=O)[O-])c7F)c7ccc4[nH]7)C=C6)C=C5)cc3)c2)c1
REMARK SMILES IDX 35 1 34 2 33 3 32 4 31 5 29 6 30 7 28 8 10 9 11 10 103 11
REMARK SMILES IDX 12 12 13 13 9 14 7 15 8 16 6 18 1 19 2 20 3 21 104 22 4 23
REMARK SMILES IDX 5 24 14 25 15 26 27 27 16 28 25 29 17 30 26 31 18 32 19 33
REMARK SMILES IDX 24 34 20 35 22 36 21 37 23 38 36 39 37 40 38 41 39 42 40 43
REMARK SMILES IDX 41 44 102 45 42 46 101 47 43 48 44 49 45 50 95 51 46 52
REMARK SMILES IDX 100 53 94 54 96 55 47 56 99 57 93 58 92 59 48 61 80 62 60 63
REMARK SMILES IDX 79 64 61 65 64 66 78 67 97 68 62 69 63 70 77 72 98 73 65 74
REMARK SMILES IDX 49 75 50 76 58 77 51 78 53 79 59 80 52 81 54 82 55 83 56 84
REMARK SMILES IDX 57 85 81 86 82 87 90 88 83 89 85 90 91 91 84 92 86 93 87 94
REMARK SMILES IDX 88 95 89 96 66 97 67 98 75 99 68 100 70 101 76 102 69 103
REMARK SMILES IDX 71 104 72 105 73 106 74 107
REMARK H PARENT 9 17 96 60 64 71
REMARK Flexibility Score: inf
ROOT
ATOM      1  C   UNL A   1      40.227  27.562  28.551  1.00  0.00     0.202 C 
ENDROOT
BRANCH   1   2
ATOM      2  O   UNL A   1      41.293  27.422  27.646  1.00  0.00    -0.374 OA
BRANCH   2   3
ATOM      3  C   UNL A   1      41.040  26.677  26.468  1.00  0.00     0.202 C 
BRANCH   3   4
ATOM      4  C   UNL A   1      41.539  25.291  26.763  1.00  0.00     0.261 C 
BRANCH   4   5
ATOM      5  O   UNL A   1      40.651  24.310  26.223  1.00  0.00    -0.460 OA
BRANCH   5   6
ATOM      6  C   UNL A   1      39.776  23.734  27.092  1.00  0.00     0.342 C 
ATOM      7  O   UNL A   1      39.179  24.277  28.010  1.00  0.00    -0.246 OA
BRANCH   6   8
ATOM      8  C   UNL A   1      39.613  22.331  26.693  1.00  0.00     0.104 A 
ATOM      9  C   UNL A   1      40.581  20.119  26.768  1.00  0.00     0.061 A 
ATOM     10  C   UNL A   1      39.643  19.778  25.809  1.00  0.00     0.139 A 
ATOM     11  C   UNL A   1      40.553  21.420  27.210  1.00  0.00     0.047 A 
ATOM     12  N   UNL A   1      38.631  20.598  25.392  1.00  0.00    -0.236 NA
ATOM     13  C   UNL A   1      38.590  21.882  25.848  1.00  0.00     0.143 A 
BRANCH   9  14
ATOM     14  N   UNL A   1      41.560  19.225  27.245  1.00  0.00    -0.321 N 
ATOM     15  C   UNL A   1      42.668  18.730  26.568  1.00  0.00     0.255 C 
ATOM     16  O   UNL A   1      43.084  17.602  26.833  1.00  0.00    -0.269 OA
ATOM     17  H   UNL A   1      41.445  18.914  28.172  1.00  0.00     0.170 HD
BRANCH  15  18
ATOM     18  C   UNL A   1      43.457  19.602  25.633  1.00  0.00     0.040 A 
ATOM     19  C   UNL A   1      44.053  23.279  24.918  1.00  0.00     0.044 C 
ATOM     20  C   UNL A   1      44.214  21.791  24.885  1.00  0.00    -0.050 A 
ATOM     21  C   UNL A   1      45.038  21.189  23.933  1.00  0.00     0.003 A 
ATOM     22  C   UNL A   1      43.473  20.994  25.760  1.00  0.00     0.017 A 
ATOM     23  C   UNL A   1      45.079  19.801  23.825  1.00  0.00     0.001 A 
ATOM     24  C   UNL A   1      44.284  19.011  24.664  1.00  0.00     0.014 A 
ENDBRANCH  15  18
ENDBRANCH   9  14
BRANCH  13  25
ATOM     25  N   UNL A   1      37.506  22.656  25.497  1.00  0.00    -0.352 N 
ATOM     26  C   UNL A   1      37.441  23.281  24.157  1.00  0.00     0.139 C 
ATOM     27  C   UNL A   1      36.465  23.048  26.465  1.00  0.00     0.142 C 
ATOM     28  C   UNL A   1      35.980  23.333  23.587  1.00  0.00     0.138 C 
ATOM     29  C   UNL A   1      35.047  23.030  25.815  1.00  0.00     0.098 C 
ATOM     30  N   UNL A   1      35.083  23.907  24.615  1.00  0.00    -0.365 N 
ATOM     31  C   UNL A   1      33.949  23.327  26.835  1.00  0.00     0.033 C 
BRANCH  30  32
ATOM     32  C   UNL A   1      33.969  24.657  24.283  1.00  0.00     0.037 A 
ATOM     33  C   UNL A   1      33.994  26.034  24.548  1.00  0.00     0.026 A 
ATOM     34  C   UNL A   1      32.773  24.117  23.803  1.00  0.00     0.029 A 
ATOM     35  C   UNL A   1      32.867  26.839  24.382  1.00  0.00     0.002 A 
ATOM     36  C   UNL A   1      31.613  24.907  23.675  1.00  0.00    -0.049 A 
ATOM     37  C   UNL A   1      31.676  26.274  23.949  1.00  0.00     0.003 A 
ATOM     38  C   UNL A   1      30.308  24.311  23.240  1.00  0.00     0.044 C 
ENDBRANCH  30  32
ENDBRANCH  13  25
ENDBRANCH   6   8
ENDBRANCH   5   6
ENDBRANCH   4   5
ENDBRANCH   3   4
ENDBRANCH   2   3
ENDBRANCH   1   2
BRANCH   1  39
ATOM     39  C   UNL A   1      39.459  28.833  28.215  1.00  0.00     0.261 C 
BRANCH  39  40
ATOM     40  O   UNL A   1      38.099  28.701  28.698  1.00  0.00    -0.460 OA
BRANCH  40  41
ATOM     41  C   UNL A   1      37.270  29.742  28.364  1.00  0.00     0.338 C 
ATOM     42  O   UNL A   1      36.763  29.872  27.260  1.00  0.00    -0.246 OA
BRANCH  41  43
ATOM     43  C   UNL A   1      37.285  30.803  29.430  1.00  0.00     0.060 A 
ATOM     44  C   UNL A   1      37.383  32.154  29.066  1.00  0.00     0.016 A 
ATOM     45  C   UNL A   1      37.558  30.445  30.748  1.00  0.00     0.016 A 
ATOM     46  C   UNL A   1      37.972  33.083  29.944  1.00  0.00     0.010 A 
ATOM     47  C   UNL A   1      38.200  31.358  31.581  1.00  0.00     0.010 A 
ATOM     48  C   UNL A   1      38.494  32.668  31.165  1.00  0.00    -0.014 A 
BRANCH  48  49
ATOM     49  C   UNL A   1      39.481  33.410  31.991  1.00  0.00     0.031 A 
ATOM     50  C   UNL A   1      39.114  33.928  33.337  1.00  0.00     0.074 A 
ATOM     51  C   UNL A   1      40.803  33.249  31.743  1.00  0.00     0.049 A 
ATOM     52  N   UNL A   1      39.949  34.317  34.243  1.00  0.00    -0.248 NA
ATOM     53  C   UNL A   1      37.726  34.138  33.725  1.00  0.00     0.031 C 
ATOM     54  C   UNL A   1      41.827  32.925  32.740  1.00  0.00     0.029 A 
ATOM     55  N   UNL A   1      41.505  33.309  30.541  1.00  0.00    -0.354 N 
ATOM     56  C   UNL A   1      39.245  34.708  35.362  1.00  0.00     0.074 A 
ATOM     57  C   UNL A   1      37.862  34.590  34.977  1.00  0.00     0.031 C 
ATOM     58  C   UNL A   1      43.016  32.848  32.138  1.00  0.00     0.029 A 
ATOM     59  C   UNL A   1      42.878  33.346  30.794  1.00  0.00     0.049 A 
ATOM     60  H   UNL A   1      41.094  33.323  29.645  1.00  0.00     0.167 HD
ATOM     61  C   UNL A   1      39.929  35.038  36.496  1.00  0.00     0.034 A 
ATOM     62  C   UNL A   1      43.788  34.159  30.201  1.00  0.00     0.034 A 
ATOM     63  C   UNL A   1      41.372  35.158  36.217  1.00  0.00     0.049 A 
ATOM     64  C   UNL A   1      44.187  35.262  31.164  1.00  0.00     0.074 A 
ATOM     65  C   UNL A   1      42.515  34.485  36.610  1.00  0.00     0.029 A 
ATOM     66  N   UNL A   1      41.782  36.070  35.242  1.00  0.00    -0.354 N 
ATOM     67  N   UNL A   1      43.822  35.341  32.421  1.00  0.00    -0.248 NA
ATOM     68  C   UNL A   1      45.062  36.359  30.777  1.00  0.00     0.031 C 
ATOM     69  C   UNL A   1      43.620  35.077  35.943  1.00  0.00     0.029 A 
ATOM     70  C   UNL A   1      43.150  36.025  35.049  1.00  0.00     0.049 A 
ATOM     71  H   UNL A   1      41.174  36.670  34.754  1.00  0.00     0.167 HD
ATOM     72  C   UNL A   1      44.243  36.531  32.959  1.00  0.00     0.074 A 
ATOM     73  C   UNL A   1      45.104  37.070  31.916  1.00  0.00     0.031 C 
ATOM     74  C   UNL A   1      43.807  36.999  34.177  1.00  0.00     0.034 A 
BRANCH  61  75
ATOM     75  C   UNL A   1      39.358  35.127  37.921  1.00  0.00     0.023 A 
ATOM     76  C   UNL A   1      39.486  36.372  38.587  1.00  0.00     0.012 A 
ATOM     77  C   UNL A   1      38.757  34.101  38.692  1.00  0.00     0.148 A 
ATOM     78  C   UNL A   1      39.167  36.566  39.935  1.00  0.00     0.002 A 
ATOM     79  C   UNL A   1      38.469  34.279  40.062  1.00  0.00     0.091 A 
ATOM     80  F   UNL A   1      38.422  32.950  38.106  1.00  0.00    -0.205 F 
ATOM     81  C   UNL A   1      38.690  35.509  40.685  1.00  0.00     0.022 A 
BRANCH  79  82
ATOM     82  S   UNL A   1      37.829  32.970  41.140  1.00  0.00     0.127 S 
ATOM     83  O   UNL A   1      38.390  31.764  40.527  1.00  0.00    -0.237 OA
ATOM     84  O   UNL A   1      38.411  33.300  42.441  1.00  0.00    -0.237 OA
ATOM     85  O   UNL A   1      36.376  33.070  41.083  1.00  0.00    -0.744 OA
ENDBRANCH  79  82
ENDBRANCH  61  75
BRANCH  62  86
ATOM     86  C   UNL A   1      43.637  34.206  28.718  1.00  0.00     0.023 A 
ATOM     87  C   UNL A   1      43.067  35.407  28.223  1.00  0.00     0.012 A 
ATOM     88  C   UNL A   1      44.584  33.541  27.937  1.00  0.00     0.148 A 
ATOM     89  C   UNL A   1      43.647  36.069  27.137  1.00  0.00     0.002 A 
ATOM     90  C   UNL A   1      45.212  34.244  26.910  1.00  0.00     0.091 A 
ATOM     91  F   UNL A   1      45.020  32.342  28.346  1.00  0.00    -0.205 F 
ATOM     92  C   UNL A   1      44.777  35.525  26.536  1.00  0.00     0.022 A 
BRANCH  90  93
ATOM     93  S   UNL A   1      46.818  33.667  26.344  1.00  0.00     0.127 S 
ATOM     94  O   UNL A   1      47.118  34.599  25.265  1.00  0.00    -0.237 OA
ATOM     95  O   UNL A   1      47.652  33.802  27.538  1.00  0.00    -0.237 OA
ATOM     96  O   UNL A   1      46.546  32.285  25.969  1.00  0.00    -0.744 OA
ENDBRANCH  90  93
ENDBRANCH  62  86
BRANCH  74  97
ATOM     97  C   UNL A   1      43.943  38.440  34.683  1.00  0.00     0.023 A 
ATOM     98  C   UNL A   1      44.538  38.760  35.916  1.00  0.00     0.012 A 
ATOM     99  C   UNL A   1      43.575  39.556  33.873  1.00  0.00     0.148 A 
ATOM    100  C   UNL A   1      44.703  40.075  36.365  1.00  0.00     0.002 A 
ATOM    101  C   UNL A   1      43.828  40.866  34.279  1.00  0.00     0.091 A 
ATOM    102  F   UNL A   1      42.962  39.364  32.699  1.00  0.00    -0.205 F 
ATOM    103  C   UNL A   1      44.364  41.130  35.539  1.00  0.00     0.022 A 
BRANCH 101 104
ATOM    104  S   UNL A   1      43.592  42.283  33.198  1.00  0.00     0.127 S 
ATOM    105  O   UNL A   1      44.334  43.322  33.911  1.00  0.00    -0.237 OA
ATOM    106  O   UNL A   1      44.225  41.823  31.960  1.00  0.00    -0.237 OA
ATOM    107  O   UNL A   1      42.155  42.486  33.107  1.00  0.00    -0.744 OA
ENDBRANCH 101 104
ENDBRANCH  74  97
ENDBRANCH  48  49
ENDBRANCH  41  43
ENDBRANCH  40  41
ENDBRANCH  39  40
ENDBRANCH   1  39
TORSDOF 21
ENDMDL
MODEL 2
REMARK VINA RESULT:     -10.9      6.248     16.198
REMARK SMILES Cc1cccc(C(=O)Nc2cnc(N3CCN(c4cccc(C)c4)[C@H](C)C3)c(C(=O)OCCOCCOC(=O)c3ccc(-c4c5nc(c(-c6cccc(S(=O)(=O)[O-])c6F)c6ccc([nH]6)c(-c6cccc(S(=O)(=O)[O-])c6F)c6nc(c(-c7cccc(S(=O)(=O)[O-])c7F)c7ccc4[nH]7)C=C6)C=C5)cc3)c2)c1
REMARK SMILES IDX 35 1 34 2 33 3 32 4 31 5 29 6 30 7 28 8 10 9 11 10 103 11
REMARK SMILES IDX 12 12 13 13 9 14 7 15 8 16 6 18 1 19 2 20 3 21 104 22 4 23
REMARK SMILES IDX 5 24 14 25 15 26 27 27 16 28 25 29 17 30 26 31 18 32 19 33
REMARK SMILES IDX 24 34 20 35 22 36 21 37 23 38 36 39 37 40 38 41 39 42 40 43
REMARK SMILES IDX 41 44 102 45 42 46 101 47 43 48 44 49 45 50 95 51 46 52
REMARK SMILES IDX 100 53 94 54 96 55 47 56 99 57 93 58 92 59 48 61 80 62 60 63
REMARK SMILES IDX 79 64 61 65 64 66 78 67 97 68 62 69 63 70 77 72 98 73 65 74
REMARK SMILES IDX 49 75 50 76 58 77 51 78 53 79 59 80 52 81 54 82 55 83 56 84
REMARK SMILES IDX 57 85 81 86 82 87 90 88 83 89 85 90 91 91 84 92 86 93 87 94
REMARK SMILES IDX 88 95 89 96 66 97 67 98 75 99 68 100 70 101 76 102 69 103
REMARK SMILES IDX 71 104 72 105 73 106 74 107
REMARK H PARENT 9 17 96 60 64 71
REMARK Flexibility Score: inf
ROOT
ATOM      1  C   UNL A   1      44.887  43.002  28.932  1.00  0.00     0.202 C 
ENDROOT
BRANCH   1   2
ATOM      2  O   UNL A   1      44.909  44.360  28.566  1.00  0.00    -0.374 OA
BRANCH   2   3
ATOM      3  C   UNL A   1      46.181  44.969  28.438  1.00  0.00     0.202 C 
BRANCH   3   4
ATOM      4  C   UNL A   1      46.509  44.891  26.974  1.00  0.00     0.261 C 
BRANCH   4   5
ATOM      5  O   UNL A   1      47.353  43.769  26.706  1.00  0.00    -0.460 OA
BRANCH   5   6
ATOM      6  C   UNL A   1      47.473  43.392  25.404  1.00  0.00     0.342 C 
ATOM      7  O   UNL A   1      47.825  44.087  24.462  1.00  0.00    -0.246 OA
BRANCH   6   8
ATOM      8  C   UNL A   1      47.167  41.958  25.326  1.00  0.00     0.104 A 
ATOM      9  C   UNL A   1      47.419  39.812  26.405  1.00  0.00     0.061 A 
ATOM     10  C   UNL A   1      46.962  39.267  25.217  1.00  0.00     0.139 A 
ATOM     11  C   UNL A   1      47.516  41.182  26.447  1.00  0.00     0.047 A 
ATOM     12  N   UNL A   1      46.484  39.998  24.165  1.00  0.00    -0.236 NA
ATOM     13  C   UNL A   1      46.560  41.358  24.216  1.00  0.00     0.143 A 
BRANCH   9  14
ATOM     14  N   UNL A   1      47.823  39.035  27.507  1.00  0.00    -0.321 N 
ATOM     15  C   UNL A   1      48.480  37.810  27.495  1.00  0.00     0.255 C 
ATOM     16  O   UNL A   1      48.271  37.003  28.401  1.00  0.00    -0.269 OA
ATOM     17  H   UNL A   1      47.616  39.405  28.396  1.00  0.00     0.170 HD
BRANCH  15  18
ATOM     18  C   UNL A   1      49.553  37.517  26.485  1.00  0.00     0.040 A 
ATOM     19  C   UNL A   1      53.203  38.316  25.829  1.00  0.00     0.044 C 
ATOM     20  C   UNL A   1      51.858  37.670  25.715  1.00  0.00    -0.050 A 
ATOM     21  C   UNL A   1      51.555  36.851  24.626  1.00  0.00     0.003 A 
ATOM     22  C   UNL A   1      50.870  37.952  26.662  1.00  0.00     0.017 A 
ATOM     23  C   UNL A   1      50.262  36.362  24.460  1.00  0.00     0.001 A 
ATOM     24  C   UNL A   1      49.262  36.702  25.379  1.00  0.00     0.014 A 
ENDBRANCH  15  18
ENDBRANCH   9  14
BRANCH  13  25
ATOM     25  N   UNL A   1      45.978  42.075  23.193  1.00  0.00    -0.352 N 
ATOM     26  C   UNL A   1      44.729  42.833  23.433  1.00  0.00     0.139 C 
ATOM     27  C   UNL A   1      46.446  41.986  21.798  1.00  0.00     0.142 C 
ATOM     28  C   UNL A   1      44.674  44.174  22.622  1.00  0.00     0.138 C 
ATOM     29  C   UNL A   1      46.390  43.376  21.090  1.00  0.00     0.098 C 
ATOM     30  N   UNL A   1      45.001  43.893  21.205  1.00  0.00    -0.365 N 
ATOM     31  C   UNL A   1      46.975  43.321  19.680  1.00  0.00     0.033 C 
BRANCH  30  32
ATOM     32  C   UNL A   1      44.455  44.624  20.165  1.00  0.00     0.037 A 
ATOM     33  C   UNL A   1      43.482  44.011  19.363  1.00  0.00     0.026 A 
ATOM     34  C   UNL A   1      44.889  45.898  19.789  1.00  0.00     0.029 A 
ATOM     35  C   UNL A   1      42.986  44.618  18.210  1.00  0.00     0.002 A 
ATOM     36  C   UNL A   1      44.433  46.505  18.601  1.00  0.00    -0.049 A 
ATOM     37  C   UNL A   1      43.464  45.863  17.827  1.00  0.00     0.003 A 
ATOM     38  C   UNL A   1      44.960  47.835  18.153  1.00  0.00     0.044 C 
ENDBRANCH  30  32
ENDBRANCH  13  25
ENDBRANCH   6   8
ENDBRANCH   5   6
ENDBRANCH   4   5
ENDBRANCH   3   4
ENDBRANCH   2   3
ENDBRANCH   1   2
BRANCH   1  39
ATOM     39  C   UNL A   1      44.210  42.204  27.827  1.00  0.00     0.261 C 
BRANCH  39  40
ATOM     40  O   UNL A   1      44.468  40.794  28.041  1.00  0.00    -0.460 OA
BRANCH  40  41
ATOM     41  C   UNL A   1      43.820  39.956  27.169  1.00  0.00     0.338 C 
ATOM     42  O   UNL A   1      43.655  40.211  25.986  1.00  0.00    -0.246 OA
BRANCH  41  43
ATOM     43  C   UNL A   1      43.137  38.837  27.908  1.00  0.00     0.060 A 
ATOM     44  C   UNL A   1      43.698  38.342  29.094  1.00  0.00     0.016 A 
ATOM     45  C   UNL A   1      42.177  38.071  27.251  1.00  0.00     0.016 A 
ATOM     46  C   UNL A   1      43.474  37.007  29.479  1.00  0.00     0.010 A 
ATOM     47  C   UNL A   1      42.017  36.734  27.605  1.00  0.00     0.010 A 
ATOM     48  C   UNL A   1      42.725  36.155  28.673  1.00  0.00    -0.014 A 
BRANCH  48  49
ATOM     49  C   UNL A   1      42.742  34.671  28.717  1.00  0.00     0.031 A 
ATOM     50  C   UNL A   1      43.903  33.905  28.186  1.00  0.00     0.074 A 
ATOM     51  C   UNL A   1      41.947  34.027  29.604  1.00  0.00     0.049 A 
ATOM     52  N   UNL A   1      44.156  32.662  28.431  1.00  0.00    -0.248 NA
ATOM     53  C   UNL A   1      44.834  34.490  27.231  1.00  0.00     0.031 C 
ATOM     54  C   UNL A   1      42.378  32.987  30.542  1.00  0.00     0.029 A 
ATOM     55  N   UNL A   1      40.590  34.191  29.877  1.00  0.00    -0.354 N 
ATOM     56  C   UNL A   1      45.322  32.307  27.787  1.00  0.00     0.074 A 
ATOM     57  C   UNL A   1      45.694  33.482  27.041  1.00  0.00     0.031 C 
ATOM     58  C   UNL A   1      41.327  32.578  31.257  1.00  0.00     0.029 A 
ATOM     59  C   UNL A   1      40.135  33.136  30.673  1.00  0.00     0.049 A 
ATOM     60  H   UNL A   1      40.035  34.939  29.557  1.00  0.00     0.167 HD
ATOM     61  C   UNL A   1      45.854  31.070  28.008  1.00  0.00     0.034 A 
ATOM     62  C   UNL A   1      38.985  32.437  30.508  1.00  0.00     0.034 A 
ATOM     63  C   UNL A   1      44.898  30.216  28.738  1.00  0.00     0.049 A 
ATOM     64  C   UNL A   1      39.302  31.072  29.926  1.00  0.00     0.074 A 
ATOM     65  C   UNL A   1      44.862  29.611  29.981  1.00  0.00     0.029 A 
ATOM     66  N   UNL A   1      43.641  29.998  28.170  1.00  0.00    -0.354 N 
ATOM     67  N   UNL A   1      40.505  30.584  29.743  1.00  0.00    -0.248 NA
ATOM     68  C   UNL A   1      38.263  30.132  29.527  1.00  0.00     0.031 C 
ATOM     69  C   UNL A   1      43.616  28.939  30.103  1.00  0.00     0.029 A 
ATOM     70  C   UNL A   1      42.838  29.233  28.995  1.00  0.00     0.049 A 
ATOM     71  H   UNL A   1      43.362  30.344  27.293  1.00  0.00     0.167 HD
ATOM     72  C   UNL A   1      40.431  29.389  29.072  1.00  0.00     0.074 A 
ATOM     73  C   UNL A   1      39.002  29.110  29.065  1.00  0.00     0.031 C 
ATOM     74  C   UNL A   1      41.532  28.765  28.531  1.00  0.00     0.034 A 
BRANCH  61  75
ATOM     75  C   UNL A   1      47.294  30.620  27.709  1.00  0.00     0.023 A 
ATOM     76  C   UNL A   1      48.333  31.504  28.092  1.00  0.00     0.012 A 
ATOM     77  C   UNL A   1      47.728  29.445  27.046  1.00  0.00     0.148 A 
ATOM     78  C   UNL A   1      49.676  31.316  27.746  1.00  0.00     0.002 A 
ATOM     79  C   UNL A   1      49.073  29.269  26.661  1.00  0.00     0.091 A 
ATOM     80  F   UNL A   1      46.853  28.465  26.809  1.00  0.00    -0.205 F 
ATOM     81  C   UNL A   1      50.044  30.214  26.999  1.00  0.00     0.022 A 
BRANCH  79  82
ATOM     82  S   UNL A   1      49.672  27.858  25.693  1.00  0.00     0.127 S 
ATOM     83  O   UNL A   1      49.414  26.734  26.595  1.00  0.00    -0.237 OA
ATOM     84  O   UNL A   1      48.810  27.880  24.511  1.00  0.00    -0.237 OA
ATOM     85  O   UNL A   1      51.080  28.119  25.421  1.00  0.00    -0.744 OA
ENDBRANCH  79  82
ENDBRANCH  61  75
BRANCH  62  86
ATOM     86  C   UNL A   1      37.805  33.317  30.269  1.00  0.00     0.023 A 
ATOM     87  C   UNL A   1      37.062  33.001  29.104  1.00  0.00     0.012 A 
ATOM     88  C   UNL A   1      37.129  33.828  31.379  1.00  0.00     0.148 A 
ATOM     89  C   UNL A   1      35.668  32.912  29.157  1.00  0.00     0.002 A 
ATOM     90  C   UNL A   1      35.747  33.657  31.452  1.00  0.00     0.091 A 
ATOM     91  F   UNL A   1      37.850  34.250  32.426  1.00  0.00    -0.205 F 
ATOM     92  C   UNL A   1      35.018  33.158  30.362  1.00  0.00     0.022 A 
BRANCH  90  93
ATOM     93  S   UNL A   1      34.972  33.704  33.074  1.00  0.00     0.127 S 
ATOM     94  O   UNL A   1      35.739  32.708  33.811  1.00  0.00    -0.237 OA
ATOM     95  O   UNL A   1      35.176  35.090  33.494  1.00  0.00    -0.237 OA
ATOM     96  O   UNL A   1      33.583  33.379  32.773  1.00  0.00    -0.744 OA
ENDBRANCH  90  93
ENDBRANCH  62  86
BRANCH  74  97
ATOM     97  C   UNL A   1      41.500  27.641  27.488  1.00  0.00     0.023 A 
ATOM     98  C   UNL A   1      41.911  27.828  26.156  1.00  0.00     0.012 A 
ATOM     99  C   UNL A   1      41.156  26.302  27.841  1.00  0.00     0.148 A 
ATOM    100  C   UNL A   1      41.922  26.797  25.210  1.00  0.00     0.002 A 
ATOM    101  C   UNL A   1      41.261  25.257  26.923  1.00  0.00     0.091 A 
ATOM    102  F   UNL A   1      40.710  26.022  29.071  1.00  0.00    -0.205 F 
ATOM    103  C   UNL A   1      41.614  25.507  25.597  1.00  0.00     0.022 A 
BRANCH 101 104
ATOM    104  S   UNL A   1      41.060  23.531  27.386  1.00  0.00     0.127 S 
ATOM    105  O   UNL A   1      41.890  23.452  28.587  1.00  0.00    -0.237 OA
ATOM    106  O   UNL A   1      39.618  23.455  27.636  1.00  0.00    -0.237 OA
ATOM    107  O   UNL A   1      41.521  22.752  26.248  1.00  0.00    -0.744 OA
ENDBRANCH 101 104
ENDBRANCH  74  97
ENDBRANCH  48  49
ENDBRANCH  41  43
ENDBRANCH  40  41
ENDBRANCH  39  40
ENDBRANCH   1  39
TORSDOF 21
ENDMDL
MODEL 3
REMARK VINA RESULT:     -10.7      2.224      2.653
REMARK SMILES Cc1cccc(C(=O)Nc2cnc(N3CCN(c4cccc(C)c4)[C@H](C)C3)c(C(=O)OCCOCCOC(=O)c3ccc(-c4c5nc(c(-c6cccc(S(=O)(=O)[O-])c6F)c6ccc([nH]6)c(-c6cccc(S(=O)(=O)[O-])c6F)c6nc(c(-c7cccc(S(=O)(=O)[O-])c7F)c7ccc4[nH]7)C=C6)C=C5)cc3)c2)c1
REMARK SMILES IDX 35 1 34 2 33 3 32 4 31 5 29 6 30 7 28 8 10 9 11 10 103 11
REMARK SMILES IDX 12 12 13 13 9 14 7 15 8 16 6 18 1 19 2 20 3 21 104 22 4 23
REMARK SMILES IDX 5 24 14 25 15 26 27 27 16 28 25 29 17 30 26 31 18 32 19 33
REMARK SMILES IDX 24 34 20 35 22 36 21 37 23 38 36 39 37 40 38 41 39 42 40 43
REMARK SMILES IDX 41 44 102 45 42 46 101 47 43 48 44 49 45 50 95 51 46 52
REMARK SMILES IDX 100 53 94 54 96 55 47 56 99 57 93 58 92 59 48 61 80 62 60 63
REMARK SMILES IDX 79 64 61 65 64 66 78 67 97 68 62 69 63 70 77 72 98 73 65 74
REMARK SMILES IDX 49 75 50 76 58 77 51 78 53 79 59 80 52 81 54 82 55 83 56 84
REMARK SMILES IDX 57 85 81 86 82 87 90 88 83 89 85 90 91 91 84 92 86 93 87 94
REMARK SMILES IDX 88 95 89 96 66 97 67 98 75 99 68 100 70 101 76 102 69 103
REMARK SMILES IDX 71 104 72 105 73 106 74 107
REMARK H PARENT 9 17 96 60 64 71
REMARK Flexibility Score: inf
ROOT
ATOM      1  C   UNL A   1      39.352  27.601  28.349  1.00  0.00     0.202 C 
ENDROOT
BRANCH   1   2
ATOM      2  O   UNL A   1      40.669  27.172  28.108  1.00  0.00    -0.374 OA
BRANCH   2   3
ATOM      3  C   UNL A   1      40.937  26.612  26.835  1.00  0.00     0.202 C 
BRANCH   3   4
ATOM      4  C   UNL A   1      41.438  25.223  27.115  1.00  0.00     0.261 C 
BRANCH   4   5
ATOM      5  O   UNL A   1      40.660  24.255  26.406  1.00  0.00    -0.460 OA
BRANCH   5   6
ATOM      6  C   UNL A   1      39.600  23.719  27.069  1.00  0.00     0.342 C 
ATOM      7  O   UNL A   1      38.829  24.298  27.823  1.00  0.00    -0.246 OA
BRANCH   6   8
ATOM      8  C   UNL A   1      39.490  22.311  26.670  1.00  0.00     0.104 A 
ATOM      9  C   UNL A   1      40.528  20.132  26.767  1.00  0.00     0.061 A 
ATOM     10  C   UNL A   1      39.620  19.760  25.790  1.00  0.00     0.139 A 
ATOM     11  C   UNL A   1      40.448  21.432  27.207  1.00  0.00     0.047 A 
ATOM     12  N   UNL A   1      38.590  20.547  25.352  1.00  0.00    -0.236 NA
ATOM     13  C   UNL A   1      38.499  21.830  25.805  1.00  0.00     0.143 A 
BRANCH   9  14
ATOM     14  N   UNL A   1      41.525  19.271  27.264  1.00  0.00    -0.321 N 
ATOM     15  C   UNL A   1      42.640  18.780  26.596  1.00  0.00     0.255 C 
ATOM     16  O   UNL A   1      43.079  17.668  26.891  1.00  0.00    -0.269 OA
ATOM     17  H   UNL A   1      41.419  18.983  28.199  1.00  0.00     0.170 HD
BRANCH  15  18
ATOM     18  C   UNL A   1      43.409  19.641  25.636  1.00  0.00     0.040 A 
ATOM     19  C   UNL A   1      44.137  23.306  24.983  1.00  0.00     0.044 C 
ATOM     20  C   UNL A   1      44.223  21.814  24.899  1.00  0.00    -0.050 A 
ATOM     21  C   UNL A   1      44.953  21.202  23.878  1.00  0.00     0.003 A 
ATOM     22  C   UNL A   1      43.501  21.026  25.799  1.00  0.00     0.017 A 
ATOM     23  C   UNL A   1      44.918  19.818  23.730  1.00  0.00     0.001 A 
ATOM     24  C   UNL A   1      44.141  19.041  24.598  1.00  0.00     0.014 A 
ENDBRANCH  15  18
ENDBRANCH   9  14
BRANCH  13  25
ATOM     25  N   UNL A   1      37.397  22.568  25.432  1.00  0.00    -0.352 N 
ATOM     26  C   UNL A   1      37.395  23.304  24.148  1.00  0.00     0.139 C 
ATOM     27  C   UNL A   1      36.262  22.812  26.341  1.00  0.00     0.142 C 
ATOM     28  C   UNL A   1      35.983  23.321  23.466  1.00  0.00     0.138 C 
ATOM     29  C   UNL A   1      34.903  22.771  25.577  1.00  0.00     0.098 C 
ATOM     30  N   UNL A   1      34.973  23.750  24.461  1.00  0.00    -0.365 N 
ATOM     31  C   UNL A   1      33.712  22.912  26.525  1.00  0.00     0.033 C 
BRANCH  30  32
ATOM     32  C   UNL A   1      33.843  24.461  24.103  1.00  0.00     0.037 A 
ATOM     33  C   UNL A   1      32.897  23.833  23.279  1.00  0.00     0.026 A 
ATOM     34  C   UNL A   1      33.629  25.806  24.417  1.00  0.00     0.029 A 
ATOM     35  C   UNL A   1      31.805  24.519  22.752  1.00  0.00     0.002 A 
ATOM     36  C   UNL A   1      32.555  26.526  23.854  1.00  0.00    -0.049 A 
ATOM     37  C   UNL A   1      31.636  25.866  23.037  1.00  0.00     0.003 A 
ATOM     38  C   UNL A   1      32.373  27.990  24.123  1.00  0.00     0.044 C 
ENDBRANCH  30  32
ENDBRANCH  13  25
ENDBRANCH   6   8
ENDBRANCH   5   6
ENDBRANCH   4   5
ENDBRANCH   3   4
ENDBRANCH   2   3
ENDBRANCH   1   2
BRANCH   1  39
ATOM     39  C   UNL A   1      39.188  27.875  29.837  1.00  0.00     0.261 C 
BRANCH  39  40
ATOM     40  O   UNL A   1      38.915  29.287  30.027  1.00  0.00    -0.460 OA
BRANCH  40  41
ATOM     41  C   UNL A   1      37.747  29.559  30.692  1.00  0.00     0.338 C 
ATOM     42  O   UNL A   1      36.650  29.183  30.307  1.00  0.00    -0.246 OA
BRANCH  41  43
ATOM     43  C   UNL A   1      37.972  30.573  31.780  1.00  0.00     0.060 A 
ATOM     44  C   UNL A   1      37.412  31.854  31.663  1.00  0.00     0.016 A 
ATOM     45  C   UNL A   1      38.999  30.373  32.699  1.00  0.00     0.016 A 
ATOM     46  C   UNL A   1      38.031  32.956  32.284  1.00  0.00     0.010 A 
ATOM     47  C   UNL A   1      39.641  31.479  33.251  1.00  0.00     0.010 A 
ATOM     48  C   UNL A   1      39.221  32.794  32.987  1.00  0.00    -0.014 A 
BRANCH  48  49
ATOM     49  C   UNL A   1      40.186  33.870  33.330  1.00  0.00     0.031 A 
ATOM     50  C   UNL A   1      40.110  34.574  34.639  1.00  0.00     0.074 A 
ATOM     51  C   UNL A   1      41.373  33.923  32.681  1.00  0.00     0.049 A 
ATOM     52  N   UNL A   1      41.046  35.298  35.155  1.00  0.00    -0.248 NA
ATOM     53  C   UNL A   1      38.889  34.583  35.434  1.00  0.00     0.031 C 
ATOM     54  C   UNL A   1      42.691  34.021  33.315  1.00  0.00     0.029 A 
ATOM     55  N   UNL A   1      41.655  33.869  31.317  1.00  0.00    -0.354 N 
ATOM     56  C   UNL A   1      40.625  35.767  36.382  1.00  0.00     0.074 A 
ATOM     57  C   UNL A   1      39.267  35.303  36.498  1.00  0.00     0.031 C 
ATOM     58  C   UNL A   1      43.632  34.055  32.368  1.00  0.00     0.029 A 
ATOM     59  C   UNL A   1      42.987  34.227  31.093  1.00  0.00     0.049 A 
ATOM     60  H   UNL A   1      41.011  33.617  30.616  1.00  0.00     0.167 HD
ATOM     61  C   UNL A   1      41.504  36.454  37.169  1.00  0.00     0.034 A 
ATOM     62  C   UNL A   1      43.448  35.061  30.128  1.00  0.00     0.034 A 
ATOM     63  C   UNL A   1      42.724  36.793  36.413  1.00  0.00     0.049 A 
ATOM     64  C   UNL A   1      43.819  36.396  30.747  1.00  0.00     0.074 A 
ATOM     65  C   UNL A   1      44.062  36.454  36.490  1.00  0.00     0.029 A 
ATOM     66  N   UNL A   1      42.588  37.546  35.244  1.00  0.00    -0.354 N 
ATOM     67  N   UNL A   1      43.829  36.662  32.030  1.00  0.00    -0.248 NA
ATOM     68  C   UNL A   1      44.238  37.539  29.947  1.00  0.00     0.031 C 
ATOM     69  C   UNL A   1      44.739  37.100  35.421  1.00  0.00     0.029 A 
ATOM     70  C   UNL A   1      43.804  37.731  34.615  1.00  0.00     0.049 A 
ATOM     71  H   UNL A   1      41.733  37.900  34.910  1.00  0.00     0.167 HD
ATOM     72  C   UNL A   1      44.076  37.996  32.233  1.00  0.00     0.074 A 
ATOM     73  C   UNL A   1      44.430  38.465  30.901  1.00  0.00     0.031 C 
ATOM     74  C   UNL A   1      43.910  38.612  33.453  1.00  0.00     0.034 A 
BRANCH  61  75
ATOM     75  C   UNL A   1      41.371  36.722  38.677  1.00  0.00     0.023 A 
ATOM     76  C   UNL A   1      40.676  35.753  39.442  1.00  0.00     0.012 A 
ATOM     77  C   UNL A   1      41.814  37.851  39.411  1.00  0.00     0.148 A 
ATOM     78  C   UNL A   1      40.332  35.928  40.787  1.00  0.00     0.002 A 
ATOM     79  C   UNL A   1      41.437  38.052  40.755  1.00  0.00     0.091 A 
ATOM     80  F   UNL A   1      42.634  38.731  38.830  1.00  0.00    -0.205 F 
ATOM     81  C   UNL A   1      40.683  37.096  41.437  1.00  0.00     0.022 A 
BRANCH  79  82
ATOM     82  S   UNL A   1      41.852  39.536  41.711  1.00  0.00     0.127 S 
ATOM     83  O   UNL A   1      42.292  40.462  40.667  1.00  0.00    -0.237 OA
ATOM     84  O   UNL A   1      40.574  39.899  42.326  1.00  0.00    -0.237 OA
ATOM     85  O   UNL A   1      42.887  39.135  42.656  1.00  0.00    -0.744 OA
ENDBRANCH  79  82
ENDBRANCH  61  75
BRANCH  62  86
ATOM     86  C   UNL A   1      42.864  34.769  28.787  1.00  0.00     0.023 A 
ATOM     87  C   UNL A   1      42.090  35.824  28.240  1.00  0.00     0.012 A 
ATOM     88  C   UNL A   1      43.584  33.945  27.919  1.00  0.00     0.148 A 
ATOM     89  C   UNL A   1      42.276  36.223  26.913  1.00  0.00     0.002 A 
ATOM     90  C   UNL A   1      43.829  34.397  26.623  1.00  0.00     0.091 A 
ATOM     91  F   UNL A   1      44.204  32.872  28.427  1.00  0.00    -0.205 F 
ATOM     92  C   UNL A   1      43.215  35.558  26.131  1.00  0.00     0.022 A 
BRANCH  90  93
ATOM     93  S   UNL A   1      45.234  33.709  25.737  1.00  0.00     0.127 S 
ATOM     94  O   UNL A   1      45.321  34.581  24.573  1.00  0.00    -0.237 OA
ATOM     95  O   UNL A   1      46.325  33.841  26.702  1.00  0.00    -0.237 OA
ATOM     96  O   UNL A   1      44.820  32.332  25.502  1.00  0.00    -0.744 OA
ENDBRANCH  90  93
ENDBRANCH  62  86
BRANCH  74  97
ATOM     97  C   UNL A   1      43.821  40.125  33.686  1.00  0.00     0.023 A 
ATOM     98  C   UNL A   1      42.658  40.869  33.417  1.00  0.00     0.012 A 
ATOM     99  C   UNL A   1      44.884  40.852  34.302  1.00  0.00     0.148 A 
ATOM    100  C   UNL A   1      42.556  42.241  33.665  1.00  0.00     0.002 A 
ATOM    101  C   UNL A   1      44.746  42.198  34.638  1.00  0.00     0.091 A 
ATOM    102  F   UNL A   1      46.050  40.250  34.560  1.00  0.00    -0.205 F 
ATOM    103  C   UNL A   1      43.594  42.904  34.292  1.00  0.00     0.022 A 
BRANCH 101 104
ATOM    104  S   UNL A   1      45.965  43.087  35.615  1.00  0.00     0.127 S 
ATOM    105  O   UNL A   1      45.541  44.473  35.421  1.00  0.00    -0.237 OA
ATOM    106  O   UNL A   1      45.717  42.556  36.958  1.00  0.00    -0.237 OA
ATOM    107  O   UNL A   1      47.262  42.741  35.055  1.00  0.00    -0.744 OA
ENDBRANCH 101 104
ENDBRANCH  74  97
ENDBRANCH  48  49
ENDBRANCH  41  43
ENDBRANCH  40  41
ENDBRANCH  39  40
ENDBRANCH   1  39
TORSDOF 21
ENDMDL
