MODEL 1
REMARK VINA RESULT:     -11.7      0.000      0.000
REMARK SMILES Cc1nn(C(C)C)c(C)c1S(=O)(=O)Nc1cccc(C(=O)OCCOCCOC(=O)c2ccc(-c3c4nc(c(-c5cccc(S(=O)(=O)[O-])c5F)c5ccc([nH]5)c(-c5cccc(S(=O)(=O)[O-])c5F)c5nc(c(-c6cccc(S(=O)(=O)[O-])c6F)c6ccc3[nH]6)C=C5)C=C4)cc2)c1C
REMARK SMILES IDX 24 1 23 2 22 3 20 4 21 5 19 6 15 7 16 8 94 9 17 10 95 11
REMARK SMILES IDX 18 12 14 13 11 15 12 16 13 17 10 18 1 19 2 20 3 21 4 22 8 23
REMARK SMILES IDX 9 24 5 25 6 26 7 27 25 28 26 29 27 30 28 31 29 32 30 33
REMARK SMILES IDX 31 34 32 35 93 36 33 37 92 38 34 39 35 40 36 41 86 42 37 43
REMARK SMILES IDX 91 44 85 45 87 46 38 47 90 48 84 49 83 50 39 52 71 53 51 54
REMARK SMILES IDX 70 55 52 56 55 57 69 58 88 59 53 60 54 61 68 63 89 64 56 65
REMARK SMILES IDX 40 66 41 67 49 68 42 69 44 70 50 71 43 72 45 73 46 74 47 75
REMARK SMILES IDX 48 76 72 77 73 78 81 79 74 80 76 81 82 82 75 83 77 84 78 85
REMARK SMILES IDX 79 86 80 87 57 88 58 89 66 90 59 91 61 92 67 93 60 94 62 95
REMARK SMILES IDX 63 96 64 97 65 98
REMARK H PARENT 14 14 87 51 55 62
REMARK Flexibility Score: inf
ROOT
ATOM      1  C   UNL A   1      38.863  22.172  26.105  1.00  0.00     0.202 C 
ENDROOT
BRANCH   1   2
ATOM      2  C   UNL A   1      37.750  21.447  25.345  1.00  0.00     0.261 C 
BRANCH   2   3
ATOM      3  O   UNL A   1      36.530  22.155  25.468  1.00  0.00    -0.460 OA
BRANCH   3   4
ATOM      4  C   UNL A   1      36.062  22.541  24.265  1.00  0.00     0.338 C 
ATOM      5  O   UNL A   1      36.632  22.555  23.191  1.00  0.00    -0.246 OA
BRANCH   4   6
ATOM      6  C   UNL A   1      34.610  22.593  24.420  1.00  0.00     0.065 A 
ATOM      7  C   UNL A   1      32.644  23.729  25.114  1.00  0.00     0.053 A 
ATOM      8  C   UNL A   1      31.896  22.564  24.892  1.00  0.00     0.027 A 
ATOM      9  C   UNL A   1      34.004  23.799  24.819  1.00  0.00    -0.012 A 
ATOM     10  C   UNL A   1      32.503  21.415  24.399  1.00  0.00     0.003 A 
ATOM     11  C   UNL A   1      34.782  25.083  24.986  1.00  0.00     0.047 C 
ATOM     12  C   UNL A   1      33.872  21.418  24.187  1.00  0.00     0.016 A 
BRANCH   7  13
ATOM     13  N   UNL A   1      31.954  24.814  25.698  1.00  0.00    -0.279 N 
ATOM     14  H   UNL A   1      31.947  24.922  26.677  1.00  0.00     0.180 HD
BRANCH  13  15
ATOM     15  S   UNL A   1      31.142  25.925  24.728  1.00  0.00     0.265 S 
ATOM     16  O   UNL A   1      29.754  25.703  25.099  1.00  0.00    -0.201 OA
ATOM     17  O   UNL A   1      31.564  25.701  23.364  1.00  0.00    -0.201 OA
BRANCH  15  18
ATOM     18  C   UNL A   1      31.360  27.626  24.965  1.00  0.00     0.131 A 
ATOM     19  C   UNL A   1      30.155  28.906  22.954  1.00  0.00     0.070 C 
ATOM     20  C   UNL A   1      30.969  28.744  24.176  1.00  0.00     0.080 A 
ATOM     21  N   UNL A   1      31.397  29.889  24.724  1.00  0.00    -0.176 NA
ATOM     22  N   UNL A   1      31.768  29.552  25.961  1.00  0.00    -0.266 N 
ATOM     23  C   UNL A   1      31.740  28.201  26.180  1.00  0.00     0.056 A 
ATOM     24  C   UNL A   1      31.980  27.602  27.518  1.00  0.00     0.068 C 
BRANCH  22  25
ATOM     25  C   UNL A   1      32.074  30.623  26.906  1.00  0.00     0.101 C 
ATOM     26  C   UNL A   1      33.585  30.784  27.068  1.00  0.00     0.033 C 
ATOM     27  C   UNL A   1      31.412  31.940  26.496  1.00  0.00     0.033 C 
ENDBRANCH  22  25
ENDBRANCH  15  18
ENDBRANCH  13  15
ENDBRANCH   7  13
ENDBRANCH   4   6
ENDBRANCH   3   4
ENDBRANCH   2   3
ENDBRANCH   1   2
BRANCH   1  28
ATOM     28  O   UNL A   1      39.680  21.370  26.944  1.00  0.00    -0.374 OA
BRANCH  28  29
ATOM     29  C   UNL A   1      40.872  20.792  26.428  1.00  0.00     0.202 C 
BRANCH  29  30
ATOM     30  C   UNL A   1      42.192  21.585  26.284  1.00  0.00     0.261 C 
BRANCH  30  31
ATOM     31  O   UNL A   1      42.209  22.828  26.999  1.00  0.00    -0.460 OA
BRANCH  31  32
ATOM     32  C   UNL A   1      42.415  23.934  26.216  1.00  0.00     0.338 C 
ATOM     33  O   UNL A   1      43.423  24.145  25.564  1.00  0.00    -0.246 OA
BRANCH  32  34
ATOM     34  C   UNL A   1      41.361  24.939  26.568  1.00  0.00     0.060 A 
ATOM     35  C   UNL A   1      41.219  26.072  25.759  1.00  0.00     0.016 A 
ATOM     36  C   UNL A   1      40.818  24.950  27.850  1.00  0.00     0.016 A 
ATOM     37  C   UNL A   1      40.784  27.287  26.320  1.00  0.00     0.010 A 
ATOM     38  C   UNL A   1      40.463  26.174  28.423  1.00  0.00     0.010 A 
ATOM     39  C   UNL A   1      40.541  27.379  27.693  1.00  0.00    -0.014 A 
BRANCH  39  40
ATOM     40  C   UNL A   1      40.666  28.641  28.473  1.00  0.00     0.031 A 
ATOM     41  C   UNL A   1      39.561  29.650  28.586  1.00  0.00     0.074 A 
ATOM     42  C   UNL A   1      41.698  28.817  29.346  1.00  0.00     0.049 A 
ATOM     43  N   UNL A   1      39.713  30.821  29.123  1.00  0.00    -0.248 NA
ATOM     44  C   UNL A   1      38.217  29.465  28.052  1.00  0.00     0.031 C 
ATOM     45  C   UNL A   1      41.644  29.628  30.566  1.00  0.00     0.029 A 
ATOM     46  N   UNL A   1      43.024  28.368  29.327  1.00  0.00    -0.354 N 
ATOM     47  C   UNL A   1      38.467  31.376  29.314  1.00  0.00     0.074 A 
ATOM     48  C   UNL A   1      37.599  30.568  28.495  1.00  0.00     0.031 C 
ATOM     49  C   UNL A   1      42.881  29.845  31.019  1.00  0.00     0.029 A 
ATOM     50  C   UNL A   1      43.801  29.282  30.061  1.00  0.00     0.049 A 
ATOM     51  H   UNL A   1      43.355  27.556  28.878  1.00  0.00     0.167 HD
ATOM     52  C   UNL A   1      38.301  32.381  30.225  1.00  0.00     0.034 A 
ATOM     53  C   UNL A   1      44.965  29.866  29.669  1.00  0.00     0.034 A 
ATOM     54  C   UNL A   1      39.589  32.867  30.749  1.00  0.00     0.049 A 
ATOM     55  C   UNL A   1      44.884  31.380  29.634  1.00  0.00     0.074 A 
ATOM     56  C   UNL A   1      40.224  32.810  31.978  1.00  0.00     0.029 A 
ATOM     57  N   UNL A   1      40.504  33.431  29.868  1.00  0.00    -0.354 N 
ATOM     58  N   UNL A   1      43.933  32.087  30.183  1.00  0.00    -0.248 NA
ATOM     59  C   UNL A   1      45.830  32.224  28.906  1.00  0.00     0.031 C 
ATOM     60  C   UNL A   1      41.557  33.286  31.808  1.00  0.00     0.029 A 
ATOM     61  C   UNL A   1      41.726  33.654  30.483  1.00  0.00     0.049 A 
ATOM     62  H   UNL A   1      40.309  33.645  28.927  1.00  0.00     0.167 HD
ATOM     63  C   UNL A   1      43.951  33.357  29.657  1.00  0.00     0.074 A 
ATOM     64  C   UNL A   1      45.242  33.429  28.995  1.00  0.00     0.031 C 
ATOM     65  C   UNL A   1      42.850  34.177  29.701  1.00  0.00     0.034 A 
BRANCH  52  66
ATOM     66  C   UNL A   1      36.975  32.914  30.774  1.00  0.00     0.023 A 
ATOM     67  C   UNL A   1      36.687  32.670  32.140  1.00  0.00     0.012 A 
ATOM     68  C   UNL A   1      35.953  33.573  30.048  1.00  0.00     0.148 A 
ATOM     69  C   UNL A   1      35.476  33.045  32.741  1.00  0.00     0.002 A 
ATOM     70  C   UNL A   1      34.770  34.007  30.661  1.00  0.00     0.091 A 
ATOM     71  F   UNL A   1      36.060  33.723  28.729  1.00  0.00    -0.205 F 
ATOM     72  C   UNL A   1      34.522  33.730  32.006  1.00  0.00     0.022 A 
BRANCH  70  73
ATOM     73  S   UNL A   1      33.501  34.932  29.771  1.00  0.00     0.127 S 
ATOM     74  O   UNL A   1      32.989  33.931  28.835  1.00  0.00    -0.237 OA
ATOM     75  O   UNL A   1      32.571  35.298  30.839  1.00  0.00    -0.237 OA
ATOM     76  O   UNL A   1      34.177  36.063  29.145  1.00  0.00    -0.744 OA
ENDBRANCH  70  73
ENDBRANCH  52  66
BRANCH  53  77
ATOM     77  C   UNL A   1      45.832  28.987  28.852  1.00  0.00     0.023 A 
ATOM     78  C   UNL A   1      46.386  27.875  29.526  1.00  0.00     0.012 A 
ATOM     79  C   UNL A   1      45.737  28.965  27.452  1.00  0.00     0.148 A 
ATOM     80  C   UNL A   1      46.726  26.715  28.833  1.00  0.00     0.002 A 
ATOM     81  C   UNL A   1      46.034  27.786  26.772  1.00  0.00     0.091 A 
ATOM     82  F   UNL A   1      45.223  30.035  26.835  1.00  0.00    -0.205 F 
ATOM     83  C   UNL A   1      46.509  26.657  27.461  1.00  0.00     0.022 A 
BRANCH  81  84
ATOM     84  S   UNL A   1      45.610  27.555  25.040  1.00  0.00     0.127 S 
ATOM     85  O   UNL A   1      44.171  27.798  25.051  1.00  0.00    -0.237 OA
ATOM     86  O   UNL A   1      46.412  28.593  24.395  1.00  0.00    -0.237 OA
ATOM     87  O   UNL A   1      46.028  26.197  24.725  1.00  0.00    -0.744 OA
ENDBRANCH  81  84
ENDBRANCH  53  77
BRANCH  65  88
ATOM     88  C   UNL A   1      42.677  35.497  28.943  1.00  0.00     0.023 A 
ATOM     89  C   UNL A   1      41.771  35.657  27.876  1.00  0.00     0.012 A 
ATOM     90  C   UNL A   1      43.337  36.680  29.378  1.00  0.00     0.148 A 
ATOM     91  C   UNL A   1      41.559  36.893  27.248  1.00  0.00     0.002 A 
ATOM     92  C   UNL A   1      43.038  37.927  28.825  1.00  0.00     0.091 A 
ATOM     93  F   UNL A   1      44.285  36.607  30.325  1.00  0.00    -0.205 F 
ATOM     94  C   UNL A   1      42.171  38.034  27.739  1.00  0.00     0.022 A 
BRANCH  92  95
ATOM     95  S   UNL A   1      43.618  39.445  29.600  1.00  0.00     0.127 S 
ATOM     96  O   UNL A   1      44.998  39.522  29.128  1.00  0.00    -0.237 OA
ATOM     97  O   UNL A   1      42.724  40.456  29.031  1.00  0.00    -0.237 OA
ATOM     98  O   UNL A   1      43.430  39.223  31.028  1.00  0.00    -0.744 OA
ENDBRANCH  92  95
ENDBRANCH  65  88
ENDBRANCH  39  40
ENDBRANCH  32  34
ENDBRANCH  31  32
ENDBRANCH  30  31
ENDBRANCH  29  30
ENDBRANCH  28  29
ENDBRANCH   1  28
TORSDOF 21
ENDMDL
MODEL 2
REMARK VINA RESULT:     -11.1      3.979     10.052
REMARK SMILES Cc1nn(C(C)C)c(C)c1S(=O)(=O)Nc1cccc(C(=O)OCCOCCOC(=O)c2ccc(-c3c4nc(c(-c5cccc(S(=O)(=O)[O-])c5F)c5ccc([nH]5)c(-c5cccc(S(=O)(=O)[O-])c5F)c5nc(c(-c6cccc(S(=O)(=O)[O-])c6F)c6ccc3[nH]6)C=C5)C=C4)cc2)c1C
REMARK SMILES IDX 24 1 23 2 22 3 20 4 21 5 19 6 15 7 16 8 94 9 17 10 95 11
REMARK SMILES IDX 18 12 14 13 11 15 12 16 13 17 10 18 1 19 2 20 3 21 4 22 8 23
REMARK SMILES IDX 9 24 5 25 6 26 7 27 25 28 26 29 27 30 28 31 29 32 30 33
REMARK SMILES IDX 31 34 32 35 93 36 33 37 92 38 34 39 35 40 36 41 86 42 37 43
REMARK SMILES IDX 91 44 85 45 87 46 38 47 90 48 84 49 83 50 39 52 71 53 51 54
REMARK SMILES IDX 70 55 52 56 55 57 69 58 88 59 53 60 54 61 68 63 89 64 56 65
REMARK SMILES IDX 40 66 41 67 49 68 42 69 44 70 50 71 43 72 45 73 46 74 47 75
REMARK SMILES IDX 48 76 72 77 73 78 81 79 74 80 76 81 82 82 75 83 77 84 78 85
REMARK SMILES IDX 79 86 80 87 57 88 58 89 66 90 59 91 61 92 67 93 60 94 62 95
REMARK SMILES IDX 63 96 64 97 65 98
REMARK H PARENT 14 14 87 51 55 62
REMARK Flexibility Score: inf
ROOT
ATOM      1  C   UNL A   1      33.560  29.033  24.777  1.00  0.00     0.202 C 
ENDROOT
BRANCH   1   2
ATOM      2  C   UNL A   1      32.164  29.199  24.174  1.00  0.00     0.261 C 
BRANCH   2   3
ATOM      3  O   UNL A   1      32.156  28.764  22.826  1.00  0.00    -0.460 OA
BRANCH   3   4
ATOM      4  C   UNL A   1      30.971  28.213  22.495  1.00  0.00     0.338 C 
ATOM      5  O   UNL A   1      30.017  28.725  21.941  1.00  0.00    -0.246 OA
BRANCH   4   6
ATOM      6  C   UNL A   1      31.182  26.771  22.593  1.00  0.00     0.065 A 
ATOM      7  C   UNL A   1      30.867  24.706  23.722  1.00  0.00     0.053 A 
ATOM      8  C   UNL A   1      31.783  24.094  22.855  1.00  0.00     0.027 A 
ATOM      9  C   UNL A   1      30.488  26.038  23.573  1.00  0.00    -0.012 A 
ATOM     10  C   UNL A   1      32.377  24.817  21.827  1.00  0.00     0.003 A 
ATOM     11  C   UNL A   1      29.441  26.664  24.465  1.00  0.00     0.047 C 
ATOM     12  C   UNL A   1      32.098  26.169  21.710  1.00  0.00     0.016 A 
BRANCH   7  13
ATOM     13  N   UNL A   1      30.385  23.911  24.785  1.00  0.00    -0.279 N 
ATOM     14  H   UNL A   1      29.469  23.550  24.753  1.00  0.00     0.180 HD
BRANCH  13  15
ATOM     15  S   UNL A   1      31.369  23.577  26.111  1.00  0.00     0.265 S 
ATOM     16  O   UNL A   1      30.705  22.430  26.708  1.00  0.00    -0.201 OA
ATOM     17  O   UNL A   1      31.508  24.800  26.868  1.00  0.00    -0.201 OA
BRANCH  15  18
ATOM     18  C   UNL A   1      32.997  23.033  25.884  1.00  0.00     0.131 A 
ATOM     19  C   UNL A   1      32.945  20.388  25.515  1.00  0.00     0.070 C 
ATOM     20  C   UNL A   1      33.536  21.730  25.699  1.00  0.00     0.080 A 
ATOM     21  N   UNL A   1      34.873  21.773  25.615  1.00  0.00    -0.176 NA
ATOM     22  N   UNL A   1      35.158  23.065  25.437  1.00  0.00    -0.266 N 
ATOM     23  C   UNL A   1      34.062  23.876  25.559  1.00  0.00     0.056 A 
ATOM     24  C   UNL A   1      34.109  25.332  25.269  1.00  0.00     0.068 C 
BRANCH  22  25
ATOM     25  C   UNL A   1      36.527  23.427  25.080  1.00  0.00     0.101 C 
ATOM     26  C   UNL A   1      37.349  23.727  26.332  1.00  0.00     0.033 C 
ATOM     27  C   UNL A   1      37.187  22.346  24.221  1.00  0.00     0.033 C 
ENDBRANCH  22  25
ENDBRANCH  15  18
ENDBRANCH  13  15
ENDBRANCH   7  13
ENDBRANCH   4   6
ENDBRANCH   3   4
ENDBRANCH   2   3
ENDBRANCH   1   2
BRANCH   1  28
ATOM     28  O   UNL A   1      33.625  28.910  26.190  1.00  0.00    -0.374 OA
BRANCH  28  29
ATOM     29  C   UNL A   1      32.712  29.632  27.006  1.00  0.00     0.202 C 
BRANCH  29  30
ATOM     30  C   UNL A   1      32.807  31.160  27.219  1.00  0.00     0.261 C 
BRANCH  30  31
ATOM     31  O   UNL A   1      33.975  31.579  27.939  1.00  0.00    -0.460 OA
BRANCH  31  32
ATOM     32  C   UNL A   1      33.948  32.883  28.361  1.00  0.00     0.338 C 
ATOM     33  O   UNL A   1      33.376  33.789  27.781  1.00  0.00    -0.246 OA
BRANCH  32  34
ATOM     34  C   UNL A   1      34.986  33.033  29.431  1.00  0.00     0.060 A 
ATOM     35  C   UNL A   1      36.110  33.823  29.169  1.00  0.00     0.016 A 
ATOM     36  C   UNL A   1      35.030  32.121  30.483  1.00  0.00     0.016 A 
ATOM     37  C   UNL A   1      37.345  33.512  29.769  1.00  0.00     0.010 A 
ATOM     38  C   UNL A   1      36.271  31.764  31.016  1.00  0.00     0.010 A 
ATOM     39  C   UNL A   1      37.463  32.387  30.589  1.00  0.00    -0.014 A 
BRANCH  39  40
ATOM     40  C   UNL A   1      38.732  31.633  30.781  1.00  0.00     0.031 A 
ATOM     41  C   UNL A   1      39.040  30.347  30.072  1.00  0.00     0.074 A 
ATOM     42  C   UNL A   1      39.794  32.213  31.409  1.00  0.00     0.049 A 
ATOM     43  N   UNL A   1      40.065  29.602  30.352  1.00  0.00    -0.248 NA
ATOM     44  C   UNL A   1      38.199  29.752  29.040  1.00  0.00     0.031 C 
ATOM     45  C   UNL A   1      41.204  31.906  31.144  1.00  0.00     0.029 A 
ATOM     46  N   UNL A   1      39.868  33.153  32.444  1.00  0.00    -0.354 N 
ATOM     47  C   UNL A   1      40.205  28.664  29.355  1.00  0.00     0.074 A 
ATOM     48  C   UNL A   1      38.942  28.704  28.662  1.00  0.00     0.031 C 
ATOM     49  C   UNL A   1      41.965  32.402  32.122  1.00  0.00     0.029 A 
ATOM     50  C   UNL A   1      41.085  32.957  33.122  1.00  0.00     0.049 A 
ATOM     51  H   UNL A   1      39.188  33.831  32.661  1.00  0.00     0.167 HD
ATOM     52  C   UNL A   1      41.408  28.045  29.166  1.00  0.00     0.034 A 
ATOM     53  C   UNL A   1      41.263  32.835  34.464  1.00  0.00     0.034 A 
ATOM     54  C   UNL A   1      42.364  28.359  30.243  1.00  0.00     0.049 A 
ATOM     55  C   UNL A   1      41.895  31.514  34.859  1.00  0.00     0.074 A 
ATOM     56  C   UNL A   1      43.542  29.082  30.318  1.00  0.00     0.029 A 
ATOM     57  N   UNL A   1      42.055  27.987  31.546  1.00  0.00    -0.354 N 
ATOM     58  N   UNL A   1      42.479  30.691  34.030  1.00  0.00    -0.248 NA
ATOM     59  C   UNL A   1      41.851  30.970  36.215  1.00  0.00     0.031 C 
ATOM     60  C   UNL A   1      43.902  29.196  31.693  1.00  0.00     0.029 A 
ATOM     61  C   UNL A   1      42.957  28.524  32.451  1.00  0.00     0.049 A 
ATOM     62  H   UNL A   1      41.294  27.415  31.794  1.00  0.00     0.167 HD
ATOM     63  C   UNL A   1      42.597  29.457  34.624  1.00  0.00     0.074 A 
ATOM     64  C   UNL A   1      42.340  29.732  36.026  1.00  0.00     0.031 C 
ATOM     65  C   UNL A   1      42.761  28.309  33.888  1.00  0.00     0.034 A 
BRANCH  52  66
ATOM     66  C   UNL A   1      41.832  27.208  27.956  1.00  0.00     0.023 A 
ATOM     67  C   UNL A   1      41.868  27.852  26.694  1.00  0.00     0.012 A 
ATOM     68  C   UNL A   1      42.131  25.823  27.937  1.00  0.00     0.148 A 
ATOM     69  C   UNL A   1      42.171  27.177  25.503  1.00  0.00     0.002 A 
ATOM     70  C   UNL A   1      42.497  25.160  26.759  1.00  0.00     0.091 A 
ATOM     71  F   UNL A   1      41.987  25.093  29.042  1.00  0.00    -0.205 F 
ATOM     72  C   UNL A   1      42.503  25.831  25.536  1.00  0.00     0.022 A 
BRANCH  70  73
ATOM     73  S   UNL A   1      42.972  23.419  26.736  1.00  0.00     0.127 S 
ATOM     74  O   UNL A   1      43.380  23.228  25.344  1.00  0.00    -0.237 OA
ATOM     75  O   UNL A   1      44.071  23.379  27.702  1.00  0.00    -0.237 OA
ATOM     76  O   UNL A   1      41.791  22.662  27.134  1.00  0.00    -0.744 OA
ENDBRANCH  70  73
ENDBRANCH  52  66
BRANCH  53  77
ATOM     77  C   UNL A   1      40.352  33.678  35.270  1.00  0.00     0.023 A 
ATOM     78  C   UNL A   1      39.024  33.206  35.387  1.00  0.00     0.012 A 
ATOM     79  C   UNL A   1      40.844  34.587  36.219  1.00  0.00     0.148 A 
ATOM     80  C   UNL A   1      38.243  33.534  36.494  1.00  0.00     0.002 A 
ATOM     81  C   UNL A   1      40.075  34.873  37.344  1.00  0.00     0.091 A 
ATOM     82  F   UNL A   1      42.098  35.032  36.078  1.00  0.00    -0.205 F 
ATOM     83  C   UNL A   1      38.786  34.333  37.493  1.00  0.00     0.022 A 
BRANCH  81  84
ATOM     84  S   UNL A   1      40.758  35.734  38.767  1.00  0.00     0.127 S 
ATOM     85  O   UNL A   1      39.651  35.666  39.715  1.00  0.00    -0.237 OA
ATOM     86  O   UNL A   1      41.912  34.899  39.096  1.00  0.00    -0.237 OA
ATOM     87  O   UNL A   1      41.104  37.061  38.279  1.00  0.00    -0.744 OA
ENDBRANCH  81  84
ENDBRANCH  53  77
BRANCH  65  88
ATOM     88  C   UNL A   1      42.659  26.876  34.417  1.00  0.00     0.023 A 
ATOM     89  C   UNL A   1      41.526  26.386  35.096  1.00  0.00     0.012 A 
ATOM     90  C   UNL A   1      43.667  25.915  34.122  1.00  0.00     0.148 A 
ATOM     91  C   UNL A   1      41.409  25.048  35.499  1.00  0.00     0.002 A 
ATOM     92  C   UNL A   1      43.495  24.562  34.423  1.00  0.00     0.091 A 
ATOM     93  F   UNL A   1      44.820  26.308  33.561  1.00  0.00    -0.205 F 
ATOM     94  C   UNL A   1      42.381  24.128  35.139  1.00  0.00     0.022 A 
BRANCH  92  95
ATOM     95  S   UNL A   1      44.610  23.318  33.753  1.00  0.00     0.127 S 
ATOM     96  O   UNL A   1      45.902  23.744  34.284  1.00  0.00    -0.237 OA
ATOM     97  O   UNL A   1      44.092  22.078  34.337  1.00  0.00    -0.237 OA
ATOM     98  O   UNL A   1      44.437  23.411  32.309  1.00  0.00    -0.744 OA
ENDBRANCH  92  95
ENDBRANCH  65  88
ENDBRANCH  39  40
ENDBRANCH  32  34
ENDBRANCH  31  32
ENDBRANCH  30  31
ENDBRANCH  29  30
ENDBRANCH  28  29
ENDBRANCH   1  28
TORSDOF 21
ENDMDL
MODEL 3
REMARK VINA RESULT:     -11.0      1.680      2.097
REMARK SMILES Cc1nn(C(C)C)c(C)c1S(=O)(=O)Nc1cccc(C(=O)OCCOCCOC(=O)c2ccc(-c3c4nc(c(-c5cccc(S(=O)(=O)[O-])c5F)c5ccc([nH]5)c(-c5cccc(S(=O)(=O)[O-])c5F)c5nc(c(-c6cccc(S(=O)(=O)[O-])c6F)c6ccc3[nH]6)C=C5)C=C4)cc2)c1C
REMARK SMILES IDX 24 1 23 2 22 3 20 4 21 5 19 6 15 7 16 8 94 9 17 10 95 11
REMARK SMILES IDX 18 12 14 13 11 15 12 16 13 17 10 18 1 19 2 20 3 21 4 22 8 23
REMARK SMILES IDX 9 24 5 25 6 26 7 27 25 28 26 29 27 30 28 31 29 32 30 33
REMARK SMILES IDX 31 34 32 35 93 36 33 37 92 38 34 39 35 40 36 41 86 42 37 43
REMARK SMILES IDX 91 44 85 45 87 46 38 47 90 48 84 49 83 50 39 52 71 53 51 54
REMARK SMILES IDX 70 55 52 56 55 57 69 58 88 59 53 60 54 61 68 63 89 64 56 65
REMARK SMILES IDX 40 66 41 67 49 68 42 69 44 70 50 71 43 72 45 73 46 74 47 75
REMARK SMILES IDX 48 76 72 77 73 78 81 79 74 80 76 81 82 82 75 83 77 84 78 85
REMARK SMILES IDX 79 86 80 87 57 88 58 89 66 90 59 91 61 92 67 93 60 94 62 95
REMARK SMILES IDX 63 96 64 97 65 98
REMARK H PARENT 14 14 87 51 55 62
REMARK Flexibility Score: inf
ROOT
ATOM      1  C   UNL A   1      38.687  22.188  26.084  1.00  0.00     0.202 C 
ENDROOT
BRANCH   1   2
ATOM      2  C   UNL A   1      37.739  21.421  25.159  1.00  0.00     0.261 C 
BRANCH   2   3
ATOM      3  O   UNL A   1      36.400  21.821  25.387  1.00  0.00    -0.460 OA
BRANCH   3   4
ATOM      4  C   UNL A   1      35.885  22.446  24.310  1.00  0.00     0.338 C 
ATOM      5  O   UNL A   1      36.399  22.659  23.229  1.00  0.00    -0.246 OA
BRANCH   4   6
ATOM      6  C   UNL A   1      34.445  22.500  24.555  1.00  0.00     0.065 A 
ATOM      7  C   UNL A   1      32.527  23.633  25.377  1.00  0.00     0.053 A 
ATOM      8  C   UNL A   1      31.765  22.472  25.193  1.00  0.00     0.027 A 
ATOM      9  C   UNL A   1      33.866  23.703  24.998  1.00  0.00    -0.012 A 
ATOM     10  C   UNL A   1      32.338  21.325  24.655  1.00  0.00     0.003 A 
ATOM     11  C   UNL A   1      34.655  24.985  25.127  1.00  0.00     0.047 C 
ATOM     12  C   UNL A   1      33.691  21.328  24.359  1.00  0.00     0.016 A 
BRANCH   7  13
ATOM     13  N   UNL A   1      31.876  24.715  26.009  1.00  0.00    -0.279 N 
ATOM     14  H   UNL A   1      31.854  24.768  26.992  1.00  0.00     0.180 HD
BRANCH  13  15
ATOM     15  S   UNL A   1      31.136  25.917  25.089  1.00  0.00     0.265 S 
ATOM     16  O   UNL A   1      29.780  25.916  25.613  1.00  0.00    -0.201 OA
ATOM     17  O   UNL A   1      31.368  25.603  23.698  1.00  0.00    -0.201 OA
BRANCH  15  18
ATOM     18  C   UNL A   1      31.630  27.569  25.238  1.00  0.00     0.131 A 
ATOM     19  C   UNL A   1      31.427  28.717  22.836  1.00  0.00     0.070 C 
ATOM     20  C   UNL A   1      31.758  28.604  24.271  1.00  0.00     0.080 A 
ATOM     21  N   UNL A   1      32.228  29.727  24.831  1.00  0.00    -0.176 NA
ATOM     22  N   UNL A   1      32.107  29.524  26.145  1.00  0.00    -0.266 N 
ATOM     23  C   UNL A   1      31.721  28.249  26.456  1.00  0.00     0.056 A 
ATOM     24  C   UNL A   1      31.391  27.828  27.842  1.00  0.00     0.068 C 
BRANCH  22  25
ATOM     25  C   UNL A   1      32.323  30.657  27.041  1.00  0.00     0.101 C 
ATOM     26  C   UNL A   1      33.815  30.940  27.204  1.00  0.00     0.033 C 
ATOM     27  C   UNL A   1      31.566  31.899  26.567  1.00  0.00     0.033 C 
ENDBRANCH  22  25
ENDBRANCH  15  18
ENDBRANCH  13  15
ENDBRANCH   7  13
ENDBRANCH   4   6
ENDBRANCH   3   4
ENDBRANCH   2   3
ENDBRANCH   1   2
BRANCH   1  28
ATOM     28  O   UNL A   1      39.533  21.403  26.910  1.00  0.00    -0.374 OA
BRANCH  28  29
ATOM     29  C   UNL A   1      40.680  20.774  26.354  1.00  0.00     0.202 C 
BRANCH  29  30
ATOM     30  C   UNL A   1      42.008  21.526  26.101  1.00  0.00     0.261 C 
BRANCH  30  31
ATOM     31  O   UNL A   1      42.189  22.686  26.925  1.00  0.00    -0.460 OA
BRANCH  31  32
ATOM     32  C   UNL A   1      42.436  23.844  26.235  1.00  0.00     0.338 C 
ATOM     33  O   UNL A   1      43.485  24.109  25.676  1.00  0.00    -0.246 OA
BRANCH  32  34
ATOM     34  C   UNL A   1      41.342  24.813  26.571  1.00  0.00     0.060 A 
ATOM     35  C   UNL A   1      41.289  26.029  25.883  1.00  0.00     0.016 A 
ATOM     36  C   UNL A   1      40.653  24.685  27.775  1.00  0.00     0.016 A 
ATOM     37  C   UNL A   1      40.786  27.178  26.521  1.00  0.00     0.010 A 
ATOM     38  C   UNL A   1      40.228  25.841  28.435  1.00  0.00     0.010 A 
ATOM     39  C   UNL A   1      40.384  27.118  27.858  1.00  0.00    -0.014 A 
BRANCH  39  40
ATOM     40  C   UNL A   1      40.411  28.285  28.783  1.00  0.00     0.031 A 
ATOM     41  C   UNL A   1      39.488  29.460  28.650  1.00  0.00     0.074 A 
ATOM     42  C   UNL A   1      41.096  28.221  29.960  1.00  0.00     0.049 A 
ATOM     43  N   UNL A   1      39.609  30.549  29.346  1.00  0.00    -0.248 NA
ATOM     44  C   UNL A   1      38.395  29.547  27.688  1.00  0.00     0.031 C 
ATOM     45  C   UNL A   1      40.743  28.946  31.184  1.00  0.00     0.029 A 
ATOM     46  N   UNL A   1      42.271  27.551  30.321  1.00  0.00    -0.354 N 
ATOM     47  C   UNL A   1      38.465  31.297  29.184  1.00  0.00     0.074 A 
ATOM     48  C   UNL A   1      37.825  30.708  28.035  1.00  0.00     0.031 C 
ATOM     49  C   UNL A   1      41.767  28.915  32.039  1.00  0.00     0.029 A 
ATOM     50  C   UNL A   1      42.871  28.266  31.374  1.00  0.00     0.049 A 
ATOM     51  H   UNL A   1      42.618  26.726  29.910  1.00  0.00     0.167 HD
ATOM     52  C   UNL A   1      38.141  32.252  30.106  1.00  0.00     0.034 A 
ATOM     53  C   UNL A   1      44.168  28.664  31.458  1.00  0.00     0.034 A 
ATOM     54  C   UNL A   1      39.226  32.472  31.077  1.00  0.00     0.049 A 
ATOM     55  C   UNL A   1      44.317  30.168  31.582  1.00  0.00     0.074 A 
ATOM     56  C   UNL A   1      39.388  32.224  32.429  1.00  0.00     0.029 A 
ATOM     57  N   UNL A   1      40.457  32.927  30.618  1.00  0.00    -0.354 N 
ATOM     58  N   UNL A   1      43.346  30.990  31.872  1.00  0.00    -0.248 NA
ATOM     59  C   UNL A   1      45.564  30.881  31.311  1.00  0.00     0.031 C 
ATOM     60  C   UNL A   1      40.751  32.473  32.763  1.00  0.00     0.029 A 
ATOM     61  C   UNL A   1      41.413  32.893  31.621  1.00  0.00     0.049 A 
ATOM     62  H   UNL A   1      40.628  33.234  29.699  1.00  0.00     0.167 HD
ATOM     63  C   UNL A   1      43.721  32.270  31.538  1.00  0.00     0.074 A 
ATOM     64  C   UNL A   1      45.157  32.162  31.349  1.00  0.00     0.031 C 
ATOM     65  C   UNL A   1      42.799  33.264  31.319  1.00  0.00     0.034 A 
BRANCH  52  66
ATOM     66  C   UNL A   1      36.796  32.969  30.252  1.00  0.00     0.023 A 
ATOM     67  C   UNL A   1      36.112  33.330  29.064  1.00  0.00     0.012 A 
ATOM     68  C   UNL A   1      36.175  33.384  31.456  1.00  0.00     0.148 A 
ATOM     69  C   UNL A   1      34.910  34.051  29.065  1.00  0.00     0.002 A 
ATOM     70  C   UNL A   1      34.941  34.048  31.464  1.00  0.00     0.091 A 
ATOM     71  F   UNL A   1      36.801  33.223  32.620  1.00  0.00    -0.205 F 
ATOM     72  C   UNL A   1      34.313  34.397  30.268  1.00  0.00     0.022 A 
BRANCH  70  73
ATOM     73  S   UNL A   1      34.093  34.498  32.992  1.00  0.00     0.127 S 
ATOM     74  O   UNL A   1      34.108  33.238  33.735  1.00  0.00    -0.237 OA
ATOM     75  O   UNL A   1      34.964  35.537  33.541  1.00  0.00    -0.237 OA
ATOM     76  O   UNL A   1      32.766  34.964  32.607  1.00  0.00    -0.744 OA
ENDBRANCH  70  73
ENDBRANCH  52  66
BRANCH  53  77
ATOM     77  C   UNL A   1      45.129  27.705  30.868  1.00  0.00     0.023 A 
ATOM     78  C   UNL A   1      45.269  26.477  31.555  1.00  0.00     0.012 A 
ATOM     79  C   UNL A   1      45.507  27.784  29.519  1.00  0.00     0.148 A 
ATOM     80  C   UNL A   1      45.658  25.321  30.881  1.00  0.00     0.002 A 
ATOM     81  C   UNL A   1      45.850  26.616  28.843  1.00  0.00     0.091 A 
ATOM     82  F   UNL A   1      45.381  28.961  28.895  1.00  0.00    -0.205 F 
ATOM     83  C   UNL A   1      45.907  25.384  29.516  1.00  0.00     0.022 A 
BRANCH  81  84
ATOM     84  S   UNL A   1      46.002  26.565  27.052  1.00  0.00     0.127 S 
ATOM     85  O   UNL A   1      46.366  25.171  26.823  1.00  0.00    -0.237 OA
ATOM     86  O   UNL A   1      44.652  26.933  26.628  1.00  0.00    -0.237 OA
ATOM     87  O   UNL A   1      47.018  27.555  26.728  1.00  0.00    -0.744 OA
ENDBRANCH  81  84
ENDBRANCH  53  77
BRANCH  65  88
ATOM     88  C   UNL A   1      43.083  34.641  30.713  1.00  0.00     0.023 A 
ATOM     89  C   UNL A   1      43.397  35.774  31.491  1.00  0.00     0.012 A 
ATOM     90  C   UNL A   1      43.178  34.813  29.304  1.00  0.00     0.148 A 
ATOM     91  C   UNL A   1      43.740  37.008  30.920  1.00  0.00     0.002 A 
ATOM     92  C   UNL A   1      43.631  36.010  28.744  1.00  0.00     0.091 A 
ATOM     93  F   UNL A   1      42.809  33.819  28.483  1.00  0.00    -0.205 F 
ATOM     94  C   UNL A   1      43.885  37.120  29.547  1.00  0.00     0.022 A 
BRANCH  92  95
ATOM     95  S   UNL A   1      44.068  36.108  27.000  1.00  0.00     0.127 S 
ATOM     96  O   UNL A   1      44.556  34.758  26.729  1.00  0.00    -0.237 OA
ATOM     97  O   UNL A   1      42.785  36.427  26.367  1.00  0.00    -0.237 OA
ATOM     98  O   UNL A   1      45.049  37.182  26.927  1.00  0.00    -0.744 OA
ENDBRANCH  92  95
ENDBRANCH  65  88
ENDBRANCH  39  40
ENDBRANCH  32  34
ENDBRANCH  31  32
ENDBRANCH  30  31
ENDBRANCH  29  30
ENDBRANCH  28  29
ENDBRANCH   1  28
TORSDOF 21
ENDMDL
