MODEL 1
REMARK VINA RESULT:     -11.1      0.000      0.000
REMARK SMILES CC[C@]1(C(=O)OCCOCCOC(=O)c2ccc(-c3c4nc(c(-c5cccc(S(=O)(=O)[O-])c5F)c5ccc([nH]5)c(-c5cccc(S(=O)(=O)[O-])c5F)c5nc(c(-c6cccc(S(=O)(=O)[O-])c6F)c6ccc3[nH]6)C=C5)C=C4)cc2)CCC[N@@H+]([C@@H]2CCC[C@H](S(C)(=O)=O)C2)C1
REMARK SMILES IDX 10 1 9 2 8 3 7 4 6 5 4 6 5 7 3 8 78 9 92 10 79 11 81 12
REMARK SMILES IDX 80 13 2 15 1 16 82 17 83 18 91 19 84 20 86 21 85 22 87 23
REMARK SMILES IDX 88 24 89 25 90 26 11 27 12 28 13 29 14 30 15 31 16 32 77 33
REMARK SMILES IDX 17 34 76 35 18 36 19 37 20 38 70 39 21 40 75 41 69 42 71 43
REMARK SMILES IDX 22 44 74 45 68 46 67 47 23 49 55 50 35 51 54 52 36 53 39 54
REMARK SMILES IDX 53 55 72 56 37 57 38 58 52 60 73 61 40 62 24 63 25 64 33 65
REMARK SMILES IDX 26 66 28 67 34 68 27 69 29 70 30 71 31 72 32 73 56 74 57 75
REMARK SMILES IDX 65 76 58 77 60 78 66 79 59 80 61 81 62 82 63 83 64 84 41 85
REMARK SMILES IDX 42 86 50 87 43 88 45 89 51 90 44 91 46 92 47 93 48 94 49 95
REMARK H PARENT 81 14 71 48 39 59
REMARK Flexibility Score: inf
ROOT
ATOM      1  C   UNL A   1      31.776  31.220  26.414  1.00  0.00     0.202 C 
ENDROOT
BRANCH   1   2
ATOM      2  O   UNL A   1      31.775  30.076  27.263  1.00  0.00    -0.374 OA
BRANCH   2   3
ATOM      3  C   UNL A   1      32.115  28.811  26.705  1.00  0.00     0.202 C 
BRANCH   3   4
ATOM      4  C   UNL A   1      33.374  28.711  25.841  1.00  0.00     0.261 C 
BRANCH   4   5
ATOM      5  O   UNL A   1      33.561  27.412  25.269  1.00  0.00    -0.463 OA
BRANCH   5   6
ATOM      6  C   UNL A   1      33.647  27.388  23.910  1.00  0.00     0.317 C 
ATOM      7  O   UNL A   1      34.168  28.272  23.238  1.00  0.00    -0.251 OA
BRANCH   6   8
ATOM      8  C   UNL A   1      32.936  26.175  23.304  1.00  0.00     0.117 C 
ATOM      9  C   UNL A   1      33.161  25.968  21.789  1.00  0.00     0.030 C 
ATOM     10  C   UNL A   1      33.603  25.000  24.046  1.00  0.00     0.281 C 
ATOM     11  C   UNL A   1      32.675  24.586  21.344  1.00  0.00     0.063 C 
ATOM     12  N   UNL A   1      33.170  23.660  23.618  1.00  0.00    -0.332 N 
ATOM     13  C   UNL A   1      33.336  23.475  22.166  1.00  0.00     0.262 C 
ATOM     14  H   UNL A   1      32.169  23.553  23.780  1.00  0.00     0.348 HD
BRANCH   8  15
ATOM     15  C   UNL A   1      31.417  26.280  23.639  1.00  0.00     0.021 C 
ATOM     16  C   UNL A   1      30.718  27.507  23.048  1.00  0.00     0.005 C 
ENDBRANCH   8  15
BRANCH  12  17
ATOM     17  C   UNL A   1      33.865  22.634  24.438  1.00  0.00     0.185 C 
ATOM     18  C   UNL A   1      35.408  22.653  24.359  1.00  0.00     0.065 C 
ATOM     19  C   UNL A   1      33.325  21.227  24.143  1.00  0.00     0.084 C 
ATOM     20  C   UNL A   1      36.023  21.619  25.294  1.00  0.00     0.007 C 
ATOM     21  C   UNL A   1      33.961  20.180  25.069  1.00  0.00     0.114 C 
ATOM     22  C   UNL A   1      35.489  20.223  24.997  1.00  0.00     0.020 C 
BRANCH  21  23
ATOM     23  S   UNL A   1      33.303  18.550  24.679  1.00  0.00     0.150 S 
ATOM     24  C   UNL A   1      32.405  18.774  23.162  1.00  0.00     0.158 C 
ATOM     25  O   UNL A   1      34.428  17.686  24.369  1.00  0.00    -0.229 OA
ATOM     26  O   UNL A   1      32.348  18.169  25.701  1.00  0.00    -0.229 OA
ENDBRANCH  21  23
ENDBRANCH  12  17
ENDBRANCH   6   8
ENDBRANCH   5   6
ENDBRANCH   4   5
ENDBRANCH   3   4
ENDBRANCH   2   3
ENDBRANCH   1   2
BRANCH   1  27
ATOM     27  C   UNL A   1      32.074  32.596  27.022  1.00  0.00     0.261 C 
BRANCH  27  28
ATOM     28  O   UNL A   1      33.014  32.552  28.106  1.00  0.00    -0.460 OA
BRANCH  28  29
ATOM     29  C   UNL A   1      34.047  33.420  27.986  1.00  0.00     0.338 C 
ATOM     30  O   UNL A   1      33.978  34.629  27.807  1.00  0.00    -0.246 OA
BRANCH  29  31
ATOM     31  C   UNL A   1      35.318  32.743  28.288  1.00  0.00     0.060 A 
ATOM     32  C   UNL A   1      35.264  31.407  28.713  1.00  0.00     0.016 A 
ATOM     33  C   UNL A   1      36.527  33.437  28.265  1.00  0.00     0.016 A 
ATOM     34  C   UNL A   1      36.414  30.776  29.176  1.00  0.00     0.010 A 
ATOM     35  C   UNL A   1      37.678  32.807  28.742  1.00  0.00     0.010 A 
ATOM     36  C   UNL A   1      37.614  31.493  29.241  1.00  0.00    -0.014 A 
BRANCH  36  37
ATOM     37  C   UNL A   1      38.757  30.950  30.009  1.00  0.00     0.031 A 
ATOM     38  C   UNL A   1      39.591  29.870  29.378  1.00  0.00     0.074 A 
ATOM     39  C   UNL A   1      39.025  31.388  31.251  1.00  0.00     0.049 A 
ATOM     40  N   UNL A   1      40.559  29.163  29.894  1.00  0.00    -0.248 NA
ATOM     41  C   UNL A   1      39.282  29.537  27.976  1.00  0.00     0.031 C 
ATOM     42  C   UNL A   1      38.295  32.446  31.948  1.00  0.00     0.029 A 
ATOM     43  N   UNL A   1      39.963  30.967  32.159  1.00  0.00    -0.354 N 
ATOM     44  C   UNL A   1      40.948  28.273  28.899  1.00  0.00     0.074 A 
ATOM     45  C   UNL A   1      40.111  28.529  27.747  1.00  0.00     0.031 C 
ATOM     46  C   UNL A   1      38.785  32.563  33.194  1.00  0.00     0.029 A 
ATOM     47  C   UNL A   1      39.840  31.568  33.389  1.00  0.00     0.049 A 
ATOM     48  H   UNL A   1      40.656  30.301  31.949  1.00  0.00     0.167 HD
ATOM     49  C   UNL A   1      41.920  27.334  28.939  1.00  0.00     0.034 A 
ATOM     50  C   UNL A   1      40.483  31.317  34.547  1.00  0.00     0.034 A 
ATOM     51  C   UNL A   1      42.762  27.104  30.081  1.00  0.00     0.049 A 
ATOM     52  C   UNL A   1      41.551  30.253  34.570  1.00  0.00     0.074 A 
ATOM     53  C   UNL A   1      43.801  26.202  30.216  1.00  0.00     0.029 A 
ATOM     54  N   UNL A   1      42.652  27.778  31.288  1.00  0.00    -0.354 N 
ATOM     55  N   UNL A   1      41.974  29.484  33.595  1.00  0.00    -0.248 NA
ATOM     56  C   UNL A   1      42.253  30.041  35.845  1.00  0.00     0.031 C 
ATOM     57  C   UNL A   1      44.309  26.318  31.514  1.00  0.00     0.029 A 
ATOM     58  C   UNL A   1      43.604  27.310  32.176  1.00  0.00     0.049 A 
ATOM     59  H   UNL A   1      41.995  28.484  31.482  1.00  0.00     0.167 HD
ATOM     60  C   UNL A   1      43.020  28.735  34.123  1.00  0.00     0.074 A 
ATOM     61  C   UNL A   1      43.170  29.146  35.504  1.00  0.00     0.031 C 
ATOM     62  C   UNL A   1      43.781  27.786  33.525  1.00  0.00     0.034 A 
BRANCH  49  63
ATOM     63  C   UNL A   1      42.138  26.498  27.706  1.00  0.00     0.023 A 
ATOM     64  C   UNL A   1      42.825  27.044  26.603  1.00  0.00     0.012 A 
ATOM     65  C   UNL A   1      41.705  25.159  27.657  1.00  0.00     0.148 A 
ATOM     66  C   UNL A   1      43.050  26.280  25.458  1.00  0.00     0.002 A 
ATOM     67  C   UNL A   1      41.971  24.390  26.531  1.00  0.00     0.091 A 
ATOM     68  F   UNL A   1      41.031  24.665  28.705  1.00  0.00    -0.205 F 
ATOM     69  C   UNL A   1      42.634  24.951  25.426  1.00  0.00     0.022 A 
BRANCH  67  70
ATOM     70  S   UNL A   1      41.542  22.649  26.423  1.00  0.00     0.127 S 
ATOM     71  O   UNL A   1      42.066  22.137  27.688  1.00  0.00    -0.237 OA
ATOM     72  O   UNL A   1      40.081  22.696  26.342  1.00  0.00    -0.237 OA
ATOM     73  O   UNL A   1      42.200  22.148  25.224  1.00  0.00    -0.744 OA
ENDBRANCH  67  70
ENDBRANCH  49  63
BRANCH  50  74
ATOM     74  C   UNL A   1      40.157  32.108  35.766  1.00  0.00     0.023 A 
ATOM     75  C   UNL A   1      40.973  33.199  36.123  1.00  0.00     0.012 A 
ATOM     76  C   UNL A   1      39.032  31.806  36.559  1.00  0.00     0.148 A 
ATOM     77  C   UNL A   1      40.694  33.954  37.262  1.00  0.00     0.002 A 
ATOM     78  C   UNL A   1      38.726  32.598  37.660  1.00  0.00     0.091 A 
ATOM     79  F   UNL A   1      38.275  30.755  36.213  1.00  0.00    -0.205 F 
ATOM     80  C   UNL A   1      39.566  33.661  38.023  1.00  0.00     0.022 A 
BRANCH  78  81
ATOM     81  S   UNL A   1      37.221  32.376  38.616  1.00  0.00     0.127 S 
ATOM     82  O   UNL A   1      37.524  33.127  39.832  1.00  0.00    -0.237 OA
ATOM     83  O   UNL A   1      36.216  32.990  37.747  1.00  0.00    -0.237 OA
ATOM     84  O   UNL A   1      37.067  30.937  38.782  1.00  0.00    -0.744 OA
ENDBRANCH  78  81
ENDBRANCH  50  74
BRANCH  62  85
ATOM     85  C   UNL A   1      44.892  27.161  34.328  1.00  0.00     0.023 A 
ATOM     86  C   UNL A   1      46.174  27.741  34.327  1.00  0.00     0.012 A 
ATOM     87  C   UNL A   1      44.627  26.060  35.167  1.00  0.00     0.148 A 
ATOM     88  C   UNL A   1      47.185  27.218  35.133  1.00  0.00     0.002 A 
ATOM     89  C   UNL A   1      45.625  25.575  36.002  1.00  0.00     0.091 A 
ATOM     90  F   UNL A   1      43.402  25.513  35.138  1.00  0.00    -0.205 F 
ATOM     91  C   UNL A   1      46.908  26.146  35.979  1.00  0.00     0.022 A 
BRANCH  89  92
ATOM     92  S   UNL A   1      45.328  24.266  37.195  1.00  0.00     0.127 S 
ATOM     93  O   UNL A   1      44.957  23.151  36.326  1.00  0.00    -0.237 OA
ATOM     94  O   UNL A   1      46.637  24.129  37.837  1.00  0.00    -0.237 OA
ATOM     95  O   UNL A   1      44.273  24.752  38.073  1.00  0.00    -0.744 OA
ENDBRANCH  89  92
ENDBRANCH  62  85
ENDBRANCH  36  37
ENDBRANCH  29  31
ENDBRANCH  28  29
ENDBRANCH  27  28
ENDBRANCH   1  27
TORSDOF 20
ENDMDL
MODEL 2
REMARK VINA RESULT:     -10.9      5.559      9.335
REMARK SMILES CC[C@]1(C(=O)OCCOCCOC(=O)c2ccc(-c3c4nc(c(-c5cccc(S(=O)(=O)[O-])c5F)c5ccc([nH]5)c(-c5cccc(S(=O)(=O)[O-])c5F)c5nc(c(-c6cccc(S(=O)(=O)[O-])c6F)c6ccc3[nH]6)C=C5)C=C4)cc2)CCC[N@@H+]([C@@H]2CCC[C@H](S(C)(=O)=O)C2)C1
REMARK SMILES IDX 10 1 9 2 8 3 7 4 6 5 4 6 5 7 3 8 78 9 92 10 79 11 81 12
REMARK SMILES IDX 80 13 2 15 1 16 82 17 83 18 91 19 84 20 86 21 85 22 87 23
REMARK SMILES IDX 88 24 89 25 90 26 11 27 12 28 13 29 14 30 15 31 16 32 77 33
REMARK SMILES IDX 17 34 76 35 18 36 19 37 20 38 70 39 21 40 75 41 69 42 71 43
REMARK SMILES IDX 22 44 74 45 68 46 67 47 23 49 55 50 35 51 54 52 36 53 39 54
REMARK SMILES IDX 53 55 72 56 37 57 38 58 52 60 73 61 40 62 24 63 25 64 33 65
REMARK SMILES IDX 26 66 28 67 34 68 27 69 29 70 30 71 31 72 32 73 56 74 57 75
REMARK SMILES IDX 65 76 58 77 60 78 66 79 59 80 61 81 62 82 63 83 64 84 41 85
REMARK SMILES IDX 42 86 50 87 43 88 45 89 51 90 44 91 46 92 47 93 48 94 49 95
REMARK H PARENT 81 14 71 48 39 59
REMARK Flexibility Score: inf
ROOT
ATOM      1  C   UNL A   1      38.108  21.127  25.234  1.00  0.00     0.202 C 
ENDROOT
BRANCH   1   2
ATOM      2  O   UNL A   1      38.349  22.224  26.111  1.00  0.00    -0.374 OA
BRANCH   2   3
ATOM      3  C   UNL A   1      37.728  23.474  25.827  1.00  0.00     0.202 C 
BRANCH   3   4
ATOM      4  C   UNL A   1      36.451  23.478  24.984  1.00  0.00     0.261 C 
BRANCH   4   5
ATOM      5  O   UNL A   1      35.271  23.732  25.754  1.00  0.00    -0.463 OA
BRANCH   5   6
ATOM      6  C   UNL A   1      34.452  22.657  25.925  1.00  0.00     0.317 C 
ATOM      7  O   UNL A   1      34.845  21.531  26.215  1.00  0.00    -0.251 OA
BRANCH   6   8
ATOM      8  C   UNL A   1      32.988  22.987  25.622  1.00  0.00     0.117 C 
ATOM      9  C   UNL A   1      32.010  22.791  26.803  1.00  0.00     0.030 C 
ATOM     10  C   UNL A   1      33.052  24.494  25.306  1.00  0.00     0.281 C 
ATOM     11  C   UNL A   1      30.651  23.428  26.503  1.00  0.00     0.063 C 
ATOM     12  N   UNL A   1      31.753  25.135  25.039  1.00  0.00    -0.332 N 
ATOM     13  C   UNL A   1      30.801  24.909  26.139  1.00  0.00     0.262 C 
ATOM     14  H   UNL A   1      31.316  24.703  24.225  1.00  0.00     0.348 HD
BRANCH   8  15
ATOM     15  C   UNL A   1      32.546  22.156  24.380  1.00  0.00     0.021 C 
ATOM     16  C   UNL A   1      33.145  22.627  23.052  1.00  0.00     0.005 C 
ENDBRANCH   8  15
BRANCH  12  17
ATOM     17  C   UNL A   1      31.971  26.570  24.718  1.00  0.00     0.185 C 
ATOM     18  C   UNL A   1      32.449  27.450  25.893  1.00  0.00     0.065 C 
ATOM     19  C   UNL A   1      30.731  27.184  24.051  1.00  0.00     0.084 C 
ATOM     20  C   UNL A   1      32.718  28.880  25.442  1.00  0.00     0.007 C 
ATOM     21  C   UNL A   1      30.993  28.633  23.616  1.00  0.00     0.114 C 
ATOM     22  C   UNL A   1      31.485  29.489  24.785  1.00  0.00     0.020 C 
BRANCH  21  23
ATOM     23  S   UNL A   1      29.511  29.310  22.849  1.00  0.00     0.150 S 
ATOM     24  C   UNL A   1      29.204  30.830  23.718  1.00  0.00     0.158 C 
ATOM     25  O   UNL A   1      29.850  29.675  21.485  1.00  0.00    -0.229 OA
ATOM     26  O   UNL A   1      28.395  28.423  23.113  1.00  0.00    -0.229 OA
ENDBRANCH  21  23
ENDBRANCH  12  17
ENDBRANCH   6   8
ENDBRANCH   5   6
ENDBRANCH   4   5
ENDBRANCH   3   4
ENDBRANCH   2   3
ENDBRANCH   1   2
BRANCH   1  27
ATOM     27  C   UNL A   1      38.963  19.861  25.376  1.00  0.00     0.261 C 
BRANCH  27  28
ATOM     28  O   UNL A   1      39.819  19.875  26.528  1.00  0.00    -0.460 OA
BRANCH  28  29
ATOM     29  C   UNL A   1      41.135  19.718  26.249  1.00  0.00     0.338 C 
ATOM     30  O   UNL A   1      41.673  18.732  25.759  1.00  0.00    -0.246 OA
BRANCH  29  31
ATOM     31  C   UNL A   1      41.852  20.987  26.443  1.00  0.00     0.060 A 
ATOM     32  C   UNL A   1      42.105  21.402  27.758  1.00  0.00     0.016 A 
ATOM     33  C   UNL A   1      42.168  21.809  25.361  1.00  0.00     0.016 A 
ATOM     34  C   UNL A   1      42.622  22.671  28.002  1.00  0.00     0.010 A 
ATOM     35  C   UNL A   1      42.674  23.086  25.607  1.00  0.00     0.010 A 
ATOM     36  C   UNL A   1      42.858  23.537  26.928  1.00  0.00    -0.014 A 
BRANCH  36  37
ATOM     37  C   UNL A   1      43.105  24.974  27.179  1.00  0.00     0.031 A 
ATOM     38  C   UNL A   1      44.487  25.513  26.932  1.00  0.00     0.074 A 
ATOM     39  C   UNL A   1      42.129  25.772  27.645  1.00  0.00     0.049 A 
ATOM     40  N   UNL A   1      44.972  26.697  27.190  1.00  0.00    -0.248 NA
ATOM     41  C   UNL A   1      45.454  24.584  26.321  1.00  0.00     0.031 C 
ATOM     42  C   UNL A   1      40.749  25.358  27.897  1.00  0.00     0.029 A 
ATOM     43  N   UNL A   1      42.163  27.089  28.025  1.00  0.00    -0.354 N 
ATOM     44  C   UNL A   1      46.309  26.646  26.813  1.00  0.00     0.074 A 
ATOM     45  C   UNL A   1      46.560  25.313  26.309  1.00  0.00     0.031 C 
ATOM     46  C   UNL A   1      40.077  26.392  28.432  1.00  0.00     0.029 A 
ATOM     47  C   UNL A   1      40.987  27.526  28.587  1.00  0.00     0.049 A 
ATOM     48  H   UNL A   1      42.953  27.665  27.905  1.00  0.00     0.167 HD
ATOM     49  C   UNL A   1      47.242  27.624  26.874  1.00  0.00     0.034 A 
ATOM     50  C   UNL A   1      40.694  28.696  29.188  1.00  0.00     0.034 A 
ATOM     51  C   UNL A   1      46.976  28.951  27.355  1.00  0.00     0.049 A 
ATOM     52  C   UNL A   1      41.756  29.764  29.259  1.00  0.00     0.074 A 
ATOM     53  C   UNL A   1      47.839  30.029  27.427  1.00  0.00     0.029 A 
ATOM     54  N   UNL A   1      45.755  29.377  27.855  1.00  0.00    -0.354 N 
ATOM     55  N   UNL A   1      42.989  29.736  28.812  1.00  0.00    -0.248 NA
ATOM     56  C   UNL A   1      41.378  31.039  29.889  1.00  0.00     0.031 C 
ATOM     57  C   UNL A   1      47.143  31.105  27.989  1.00  0.00     0.029 A 
ATOM     58  C   UNL A   1      45.840  30.703  28.241  1.00  0.00     0.049 A 
ATOM     59  H   UNL A   1      44.947  28.820  27.924  1.00  0.00     0.167 HD
ATOM     60  C   UNL A   1      43.517  30.998  29.063  1.00  0.00     0.074 A 
ATOM     61  C   UNL A   1      42.467  31.770  29.695  1.00  0.00     0.031 C 
ATOM     62  C   UNL A   1      44.760  31.473  28.803  1.00  0.00     0.034 A 
BRANCH  49  63
ATOM     63  C   UNL A   1      48.630  27.299  26.392  1.00  0.00     0.023 A 
ATOM     64  C   UNL A   1      49.546  26.679  27.265  1.00  0.00     0.012 A 
ATOM     65  C   UNL A   1      49.012  27.564  25.062  1.00  0.00     0.148 A 
ATOM     66  C   UNL A   1      50.833  26.356  26.832  1.00  0.00     0.002 A 
ATOM     67  C   UNL A   1      50.280  27.199  24.625  1.00  0.00     0.091 A 
ATOM     68  F   UNL A   1      48.136  28.177  24.254  1.00  0.00    -0.205 F 
ATOM     69  C   UNL A   1      51.195  26.606  25.511  1.00  0.00     0.022 A 
BRANCH  67  70
ATOM     70  S   UNL A   1      50.815  27.410  22.923  1.00  0.00     0.127 S 
ATOM     71  O   UNL A   1      52.112  26.737  22.936  1.00  0.00    -0.237 OA
ATOM     72  O   UNL A   1      49.769  26.705  22.181  1.00  0.00    -0.237 OA
ATOM     73  O   UNL A   1      50.858  28.847  22.693  1.00  0.00    -0.744 OA
ENDBRANCH  67  70
ENDBRANCH  49  63
BRANCH  50  74
ATOM     74  C   UNL A   1      39.329  28.928  29.739  1.00  0.00     0.023 A 
ATOM     75  C   UNL A   1      39.048  28.562  31.070  1.00  0.00     0.012 A 
ATOM     76  C   UNL A   1      38.318  29.530  28.965  1.00  0.00     0.148 A 
ATOM     77  C   UNL A   1      37.777  28.763  31.609  1.00  0.00     0.002 A 
ATOM     78  C   UNL A   1      37.071  29.781  29.527  1.00  0.00     0.091 A 
ATOM     79  F   UNL A   1      38.599  29.858  27.696  1.00  0.00    -0.205 F 
ATOM     80  C   UNL A   1      36.793  29.382  30.843  1.00  0.00     0.022 A 
BRANCH  78  81
ATOM     81  S   UNL A   1      35.790  30.693  28.659  1.00  0.00     0.127 S 
ATOM     82  O   UNL A   1      35.156  31.432  29.747  1.00  0.00    -0.237 OA
ATOM     83  O   UNL A   1      36.574  31.512  27.733  1.00  0.00    -0.237 OA
ATOM     84  O   UNL A   1      34.961  29.688  28.007  1.00  0.00    -0.744 OA
ENDBRANCH  78  81
ENDBRANCH  50  74
BRANCH  62  85
ATOM     85  C   UNL A   1      45.050  32.912  29.138  1.00  0.00     0.023 A 
ATOM     86  C   UNL A   1      45.594  33.248  30.392  1.00  0.00     0.012 A 
ATOM     87  C   UNL A   1      44.879  33.916  28.163  1.00  0.00     0.148 A 
ATOM     88  C   UNL A   1      45.943  34.568  30.679  1.00  0.00     0.002 A 
ATOM     89  C   UNL A   1      45.273  35.219  28.439  1.00  0.00     0.091 A 
ATOM     90  F   UNL A   1      44.342  33.576  26.982  1.00  0.00    -0.205 F 
ATOM     91  C   UNL A   1      45.796  35.548  29.701  1.00  0.00     0.022 A 
BRANCH  89  92
ATOM     92  S   UNL A   1      45.214  36.523  27.206  1.00  0.00     0.127 S 
ATOM     93  O   UNL A   1      45.840  37.635  27.920  1.00  0.00    -0.237 OA
ATOM     94  O   UNL A   1      46.023  35.962  26.123  1.00  0.00    -0.237 OA
ATOM     95  O   UNL A   1      43.807  36.704  26.878  1.00  0.00    -0.744 OA
ENDBRANCH  89  92
ENDBRANCH  62  85
ENDBRANCH  36  37
ENDBRANCH  29  31
ENDBRANCH  28  29
ENDBRANCH  27  28
ENDBRANCH   1  27
TORSDOF 20
ENDMDL
MODEL 3
REMARK VINA RESULT:     -10.8      5.396     10.882
REMARK SMILES CC[C@]1(C(=O)OCCOCCOC(=O)c2ccc(-c3c4nc(c(-c5cccc(S(=O)(=O)[O-])c5F)c5ccc([nH]5)c(-c5cccc(S(=O)(=O)[O-])c5F)c5nc(c(-c6cccc(S(=O)(=O)[O-])c6F)c6ccc3[nH]6)C=C5)C=C4)cc2)CCC[N@@H+]([C@@H]2CCC[C@H](S(C)(=O)=O)C2)C1
REMARK SMILES IDX 10 1 9 2 8 3 7 4 6 5 4 6 5 7 3 8 78 9 92 10 79 11 81 12
REMARK SMILES IDX 80 13 2 15 1 16 82 17 83 18 91 19 84 20 86 21 85 22 87 23
REMARK SMILES IDX 88 24 89 25 90 26 11 27 12 28 13 29 14 30 15 31 16 32 77 33
REMARK SMILES IDX 17 34 76 35 18 36 19 37 20 38 70 39 21 40 75 41 69 42 71 43
REMARK SMILES IDX 22 44 74 45 68 46 67 47 23 49 55 50 35 51 54 52 36 53 39 54
REMARK SMILES IDX 53 55 72 56 37 57 38 58 52 60 73 61 40 62 24 63 25 64 33 65
REMARK SMILES IDX 26 66 28 67 34 68 27 69 29 70 30 71 31 72 32 73 56 74 57 75
REMARK SMILES IDX 65 76 58 77 60 78 66 79 59 80 61 81 62 82 63 83 64 84 41 85
REMARK SMILES IDX 42 86 50 87 43 88 45 89 51 90 44 91 46 92 47 93 48 94 49 95
REMARK H PARENT 81 14 71 48 39 59
REMARK Flexibility Score: inf
ROOT
ATOM      1  C   UNL A   1      37.757  21.145  25.499  1.00  0.00     0.202 C 
ENDROOT
BRANCH   1   2
ATOM      2  O   UNL A   1      36.538  20.875  24.811  1.00  0.00    -0.374 OA
BRANCH   2   3
ATOM      3  C   UNL A   1      35.538  21.889  24.772  1.00  0.00     0.202 C 
BRANCH   3   4
ATOM      4  C   UNL A   1      35.938  23.288  24.296  1.00  0.00     0.261 C 
BRANCH   4   5
ATOM      5  O   UNL A   1      34.926  24.272  24.537  1.00  0.00    -0.463 OA
BRANCH   5   6
ATOM      6  C   UNL A   1      34.027  24.432  23.527  1.00  0.00     0.317 C 
ATOM      7  O   UNL A   1      34.327  24.489  22.339  1.00  0.00    -0.251 OA
BRANCH   6   8
ATOM      8  C   UNL A   1      32.599  24.625  24.046  1.00  0.00     0.117 C 
ATOM      9  C   UNL A   1      32.374  24.226  25.521  1.00  0.00     0.030 C 
ATOM     10  C   UNL A   1      32.416  26.152  23.936  1.00  0.00     0.281 C 
ATOM     11  C   UNL A   1      31.022  24.734  26.029  1.00  0.00     0.063 C 
ATOM     12  N   UNL A   1      31.133  26.668  24.442  1.00  0.00    -0.332 N 
ATOM     13  C   UNL A   1      30.889  26.247  25.832  1.00  0.00     0.262 C 
ATOM     14  H   UNL A   1      30.363  26.261  23.910  1.00  0.00     0.348 HD
BRANCH   8  15
ATOM     15  C   UNL A   1      31.626  23.859  23.099  1.00  0.00     0.021 C 
ATOM     16  C   UNL A   1      31.817  22.340  23.084  1.00  0.00     0.005 C 
ENDBRANCH   8  15
BRANCH  12  17
ATOM     17  C   UNL A   1      31.083  28.140  24.241  1.00  0.00     0.185 C 
ATOM     18  C   UNL A   1      31.304  28.993  25.510  1.00  0.00     0.065 C 
ATOM     19  C   UNL A   1      29.789  28.559  23.526  1.00  0.00     0.084 C 
ATOM     20  C   UNL A   1      31.313  30.481  25.183  1.00  0.00     0.007 C 
ATOM     21  C   UNL A   1      29.787  30.063  23.217  1.00  0.00     0.114 C 
ATOM     22  C   UNL A   1      30.027  30.896  24.478  1.00  0.00     0.020 C 
BRANCH  21  23
ATOM     23  S   UNL A   1      28.251  30.506  22.388  1.00  0.00     0.150 S 
ATOM     24  C   UNL A   1      28.349  32.266  22.159  1.00  0.00     0.158 C 
ATOM     25  O   UNL A   1      28.282  29.915  21.062  1.00  0.00    -0.229 OA
ATOM     26  O   UNL A   1      27.139  30.243  23.281  1.00  0.00    -0.229 OA
ENDBRANCH  21  23
ENDBRANCH  12  17
ENDBRANCH   6   8
ENDBRANCH   5   6
ENDBRANCH   4   5
ENDBRANCH   3   4
ENDBRANCH   2   3
ENDBRANCH   1   2
BRANCH   1  27
ATOM     27  C   UNL A   1      38.888  20.110  25.438  1.00  0.00     0.261 C 
BRANCH  27  28
ATOM     28  O   UNL A   1      39.719  20.101  26.608  1.00  0.00    -0.460 OA
BRANCH  28  29
ATOM     29  C   UNL A   1      40.976  20.562  26.405  1.00  0.00     0.338 C 
ATOM     30  O   UNL A   1      41.855  20.038  25.733  1.00  0.00    -0.246 OA
BRANCH  29  31
ATOM     31  C   UNL A   1      41.117  21.916  26.963  1.00  0.00     0.060 A 
ATOM     32  C   UNL A   1      40.773  23.001  26.143  1.00  0.00     0.016 A 
ATOM     33  C   UNL A   1      41.683  22.122  28.221  1.00  0.00     0.016 A 
ATOM     34  C   UNL A   1      41.050  24.301  26.555  1.00  0.00     0.010 A 
ATOM     35  C   UNL A   1      41.972  23.426  28.627  1.00  0.00     0.010 A 
ATOM     36  C   UNL A   1      41.699  24.513  27.777  1.00  0.00    -0.014 A 
BRANCH  36  37
ATOM     37  C   UNL A   1      42.275  25.841  28.085  1.00  0.00     0.031 A 
ATOM     38  C   UNL A   1      41.387  26.871  28.725  1.00  0.00     0.074 A 
ATOM     39  C   UNL A   1      43.550  26.130  27.774  1.00  0.00     0.049 A 
ATOM     40  N   UNL A   1      41.627  28.129  28.978  1.00  0.00    -0.248 NA
ATOM     41  C   UNL A   1      40.041  26.422  29.124  1.00  0.00     0.031 C 
ATOM     42  C   UNL A   1      44.504  25.199  27.173  1.00  0.00     0.029 A 
ATOM     43  N   UNL A   1      44.248  27.305  27.888  1.00  0.00    -0.354 N 
ATOM     44  C   UNL A   1      40.453  28.634  29.526  1.00  0.00     0.074 A 
ATOM     45  C   UNL A   1      39.499  27.547  29.568  1.00  0.00     0.031 C 
ATOM     46  C   UNL A   1      45.653  25.852  26.930  1.00  0.00     0.029 A 
ATOM     47  C   UNL A   1      45.503  27.250  27.330  1.00  0.00     0.049 A 
ATOM     48  H   UNL A   1      43.885  28.108  28.327  1.00  0.00     0.167 HD
ATOM     49  C   UNL A   1      40.195  29.888  29.962  1.00  0.00     0.034 A 
ATOM     50  C   UNL A   1      46.410  28.229  27.134  1.00  0.00     0.034 A 
ATOM     51  C   UNL A   1      41.157  30.955  29.937  1.00  0.00     0.049 A 
ATOM     52  C   UNL A   1      46.092  29.623  27.613  1.00  0.00     0.074 A 
ATOM     53  C   UNL A   1      41.012  32.255  30.386  1.00  0.00     0.029 A 
ATOM     54  N   UNL A   1      42.441  30.846  29.425  1.00  0.00    -0.354 N 
ATOM     55  N   UNL A   1      45.014  30.064  28.216  1.00  0.00    -0.248 NA
ATOM     56  C   UNL A   1      47.128  30.648  27.414  1.00  0.00     0.031 C 
ATOM     57  C   UNL A   1      42.205  32.938  30.128  1.00  0.00     0.029 A 
ATOM     58  C   UNL A   1      43.101  32.056  29.544  1.00  0.00     0.049 A 
ATOM     59  H   UNL A   1      42.825  30.028  29.036  1.00  0.00     0.167 HD
ATOM     60  C   UNL A   1      45.260  31.401  28.510  1.00  0.00     0.074 A 
ATOM     61  C   UNL A   1      46.592  31.696  28.025  1.00  0.00     0.031 C 
ATOM     62  C   UNL A   1      44.454  32.306  29.118  1.00  0.00     0.034 A 
BRANCH  49  63
ATOM     63  C   UNL A   1      38.825  30.169  30.519  1.00  0.00     0.023 A 
ATOM     64  C   UNL A   1      38.527  29.817  31.851  1.00  0.00     0.012 A 
ATOM     65  C   UNL A   1      37.850  30.822  29.741  1.00  0.00     0.148 A 
ATOM     66  C   UNL A   1      37.268  30.082  32.390  1.00  0.00     0.002 A 
ATOM     67  C   UNL A   1      36.613  31.124  30.299  1.00  0.00     0.091 A 
ATOM     68  F   UNL A   1      38.144  31.126  28.469  1.00  0.00    -0.205 F 
ATOM     69  C   UNL A   1      36.316  30.746  31.619  1.00  0.00     0.022 A 
BRANCH  67  70
ATOM     70  S   UNL A   1      35.349  32.041  29.411  1.00  0.00     0.127 S 
ATOM     71  O   UNL A   1      36.130  33.129  28.826  1.00  0.00    -0.237 OA
ATOM     72  O   UNL A   1      34.867  31.048  28.449  1.00  0.00    -0.237 OA
ATOM     73  O   UNL A   1      34.369  32.441  30.411  1.00  0.00    -0.744 OA
ENDBRANCH  67  70
ENDBRANCH  49  63
BRANCH  50  74
ATOM     74  C   UNL A   1      47.714  27.915  26.485  1.00  0.00     0.023 A 
ATOM     75  C   UNL A   1      48.836  27.629  27.286  1.00  0.00     0.012 A 
ATOM     76  C   UNL A   1      47.844  27.873  25.083  1.00  0.00     0.148 A 
ATOM     77  C   UNL A   1      50.070  27.337  26.705  1.00  0.00     0.002 A 
ATOM     78  C   UNL A   1      49.062  27.525  24.509  1.00  0.00     0.091 A 
ATOM     79  F   UNL A   1      46.770  28.163  24.336  1.00  0.00    -0.205 F 
ATOM     80  C   UNL A   1      50.180  27.274  25.318  1.00  0.00     0.022 A 
BRANCH  78  81
ATOM     81  S   UNL A   1      49.260  27.288  22.739  1.00  0.00     0.127 S 
ATOM     82  O   UNL A   1      50.683  26.977  22.635  1.00  0.00    -0.237 OA
ATOM     83  O   UNL A   1      48.363  26.160  22.482  1.00  0.00    -0.237 OA
ATOM     84  O   UNL A   1      48.836  28.538  22.124  1.00  0.00    -0.744 OA
ENDBRANCH  78  81
ENDBRANCH  50  74
BRANCH  62  85
ATOM     85  C   UNL A   1      44.999  33.690  29.356  1.00  0.00     0.023 A 
ATOM     86  C   UNL A   1      45.670  33.986  30.558  1.00  0.00     0.012 A 
ATOM     87  C   UNL A   1      44.937  34.662  28.337  1.00  0.00     0.148 A 
ATOM     88  C   UNL A   1      46.251  35.239  30.752  1.00  0.00     0.002 A 
ATOM     89  C   UNL A   1      45.559  35.891  28.519  1.00  0.00     0.091 A 
ATOM     90  F   UNL A   1      44.278  34.363  27.208  1.00  0.00    -0.205 F 
ATOM     91  C   UNL A   1      46.207  36.184  29.730  1.00  0.00     0.022 A 
BRANCH  89  92
ATOM     92  S   UNL A   1      45.641  37.128  27.219  1.00  0.00     0.127 S 
ATOM     93  O   UNL A   1      46.450  38.169  27.851  1.00  0.00    -0.237 OA
ATOM     94  O   UNL A   1      46.314  36.401  26.142  1.00  0.00    -0.237 OA
ATOM     95  O   UNL A   1      44.263  37.498  26.929  1.00  0.00    -0.744 OA
ENDBRANCH  89  92
ENDBRANCH  62  85
ENDBRANCH  36  37
ENDBRANCH  29  31
ENDBRANCH  28  29
ENDBRANCH  27  28
ENDBRANCH   1  27
TORSDOF 20
ENDMDL
