MODEL 1
REMARK VINA RESULT:     -12.1      0.000      0.000
REMARK SMILES O=C(OCCOCCOC(=O)[C@H]1CC=CC[C@H]1C(=O)Nc1ccc(S(=O)(=O)N2CCc3ccccc32)cc1)c1ccc(-c2c3nc(c(-c4cccc(S(=O)(=O)[O-])c4F)c4ccc([nH]4)c(-c4cccc(S(=O)(=O)[O-])c4F)c4nc(c(-c5cccc(S(=O)(=O)[O-])c5F)c5ccc2[nH]5)C=C4)C=C3)cc1
REMARK SMILES IDX 7 1 6 2 5 3 4 4 3 5 2 6 1 7 39 8 40 9 101 10 41 11 100 12
REMARK SMILES IDX 42 13 43 14 44 15 94 16 45 17 99 18 93 19 95 20 46 21 98 22
REMARK SMILES IDX 92 23 91 24 47 26 79 27 59 28 78 29 60 30 63 31 77 32 96 33
REMARK SMILES IDX 61 34 62 35 76 37 97 38 64 39 48 40 49 41 57 42 50 43 52 44
REMARK SMILES IDX 58 45 51 46 53 47 54 48 55 49 56 50 80 51 81 52 89 53 82 54
REMARK SMILES IDX 84 55 90 56 83 57 85 58 86 59 87 60 88 61 65 62 66 63 74 64
REMARK SMILES IDX 67 65 69 66 75 67 68 68 70 69 71 70 72 71 73 72 8 73 9 74
REMARK SMILES IDX 10 75 11 76 12 77 13 78 17 79 14 80 16 81 15 82 18 83 19 84
REMARK SMILES IDX 20 85 21 87 22 88 38 89 23 90 37 91 24 92 25 93 26 94 27 95
REMARK SMILES IDX 28 96 29 97 36 98 30 99 31 100 35 101 32 102 34 103 33 104
REMARK H PARENT 95 25 63 36 20 86
REMARK Flexibility Score: inf
ROOT
ATOM      1  C   UNL A   1      33.080  29.420  26.639  1.00  0.00     0.202 C 
ENDROOT
BRANCH   1   2
ATOM      2  O   UNL A   1      32.900  30.792  26.340  1.00  0.00    -0.374 OA
BRANCH   2   3
ATOM      3  C   UNL A   1      31.757  31.437  26.865  1.00  0.00     0.202 C 
BRANCH   3   4
ATOM      4  C   UNL A   1      31.811  32.956  26.713  1.00  0.00     0.261 C 
BRANCH   4   5
ATOM      5  O   UNL A   1      32.488  33.577  27.819  1.00  0.00    -0.460 OA
BRANCH   5   6
ATOM      6  C   UNL A   1      33.787  33.974  27.860  1.00  0.00     0.338 C 
ATOM      7  O   UNL A   1      34.070  35.082  27.407  1.00  0.00    -0.246 OA
BRANCH   6   8
ATOM      8  C   UNL A   1      34.893  33.147  28.435  1.00  0.00     0.060 A 
ATOM      9  C   UNL A   1      34.735  31.870  28.980  1.00  0.00     0.016 A 
ATOM     10  C   UNL A   1      36.196  33.656  28.331  1.00  0.00     0.016 A 
ATOM     11  C   UNL A   1      35.810  31.132  29.446  1.00  0.00     0.010 A 
ATOM     12  C   UNL A   1      37.293  32.919  28.792  1.00  0.00     0.010 A 
ATOM     13  C   UNL A   1      37.090  31.658  29.367  1.00  0.00    -0.014 A 
BRANCH  13  14
ATOM     14  C   UNL A   1      38.157  30.929  30.066  1.00  0.00     0.031 A 
ATOM     15  C   UNL A   1      38.355  31.225  31.519  1.00  0.00     0.074 A 
ATOM     16  C   UNL A   1      38.819  29.941  29.438  1.00  0.00     0.049 A 
ATOM     17  N   UNL A   1      39.270  30.787  32.334  1.00  0.00    -0.248 NA
ATOM     18  C   UNL A   1      37.372  32.130  32.145  1.00  0.00     0.031 C 
ATOM     19  C   UNL A   1      38.572  29.500  28.062  1.00  0.00     0.029 A 
ATOM     20  N   UNL A   1      39.828  29.126  29.874  1.00  0.00    -0.354 N 
ATOM     21  C   UNL A   1      39.021  31.420  33.545  1.00  0.00     0.074 A 
ATOM     22  C   UNL A   1      37.841  32.234  33.378  1.00  0.00     0.031 C 
ATOM     23  C   UNL A   1      39.424  28.507  27.760  1.00  0.00     0.029 A 
ATOM     24  C   UNL A   1      40.319  28.296  28.891  1.00  0.00     0.049 A 
ATOM     25  H   UNL A   1      40.168  29.132  30.797  1.00  0.00     0.167 HD
ATOM     26  C   UNL A   1      39.743  31.339  34.683  1.00  0.00     0.034 A 
ATOM     27  C   UNL A   1      41.412  27.510  28.904  1.00  0.00     0.034 A 
ATOM     28  C   UNL A   1      40.904  30.505  34.807  1.00  0.00     0.049 A 
ATOM     29  C   UNL A   1      42.234  27.489  30.168  1.00  0.00     0.074 A 
ATOM     30  C   UNL A   1      41.753  30.361  35.886  1.00  0.00     0.029 A 
ATOM     31  N   UNL A   1      41.382  29.682  33.797  1.00  0.00    -0.354 N 
ATOM     32  N   UNL A   1      42.000  28.086  31.315  1.00  0.00    -0.248 NA
ATOM     33  C   UNL A   1      43.466  26.691  30.147  1.00  0.00     0.031 C 
ATOM     34  C   UNL A   1      42.768  29.473  35.512  1.00  0.00     0.029 A 
ATOM     35  C   UNL A   1      42.527  29.037  34.216  1.00  0.00     0.049 A 
ATOM     36  H   UNL A   1      40.965  29.573  32.911  1.00  0.00     0.167 HD
ATOM     37  C   UNL A   1      43.043  27.724  32.156  1.00  0.00     0.074 A 
ATOM     38  C   UNL A   1      43.892  26.827  31.395  1.00  0.00     0.031 C 
ATOM     39  C   UNL A   1      43.302  28.111  33.430  1.00  0.00     0.034 A 
BRANCH  26  40
ATOM     40  C   UNL A   1      39.335  32.220  35.829  1.00  0.00     0.023 A 
ATOM     41  C   UNL A   1      38.461  31.746  36.826  1.00  0.00     0.012 A 
ATOM     42  C   UNL A   1      39.827  33.539  35.907  1.00  0.00     0.148 A 
ATOM     43  C   UNL A   1      38.062  32.580  37.870  1.00  0.00     0.002 A 
ATOM     44  C   UNL A   1      39.457  34.350  36.970  1.00  0.00     0.091 A 
ATOM     45  F   UNL A   1      40.634  33.976  34.930  1.00  0.00    -0.205 F 
ATOM     46  C   UNL A   1      38.565  33.877  37.948  1.00  0.00     0.022 A 
BRANCH  44  47
ATOM     47  S   UNL A   1      40.089  36.017  37.187  1.00  0.00     0.127 S 
ATOM     48  O   UNL A   1      41.527  35.776  37.307  1.00  0.00    -0.237 OA
ATOM     49  O   UNL A   1      39.680  36.660  35.939  1.00  0.00    -0.237 OA
ATOM     50  O   UNL A   1      39.452  36.540  38.387  1.00  0.00    -0.744 OA
ENDBRANCH  44  47
ENDBRANCH  26  40
BRANCH  27  51
ATOM     51  C   UNL A   1      41.824  26.740  27.692  1.00  0.00     0.023 A 
ATOM     52  C   UNL A   1      42.425  27.405  26.606  1.00  0.00     0.012 A 
ATOM     53  C   UNL A   1      41.602  25.350  27.599  1.00  0.00     0.148 A 
ATOM     54  C   UNL A   1      42.760  26.711  25.441  1.00  0.00     0.002 A 
ATOM     55  C   UNL A   1      41.990  24.655  26.459  1.00  0.00     0.091 A 
ATOM     56  F   UNL A   1      41.001  24.730  28.625  1.00  0.00    -0.205 F 
ATOM     57  C   UNL A   1      42.552  25.337  25.371  1.00  0.00     0.022 A 
BRANCH  55  58
ATOM     58  S   UNL A   1      41.862  22.867  26.339  1.00  0.00     0.127 S 
ATOM     59  O   UNL A   1      42.606  22.434  27.519  1.00  0.00    -0.237 OA
ATOM     60  O   UNL A   1      40.414  22.659  26.415  1.00  0.00    -0.237 OA
ATOM     61  O   UNL A   1      42.449  22.523  25.053  1.00  0.00    -0.744 OA
ENDBRANCH  55  58
ENDBRANCH  27  51
BRANCH  39  62
ATOM     62  C   UNL A   1      44.526  27.539  34.082  1.00  0.00     0.023 A 
ATOM     63  C   UNL A   1      45.741  28.250  34.035  1.00  0.00     0.012 A 
ATOM     64  C   UNL A   1      44.440  26.347  34.826  1.00  0.00     0.148 A 
ATOM     65  C   UNL A   1      46.864  27.765  34.701  1.00  0.00     0.002 A 
ATOM     66  C   UNL A   1      45.547  25.902  35.533  1.00  0.00     0.091 A 
ATOM     67  F   UNL A   1      43.275  25.682  34.837  1.00  0.00    -0.205 F 
ATOM     68  C   UNL A   1      46.763  26.602  35.461  1.00  0.00     0.022 A 
BRANCH  66  69
ATOM     69  S   UNL A   1      45.472  24.482  36.628  1.00  0.00     0.127 S 
ATOM     70  O   UNL A   1      45.136  23.406  35.698  1.00  0.00    -0.237 OA
ATOM     71  O   UNL A   1      46.834  24.429  37.159  1.00  0.00    -0.237 OA
ATOM     72  O   UNL A   1      44.450  24.792  37.619  1.00  0.00    -0.744 OA
ENDBRANCH  66  69
ENDBRANCH  39  62
ENDBRANCH  13  14
ENDBRANCH   6   8
ENDBRANCH   5   6
ENDBRANCH   4   5
ENDBRANCH   3   4
ENDBRANCH   2   3
ENDBRANCH   1   2
BRANCH   1  73
ATOM     73  C   UNL A   1      33.227  28.715  25.307  1.00  0.00     0.261 C 
BRANCH  73  74
ATOM     74  O   UNL A   1      32.028  27.991  24.976  1.00  0.00    -0.463 OA
BRANCH  74  75
ATOM     75  C   UNL A   1      31.196  28.573  24.072  1.00  0.00     0.310 C 
ATOM     76  O   UNL A   1      30.577  29.618  24.230  1.00  0.00    -0.252 OA
BRANCH  75  77
ATOM     77  C   UNL A   1      31.082  27.772  22.794  1.00  0.00     0.116 C 
ATOM     78  C   UNL A   1      32.370  27.691  21.962  1.00  0.00     0.043 C 
ATOM     79  C   UNL A   1      30.340  26.429  22.966  1.00  0.00     0.097 C 
ATOM     80  C   UNL A   1      33.133  26.412  22.100  1.00  0.00    -0.030 C 
ATOM     81  C   UNL A   1      31.127  25.121  22.841  1.00  0.00     0.041 C 
ATOM     82  C   UNL A   1      32.567  25.260  22.475  1.00  0.00    -0.030 C 
BRANCH  79  83
ATOM     83  C   UNL A   1      29.363  26.321  24.128  1.00  0.00     0.228 C 
ATOM     84  O   UNL A   1      28.308  26.971  24.049  1.00  0.00    -0.274 OA
ATOM     85  N   UNL A   1      29.510  25.578  25.252  1.00  0.00    -0.326 N 
ATOM     86  H   UNL A   1      28.695  25.629  25.802  1.00  0.00     0.169 HD
BRANCH  85  87
ATOM     87  C   UNL A   1      30.470  24.756  25.875  1.00  0.00     0.041 A 
ATOM     88  C   UNL A   1      31.742  25.328  25.927  1.00  0.00     0.027 A 
ATOM     89  C   UNL A   1      30.325  23.447  26.357  1.00  0.00     0.027 A 
ATOM     90  C   UNL A   1      32.842  24.575  26.311  1.00  0.00     0.024 A 
ATOM     91  C   UNL A   1      31.443  22.669  26.768  1.00  0.00     0.024 A 
ATOM     92  C   UNL A   1      32.707  23.228  26.679  1.00  0.00     0.088 A 
BRANCH  92  93
ATOM     93  S   UNL A   1      34.274  22.426  26.860  1.00  0.00     0.264 S 
ATOM     94  O   UNL A   1      35.029  23.312  27.723  1.00  0.00    -0.201 OA
ATOM     95  O   UNL A   1      33.902  21.083  27.268  1.00  0.00    -0.201 OA
BRANCH  93  96
ATOM     96  N   UNL A   1      35.190  22.278  25.360  1.00  0.00    -0.266 N 
ATOM     97  C   UNL A   1      36.529  21.581  25.528  1.00  0.00     0.140 C 
ATOM     98  C   UNL A   1      34.425  21.323  24.553  1.00  0.00     0.055 A 
ATOM     99  C   UNL A   1      36.328  20.076  25.240  1.00  0.00     0.060 C 
ATOM    100  C   UNL A   1      34.955  20.040  24.661  1.00  0.00    -0.022 A 
ATOM    101  C   UNL A   1      33.140  21.534  24.075  1.00  0.00     0.027 A 
ATOM    102  C   UNL A   1      34.158  18.926  24.434  1.00  0.00     0.006 A 
ATOM    103  C   UNL A   1      32.323  20.422  23.873  1.00  0.00     0.002 A 
ATOM    104  C   UNL A   1      32.821  19.128  24.080  1.00  0.00     0.000 A 
ENDBRANCH  93  96
ENDBRANCH  92  93
ENDBRANCH  85  87
ENDBRANCH  79  83
ENDBRANCH  75  77
ENDBRANCH  74  75
ENDBRANCH  73  74
ENDBRANCH   1  73
TORSDOF 21
ENDMDL
MODEL 2
REMARK VINA RESULT:     -11.8      4.776      9.426
REMARK SMILES O=C(OCCOCCOC(=O)[C@H]1CC=CC[C@H]1C(=O)Nc1ccc(S(=O)(=O)N2CCc3ccccc32)cc1)c1ccc(-c2c3nc(c(-c4cccc(S(=O)(=O)[O-])c4F)c4ccc([nH]4)c(-c4cccc(S(=O)(=O)[O-])c4F)c4nc(c(-c5cccc(S(=O)(=O)[O-])c5F)c5ccc2[nH]5)C=C4)C=C3)cc1
REMARK SMILES IDX 7 1 6 2 5 3 4 4 3 5 2 6 1 7 39 8 40 9 101 10 41 11 100 12
REMARK SMILES IDX 42 13 43 14 44 15 94 16 45 17 99 18 93 19 95 20 46 21 98 22
REMARK SMILES IDX 92 23 91 24 47 26 79 27 59 28 78 29 60 30 63 31 77 32 96 33
REMARK SMILES IDX 61 34 62 35 76 37 97 38 64 39 48 40 49 41 57 42 50 43 52 44
REMARK SMILES IDX 58 45 51 46 53 47 54 48 55 49 56 50 80 51 81 52 89 53 82 54
REMARK SMILES IDX 84 55 90 56 83 57 85 58 86 59 87 60 88 61 65 62 66 63 74 64
REMARK SMILES IDX 67 65 69 66 75 67 68 68 70 69 71 70 72 71 73 72 8 73 9 74
REMARK SMILES IDX 10 75 11 76 12 77 13 78 17 79 14 80 16 81 15 82 18 83 19 84
REMARK SMILES IDX 20 85 21 87 22 88 38 89 23 90 37 91 24 92 25 93 26 94 27 95
REMARK SMILES IDX 28 96 29 97 36 98 30 99 31 100 35 101 32 102 34 103 33 104
REMARK H PARENT 95 25 63 36 20 86
REMARK Flexibility Score: inf
ROOT
ATOM      1  C   UNL A   1      34.937  24.140  25.711  1.00  0.00     0.202 C 
ENDROOT
BRANCH   1   2
ATOM      2  O   UNL A   1      36.030  24.030  24.818  1.00  0.00    -0.374 OA
BRANCH   2   3
ATOM      3  C   UNL A   1      36.453  22.733  24.450  1.00  0.00     0.202 C 
BRANCH   3   4
ATOM      4  C   UNL A   1      36.854  21.877  25.650  1.00  0.00     0.261 C 
BRANCH   4   5
ATOM      5  O   UNL A   1      38.118  21.226  25.438  1.00  0.00    -0.460 OA
BRANCH   5   6
ATOM      6  C   UNL A   1      39.271  21.442  26.124  1.00  0.00     0.338 C 
ATOM      7  O   UNL A   1      39.985  20.473  26.380  1.00  0.00    -0.246 OA
BRANCH   6   8
ATOM      8  C   UNL A   1      39.731  22.791  26.577  1.00  0.00     0.060 A 
ATOM      9  C   UNL A   1      39.223  24.006  26.111  1.00  0.00     0.016 A 
ATOM     10  C   UNL A   1      40.674  22.833  27.616  1.00  0.00     0.016 A 
ATOM     11  C   UNL A   1      39.652  25.223  26.612  1.00  0.00     0.010 A 
ATOM     12  C   UNL A   1      41.112  24.055  28.137  1.00  0.00     0.010 A 
ATOM     13  C   UNL A   1      40.608  25.253  27.616  1.00  0.00    -0.014 A 
BRANCH  13  14
ATOM     14  C   UNL A   1      41.178  26.564  27.957  1.00  0.00     0.031 A 
ATOM     15  C   UNL A   1      42.578  26.842  27.510  1.00  0.00     0.074 A 
ATOM     16  C   UNL A   1      40.404  27.508  28.523  1.00  0.00     0.049 A 
ATOM     17  N   UNL A   1      43.334  27.874  27.753  1.00  0.00    -0.248 NA
ATOM     18  C   UNL A   1      43.211  25.819  26.655  1.00  0.00     0.031 C 
ATOM     19  C   UNL A   1      38.984  27.350  28.851  1.00  0.00     0.029 A 
ATOM     20  N   UNL A   1      40.699  28.784  28.918  1.00  0.00    -0.354 N 
ATOM     21  C   UNL A   1      44.551  27.592  27.148  1.00  0.00     0.074 A 
ATOM     22  C   UNL A   1      44.425  26.318  26.483  1.00  0.00     0.031 C 
ATOM     23  C   UNL A   1      38.537  28.483  29.418  1.00  0.00     0.029 A 
ATOM     24  C   UNL A   1      39.653  29.410  29.558  1.00  0.00     0.049 A 
ATOM     25  H   UNL A   1      41.571  29.212  28.759  1.00  0.00     0.167 HD
ATOM     26  C   UNL A   1      45.680  28.333  27.178  1.00  0.00     0.034 A 
ATOM     27  C   UNL A   1      39.639  30.575  30.232  1.00  0.00     0.034 A 
ATOM     28  C   UNL A   1      45.756  29.602  27.843  1.00  0.00     0.049 A 
ATOM     29  C   UNL A   1      40.930  31.350  30.302  1.00  0.00     0.074 A 
ATOM     30  C   UNL A   1      46.845  30.437  27.989  1.00  0.00     0.029 A 
ATOM     31  N   UNL A   1      44.686  30.209  28.487  1.00  0.00    -0.354 N 
ATOM     32  N   UNL A   1      42.083  31.086  29.730  1.00  0.00    -0.248 NA
ATOM     33  C   UNL A   1      40.926  32.578  31.105  1.00  0.00     0.031 C 
ATOM     34  C   UNL A   1      46.440  31.535  28.755  1.00  0.00     0.029 A 
ATOM     35  C   UNL A   1      45.090  31.401  29.051  1.00  0.00     0.049 A 
ATOM     36  H   UNL A   1      43.773  29.843  28.534  1.00  0.00     0.167 HD
ATOM     37  C   UNL A   1      42.936  32.120  30.089  1.00  0.00     0.074 A 
ATOM     38  C   UNL A   1      42.154  33.035  30.900  1.00  0.00     0.031 C 
ATOM     39  C   UNL A   1      44.250  32.298  29.805  1.00  0.00     0.034 A 
BRANCH  26  40
ATOM     40  C   UNL A   1      46.911  27.751  26.545  1.00  0.00     0.023 A 
ATOM     41  C   UNL A   1      47.859  27.057  27.321  1.00  0.00     0.012 A 
ATOM     42  C   UNL A   1      47.125  27.903  25.161  1.00  0.00     0.148 A 
ATOM     43  C   UNL A   1      49.015  26.545  26.732  1.00  0.00     0.002 A 
ATOM     44  C   UNL A   1      48.258  27.358  24.574  1.00  0.00     0.091 A 
ATOM     45  F   UNL A   1      46.222  28.594  24.449  1.00  0.00    -0.205 F 
ATOM     46  C   UNL A   1      49.211  26.687  25.360  1.00  0.00     0.022 A 
BRANCH  44  47
ATOM     47  S   UNL A   1      48.578  27.444  22.809  1.00  0.00     0.127 S 
ATOM     48  O   UNL A   1      48.370  26.054  22.402  1.00  0.00    -0.237 OA
ATOM     49  O   UNL A   1      47.541  28.373  22.360  1.00  0.00    -0.237 OA
ATOM     50  O   UNL A   1      49.943  27.928  22.667  1.00  0.00    -0.744 OA
ENDBRANCH  44  47
ENDBRANCH  26  40
BRANCH  27  51
ATOM     51  C   UNL A   1      38.407  31.046  30.933  1.00  0.00     0.023 A 
ATOM     52  C   UNL A   1      38.257  30.829  32.317  1.00  0.00     0.012 A 
ATOM     53  C   UNL A   1      37.367  31.691  30.230  1.00  0.00     0.148 A 
ATOM     54  C   UNL A   1      37.085  31.208  32.976  1.00  0.00     0.002 A 
ATOM     55  C   UNL A   1      36.228  32.117  30.904  1.00  0.00     0.091 A 
ATOM     56  F   UNL A   1      37.504  31.867  28.908  1.00  0.00    -0.205 F 
ATOM     57  C   UNL A   1      36.076  31.860  32.273  1.00  0.00     0.022 A 
BRANCH  55  58
ATOM     58  S   UNL A   1      34.936  33.066  30.092  1.00  0.00     0.127 S 
ATOM     59  O   UNL A   1      34.375  32.080  29.171  1.00  0.00    -0.237 OA
ATOM     60  O   UNL A   1      34.067  33.422  31.215  1.00  0.00    -0.237 OA
ATOM     61  O   UNL A   1      35.615  34.198  29.479  1.00  0.00    -0.744 OA
ENDBRANCH  55  58
ENDBRANCH  27  51
BRANCH  39  62
ATOM     62  C   UNL A   1      44.905  33.536  30.344  1.00  0.00     0.023 A 
ATOM     63  C   UNL A   1      45.587  33.487  31.574  1.00  0.00     0.012 A 
ATOM     64  C   UNL A   1      44.927  34.716  29.576  1.00  0.00     0.148 A 
ATOM     65  C   UNL A   1      46.263  34.609  32.047  1.00  0.00     0.002 A 
ATOM     66  C   UNL A   1      45.650  35.810  30.027  1.00  0.00     0.091 A 
ATOM     67  F   UNL A   1      44.253  34.737  28.417  1.00  0.00    -0.205 F 
ATOM     68  C   UNL A   1      46.307  35.764  31.268  1.00  0.00     0.022 A 
BRANCH  66  69
ATOM     69  S   UNL A   1      45.857  37.291  29.035  1.00  0.00     0.127 S 
ATOM     70  O   UNL A   1      46.730  38.098  29.884  1.00  0.00    -0.237 OA
ATOM     71  O   UNL A   1      46.493  36.767  27.826  1.00  0.00    -0.237 OA
ATOM     72  O   UNL A   1      44.518  37.826  28.827  1.00  0.00    -0.744 OA
ENDBRANCH  66  69
ENDBRANCH  39  62
ENDBRANCH  13  14
ENDBRANCH   6   8
ENDBRANCH   5   6
ENDBRANCH   4   5
ENDBRANCH   3   4
ENDBRANCH   2   3
ENDBRANCH   1   2
BRANCH   1  73
ATOM     73  C   UNL A   1      34.406  25.550  25.555  1.00  0.00     0.261 C 
BRANCH  73  74
ATOM     74  O   UNL A   1      34.103  25.833  24.177  1.00  0.00    -0.463 OA
BRANCH  74  75
ATOM     75  C   UNL A   1      33.536  27.040  23.914  1.00  0.00     0.310 C 
ATOM     76  O   UNL A   1      34.020  27.930  23.227  1.00  0.00    -0.252 OA
BRANCH  75  77
ATOM     77  C   UNL A   1      32.192  27.205  24.591  1.00  0.00     0.116 C 
ATOM     78  C   UNL A   1      32.078  28.427  25.514  1.00  0.00     0.043 C 
ATOM     79  C   UNL A   1      30.990  26.996  23.646  1.00  0.00     0.097 C 
ATOM     80  C   UNL A   1      31.359  29.599  24.926  1.00  0.00    -0.030 C 
ATOM     81  C   UNL A   1      30.117  28.198  23.273  1.00  0.00     0.041 C 
ATOM     82  C   UNL A   1      30.468  29.488  23.936  1.00  0.00    -0.030 C 
BRANCH  79  83
ATOM     83  C   UNL A   1      31.220  26.137  22.412  1.00  0.00     0.228 C 
ATOM     84  O   UNL A   1      31.004  26.657  21.305  1.00  0.00    -0.274 OA
ATOM     85  N   UNL A   1      31.649  24.851  22.380  1.00  0.00    -0.326 N 
ATOM     86  H   UNL A   1      31.786  24.561  21.449  1.00  0.00     0.169 HD
BRANCH  85  87
ATOM     87  C   UNL A   1      31.957  23.803  23.269  1.00  0.00     0.041 A 
ATOM     88  C   UNL A   1      33.006  22.992  22.831  1.00  0.00     0.027 A 
ATOM     89  C   UNL A   1      31.308  23.440  24.459  1.00  0.00     0.027 A 
ATOM     90  C   UNL A   1      33.295  21.798  23.475  1.00  0.00     0.024 A 
ATOM     91  C   UNL A   1      31.607  22.225  25.137  1.00  0.00     0.024 A 
ATOM     92  C   UNL A   1      32.561  21.382  24.596  1.00  0.00     0.088 A 
BRANCH  92  93
ATOM     93  S   UNL A   1      32.942  19.718  25.061  1.00  0.00     0.264 S 
ATOM     94  O   UNL A   1      34.327  19.547  24.671  1.00  0.00    -0.201 OA
ATOM     95  O   UNL A   1      32.521  19.668  26.450  1.00  0.00    -0.201 OA
BRANCH  93  96
ATOM     96  N   UNL A   1      32.017  18.492  24.194  1.00  0.00    -0.266 N 
ATOM     97  C   UNL A   1      32.085  18.629  22.683  1.00  0.00     0.140 C 
ATOM     98  C   UNL A   1      32.740  17.241  24.441  1.00  0.00     0.055 A 
ATOM     99  C   UNL A   1      33.238  17.737  22.171  1.00  0.00     0.060 C 
ATOM    100  C   UNL A   1      33.585  16.935  23.377  1.00  0.00    -0.022 A 
ATOM    101  C   UNL A   1      32.899  16.644  25.683  1.00  0.00     0.027 A 
ATOM    102  C   UNL A   1      34.703  16.136  23.573  1.00  0.00     0.006 A 
ATOM    103  C   UNL A   1      34.035  15.863  25.896  1.00  0.00     0.002 A 
ATOM    104  C   UNL A   1      34.947  15.636  24.855  1.00  0.00     0.000 A 
ENDBRANCH  93  96
ENDBRANCH  92  93
ENDBRANCH  85  87
ENDBRANCH  79  83
ENDBRANCH  75  77
ENDBRANCH  74  75
ENDBRANCH  73  74
ENDBRANCH   1  73
TORSDOF 21
ENDMDL
MODEL 3
REMARK VINA RESULT:     -11.8      1.990      7.464
REMARK SMILES O=C(OCCOCCOC(=O)[C@H]1CC=CC[C@H]1C(=O)Nc1ccc(S(=O)(=O)N2CCc3ccccc32)cc1)c1ccc(-c2c3nc(c(-c4cccc(S(=O)(=O)[O-])c4F)c4ccc([nH]4)c(-c4cccc(S(=O)(=O)[O-])c4F)c4nc(c(-c5cccc(S(=O)(=O)[O-])c5F)c5ccc2[nH]5)C=C4)C=C3)cc1
REMARK SMILES IDX 7 1 6 2 5 3 4 4 3 5 2 6 1 7 39 8 40 9 101 10 41 11 100 12
REMARK SMILES IDX 42 13 43 14 44 15 94 16 45 17 99 18 93 19 95 20 46 21 98 22
REMARK SMILES IDX 92 23 91 24 47 26 79 27 59 28 78 29 60 30 63 31 77 32 96 33
REMARK SMILES IDX 61 34 62 35 76 37 97 38 64 39 48 40 49 41 57 42 50 43 52 44
REMARK SMILES IDX 58 45 51 46 53 47 54 48 55 49 56 50 80 51 81 52 89 53 82 54
REMARK SMILES IDX 84 55 90 56 83 57 85 58 86 59 87 60 88 61 65 62 66 63 74 64
REMARK SMILES IDX 67 65 69 66 75 67 68 68 70 69 71 70 72 71 73 72 8 73 9 74
REMARK SMILES IDX 10 75 11 76 12 77 13 78 17 79 14 80 16 81 15 82 18 83 19 84
REMARK SMILES IDX 20 85 21 87 22 88 38 89 23 90 37 91 24 92 25 93 26 94 27 95
REMARK SMILES IDX 28 96 29 97 36 98 30 99 31 100 35 101 32 102 34 103 33 104
REMARK H PARENT 95 25 63 36 20 86
REMARK Flexibility Score: inf
ROOT
ATOM      1  C   UNL A   1      34.959  29.595  27.038  1.00  0.00     0.202 C 
ENDROOT
BRANCH   1   2
ATOM      2  O   UNL A   1      34.660  30.960  27.268  1.00  0.00    -0.374 OA
BRANCH   2   3
ATOM      3  C   UNL A   1      33.330  31.297  27.605  1.00  0.00     0.202 C 
BRANCH   3   4
ATOM      4  C   UNL A   1      32.872  32.611  26.976  1.00  0.00     0.261 C 
BRANCH   4   5
ATOM      5  O   UNL A   1      32.441  33.554  27.970  1.00  0.00    -0.460 OA
BRANCH   5   6
ATOM      6  C   UNL A   1      33.228  34.392  28.695  1.00  0.00     0.338 C 
ATOM      7  O   UNL A   1      32.901  35.576  28.770  1.00  0.00    -0.246 OA
BRANCH   6   8
ATOM      8  C   UNL A   1      34.463  33.957  29.419  1.00  0.00     0.060 A 
ATOM      9  C   UNL A   1      35.768  34.268  29.029  1.00  0.00     0.016 A 
ATOM     10  C   UNL A   1      34.288  33.267  30.628  1.00  0.00     0.016 A 
ATOM     11  C   UNL A   1      36.869  33.882  29.774  1.00  0.00     0.010 A 
ATOM     12  C   UNL A   1      35.392  32.876  31.395  1.00  0.00     0.010 A 
ATOM     13  C   UNL A   1      36.686  33.172  30.952  1.00  0.00    -0.014 A 
BRANCH  13  14
ATOM     14  C   UNL A   1      37.886  32.607  31.585  1.00  0.00     0.031 A 
ATOM     15  C   UNL A   1      38.580  31.491  30.869  1.00  0.00     0.074 A 
ATOM     16  C   UNL A   1      38.398  33.181  32.688  1.00  0.00     0.049 A 
ATOM     17  N   UNL A   1      39.596  30.771  31.249  1.00  0.00    -0.248 NA
ATOM     18  C   UNL A   1      38.066  31.149  29.529  1.00  0.00     0.031 C 
ATOM     19  C   UNL A   1      37.852  34.367  33.353  1.00  0.00     0.029 A 
ATOM     20  N   UNL A   1      39.492  32.849  33.439  1.00  0.00    -0.354 N 
ATOM     21  C   UNL A   1      39.794  29.845  30.234  1.00  0.00     0.074 A 
ATOM     22  C   UNL A   1      38.829  30.120  29.197  1.00  0.00     0.031 C 
ATOM     23  C   UNL A   1      38.605  34.650  34.430  1.00  0.00     0.029 A 
ATOM     24  C   UNL A   1      39.633  33.627  34.567  1.00  0.00     0.049 A 
ATOM     25  H   UNL A   1      40.116  32.128  33.199  1.00  0.00     0.167 HD
ATOM     26  C   UNL A   1      40.692  28.837  30.199  1.00  0.00     0.034 A 
ATOM     27  C   UNL A   1      40.465  33.471  35.614  1.00  0.00     0.034 A 
ATOM     28  C   UNL A   1      41.641  28.608  31.250  1.00  0.00     0.049 A 
ATOM     29  C   UNL A   1      41.414  32.300  35.575  1.00  0.00     0.074 A 
ATOM     30  C   UNL A   1      42.578  27.601  31.364  1.00  0.00     0.029 A 
ATOM     31  N   UNL A   1      41.758  29.405  32.381  1.00  0.00    -0.354 N 
ATOM     32  N   UNL A   1      41.603  31.423  34.616  1.00  0.00    -0.248 NA
ATOM     33  C   UNL A   1      42.262  32.092  36.755  1.00  0.00     0.031 C 
ATOM     34  C   UNL A   1      43.238  27.770  32.586  1.00  0.00     0.029 A 
ATOM     35  C   UNL A   1      42.738  28.904  33.211  1.00  0.00     0.049 A 
ATOM     36  H   UNL A   1      41.220  30.210  32.563  1.00  0.00     0.167 HD
ATOM     37  C   UNL A   1      42.601  30.571  35.066  1.00  0.00     0.074 A 
ATOM     38  C   UNL A   1      43.001  31.060  36.373  1.00  0.00     0.031 C 
ATOM     39  C   UNL A   1      43.129  29.468  34.479  1.00  0.00     0.034 A 
BRANCH  26  40
ATOM     40  C   UNL A   1      40.627  27.889  29.036  1.00  0.00     0.023 A 
ATOM     41  C   UNL A   1      39.664  26.862  29.000  1.00  0.00     0.012 A 
ATOM     42  C   UNL A   1      41.541  28.021  27.972  1.00  0.00     0.148 A 
ATOM     43  C   UNL A   1      39.629  25.964  27.932  1.00  0.00     0.002 A 
ATOM     44  C   UNL A   1      41.475  27.150  26.894  1.00  0.00     0.091 A 
ATOM     45  F   UNL A   1      42.466  28.989  28.045  1.00  0.00    -0.205 F 
ATOM     46  C   UNL A   1      40.527  26.113  26.876  1.00  0.00     0.022 A 
BRANCH  44  47
ATOM     47  S   UNL A   1      42.553  27.288  25.465  1.00  0.00     0.127 S 
ATOM     48  O   UNL A   1      43.870  27.375  26.094  1.00  0.00    -0.237 OA
ATOM     49  O   UNL A   1      42.291  26.030  24.767  1.00  0.00    -0.237 OA
ATOM     50  O   UNL A   1      42.132  28.487  24.753  1.00  0.00    -0.744 OA
ENDBRANCH  44  47
ENDBRANCH  26  40
BRANCH  27  51
ATOM     51  C   UNL A   1      40.405  34.389  36.791  1.00  0.00     0.023 A 
ATOM     52  C   UNL A   1      40.930  35.692  36.696  1.00  0.00     0.012 A 
ATOM     53  C   UNL A   1      39.847  33.968  38.017  1.00  0.00     0.148 A 
ATOM     54  C   UNL A   1      40.938  36.541  37.806  1.00  0.00     0.002 A 
ATOM     55  C   UNL A   1      39.806  34.838  39.101  1.00  0.00     0.091 A 
ATOM     56  F   UNL A   1      39.377  32.716  38.108  1.00  0.00    -0.205 F 
ATOM     57  C   UNL A   1      40.368  36.119  39.004  1.00  0.00     0.022 A 
BRANCH  55  58
ATOM     58  S   UNL A   1      38.985  34.409  40.641  1.00  0.00     0.127 S 
ATOM     59  O   UNL A   1      38.955  35.696  41.332  1.00  0.00    -0.237 OA
ATOM     60  O   UNL A   1      37.682  33.934  40.170  1.00  0.00    -0.237 OA
ATOM     61  O   UNL A   1      39.814  33.378  41.247  1.00  0.00    -0.744 OA
ENDBRANCH  55  58
ENDBRANCH  27  51
BRANCH  39  62
ATOM     62  C   UNL A   1      44.211  28.747  35.228  1.00  0.00     0.023 A 
ATOM     63  C   UNL A   1      45.552  29.151  35.082  1.00  0.00     0.012 A 
ATOM     64  C   UNL A   1      43.880  27.738  36.152  1.00  0.00     0.148 A 
ATOM     65  C   UNL A   1      46.555  28.540  35.830  1.00  0.00     0.002 A 
ATOM     66  C   UNL A   1      44.877  27.174  36.934  1.00  0.00     0.091 A 
ATOM     67  F   UNL A   1      42.597  27.361  36.256  1.00  0.00    -0.205 F 
ATOM     68  C   UNL A   1      46.217  27.564  36.766  1.00  0.00     0.022 A 
BRANCH  66  69
ATOM     69  S   UNL A   1      44.515  26.000  38.242  1.00  0.00     0.127 S 
ATOM     70  O   UNL A   1      43.509  25.149  37.607  1.00  0.00    -0.237 OA
ATOM     71  O   UNL A   1      45.814  25.359  38.450  1.00  0.00    -0.237 OA
ATOM     72  O   UNL A   1      44.044  26.788  39.372  1.00  0.00    -0.744 OA
ENDBRANCH  66  69
ENDBRANCH  39  62
ENDBRANCH  13  14
ENDBRANCH   6   8
ENDBRANCH   5   6
ENDBRANCH   4   5
ENDBRANCH   3   4
ENDBRANCH   2   3
ENDBRANCH   1   2
BRANCH   1  73
ATOM     73  C   UNL A   1      33.667  28.954  26.575  1.00  0.00     0.261 C 
BRANCH  73  74
ATOM     74  O   UNL A   1      33.654  28.807  25.143  1.00  0.00    -0.463 OA
BRANCH  74  75
ATOM     75  C   UNL A   1      32.506  29.159  24.506  1.00  0.00     0.310 C 
ATOM     76  O   UNL A   1      31.569  29.774  24.998  1.00  0.00    -0.252 OA
BRANCH  75  77
ATOM     77  C   UNL A   1      32.477  28.688  23.068  1.00  0.00     0.116 C 
ATOM     78  C   UNL A   1      33.839  28.270  22.495  1.00  0.00     0.043 C 
ATOM     79  C   UNL A   1      31.320  27.715  22.756  1.00  0.00     0.097 C 
ATOM     80  C   UNL A   1      34.078  26.795  22.443  1.00  0.00    -0.030 C 
ATOM     81  C   UNL A   1      31.641  26.248  22.452  1.00  0.00     0.041 C 
ATOM     82  C   UNL A   1      33.090  25.895  22.405  1.00  0.00    -0.030 C 
BRANCH  79  83
ATOM     83  C   UNL A   1      30.092  27.787  23.652  1.00  0.00     0.228 C 
ATOM     84  O   UNL A   1      29.237  28.646  23.381  1.00  0.00    -0.274 OA
ATOM     85  N   UNL A   1      29.816  27.004  24.724  1.00  0.00    -0.326 N 
ATOM     86  H   UNL A   1      28.920  27.213  25.075  1.00  0.00     0.169 HD
BRANCH  85  87
ATOM     87  C   UNL A   1      30.416  25.985  25.489  1.00  0.00     0.041 A 
ATOM     88  C   UNL A   1      31.774  26.198  25.732  1.00  0.00     0.027 A 
ATOM     89  C   UNL A   1      29.854  24.785  25.949  1.00  0.00     0.027 A 
ATOM     90  C   UNL A   1      32.562  25.197  26.281  1.00  0.00     0.024 A 
ATOM     91  C   UNL A   1      30.648  23.757  26.529  1.00  0.00     0.024 A 
ATOM     92  C   UNL A   1      32.015  23.953  26.630  1.00  0.00     0.088 A 
BRANCH  92  93
ATOM     93  S   UNL A   1      33.262  22.771  27.051  1.00  0.00     0.264 S 
ATOM     94  O   UNL A   1      34.503  23.514  26.955  1.00  0.00    -0.201 OA
ATOM     95  O   UNL A   1      32.782  22.231  28.309  1.00  0.00    -0.201 OA
BRANCH  93  96
ATOM     96  N   UNL A   1      33.393  21.421  25.923  1.00  0.00    -0.266 N 
ATOM     97  C   UNL A   1      32.351  21.444  24.818  1.00  0.00     0.140 C 
ATOM     98  C   UNL A   1      34.643  21.665  25.198  1.00  0.00     0.055 A 
ATOM     99  C   UNL A   1      32.960  22.172  23.599  1.00  0.00     0.060 C 
ATOM    100  C   UNL A   1      34.398  22.282  23.974  1.00  0.00    -0.022 A 
ATOM    101  C   UNL A   1      35.907  21.674  25.770  1.00  0.00     0.027 A 
ATOM    102  C   UNL A   1      35.378  23.052  23.364  1.00  0.00     0.006 A 
ATOM    103  C   UNL A   1      36.890  22.469  25.180  1.00  0.00     0.002 A 
ATOM    104  C   UNL A   1      36.617  23.177  24.001  1.00  0.00     0.000 A 
ENDBRANCH  93  96
ENDBRANCH  92  93
ENDBRANCH  85  87
ENDBRANCH  79  83
ENDBRANCH  75  77
ENDBRANCH  74  75
ENDBRANCH  73  74
ENDBRANCH   1  73
TORSDOF 21
ENDMDL
