MODEL 1
REMARK VINA RESULT:     -12.3      0.000      0.000
REMARK SMILES Nc1nc(N2CCCCC2)nc2c1[C@H](C(=O)OCCOCCOC(=O)c1ccc(-c3c4nc(c(-c5cccc(S(=O)(=O)[O-])c5F)c5ccc([nH]5)c(-c5cccc(S(=O)(=O)[O-])c5F)c5nc(c(-c6cccc(S(=O)(=O)[O-])c6F)c6ccc3[nH]6)C=C5)C=C4)cc1)CC(=O)N2
REMARK SMILES IDX 21 1 20 2 19 3 18 4 17 5 15 6 16 7 14 8 2 9 3 10 13 11 4 12
REMARK SMILES IDX 12 13 11 14 92 15 89 16 90 17 91 19 1 20 5 23 6 24 10 25
REMARK SMILES IDX 7 26 9 27 8 28 22 29 23 30 24 31 25 32 26 33 27 34 88 35
REMARK SMILES IDX 28 36 87 37 29 38 30 39 31 40 81 41 32 42 86 43 80 44 82 45
REMARK SMILES IDX 33 46 85 47 79 48 78 49 34 51 66 52 46 53 65 54 47 55 50 56
REMARK SMILES IDX 64 57 83 58 48 59 49 60 63 62 84 63 51 64 35 65 36 66 44 67
REMARK SMILES IDX 37 68 39 69 45 70 38 71 40 72 41 73 42 74 43 75 67 76 68 77
REMARK SMILES IDX 76 78 69 79 71 80 77 81 70 82 72 83 73 84 74 85 75 86 52 87
REMARK SMILES IDX 53 88 61 89 54 90 56 91 62 92 55 93 57 94 58 95 59 96 60 97
REMARK H PARENT 92 18 1 21 1 22 82 50 50 61
REMARK Flexibility Score: inf
ROOT
ATOM      1  C   UNL A   1      31.706  29.984  25.343  1.00  0.00     0.202 C 
ENDROOT
BRANCH   1   2
ATOM      2  O   UNL A   1      32.970  29.687  24.755  1.00  0.00    -0.374 OA
BRANCH   2   3
ATOM      3  C   UNL A   1      33.719  28.610  25.322  1.00  0.00     0.202 C 
BRANCH   3   4
ATOM      4  C   UNL A   1      32.926  27.381  25.772  1.00  0.00     0.261 C 
BRANCH   4   5
ATOM      5  O   UNL A   1      32.852  26.386  24.732  1.00  0.00    -0.463 OA
BRANCH   5   6
ATOM      6  C   UNL A   1      33.010  25.098  25.131  1.00  0.00     0.314 C 
ATOM      7  O   UNL A   1      33.899  24.707  25.883  1.00  0.00    -0.252 OA
BRANCH   6   8
ATOM      8  C   UNL A   1      31.885  24.184  24.664  1.00  0.00     0.146 C 
ATOM      9  C   UNL A   1      33.331  22.196  23.971  1.00  0.00     0.135 A 
ATOM     10  N   UNL A   1      33.621  20.890  23.982  1.00  0.00    -0.196 NA
ATOM     11  C   UNL A   1      32.268  22.728  24.672  1.00  0.00     0.052 A 
ATOM     12  C   UNL A   1      32.848  20.069  24.700  1.00  0.00     0.229 A 
ATOM     13  C   UNL A   1      31.598  21.814  25.455  1.00  0.00     0.144 A 
ATOM     14  N   UNL A   1      31.853  20.498  25.479  1.00  0.00    -0.195 NA
ATOM     15  N   UNL A   1      30.645  22.260  26.358  1.00  0.00    -0.310 N 
ATOM     16  C   UNL A   1      30.550  24.482  25.346  1.00  0.00     0.120 C 
ATOM     17  C   UNL A   1      30.207  23.541  26.473  1.00  0.00     0.226 C 
ATOM     18  H   UNL A   1      30.252  21.592  26.965  1.00  0.00     0.171 HD
ATOM     19  O   UNL A   1      29.463  23.868  27.394  1.00  0.00    -0.275 OA
BRANCH   9  20
ATOM     20  N   UNL A   1      34.152  22.957  23.166  1.00  0.00    -0.383 N 
ATOM     21  H   UNL A   1      33.991  23.925  23.075  1.00  0.00     0.158 HD
ATOM     22  H   UNL A   1      34.897  22.535  22.683  1.00  0.00     0.158 HD
ENDBRANCH   9  20
BRANCH  12  23
ATOM     23  N   UNL A   1      33.101  18.721  24.576  1.00  0.00    -0.341 N 
ATOM     24  C   UNL A   1      32.670  17.891  25.686  1.00  0.00     0.119 C 
ATOM     25  C   UNL A   1      32.959  18.155  23.245  1.00  0.00     0.119 C 
ATOM     26  C   UNL A   1      33.481  16.593  25.672  1.00  0.00     0.022 C 
ATOM     27  C   UNL A   1      33.810  16.884  23.179  1.00  0.00     0.022 C 
ATOM     28  C   UNL A   1      33.449  15.910  24.302  1.00  0.00     0.004 C 
ENDBRANCH  12  23
ENDBRANCH   6   8
ENDBRANCH   5   6
ENDBRANCH   4   5
ENDBRANCH   3   4
ENDBRANCH   2   3
ENDBRANCH   1   2
BRANCH   1  29
ATOM     29  C   UNL A   1      31.618  31.217  26.249  1.00  0.00     0.261 C 
BRANCH  29  30
ATOM     30  O   UNL A   1      32.492  31.119  27.385  1.00  0.00    -0.460 OA
BRANCH  30  31
ATOM     31  C   UNL A   1      33.320  32.176  27.549  1.00  0.00     0.338 C 
ATOM     32  O   UNL A   1      33.000  33.360  27.591  1.00  0.00    -0.246 OA
BRANCH  31  33
ATOM     33  C   UNL A   1      34.682  31.720  27.875  1.00  0.00     0.060 A 
ATOM     34  C   UNL A   1      34.858  30.349  28.107  1.00  0.00     0.016 A 
ATOM     35  C   UNL A   1      35.748  32.608  28.031  1.00  0.00     0.016 A 
ATOM     36  C   UNL A   1      36.084  29.869  28.555  1.00  0.00     0.010 A 
ATOM     37  C   UNL A   1      36.977  32.125  28.494  1.00  0.00     0.010 A 
ATOM     38  C   UNL A   1      37.137  30.761  28.800  1.00  0.00    -0.014 A 
BRANCH  38  39
ATOM     39  C   UNL A   1      38.334  30.276  29.528  1.00  0.00     0.031 A 
ATOM     40  C   UNL A   1      38.568  30.755  30.936  1.00  0.00     0.074 A 
ATOM     41  C   UNL A   1      39.159  29.371  28.971  1.00  0.00     0.049 A 
ATOM     42  N   UNL A   1      39.519  30.430  31.772  1.00  0.00    -0.248 NA
ATOM     43  C   UNL A   1      37.597  31.722  31.479  1.00  0.00     0.031 C 
ATOM     44  C   UNL A   1      39.012  28.810  27.630  1.00  0.00     0.029 A 
ATOM     45  N   UNL A   1      40.285  28.765  29.468  1.00  0.00    -0.354 N 
ATOM     46  C   UNL A   1      39.264  31.150  32.934  1.00  0.00     0.074 A 
ATOM     47  C   UNL A   1      38.088  31.953  32.689  1.00  0.00     0.031 C 
ATOM     48  C   UNL A   1      40.013  27.940  27.409  1.00  0.00     0.029 A 
ATOM     49  C   UNL A   1      40.884  27.899  28.581  1.00  0.00     0.049 A 
ATOM     50  H   UNL A   1      40.633  28.934  30.374  1.00  0.00     0.167 HD
ATOM     51  C   UNL A   1      39.932  31.121  34.111  1.00  0.00     0.034 A 
ATOM     52  C   UNL A   1      42.007  27.163  28.706  1.00  0.00     0.034 A 
ATOM     53  C   UNL A   1      41.093  30.310  34.357  1.00  0.00     0.049 A 
ATOM     54  C   UNL A   1      42.774  27.210  30.006  1.00  0.00     0.074 A 
ATOM     55  C   UNL A   1      41.838  30.210  35.518  1.00  0.00     0.029 A 
ATOM     56  N   UNL A   1      41.676  29.460  33.431  1.00  0.00    -0.354 N 
ATOM     57  N   UNL A   1      42.471  27.828  31.122  1.00  0.00    -0.248 NA
ATOM     58  C   UNL A   1      44.023  26.435  30.072  1.00  0.00     0.031 C 
ATOM     59  C   UNL A   1      42.885  29.314  35.288  1.00  0.00     0.029 A 
ATOM     60  C   UNL A   1      42.777  28.836  33.992  1.00  0.00     0.049 A 
ATOM     61  H   UNL A   1      41.355  29.319  32.511  1.00  0.00     0.167 HD
ATOM     62  C   UNL A   1      43.469  27.490  32.031  1.00  0.00     0.074 A 
ATOM     63  C   UNL A   1      44.374  26.594  31.341  1.00  0.00     0.031 C 
ATOM     64  C   UNL A   1      43.633  27.898  33.313  1.00  0.00     0.034 A 
BRANCH  51  65
ATOM     65  C   UNL A   1      39.397  31.947  35.251  1.00  0.00     0.023 A 
ATOM     66  C   UNL A   1      38.532  31.344  36.187  1.00  0.00     0.012 A 
ATOM     67  C   UNL A   1      39.826  33.273  35.459  1.00  0.00     0.148 A 
ATOM     68  C   UNL A   1      38.092  32.051  37.304  1.00  0.00     0.002 A 
ATOM     69  C   UNL A   1      39.416  33.957  36.597  1.00  0.00     0.091 A 
ATOM     70  F   UNL A   1      40.635  33.832  34.547  1.00  0.00    -0.205 F 
ATOM     71  C   UNL A   1      38.543  33.350  37.516  1.00  0.00     0.022 A 
BRANCH  69  72
ATOM     72  S   UNL A   1      40.001  35.605  37.008  1.00  0.00     0.127 S 
ATOM     73  O   UNL A   1      41.445  35.392  37.099  1.00  0.00    -0.237 OA
ATOM     74  O   UNL A   1      39.572  36.381  35.845  1.00  0.00    -0.237 OA
ATOM     75  O   UNL A   1      39.350  35.965  38.259  1.00  0.00    -0.744 OA
ENDBRANCH  69  72
ENDBRANCH  51  65
BRANCH  52  76
ATOM     76  C   UNL A   1      42.448  26.267  27.596  1.00  0.00     0.023 A 
ATOM     77  C   UNL A   1      43.350  26.759  26.632  1.00  0.00     0.012 A 
ATOM     78  C   UNL A   1      41.992  24.939  27.492  1.00  0.00     0.148 A 
ATOM     79  C   UNL A   1      43.767  25.956  25.571  1.00  0.00     0.002 A 
ATOM     80  C   UNL A   1      42.456  24.126  26.464  1.00  0.00     0.091 A 
ATOM     81  F   UNL A   1      41.116  24.493  28.404  1.00  0.00    -0.205 F 
ATOM     82  C   UNL A   1      43.329  24.638  25.491  1.00  0.00     0.022 A 
BRANCH  80  83
ATOM     83  S   UNL A   1      42.049  22.379  26.355  1.00  0.00     0.127 S 
ATOM     84  O   UNL A   1      42.781  21.975  25.157  1.00  0.00    -0.237 OA
ATOM     85  O   UNL A   1      42.593  21.863  27.612  1.00  0.00    -0.237 OA
ATOM     86  O   UNL A   1      40.597  22.319  26.259  1.00  0.00    -0.744 OA
ENDBRANCH  80  83
ENDBRANCH  52  76
BRANCH  64  87
ATOM     87  C   UNL A   1      44.819  27.374  34.082  1.00  0.00     0.023 A 
ATOM     88  C   UNL A   1      46.015  28.119  34.107  1.00  0.00     0.012 A 
ATOM     89  C   UNL A   1      44.708  26.217  34.881  1.00  0.00     0.148 A 
ATOM     90  C   UNL A   1      47.088  27.711  34.897  1.00  0.00     0.002 A 
ATOM     91  C   UNL A   1      45.763  25.846  35.706  1.00  0.00     0.091 A 
ATOM     92  F   UNL A   1      43.566  25.516  34.835  1.00  0.00    -0.205 F 
ATOM     93  C   UNL A   1      46.957  26.585  35.707  1.00  0.00     0.022 A 
BRANCH  91  94
ATOM     94  S   UNL A   1      45.652  24.477  36.865  1.00  0.00     0.127 S 
ATOM     95  O   UNL A   1      47.013  24.430  37.401  1.00  0.00    -0.237 OA
ATOM     96  O   UNL A   1      44.642  24.953  37.810  1.00  0.00    -0.237 OA
ATOM     97  O   UNL A   1      45.254  23.316  36.082  1.00  0.00    -0.744 OA
ENDBRANCH  91  94
ENDBRANCH  64  87
ENDBRANCH  38  39
ENDBRANCH  31  33
ENDBRANCH  30  31
ENDBRANCH  29  30
ENDBRANCH   1  29
TORSDOF 19
ENDMDL
MODEL 2
REMARK VINA RESULT:     -12.3      5.006      7.202
REMARK SMILES Nc1nc(N2CCCCC2)nc2c1[C@H](C(=O)OCCOCCOC(=O)c1ccc(-c3c4nc(c(-c5cccc(S(=O)(=O)[O-])c5F)c5ccc([nH]5)c(-c5cccc(S(=O)(=O)[O-])c5F)c5nc(c(-c6cccc(S(=O)(=O)[O-])c6F)c6ccc3[nH]6)C=C5)C=C4)cc1)CC(=O)N2
REMARK SMILES IDX 21 1 20 2 19 3 18 4 17 5 15 6 16 7 14 8 2 9 3 10 13 11 4 12
REMARK SMILES IDX 12 13 11 14 92 15 89 16 90 17 91 19 1 20 5 23 6 24 10 25
REMARK SMILES IDX 7 26 9 27 8 28 22 29 23 30 24 31 25 32 26 33 27 34 88 35
REMARK SMILES IDX 28 36 87 37 29 38 30 39 31 40 81 41 32 42 86 43 80 44 82 45
REMARK SMILES IDX 33 46 85 47 79 48 78 49 34 51 66 52 46 53 65 54 47 55 50 56
REMARK SMILES IDX 64 57 83 58 48 59 49 60 63 62 84 63 51 64 35 65 36 66 44 67
REMARK SMILES IDX 37 68 39 69 45 70 38 71 40 72 41 73 42 74 43 75 67 76 68 77
REMARK SMILES IDX 76 78 69 79 71 80 77 81 70 82 72 83 73 84 74 85 75 86 52 87
REMARK SMILES IDX 53 88 61 89 54 90 56 91 62 92 55 93 57 94 58 95 59 96 60 97
REMARK H PARENT 92 18 1 21 1 22 82 50 50 61
REMARK Flexibility Score: inf
ROOT
ATOM      1  C   UNL A   1      35.519  21.748  25.935  1.00  0.00     0.202 C 
ENDROOT
BRANCH   1   2
ATOM      2  O   UNL A   1      35.412  23.052  25.370  1.00  0.00    -0.374 OA
BRANCH   2   3
ATOM      3  C   UNL A   1      35.050  23.140  23.990  1.00  0.00     0.202 C 
BRANCH   3   4
ATOM      4  C   UNL A   1      34.579  24.507  23.487  1.00  0.00     0.261 C 
BRANCH   4   5
ATOM      5  O   UNL A   1      33.263  24.829  23.978  1.00  0.00    -0.463 OA
BRANCH   5   6
ATOM      6  C   UNL A   1      32.227  24.474  23.176  1.00  0.00     0.314 C 
ATOM      7  O   UNL A   1      32.141  24.759  21.985  1.00  0.00    -0.252 OA
BRANCH   6   8
ATOM      8  C   UNL A   1      31.225  23.555  23.862  1.00  0.00     0.146 C 
ATOM      9  C   UNL A   1      32.143  21.338  22.988  1.00  0.00     0.135 A 
ATOM     10  N   UNL A   1      32.562  20.082  23.175  1.00  0.00    -0.196 NA
ATOM     11  C   UNL A   1      31.734  22.148  24.027  1.00  0.00     0.052 A 
ATOM     12  C   UNL A   1      32.581  19.591  24.418  1.00  0.00     0.229 A 
ATOM     13  C   UNL A   1      31.885  21.582  25.274  1.00  0.00     0.144 A 
ATOM     14  N   UNL A   1      32.288  20.322  25.496  1.00  0.00    -0.195 NA
ATOM     15  N   UNL A   1      31.701  22.363  26.405  1.00  0.00    -0.310 N 
ATOM     16  C   UNL A   1      30.636  24.160  25.137  1.00  0.00     0.120 C 
ATOM     17  C   UNL A   1      31.260  23.648  26.410  1.00  0.00     0.226 C 
ATOM     18  H   UNL A   1      31.907  21.952  27.275  1.00  0.00     0.171 HD
ATOM     19  O   UNL A   1      31.261  24.305  27.448  1.00  0.00    -0.275 OA
BRANCH   9  20
ATOM     20  N   UNL A   1      32.112  21.742  21.670  1.00  0.00    -0.383 N 
ATOM     21  H   UNL A   1      32.843  21.490  21.060  1.00  0.00     0.158 HD
ATOM     22  H   UNL A   1      31.359  22.281  21.337  1.00  0.00     0.158 HD
ENDBRANCH   9  20
BRANCH  12  23
ATOM     23  N   UNL A   1      32.890  18.255  24.547  1.00  0.00    -0.341 N 
ATOM     24  C   UNL A   1      34.107  17.821  23.886  1.00  0.00     0.119 C 
ATOM     25  C   UNL A   1      32.590  17.642  25.829  1.00  0.00     0.119 C 
ATOM     26  C   UNL A   1      34.020  16.312  23.641  1.00  0.00     0.022 C 
ATOM     27  C   UNL A   1      32.435  16.135  25.608  1.00  0.00     0.022 C 
ATOM     28  C   UNL A   1      33.666  15.543  24.917  1.00  0.00     0.004 C 
ENDBRANCH  12  23
ENDBRANCH   6   8
ENDBRANCH   5   6
ENDBRANCH   4   5
ENDBRANCH   3   4
ENDBRANCH   2   3
ENDBRANCH   1   2
BRANCH   1  29
ATOM     29  C   UNL A   1      36.532  20.784  25.307  1.00  0.00     0.261 C 
BRANCH  29  30
ATOM     30  O   UNL A   1      37.772  21.436  24.985  1.00  0.00    -0.460 OA
BRANCH  30  31
ATOM     31  C   UNL A   1      38.802  21.116  25.802  1.00  0.00     0.338 C 
ATOM     32  O   UNL A   1      39.340  20.018  25.910  1.00  0.00    -0.246 OA
BRANCH  31  33
ATOM     33  C   UNL A   1      39.355  22.326  26.434  1.00  0.00     0.060 A 
ATOM     34  C   UNL A   1      38.786  23.554  26.070  1.00  0.00     0.016 A 
ATOM     35  C   UNL A   1      40.450  22.280  27.298  1.00  0.00     0.016 A 
ATOM     36  C   UNL A   1      39.348  24.744  26.519  1.00  0.00     0.010 A 
ATOM     37  C   UNL A   1      41.022  23.479  27.739  1.00  0.00     0.010 A 
ATOM     38  C   UNL A   1      40.500  24.716  27.316  1.00  0.00    -0.014 A 
BRANCH  38  39
ATOM     39  C   UNL A   1      41.236  25.980  27.557  1.00  0.00     0.031 A 
ATOM     40  C   UNL A   1      40.581  27.054  28.383  1.00  0.00     0.074 A 
ATOM     41  C   UNL A   1      42.493  26.140  27.105  1.00  0.00     0.049 A 
ATOM     42  N   UNL A   1      41.053  28.215  28.756  1.00  0.00    -0.248 NA
ATOM     43  C   UNL A   1      39.214  26.782  28.863  1.00  0.00     0.031 C 
ATOM     44  C   UNL A   1      43.241  25.157  26.325  1.00  0.00     0.029 A 
ATOM     45  N   UNL A   1      43.363  27.193  27.241  1.00  0.00    -0.354 N 
ATOM     46  C   UNL A   1      40.047  28.810  29.509  1.00  0.00     0.074 A 
ATOM     47  C   UNL A   1      38.925  27.898  29.518  1.00  0.00     0.031 C 
ATOM     48  C   UNL A   1      44.460  25.653  26.051  1.00  0.00     0.029 A 
ATOM     49  C   UNL A   1      44.571  26.997  26.613  1.00  0.00     0.049 A 
ATOM     50  H   UNL A   1      43.143  28.013  27.741  1.00  0.00     0.167 HD
ATOM     51  C   UNL A   1      40.068  29.995  30.161  1.00  0.00     0.034 A 
ATOM     52  C   UNL A   1      45.640  27.812  26.505  1.00  0.00     0.034 A 
ATOM     53  C   UNL A   1      41.191  30.892  30.164  1.00  0.00     0.049 A 
ATOM     54  C   UNL A   1      45.604  29.161  27.181  1.00  0.00     0.074 A 
ATOM     55  C   UNL A   1      41.308  32.117  30.797  1.00  0.00     0.029 A 
ATOM     56  N   UNL A   1      42.388  30.665  29.504  1.00  0.00    -0.354 N 
ATOM     57  N   UNL A   1      44.680  29.671  27.960  1.00  0.00    -0.248 NA
ATOM     58  C   UNL A   1      46.770  30.037  26.985  1.00  0.00     0.031 C 
ATOM     59  C   UNL A   1      42.570  32.639  30.505  1.00  0.00     0.029 A 
ATOM     60  C   UNL A   1      43.248  31.729  29.710  1.00  0.00     0.049 A 
ATOM     61  H   UNL A   1      42.596  29.865  28.970  1.00  0.00     0.167 HD
ATOM     62  C   UNL A   1      45.167  30.907  28.374  1.00  0.00     0.074 A 
ATOM     63  C   UNL A   1      46.477  31.060  27.778  1.00  0.00     0.031 C 
ATOM     64  C   UNL A   1      44.575  31.840  29.161  1.00  0.00     0.034 A 
BRANCH  51  65
ATOM     65  C   UNL A   1      38.862  30.375  30.980  1.00  0.00     0.023 A 
ATOM     66  C   UNL A   1      38.779  29.942  32.319  1.00  0.00     0.012 A 
ATOM     67  C   UNL A   1      37.874  31.240  30.469  1.00  0.00     0.148 A 
ATOM     68  C   UNL A   1      37.724  30.351  33.133  1.00  0.00     0.002 A 
ATOM     69  C   UNL A   1      36.849  31.677  31.299  1.00  0.00     0.091 A 
ATOM     70  F   UNL A   1      37.964  31.627  29.188  1.00  0.00    -0.205 F 
ATOM     71  C   UNL A   1      36.768  31.227  32.628  1.00  0.00     0.022 A 
BRANCH  69  72
ATOM     72  S   UNL A   1      35.611  32.868  30.775  1.00  0.00     0.127 S 
ATOM     73  O   UNL A   1      35.522  32.592  29.341  1.00  0.00    -0.237 OA
ATOM     74  O   UNL A   1      34.441  32.454  31.548  1.00  0.00    -0.237 OA
ATOM     75  O   UNL A   1      36.140  34.180  31.119  1.00  0.00    -0.744 OA
ENDBRANCH  69  72
ENDBRANCH  51  65
BRANCH  52  76
ATOM     76  C   UNL A   1      46.864  27.358  25.781  1.00  0.00     0.023 A 
ATOM     77  C   UNL A   1      47.796  26.540  26.449  1.00  0.00     0.012 A 
ATOM     78  C   UNL A   1      47.108  27.720  24.442  1.00  0.00     0.148 A 
ATOM     79  C   UNL A   1      48.960  26.116  25.809  1.00  0.00     0.002 A 
ATOM     80  C   UNL A   1      48.242  27.246  23.791  1.00  0.00     0.091 A 
ATOM     81  F   UNL A   1      46.223  28.517  23.826  1.00  0.00    -0.205 F 
ATOM     82  C   UNL A   1      49.179  26.458  24.478  1.00  0.00     0.022 A 
BRANCH  80  83
ATOM     83  S   UNL A   1      48.541  27.528  22.042  1.00  0.00     0.127 S 
ATOM     84  O   UNL A   1      49.701  28.415  22.076  1.00  0.00    -0.237 OA
ATOM     85  O   UNL A   1      48.815  26.173  21.560  1.00  0.00    -0.237 OA
ATOM     86  O   UNL A   1      47.313  28.113  21.522  1.00  0.00    -0.744 OA
ENDBRANCH  80  83
ENDBRANCH  52  76
BRANCH  64  87
ATOM     87  C   UNL A   1      45.333  33.110  29.454  1.00  0.00     0.023 A 
ATOM     88  C   UNL A   1      46.220  33.153  30.547  1.00  0.00     0.012 A 
ATOM     89  C   UNL A   1      45.264  34.210  28.574  1.00  0.00     0.148 A 
ATOM     90  C   UNL A   1      47.012  34.278  30.774  1.00  0.00     0.002 A 
ATOM     91  C   UNL A   1      46.095  35.306  28.777  1.00  0.00     0.091 A 
ATOM     92  F   UNL A   1      44.405  34.154  27.546  1.00  0.00    -0.205 F 
ATOM     93  C   UNL A   1      46.960  35.346  29.881  1.00  0.00     0.022 A 
BRANCH  91  94
ATOM     94  S   UNL A   1      46.181  36.683  27.624  1.00  0.00     0.127 S 
ATOM     95  O   UNL A   1      46.416  35.995  26.355  1.00  0.00    -0.237 OA
ATOM     96  O   UNL A   1      44.852  37.280  27.757  1.00  0.00    -0.237 OA
ATOM     97  O   UNL A   1      47.275  37.526  28.084  1.00  0.00    -0.744 OA
ENDBRANCH  91  94
ENDBRANCH  64  87
ENDBRANCH  38  39
ENDBRANCH  31  33
ENDBRANCH  30  31
ENDBRANCH  29  30
ENDBRANCH   1  29
TORSDOF 19
ENDMDL
MODEL 3
REMARK VINA RESULT:     -12.2      4.716      9.573
REMARK SMILES Nc1nc(N2CCCCC2)nc2c1[C@H](C(=O)OCCOCCOC(=O)c1ccc(-c3c4nc(c(-c5cccc(S(=O)(=O)[O-])c5F)c5ccc([nH]5)c(-c5cccc(S(=O)(=O)[O-])c5F)c5nc(c(-c6cccc(S(=O)(=O)[O-])c6F)c6ccc3[nH]6)C=C5)C=C4)cc1)CC(=O)N2
REMARK SMILES IDX 21 1 20 2 19 3 18 4 17 5 15 6 16 7 14 8 2 9 3 10 13 11 4 12
REMARK SMILES IDX 12 13 11 14 92 15 89 16 90 17 91 19 1 20 5 23 6 24 10 25
REMARK SMILES IDX 7 26 9 27 8 28 22 29 23 30 24 31 25 32 26 33 27 34 88 35
REMARK SMILES IDX 28 36 87 37 29 38 30 39 31 40 81 41 32 42 86 43 80 44 82 45
REMARK SMILES IDX 33 46 85 47 79 48 78 49 34 51 66 52 46 53 65 54 47 55 50 56
REMARK SMILES IDX 64 57 83 58 48 59 49 60 63 62 84 63 51 64 35 65 36 66 44 67
REMARK SMILES IDX 37 68 39 69 45 70 38 71 40 72 41 73 42 74 43 75 67 76 68 77
REMARK SMILES IDX 76 78 69 79 71 80 77 81 70 82 72 83 73 84 74 85 75 86 52 87
REMARK SMILES IDX 53 88 61 89 54 90 56 91 62 92 55 93 57 94 58 95 59 96 60 97
REMARK H PARENT 92 18 1 21 1 22 82 50 50 61
REMARK Flexibility Score: inf
ROOT
ATOM      1  C   UNL A   1      35.813  21.916  25.702  1.00  0.00     0.202 C 
ENDROOT
BRANCH   1   2
ATOM      2  O   UNL A   1      35.871  23.138  24.971  1.00  0.00    -0.374 OA
BRANCH   2   3
ATOM      3  C   UNL A   1      34.870  23.352  23.973  1.00  0.00     0.202 C 
BRANCH   3   4
ATOM      4  C   UNL A   1      34.480  24.804  23.688  1.00  0.00     0.261 C 
BRANCH   4   5
ATOM      5  O   UNL A   1      33.070  25.024  23.883  1.00  0.00    -0.463 OA
BRANCH   5   6
ATOM      6  C   UNL A   1      32.245  24.399  23.006  1.00  0.00     0.314 C 
ATOM      7  O   UNL A   1      32.363  24.447  21.785  1.00  0.00    -0.252 OA
BRANCH   6   8
ATOM      8  C   UNL A   1      31.217  23.502  23.684  1.00  0.00     0.146 C 
ATOM      9  C   UNL A   1      32.147  21.260  22.889  1.00  0.00     0.135 A 
ATOM     10  N   UNL A   1      32.552  20.006  23.117  1.00  0.00    -0.196 NA
ATOM     11  C   UNL A   1      31.712  22.096  23.897  1.00  0.00     0.052 A 
ATOM     12  C   UNL A   1      32.533  19.545  24.371  1.00  0.00     0.229 A 
ATOM     13  C   UNL A   1      31.825  21.559  25.160  1.00  0.00     0.144 A 
ATOM     14  N   UNL A   1      32.213  20.302  25.423  1.00  0.00    -0.195 NA
ATOM     15  N   UNL A   1      31.613  22.368  26.267  1.00  0.00    -0.310 N 
ATOM     16  C   UNL A   1      30.595  24.140  24.927  1.00  0.00     0.120 C 
ATOM     17  C   UNL A   1      31.179  23.655  26.229  1.00  0.00     0.226 C 
ATOM     18  H   UNL A   1      31.791  21.976  27.152  1.00  0.00     0.171 HD
ATOM     19  O   UNL A   1      31.154  24.336  27.251  1.00  0.00    -0.275 OA
BRANCH   9  20
ATOM     20  N   UNL A   1      32.156  21.633  21.561  1.00  0.00    -0.383 N 
ATOM     21  H   UNL A   1      32.065  20.949  20.858  1.00  0.00     0.158 HD
ATOM     22  H   UNL A   1      32.253  22.581  21.316  1.00  0.00     0.158 HD
ENDBRANCH   9  20
BRANCH  12  23
ATOM     23  N   UNL A   1      32.830  18.211  24.541  1.00  0.00    -0.341 N 
ATOM     24  C   UNL A   1      34.039  17.745  23.889  1.00  0.00     0.119 C 
ATOM     25  C   UNL A   1      32.529  17.640  25.842  1.00  0.00     0.119 C 
ATOM     26  C   UNL A   1      33.937  16.230  23.691  1.00  0.00     0.022 C 
ATOM     27  C   UNL A   1      32.359  16.129  25.668  1.00  0.00     0.022 C 
ATOM     28  C   UNL A   1      33.581  15.504  24.991  1.00  0.00     0.004 C 
ENDBRANCH  12  23
ENDBRANCH   6   8
ENDBRANCH   5   6
ENDBRANCH   4   5
ENDBRANCH   3   4
ENDBRANCH   2   3
ENDBRANCH   1   2
BRANCH   1  29
ATOM     29  C   UNL A   1      36.858  20.844  25.374  1.00  0.00     0.261 C 
BRANCH  29  30
ATOM     30  O   UNL A   1      38.123  21.416  25.003  1.00  0.00    -0.460 OA
BRANCH  30  31
ATOM     31  C   UNL A   1      39.131  21.158  25.868  1.00  0.00     0.338 C 
ATOM     32  O   UNL A   1      39.758  20.109  25.972  1.00  0.00    -0.246 OA
BRANCH  31  33
ATOM     33  C   UNL A   1      39.537  22.388  26.570  1.00  0.00     0.060 A 
ATOM     34  C   UNL A   1      38.949  23.588  26.147  1.00  0.00     0.016 A 
ATOM     35  C   UNL A   1      40.521  22.390  27.559  1.00  0.00     0.016 A 
ATOM     36  C   UNL A   1      39.388  24.801  26.667  1.00  0.00     0.010 A 
ATOM     37  C   UNL A   1      40.969  23.612  28.073  1.00  0.00     0.010 A 
ATOM     38  C   UNL A   1      40.435  24.824  27.597  1.00  0.00    -0.014 A 
BRANCH  38  39
ATOM     39  C   UNL A   1      41.068  26.122  27.933  1.00  0.00     0.031 A 
ATOM     40  C   UNL A   1      42.478  26.381  27.473  1.00  0.00     0.074 A 
ATOM     41  C   UNL A   1      40.376  27.080  28.576  1.00  0.00     0.049 A 
ATOM     42  N   UNL A   1      43.210  27.456  27.614  1.00  0.00    -0.248 NA
ATOM     43  C   UNL A   1      43.152  25.289  26.748  1.00  0.00     0.031 C 
ATOM     44  C   UNL A   1      38.995  26.955  29.039  1.00  0.00     0.029 A 
ATOM     45  N   UNL A   1      40.742  28.348  28.950  1.00  0.00    -0.354 N 
ATOM     46  C   UNL A   1      44.425  27.170  27.001  1.00  0.00     0.074 A 
ATOM     47  C   UNL A   1      44.346  25.812  26.511  1.00  0.00     0.031 C 
ATOM     48  C   UNL A   1      38.629  28.102  29.635  1.00  0.00     0.029 A 
ATOM     49  C   UNL A   1      39.754  29.034  29.619  1.00  0.00     0.049 A 
ATOM     50  H   UNL A   1      41.628  28.732  28.756  1.00  0.00     0.167 HD
ATOM     51  C   UNL A   1      45.497  27.978  26.832  1.00  0.00     0.034 A 
ATOM     52  C   UNL A   1      39.764  30.270  30.158  1.00  0.00     0.034 A 
ATOM     53  C   UNL A   1      45.566  29.333  27.306  1.00  0.00     0.049 A 
ATOM     54  C   UNL A   1      41.004  31.121  30.020  1.00  0.00     0.074 A 
ATOM     55  C   UNL A   1      46.610  30.233  27.182  1.00  0.00     0.029 A 
ATOM     56  N   UNL A   1      44.554  29.985  27.992  1.00  0.00    -0.354 N 
ATOM     57  N   UNL A   1      42.110  30.868  29.362  1.00  0.00    -0.248 NA
ATOM     58  C   UNL A   1      40.986  32.438  30.674  1.00  0.00     0.031 C 
ATOM     59  C   UNL A   1      46.236  31.423  27.810  1.00  0.00     0.029 A 
ATOM     60  C   UNL A   1      44.950  31.274  28.304  1.00  0.00     0.049 A 
ATOM     61  H   UNL A   1      43.682  29.591  28.223  1.00  0.00     0.167 HD
ATOM     62  C   UNL A   1      42.903  32.004  29.494  1.00  0.00     0.074 A 
ATOM     63  C   UNL A   1      42.140  32.955  30.275  1.00  0.00     0.031 C 
ATOM     64  C   UNL A   1      44.156  32.232  29.028  1.00  0.00     0.034 A 
BRANCH  51  65
ATOM     65  C   UNL A   1      46.671  27.445  26.054  1.00  0.00     0.023 A 
ATOM     66  C   UNL A   1      46.748  27.700  24.669  1.00  0.00     0.012 A 
ATOM     67  C   UNL A   1      47.741  26.793  26.698  1.00  0.00     0.148 A 
ATOM     68  C   UNL A   1      47.864  27.302  23.935  1.00  0.00     0.002 A 
ATOM     69  C   UNL A   1      48.868  26.437  25.967  1.00  0.00     0.091 A 
ATOM     70  F   UNL A   1      47.640  26.546  28.012  1.00  0.00    -0.205 F 
ATOM     71  C   UNL A   1      48.928  26.683  24.585  1.00  0.00     0.022 A 
BRANCH  69  72
ATOM     72  S   UNL A   1      50.328  25.708  26.719  1.00  0.00     0.127 S 
ATOM     73  O   UNL A   1      50.669  26.707  27.732  1.00  0.00    -0.237 OA
ATOM     74  O   UNL A   1      49.802  24.453  27.255  1.00  0.00    -0.237 OA
ATOM     75  O   UNL A   1      51.303  25.558  25.648  1.00  0.00    -0.744 OA
ENDBRANCH  69  72
ENDBRANCH  51  65
BRANCH  52  76
ATOM     76  C   UNL A   1      38.543  30.811  30.825  1.00  0.00     0.023 A 
ATOM     77  C   UNL A   1      38.421  30.707  32.225  1.00  0.00     0.012 A 
ATOM     78  C   UNL A   1      37.513  31.431  30.092  1.00  0.00     0.148 A 
ATOM     79  C   UNL A   1      37.284  31.184  32.878  1.00  0.00     0.002 A 
ATOM     80  C   UNL A   1      36.409  31.955  30.756  1.00  0.00     0.091 A 
ATOM     81  F   UNL A   1      37.634  31.501  28.758  1.00  0.00    -0.205 F 
ATOM     82  C   UNL A   1      36.283  31.816  32.147  1.00  0.00     0.022 A 
BRANCH  80  83
ATOM     83  S   UNL A   1      35.133  32.900  29.913  1.00  0.00     0.127 S 
ATOM     84  O   UNL A   1      34.233  33.236  31.013  1.00  0.00    -0.237 OA
ATOM     85  O   UNL A   1      35.898  34.027  29.376  1.00  0.00    -0.237 OA
ATOM     86  O   UNL A   1      34.588  32.008  28.899  1.00  0.00    -0.744 OA
ENDBRANCH  80  83
ENDBRANCH  52  76
BRANCH  64  87
ATOM     87  C   UNL A   1      44.793  33.567  29.320  1.00  0.00     0.023 A 
ATOM     88  C   UNL A   1      45.583  33.721  30.476  1.00  0.00     0.012 A 
ATOM     89  C   UNL A   1      44.715  34.623  28.389  1.00  0.00     0.148 A 
ATOM     90  C   UNL A   1      46.270  34.911  30.711  1.00  0.00     0.002 A 
ATOM     91  C   UNL A   1      45.444  35.786  28.605  1.00  0.00     0.091 A 
ATOM     92  F   UNL A   1      43.948  34.461  27.301  1.00  0.00    -0.205 F 
ATOM     93  C   UNL A   1      46.213  35.936  29.770  1.00  0.00     0.022 A 
BRANCH  91  94
ATOM     94  S   UNL A   1      45.523  37.120  27.401  1.00  0.00     0.127 S 
ATOM     95  O   UNL A   1      46.411  38.071  28.069  1.00  0.00    -0.237 OA
ATOM     96  O   UNL A   1      46.109  36.452  26.239  1.00  0.00    -0.237 OA
ATOM     97  O   UNL A   1      44.153  37.576  27.214  1.00  0.00    -0.744 OA
ENDBRANCH  91  94
ENDBRANCH  64  87
ENDBRANCH  38  39
ENDBRANCH  31  33
ENDBRANCH  30  31
ENDBRANCH  29  30
ENDBRANCH   1  29
TORSDOF 19
ENDMDL
