MODEL 1
REMARK VINA RESULT:     -11.1      0.000      0.000
REMARK SMILES CC(C)Nc1ncc(C(=O)N2CCC[C@H](c3cccc(C(=O)OCCOCCOC(=O)c4ccc(-c5c6nc(c(-c7cccc(S(=O)(=O)[O-])c7F)c7ccc([nH]7)c(-c7cccc(S(=O)(=O)[O-])c7F)c7nc(c(-c8cccc(S(=O)(=O)[O-])c8F)c8ccc5[nH]8)C=C7)C=C6)cc4)c3)C2)cn1
REMARK SMILES IDX 25 1 24 2 23 3 21 4 22 5 20 6 16 7 17 8 95 9 18 10 19 11
REMARK SMILES IDX 15 12 11 13 12 14 96 15 13 16 14 17 9 18 10 19 8 20 5 21
REMARK SMILES IDX 6 22 98 23 7 24 97 25 4 26 2 28 1 29 3 30 26 31 27 32 28 33
REMARK SMILES IDX 29 34 30 35 31 36 32 37 33 38 94 39 34 40 93 41 35 42 36 43
REMARK SMILES IDX 37 44 87 45 38 46 92 47 86 48 88 49 39 50 91 51 85 52 84 53
REMARK SMILES IDX 40 55 72 56 52 57 71 58 53 59 56 60 70 61 89 62 54 63 55 64
REMARK SMILES IDX 69 66 90 67 57 68 41 69 42 70 50 71 43 72 45 73 51 74 44 75
REMARK SMILES IDX 46 76 47 77 48 78 49 79 73 80 74 81 82 82 75 83 77 84 83 85
REMARK SMILES IDX 76 86 78 87 79 88 80 89 81 90 58 91 59 92 67 93 60 94 62 95
REMARK SMILES IDX 68 96 61 97 63 98 64 99 65 100 66 101
REMARK H PARENT 4 27 88 54 56 65
REMARK Flexibility Score: inf
ROOT
ATOM      1  C   UNL A   1      36.926  22.319  25.623  1.00  0.00     0.202 C 
ENDROOT
BRANCH   1   2
ATOM      2  C   UNL A   1      35.503  22.621  25.139  1.00  0.00     0.261 C 
BRANCH   2   3
ATOM      3  O   UNL A   1      34.837  23.537  26.021  1.00  0.00    -0.460 OA
BRANCH   3   4
ATOM      4  C   UNL A   1      33.881  22.990  26.808  1.00  0.00     0.338 C 
ATOM      5  O   UNL A   1      34.036  22.127  27.660  1.00  0.00    -0.246 OA
BRANCH   4   6
ATOM      6  C   UNL A   1      32.620  23.753  26.658  1.00  0.00     0.060 A 
ATOM      7  C   UNL A   1      31.370  25.822  26.287  1.00  0.00    -0.042 A 
ATOM      8  C   UNL A   1      30.187  25.085  26.470  1.00  0.00     0.004 A 
ATOM      9  C   UNL A   1      32.594  25.141  26.463  1.00  0.00     0.019 A 
ATOM     10  C   UNL A   1      30.213  23.707  26.698  1.00  0.00     0.001 A 
ATOM     11  C   UNL A   1      31.426  23.036  26.763  1.00  0.00     0.016 A 
BRANCH   7  12
ATOM     12  C   UNL A   1      31.353  27.304  25.875  1.00  0.00     0.039 C 
ATOM     13  N   UNL A   1      32.053  27.088  23.479  1.00  0.00    -0.338 N 
ATOM     14  C   UNL A   1      33.417  27.527  23.759  1.00  0.00     0.120 C 
ATOM     15  C   UNL A   1      31.001  27.584  24.384  1.00  0.00     0.128 C 
ATOM     16  C   UNL A   1      33.802  27.408  25.227  1.00  0.00     0.022 C 
ATOM     17  C   UNL A   1      32.715  27.996  26.132  1.00  0.00     0.012 C 
BRANCH  13  18
ATOM     18  C   UNL A   1      31.843  26.207  22.424  1.00  0.00     0.257 C 
ATOM     19  O   UNL A   1      31.455  26.557  21.312  1.00  0.00    -0.269 OA
BRANCH  18  20
ATOM     20  C   UNL A   1      31.964  24.764  22.664  1.00  0.00     0.076 A 
ATOM     21  C   UNL A   1      32.043  22.043  22.753  1.00  0.00     0.222 A 
ATOM     22  N   UNL A   1      30.916  22.657  23.142  1.00  0.00    -0.221 NA
ATOM     23  N   UNL A   1      33.141  22.692  22.334  1.00  0.00    -0.221 NA
ATOM     24  C   UNL A   1      30.901  24.007  23.093  1.00  0.00     0.130 A 
ATOM     25  C   UNL A   1      33.065  24.043  22.265  1.00  0.00     0.130 A 
BRANCH  21  26
ATOM     26  N   UNL A   1      31.993  20.678  22.785  1.00  0.00    -0.352 N 
ATOM     27  H   UNL A   1      31.302  20.217  22.257  1.00  0.00     0.163 HD
BRANCH  26  28
ATOM     28  C   UNL A   1      32.915  19.885  23.562  1.00  0.00     0.076 C 
ATOM     29  C   UNL A   1      32.590  20.100  25.041  1.00  0.00     0.030 C 
ATOM     30  C   UNL A   1      32.770  18.412  23.193  1.00  0.00     0.030 C 
ENDBRANCH  26  28
ENDBRANCH  21  26
ENDBRANCH  18  20
ENDBRANCH  13  18
ENDBRANCH   7  12
ENDBRANCH   4   6
ENDBRANCH   3   4
ENDBRANCH   2   3
ENDBRANCH   1   2
BRANCH   1  31
ATOM     31  O   UNL A   1      37.768  21.574  24.742  1.00  0.00    -0.374 OA
BRANCH  31  32
ATOM     32  C   UNL A   1      37.803  20.157  24.914  1.00  0.00     0.202 C 
BRANCH  32  33
ATOM     33  C   UNL A   1      39.065  19.547  25.535  1.00  0.00     0.261 C 
BRANCH  33  34
ATOM     34  O   UNL A   1      40.149  20.487  25.617  1.00  0.00    -0.460 OA
BRANCH  34  35
ATOM     35  C   UNL A   1      40.806  20.488  26.801  1.00  0.00     0.338 C 
ATOM     36  O   UNL A   1      41.316  19.528  27.362  1.00  0.00    -0.246 OA
BRANCH  35  37
ATOM     37  C   UNL A   1      40.998  21.872  27.267  1.00  0.00     0.060 A 
ATOM     38  C   UNL A   1      40.415  22.896  26.509  1.00  0.00     0.016 A 
ATOM     39  C   UNL A   1      41.786  22.171  28.380  1.00  0.00     0.016 A 
ATOM     40  C   UNL A   1      40.658  24.228  26.833  1.00  0.00     0.010 A 
ATOM     41  C   UNL A   1      42.034  23.509  28.699  1.00  0.00     0.010 A 
ATOM     42  C   UNL A   1      41.502  24.542  27.905  1.00  0.00    -0.014 A 
BRANCH  42  43
ATOM     43  C   UNL A   1      41.928  25.947  28.116  1.00  0.00     0.031 A 
ATOM     44  C   UNL A   1      43.325  26.355  27.737  1.00  0.00     0.074 A 
ATOM     45  C   UNL A   1      41.079  26.848  28.641  1.00  0.00     0.049 A 
ATOM     46  N   UNL A   1      43.912  27.515  27.867  1.00  0.00    -0.248 NA
ATOM     47  C   UNL A   1      44.176  25.315  27.133  1.00  0.00     0.031 C 
ATOM     48  C   UNL A   1      39.701  26.573  29.046  1.00  0.00     0.029 A 
ATOM     49  N   UNL A   1      41.263  28.173  28.948  1.00  0.00    -0.354 N 
ATOM     50  C   UNL A   1      45.208  27.340  27.396  1.00  0.00     0.074 A 
ATOM     51  C   UNL A   1      45.324  25.957  26.986  1.00  0.00     0.031 C 
ATOM     52  C   UNL A   1      39.173  27.688  29.576  1.00  0.00     0.029 A 
ATOM     53  C   UNL A   1      40.182  28.746  29.573  1.00  0.00     0.049 A 
ATOM     54  H   UNL A   1      42.090  28.666  28.738  1.00  0.00     0.167 HD
ATOM     55  C   UNL A   1      46.206  28.250  27.301  1.00  0.00     0.034 A 
ATOM     56  C   UNL A   1      40.034  29.974  30.109  1.00  0.00     0.034 A 
ATOM     57  C   UNL A   1      46.079  29.628  27.690  1.00  0.00     0.049 A 
ATOM     58  C   UNL A   1      41.166  30.962  30.010  1.00  0.00     0.074 A 
ATOM     59  C   UNL A   1      47.015  30.642  27.581  1.00  0.00     0.029 A 
ATOM     60  N   UNL A   1      44.956  30.185  28.281  1.00  0.00    -0.354 N 
ATOM     61  N   UNL A   1      42.345  30.815  29.454  1.00  0.00    -0.248 NA
ATOM     62  C   UNL A   1      40.936  32.298  30.581  1.00  0.00     0.031 C 
ATOM     63  C   UNL A   1      46.470  31.802  28.140  1.00  0.00     0.029 A 
ATOM     64  C   UNL A   1      45.179  31.523  28.559  1.00  0.00     0.049 A 
ATOM     65  H   UNL A   1      44.121  29.700  28.474  1.00  0.00     0.167 HD
ATOM     66  C   UNL A   1      42.981  32.047  29.574  1.00  0.00     0.074 A 
ATOM     67  C   UNL A   1      42.048  32.933  30.239  1.00  0.00     0.031 C 
ATOM     68  C   UNL A   1      44.227  32.409  29.178  1.00  0.00     0.034 A 
BRANCH  55  69
ATOM     69  C   UNL A   1      47.526  27.788  26.740  1.00  0.00     0.023 A 
ATOM     70  C   UNL A   1      48.545  27.349  27.610  1.00  0.00     0.012 A 
ATOM     71  C   UNL A   1      47.736  27.734  25.348  1.00  0.00     0.148 A 
ATOM     72  C   UNL A   1      49.762  26.895  27.105  1.00  0.00     0.002 A 
ATOM     73  C   UNL A   1      48.935  27.237  24.851  1.00  0.00     0.091 A 
ATOM     74  F   UNL A   1      46.764  28.177  24.538  1.00  0.00    -0.205 F 
ATOM     75  C   UNL A   1      49.953  26.828  25.728  1.00  0.00     0.022 A 
BRANCH  73  76
ATOM     76  S   UNL A   1      49.246  27.036  23.093  1.00  0.00     0.127 S 
ATOM     77  O   UNL A   1      50.613  26.517  23.094  1.00  0.00    -0.237 OA
ATOM     78  O   UNL A   1      48.223  26.063  22.710  1.00  0.00    -0.237 OA
ATOM     79  O   UNL A   1      49.081  28.357  22.502  1.00  0.00    -0.744 OA
ENDBRANCH  73  76
ENDBRANCH  55  69
BRANCH  56  80
ATOM     80  C   UNL A   1      38.751  30.346  30.770  1.00  0.00     0.023 A 
ATOM     81  C   UNL A   1      38.562  30.066  32.137  1.00  0.00     0.012 A 
ATOM     82  C   UNL A   1      37.725  30.992  30.052  1.00  0.00     0.148 A 
ATOM     83  C   UNL A   1      37.362  30.392  32.769  1.00  0.00     0.002 A 
ATOM     84  C   UNL A   1      36.556  31.366  30.702  1.00  0.00     0.091 A 
ATOM     85  F   UNL A   1      37.920  31.236  28.749  1.00  0.00    -0.205 F 
ATOM     86  C   UNL A   1      36.364  31.051  32.055  1.00  0.00     0.022 A 
BRANCH  84  87
ATOM     87  S   UNL A   1      35.275  32.334  29.896  1.00  0.00     0.127 S 
ATOM     88  O   UNL A   1      34.316  32.523  30.981  1.00  0.00    -0.237 OA
ATOM     89  O   UNL A   1      36.010  33.537  29.504  1.00  0.00    -0.237 OA
ATOM     90  O   UNL A   1      34.811  31.523  28.778  1.00  0.00    -0.744 OA
ENDBRANCH  84  87
ENDBRANCH  56  80
BRANCH  68  91
ATOM     91  C   UNL A   1      44.651  33.837  29.409  1.00  0.00     0.023 A 
ATOM     92  C   UNL A   1      45.209  34.217  30.645  1.00  0.00     0.012 A 
ATOM     93  C   UNL A   1      44.561  34.785  28.370  1.00  0.00     0.148 A 
ATOM     94  C   UNL A   1      45.640  35.527  30.855  1.00  0.00     0.002 A 
ATOM     95  C   UNL A   1      45.041  36.074  28.569  1.00  0.00     0.091 A 
ATOM     96  F   UNL A   1      44.012  34.410  27.206  1.00  0.00    -0.205 F 
ATOM     97  C   UNL A   1      45.568  36.451  29.815  1.00  0.00     0.022 A 
BRANCH  95  98
ATOM     98  S   UNL A   1      45.081  37.302  27.258  1.00  0.00     0.127 S 
ATOM     99  O   UNL A   1      45.877  36.622  26.238  1.00  0.00    -0.237 OA
ATOM    100  O   UNL A   1      43.664  37.448  26.928  1.00  0.00    -0.237 OA
ATOM    101  O   UNL A   1      45.694  38.489  27.838  1.00  0.00    -0.744 OA
ENDBRANCH  95  98
ENDBRANCH  68  91
ENDBRANCH  42  43
ENDBRANCH  35  37
ENDBRANCH  34  35
ENDBRANCH  33  34
ENDBRANCH  32  33
ENDBRANCH  31  32
ENDBRANCH   1  31
TORSDOF 22
ENDMDL
MODEL 2
REMARK VINA RESULT:     -10.8      4.880      6.834
REMARK SMILES CC(C)Nc1ncc(C(=O)N2CCC[C@H](c3cccc(C(=O)OCCOCCOC(=O)c4ccc(-c5c6nc(c(-c7cccc(S(=O)(=O)[O-])c7F)c7ccc([nH]7)c(-c7cccc(S(=O)(=O)[O-])c7F)c7nc(c(-c8cccc(S(=O)(=O)[O-])c8F)c8ccc5[nH]8)C=C7)C=C6)cc4)c3)C2)cn1
REMARK SMILES IDX 25 1 24 2 23 3 21 4 22 5 20 6 16 7 17 8 95 9 18 10 19 11
REMARK SMILES IDX 15 12 11 13 12 14 96 15 13 16 14 17 9 18 10 19 8 20 5 21
REMARK SMILES IDX 6 22 98 23 7 24 97 25 4 26 2 28 1 29 3 30 26 31 27 32 28 33
REMARK SMILES IDX 29 34 30 35 31 36 32 37 33 38 94 39 34 40 93 41 35 42 36 43
REMARK SMILES IDX 37 44 87 45 38 46 92 47 86 48 88 49 39 50 91 51 85 52 84 53
REMARK SMILES IDX 40 55 72 56 52 57 71 58 53 59 56 60 70 61 89 62 54 63 55 64
REMARK SMILES IDX 69 66 90 67 57 68 41 69 42 70 50 71 43 72 45 73 51 74 44 75
REMARK SMILES IDX 46 76 47 77 48 78 49 79 73 80 74 81 82 82 75 83 77 84 83 85
REMARK SMILES IDX 76 86 78 87 79 88 80 89 81 90 58 91 59 92 67 93 60 94 62 95
REMARK SMILES IDX 68 96 61 97 63 98 64 99 65 100 66 101
REMARK H PARENT 4 27 88 54 56 65
REMARK Flexibility Score: inf
ROOT
ATOM      1  C   UNL A   1      40.449  21.420  27.124  1.00  0.00     0.202 C 
ENDROOT
BRANCH   1   2
ATOM      2  C   UNL A   1      39.745  21.775  25.809  1.00  0.00     0.261 C 
BRANCH   2   3
ATOM      3  O   UNL A   1      38.347  22.024  26.019  1.00  0.00    -0.460 OA
BRANCH   3   4
ATOM      4  C   UNL A   1      37.997  23.330  26.087  1.00  0.00     0.338 C 
ATOM      5  O   UNL A   1      38.626  24.233  26.620  1.00  0.00    -0.246 OA
BRANCH   4   6
ATOM      6  C   UNL A   1      36.826  23.575  25.212  1.00  0.00     0.060 A 
ATOM      7  C   UNL A   1      34.774  24.766  24.622  1.00  0.00    -0.042 A 
ATOM      8  C   UNL A   1      34.632  23.887  23.533  1.00  0.00     0.004 A 
ATOM      9  C   UNL A   1      35.853  24.540  25.503  1.00  0.00     0.019 A 
ATOM     10  C   UNL A   1      35.584  22.902  23.261  1.00  0.00     0.001 A 
ATOM     11  C   UNL A   1      36.695  22.764  24.082  1.00  0.00     0.016 A 
BRANCH   7  12
ATOM     12  C   UNL A   1      33.823  25.955  24.840  1.00  0.00     0.039 C 
ATOM     13  N   UNL A   1      31.763  24.725  25.565  1.00  0.00    -0.338 N 
ATOM     14  C   UNL A   1      31.120  24.881  24.263  1.00  0.00     0.120 C 
ATOM     15  C   UNL A   1      32.743  25.759  25.946  1.00  0.00     0.128 C 
ATOM     16  C   UNL A   1      32.097  25.207  23.141  1.00  0.00     0.022 C 
ATOM     17  C   UNL A   1      33.052  26.330  23.549  1.00  0.00     0.012 C 
BRANCH  13  18
ATOM     18  C   UNL A   1      31.451  23.606  26.329  1.00  0.00     0.257 C 
ATOM     19  O   UNL A   1      30.688  23.629  27.290  1.00  0.00    -0.269 OA
BRANCH  18  20
ATOM     20  C   UNL A   1      32.157  22.345  26.068  1.00  0.00     0.076 A 
ATOM     21  C   UNL A   1      33.657  20.203  25.307  1.00  0.00     0.222 A 
ATOM     22  N   UNL A   1      32.499  20.424  24.668  1.00  0.00    -0.221 NA
ATOM     23  N   UNL A   1      34.116  20.969  26.310  1.00  0.00    -0.221 NA
ATOM     24  C   UNL A   1      31.770  21.490  25.064  1.00  0.00     0.130 A 
ATOM     25  C   UNL A   1      33.369  22.049  26.646  1.00  0.00     0.130 A 
BRANCH  21  26
ATOM     26  N   UNL A   1      34.374  19.137  24.843  1.00  0.00    -0.352 N 
ATOM     27  H   UNL A   1      35.335  19.253  24.666  1.00  0.00     0.163 HD
BRANCH  26  28
ATOM     28  C   UNL A   1      33.777  17.844  24.603  1.00  0.00     0.076 C 
ATOM     29  C   UNL A   1      33.096  17.888  23.235  1.00  0.00     0.030 C 
ATOM     30  C   UNL A   1      34.852  16.764  24.630  1.00  0.00     0.030 C 
ENDBRANCH  26  28
ENDBRANCH  21  26
ENDBRANCH  18  20
ENDBRANCH  13  18
ENDBRANCH   7  12
ENDBRANCH   4   6
ENDBRANCH   3   4
ENDBRANCH   2   3
ENDBRANCH   1   2
BRANCH   1  31
ATOM     31  O   UNL A   1      41.613  20.597  27.037  1.00  0.00    -0.374 OA
BRANCH  31  32
ATOM     32  C   UNL A   1      42.396  20.696  25.847  1.00  0.00     0.202 C 
BRANCH  32  33
ATOM     33  C   UNL A   1      43.389  21.860  25.745  1.00  0.00     0.261 C 
BRANCH  33  34
ATOM     34  O   UNL A   1      42.782  23.061  25.240  1.00  0.00    -0.460 OA
BRANCH  34  35
ATOM     35  C   UNL A   1      43.607  24.133  25.195  1.00  0.00     0.338 C 
ATOM     36  O   UNL A   1      44.322  24.476  24.264  1.00  0.00    -0.246 OA
BRANCH  35  37
ATOM     37  C   UNL A   1      43.397  24.977  26.384  1.00  0.00     0.060 A 
ATOM     38  C   UNL A   1      42.567  24.475  27.395  1.00  0.00     0.016 A 
ATOM     39  C   UNL A   1      43.944  26.258  26.484  1.00  0.00     0.016 A 
ATOM     40  C   UNL A   1      42.239  25.273  28.488  1.00  0.00     0.010 A 
ATOM     41  C   UNL A   1      43.608  27.059  27.579  1.00  0.00     0.010 A 
ATOM     42  C   UNL A   1      42.724  26.584  28.566  1.00  0.00    -0.014 A 
BRANCH  42  43
ATOM     43  C   UNL A   1      42.207  27.497  29.614  1.00  0.00     0.031 A 
ATOM     44  C   UNL A   1      42.857  27.501  30.969  1.00  0.00     0.074 A 
ATOM     45  C   UNL A   1      41.169  28.313  29.358  1.00  0.00     0.049 A 
ATOM     46  N   UNL A   1      42.545  28.191  32.035  1.00  0.00    -0.248 NA
ATOM     47  C   UNL A   1      44.012  26.606  31.151  1.00  0.00     0.031 C 
ATOM     48  C   UNL A   1      40.457  28.400  28.084  1.00  0.00     0.029 A 
ATOM     49  N   UNL A   1      40.515  29.204  30.172  1.00  0.00    -0.354 N 
ATOM     50  C   UNL A   1      43.438  27.791  33.022  1.00  0.00     0.074 A 
ATOM     51  C   UNL A   1      44.299  26.789  32.430  1.00  0.00     0.031 C 
ATOM     52  C   UNL A   1      39.446  29.275  28.209  1.00  0.00     0.029 A 
ATOM     53  C   UNL A   1      39.421  29.788  29.578  1.00  0.00     0.049 A 
ATOM     54  H   UNL A   1      40.802  29.407  31.091  1.00  0.00     0.167 HD
ATOM     55  C   UNL A   1      43.541  28.226  34.299  1.00  0.00     0.034 A 
ATOM     56  C   UNL A   1      38.490  30.618  30.089  1.00  0.00     0.034 A 
ATOM     57  C   UNL A   1      42.696  29.237  34.877  1.00  0.00     0.049 A 
ATOM     58  C   UNL A   1      38.614  31.072  31.520  1.00  0.00     0.074 A 
ATOM     59  C   UNL A   1      42.757  29.786  36.145  1.00  0.00     0.029 A 
ATOM     60  N   UNL A   1      41.625  29.837  34.233  1.00  0.00    -0.354 N 
ATOM     61  N   UNL A   1      39.535  30.774  32.404  1.00  0.00    -0.248 NA
ATOM     62  C   UNL A   1      37.589  32.004  32.014  1.00  0.00     0.031 C 
ATOM     63  C   UNL A   1      41.700  30.692  36.281  1.00  0.00     0.029 A 
ATOM     64  C   UNL A   1      41.006  30.738  35.082  1.00  0.00     0.049 A 
ATOM     65  H   UNL A   1      41.347  29.650  33.307  1.00  0.00     0.167 HD
ATOM     66  C   UNL A   1      39.224  31.509  33.544  1.00  0.00     0.074 A 
ATOM     67  C   UNL A   1      38.039  32.281  33.229  1.00  0.00     0.031 C 
ATOM     68  C   UNL A   1      39.855  31.537  34.744  1.00  0.00     0.034 A 
BRANCH  55  69
ATOM     69  C   UNL A   1      44.617  27.621  35.163  1.00  0.00     0.023 A 
ATOM     70  C   UNL A   1      45.831  28.309  35.358  1.00  0.00     0.012 A 
ATOM     71  C   UNL A   1      44.402  26.397  35.827  1.00  0.00     0.148 A 
ATOM     72  C   UNL A   1      46.827  27.774  36.175  1.00  0.00     0.002 A 
ATOM     73  C   UNL A   1      45.380  25.892  36.675  1.00  0.00     0.091 A 
ATOM     74  F   UNL A   1      43.250  25.747  35.610  1.00  0.00    -0.205 F 
ATOM     75  C   UNL A   1      46.597  26.573  36.841  1.00  0.00     0.022 A 
BRANCH  73  76
ATOM     76  S   UNL A   1      45.147  24.395  37.640  1.00  0.00     0.127 S 
ATOM     77  O   UNL A   1      46.413  24.313  38.366  1.00  0.00    -0.237 OA
ATOM     78  O   UNL A   1      43.990  24.739  38.466  1.00  0.00    -0.237 OA
ATOM     79  O   UNL A   1      44.911  23.328  36.676  1.00  0.00    -0.744 OA
ENDBRANCH  73  76
ENDBRANCH  55  69
BRANCH  56  80
ATOM     80  C   UNL A   1      37.367  31.091  29.232  1.00  0.00     0.023 A 
ATOM     81  C   UNL A   1      37.345  32.426  28.783  1.00  0.00     0.012 A 
ATOM     82  C   UNL A   1      36.331  30.219  28.845  1.00  0.00     0.148 A 
ATOM     83  C   UNL A   1      36.294  32.892  27.993  1.00  0.00     0.002 A 
ATOM     84  C   UNL A   1      35.318  30.674  28.010  1.00  0.00     0.091 A 
ATOM     85  F   UNL A   1      36.363  28.957  29.295  1.00  0.00    -0.205 F 
ATOM     86  C   UNL A   1      35.288  32.015  27.598  1.00  0.00     0.022 A 
BRANCH  84  87
ATOM     87  S   UNL A   1      34.056  29.582  27.345  1.00  0.00     0.127 S 
ATOM     88  O   UNL A   1      34.069  28.487  28.311  1.00  0.00    -0.237 OA
ATOM     89  O   UNL A   1      32.867  30.433  27.393  1.00  0.00    -0.237 OA
ATOM     90  O   UNL A   1      34.497  29.242  25.999  1.00  0.00    -0.744 OA
ENDBRANCH  84  87
ENDBRANCH  56  80
BRANCH  68  91
ATOM     91  C   UNL A   1      39.311  32.461  35.803  1.00  0.00     0.023 A 
ATOM     92  C   UNL A   1      38.346  31.998  36.718  1.00  0.00     0.012 A 
ATOM     93  C   UNL A   1      39.816  33.771  35.935  1.00  0.00     0.148 A 
ATOM     94  C   UNL A   1      37.865  32.833  37.726  1.00  0.00     0.002 A 
ATOM     95  C   UNL A   1      39.371  34.580  36.974  1.00  0.00     0.091 A 
ATOM     96  F   UNL A   1      40.722  34.201  35.046  1.00  0.00    -0.205 F 
ATOM     97  C   UNL A   1      38.386  34.118  37.862  1.00  0.00     0.022 A 
BRANCH  95  98
ATOM     98  S   UNL A   1      40.056  36.211  37.287  1.00  0.00     0.127 S 
ATOM     99  O   UNL A   1      41.404  35.884  37.750  1.00  0.00    -0.237 OA
ATOM    100  O   UNL A   1      40.000  36.830  35.963  1.00  0.00    -0.237 OA
ATOM    101  O   UNL A   1      39.188  36.827  38.281  1.00  0.00    -0.744 OA
ENDBRANCH  95  98
ENDBRANCH  68  91
ENDBRANCH  42  43
ENDBRANCH  35  37
ENDBRANCH  34  35
ENDBRANCH  33  34
ENDBRANCH  32  33
ENDBRANCH  31  32
ENDBRANCH   1  31
TORSDOF 22
ENDMDL
MODEL 3
REMARK VINA RESULT:     -10.7      2.550      3.884
REMARK SMILES CC(C)Nc1ncc(C(=O)N2CCC[C@H](c3cccc(C(=O)OCCOCCOC(=O)c4ccc(-c5c6nc(c(-c7cccc(S(=O)(=O)[O-])c7F)c7ccc([nH]7)c(-c7cccc(S(=O)(=O)[O-])c7F)c7nc(c(-c8cccc(S(=O)(=O)[O-])c8F)c8ccc5[nH]8)C=C7)C=C6)cc4)c3)C2)cn1
REMARK SMILES IDX 25 1 24 2 23 3 21 4 22 5 20 6 16 7 17 8 95 9 18 10 19 11
REMARK SMILES IDX 15 12 11 13 12 14 96 15 13 16 14 17 9 18 10 19 8 20 5 21
REMARK SMILES IDX 6 22 98 23 7 24 97 25 4 26 2 28 1 29 3 30 26 31 27 32 28 33
REMARK SMILES IDX 29 34 30 35 31 36 32 37 33 38 94 39 34 40 93 41 35 42 36 43
REMARK SMILES IDX 37 44 87 45 38 46 92 47 86 48 88 49 39 50 91 51 85 52 84 53
REMARK SMILES IDX 40 55 72 56 52 57 71 58 53 59 56 60 70 61 89 62 54 63 55 64
REMARK SMILES IDX 69 66 90 67 57 68 41 69 42 70 50 71 43 72 45 73 51 74 44 75
REMARK SMILES IDX 46 76 47 77 48 78 49 79 73 80 74 81 82 82 75 83 77 84 83 85
REMARK SMILES IDX 76 86 78 87 79 88 80 89 81 90 58 91 59 92 67 93 60 94 62 95
REMARK SMILES IDX 68 96 61 97 63 98 64 99 65 100 66 101
REMARK H PARENT 4 27 88 54 56 65
REMARK Flexibility Score: inf
ROOT
ATOM      1  C   UNL A   1      40.559  21.812  27.408  1.00  0.00     0.202 C 
ENDROOT
BRANCH   1   2
ATOM      2  C   UNL A   1      39.875  21.844  26.036  1.00  0.00     0.261 C 
BRANCH   2   3
ATOM      3  O   UNL A   1      38.460  22.049  26.166  1.00  0.00    -0.460 OA
BRANCH   3   4
ATOM      4  C   UNL A   1      38.061  23.342  26.166  1.00  0.00     0.338 C 
ATOM      5  O   UNL A   1      38.645  24.291  26.670  1.00  0.00    -0.246 OA
BRANCH   4   6
ATOM      6  C   UNL A   1      36.903  23.503  25.256  1.00  0.00     0.060 A 
ATOM      7  C   UNL A   1      34.864  24.637  24.524  1.00  0.00    -0.042 A 
ATOM      8  C   UNL A   1      34.732  23.656  23.526  1.00  0.00     0.004 A 
ATOM      9  C   UNL A   1      35.931  24.496  25.438  1.00  0.00     0.019 A 
ATOM     10  C   UNL A   1      35.684  22.646  23.365  1.00  0.00     0.001 A 
ATOM     11  C   UNL A   1      36.783  22.586  24.209  1.00  0.00     0.016 A 
BRANCH   7  12
ATOM     12  C   UNL A   1      33.916  25.845  24.612  1.00  0.00     0.039 C 
ATOM     13  N   UNL A   1      31.848  24.703  25.449  1.00  0.00    -0.338 N 
ATOM     14  C   UNL A   1      31.213  24.724  24.134  1.00  0.00     0.120 C 
ATOM     15  C   UNL A   1      32.829  25.768  25.726  1.00  0.00     0.128 C 
ATOM     16  C   UNL A   1      32.196  24.928  22.991  1.00  0.00     0.022 C 
ATOM     17  C   UNL A   1      33.154  26.086  23.285  1.00  0.00     0.012 C 
BRANCH  13  18
ATOM     18  C   UNL A   1      31.529  23.670  26.324  1.00  0.00     0.257 C 
ATOM     19  O   UNL A   1      30.846  23.820  27.334  1.00  0.00    -0.269 OA
BRANCH  18  20
ATOM     20  C   UNL A   1      32.133  22.348  26.117  1.00  0.00     0.076 A 
ATOM     21  C   UNL A   1      33.413  20.050  25.415  1.00  0.00     0.222 A 
ATOM     22  N   UNL A   1      32.191  20.272  24.912  1.00  0.00    -0.221 NA
ATOM     23  N   UNL A   1      34.040  20.888  26.255  1.00  0.00    -0.221 NA
ATOM     24  C   UNL A   1      31.573  21.417  25.276  1.00  0.00     0.130 A 
ATOM     25  C   UNL A   1      33.398  22.042  26.562  1.00  0.00     0.130 A 
BRANCH  21  26
ATOM     26  N   UNL A   1      34.009  18.898  24.985  1.00  0.00    -0.352 N 
ATOM     27  H   UNL A   1      34.991  18.871  24.915  1.00  0.00     0.163 HD
BRANCH  26  28
ATOM     28  C   UNL A   1      33.256  17.719  24.629  1.00  0.00     0.076 C 
ATOM     29  C   UNL A   1      33.369  17.528  23.116  1.00  0.00     0.030 C 
ATOM     30  C   UNL A   1      33.816  16.505  25.364  1.00  0.00     0.030 C 
ENDBRANCH  26  28
ENDBRANCH  21  26
ENDBRANCH  18  20
ENDBRANCH  13  18
ENDBRANCH   7  12
ENDBRANCH   4   6
ENDBRANCH   3   4
ENDBRANCH   2   3
ENDBRANCH   1   2
BRANCH   1  31
ATOM     31  O   UNL A   1      41.587  20.838  27.600  1.00  0.00    -0.374 OA
BRANCH  31  32
ATOM     32  C   UNL A   1      41.381  19.548  27.023  1.00  0.00     0.202 C 
BRANCH  32  33
ATOM     33  C   UNL A   1      42.573  18.882  26.326  1.00  0.00     0.261 C 
BRANCH  33  34
ATOM     34  O   UNL A   1      42.806  19.407  25.009  1.00  0.00    -0.460 OA
BRANCH  34  35
ATOM     35  C   UNL A   1      44.110  19.609  24.705  1.00  0.00     0.338 C 
ATOM     36  O   UNL A   1      44.868  18.825  24.151  1.00  0.00    -0.246 OA
BRANCH  35  37
ATOM     37  C   UNL A   1      44.476  21.011  24.970  1.00  0.00     0.060 A 
ATOM     38  C   UNL A   1      45.170  21.284  26.156  1.00  0.00     0.016 A 
ATOM     39  C   UNL A   1      44.094  22.046  24.115  1.00  0.00     0.016 A 
ATOM     40  C   UNL A   1      45.441  22.601  26.518  1.00  0.00     0.010 A 
ATOM     41  C   UNL A   1      44.362  23.367  24.483  1.00  0.00     0.010 A 
ATOM     42  C   UNL A   1      45.002  23.652  25.703  1.00  0.00    -0.014 A 
BRANCH  42  43
ATOM     43  C   UNL A   1      45.103  25.050  26.191  1.00  0.00     0.031 A 
ATOM     44  C   UNL A   1      46.418  25.771  26.083  1.00  0.00     0.074 A 
ATOM     45  C   UNL A   1      44.034  25.667  26.723  1.00  0.00     0.049 A 
ATOM     46  N   UNL A   1      46.735  26.977  26.476  1.00  0.00    -0.248 NA
ATOM     47  C   UNL A   1      47.526  25.034  25.452  1.00  0.00     0.031 C 
ATOM     48  C   UNL A   1      42.707  25.073  26.879  1.00  0.00     0.029 A 
ATOM     49  N   UNL A   1      43.905  26.925  27.257  1.00  0.00    -0.354 N 
ATOM     50  C   UNL A   1      48.083  27.132  26.173  1.00  0.00     0.074 A 
ATOM     51  C   UNL A   1      48.526  25.893  25.573  1.00  0.00     0.031 C 
ATOM     52  C   UNL A   1      41.904  25.956  27.496  1.00  0.00     0.029 A 
ATOM     53  C   UNL A   1      42.667  27.165  27.804  1.00  0.00     0.049 A 
ATOM     54  H   UNL A   1      44.630  27.592  27.248  1.00  0.00     0.167 HD
ATOM     55  C   UNL A   1      48.875  28.213  26.366  1.00  0.00     0.034 A 
ATOM     56  C   UNL A   1      42.211  28.226  28.499  1.00  0.00     0.034 A 
ATOM     57  C   UNL A   1      48.424  29.450  26.944  1.00  0.00     0.049 A 
ATOM     58  C   UNL A   1      43.119  29.408  28.718  1.00  0.00     0.074 A 
ATOM     59  C   UNL A   1      49.137  30.622  27.130  1.00  0.00     0.029 A 
ATOM     60  N   UNL A   1      47.153  29.672  27.449  1.00  0.00    -0.354 N 
ATOM     61  N   UNL A   1      44.356  29.585  28.320  1.00  0.00    -0.248 NA
ATOM     62  C   UNL A   1      42.557  30.552  29.452  1.00  0.00     0.031 C 
ATOM     63  C   UNL A   1      48.306  31.540  27.780  1.00  0.00     0.029 A 
ATOM     64  C   UNL A   1      47.063  30.956  27.961  1.00  0.00     0.049 A 
ATOM     65  H   UNL A   1      46.420  29.014  27.442  1.00  0.00     0.167 HD
ATOM     66  C   UNL A   1      44.707  30.870  28.721  1.00  0.00     0.074 A 
ATOM     67  C   UNL A   1      43.544  31.433  29.377  1.00  0.00     0.031 C 
ATOM     68  C   UNL A   1      45.886  31.522  28.569  1.00  0.00     0.034 A 
BRANCH  55  69
ATOM     69  C   UNL A   1      50.316  28.113  25.934  1.00  0.00     0.023 A 
ATOM     70  C   UNL A   1      50.676  28.438  24.610  1.00  0.00     0.012 A 
ATOM     71  C   UNL A   1      51.318  27.753  26.854  1.00  0.00     0.148 A 
ATOM     72  C   UNL A   1      52.008  28.374  24.202  1.00  0.00     0.002 A 
ATOM     73  C   UNL A   1      52.648  27.737  26.453  1.00  0.00     0.091 A 
ATOM     74  F   UNL A   1      50.952  27.426  28.102  1.00  0.00    -0.205 F 
ATOM     75  C   UNL A   1      52.994  28.036  25.125  1.00  0.00     0.022 A 
BRANCH  73  76
ATOM     76  S   UNL A   1      53.998  27.391  27.586  1.00  0.00     0.127 S 
ATOM     77  O   UNL A   1      53.692  26.023  28.001  1.00  0.00    -0.237 OA
ATOM     78  O   UNL A   1      55.169  27.518  26.718  1.00  0.00    -0.237 OA
ATOM     79  O   UNL A   1      53.909  28.396  28.637  1.00  0.00    -0.744 OA
ENDBRANCH  73  76
ENDBRANCH  55  69
BRANCH  56  80
ATOM     80  C   UNL A   1      40.815  28.228  29.020  1.00  0.00     0.023 A 
ATOM     81  C   UNL A   1      40.501  27.494  30.179  1.00  0.00     0.012 A 
ATOM     82  C   UNL A   1      39.802  28.968  28.378  1.00  0.00     0.148 A 
ATOM     83  C   UNL A   1      39.196  27.470  30.673  1.00  0.00     0.002 A 
ATOM     84  C   UNL A   1      38.518  28.987  28.908  1.00  0.00     0.091 A 
ATOM     85  F   UNL A   1      40.119  29.647  27.268  1.00  0.00    -0.205 F 
ATOM     86  C   UNL A   1      38.209  28.225  30.045  1.00  0.00     0.022 A 
BRANCH  84  87
ATOM     87  S   UNL A   1      37.219  30.033  28.243  1.00  0.00     0.127 S 
ATOM     88  O   UNL A   1      37.667  31.362  28.651  1.00  0.00    -0.237 OA
ATOM     89  O   UNL A   1      37.318  29.761  26.809  1.00  0.00    -0.237 OA
ATOM     90  O   UNL A   1      35.983  29.568  28.858  1.00  0.00    -0.744 OA
ENDBRANCH  84  87
ENDBRANCH  56  80
BRANCH  68  91
ATOM     91  C   UNL A   1      45.978  32.938  29.079  1.00  0.00     0.023 A 
ATOM     92  C   UNL A   1      46.377  33.186  30.407  1.00  0.00     0.012 A 
ATOM     93  C   UNL A   1      45.738  34.025  28.215  1.00  0.00     0.148 A 
ATOM     94  C   UNL A   1      46.503  34.494  30.877  1.00  0.00     0.002 A 
ATOM     95  C   UNL A   1      45.916  35.324  28.675  1.00  0.00     0.091 A 
ATOM     96  F   UNL A   1      45.342  33.770  26.960  1.00  0.00    -0.205 F 
ATOM     97  C   UNL A   1      46.285  35.561  30.009  1.00  0.00     0.022 A 
BRANCH  95  98
ATOM     98  S   UNL A   1      45.755  36.758  27.603  1.00  0.00     0.127 S 
ATOM     99  O   UNL A   1      44.321  36.752  27.313  1.00  0.00    -0.237 OA
ATOM    100  O   UNL A   1      46.196  37.846  28.474  1.00  0.00    -0.237 OA
ATOM    101  O   UNL A   1      46.623  36.506  26.461  1.00  0.00    -0.744 OA
ENDBRANCH  95  98
ENDBRANCH  68  91
ENDBRANCH  42  43
ENDBRANCH  35  37
ENDBRANCH  34  35
ENDBRANCH  33  34
ENDBRANCH  32  33
ENDBRANCH  31  32
ENDBRANCH   1  31
TORSDOF 22
ENDMDL
