MODEL 1
REMARK VINA RESULT:     -12.2      0.000      0.000
REMARK SMILES Cc1cccc(O[C@H](C)C(=O)N2CCC[C@@H](C(=O)OCCOCCOC(=O)c3ccc(-c4c5nc(c(-c6cccc(S(=O)(=O)[O-])c6F)c6ccc([nH]6)c(-c6cccc(S(=O)(=O)[O-])c6F)c6nc(c(-c7cccc(S(=O)(=O)[O-])c7F)c7ccc4[nH]7)C=C6)C=C5)cc3)C2)c1
REMARK SMILES IDX 21 1 20 2 19 3 17 4 18 5 16 6 12 7 13 8 91 9 14 10 15 11
REMARK SMILES IDX 10 12 11 13 8 14 9 15 7 16 6 17 1 18 2 19 3 20 92 21 4 22
REMARK SMILES IDX 5 23 22 24 23 25 24 26 25 27 26 28 27 29 28 30 29 31 90 32
REMARK SMILES IDX 30 33 89 34 31 35 32 36 33 37 83 38 34 39 88 40 82 41 84 42
REMARK SMILES IDX 35 43 87 44 81 45 80 46 36 48 68 49 48 50 67 51 49 52 52 53
REMARK SMILES IDX 66 54 85 55 50 56 51 57 65 59 86 60 53 61 37 62 38 63 46 64
REMARK SMILES IDX 39 65 41 66 47 67 40 68 42 69 43 70 44 71 45 72 69 73 70 74
REMARK SMILES IDX 78 75 71 76 73 77 79 78 72 79 74 80 75 81 76 82 77 83 54 84
REMARK SMILES IDX 55 85 63 86 56 87 58 88 64 89 57 90 59 91 60 92 61 93 62 94
REMARK H PARENT 84 47 52 58
REMARK Flexibility Score: inf
ROOT
ATOM      1  C   UNL A   1      32.009  27.251  22.088  1.00  0.00     0.202 C 
ENDROOT
BRANCH   1   2
ATOM      2  C   UNL A   1      32.159  25.769  21.914  1.00  0.00     0.261 C 
BRANCH   2   3
ATOM      3  O   UNL A   1      32.512  25.079  23.143  1.00  0.00    -0.463 OA
BRANCH   3   4
ATOM      4  C   UNL A   1      31.699  24.134  23.720  1.00  0.00     0.310 C 
ATOM      5  O   UNL A   1      30.582  23.812  23.397  1.00  0.00    -0.252 OA
BRANCH   4   6
ATOM      6  C   UNL A   1      32.440  23.445  24.830  1.00  0.00     0.119 C 
ATOM      7  N   UNL A   1      34.508  23.544  26.096  1.00  0.00    -0.339 N 
ATOM      8  C   UNL A   1      33.832  23.196  27.342  1.00  0.00     0.119 C 
ATOM      9  C   UNL A   1      33.706  24.244  25.133  1.00  0.00     0.134 C 
ATOM     10  C   UNL A   1      32.482  22.502  27.130  1.00  0.00     0.022 C 
ATOM     11  C   UNL A   1      31.614  23.221  26.090  1.00  0.00     0.019 C 
BRANCH   7  12
ATOM     12  C   UNL A   1      35.758  23.062  25.778  1.00  0.00     0.263 C 
ATOM     13  O   UNL A   1      36.770  23.741  25.977  1.00  0.00    -0.271 OA
BRANCH  12  14
ATOM     14  C   UNL A   1      35.872  21.661  25.087  1.00  0.00     0.259 C 
ATOM     15  C   UNL A   1      37.292  21.224  24.718  1.00  0.00     0.064 C 
BRANCH  14  16
ATOM     16  O   UNL A   1      34.858  20.705  25.411  1.00  0.00    -0.481 OA
BRANCH  16  17
ATOM     17  C   UNL A   1      34.059  19.965  24.604  1.00  0.00     0.120 A 
ATOM     18  C   UNL A   1      34.015  16.263  23.627  1.00  0.00     0.044 C 
ATOM     19  C   UNL A   1      33.624  17.704  23.753  1.00  0.00    -0.047 A 
ATOM     20  C   UNL A   1      32.495  18.164  23.076  1.00  0.00     0.003 A 
ATOM     21  C   UNL A   1      34.401  18.612  24.501  1.00  0.00     0.049 A 
ATOM     22  C   UNL A   1      32.145  19.499  23.169  1.00  0.00     0.004 A 
ATOM     23  C   UNL A   1      32.918  20.372  23.943  1.00  0.00     0.046 A 
ENDBRANCH  16  17
ENDBRANCH  14  16
ENDBRANCH  12  14
ENDBRANCH   7  12
ENDBRANCH   4   6
ENDBRANCH   3   4
ENDBRANCH   2   3
ENDBRANCH   1   2
BRANCH   1  24
ATOM     24  O   UNL A   1      30.643  27.585  22.040  1.00  0.00    -0.374 OA
BRANCH  24  25
ATOM     25  C   UNL A   1      30.147  28.438  23.048  1.00  0.00     0.202 C 
BRANCH  25  26
ATOM     26  C   UNL A   1      31.253  28.983  23.951  1.00  0.00     0.261 C 
BRANCH  26  27
ATOM     27  O   UNL A   1      31.006  28.616  25.327  1.00  0.00    -0.460 OA
BRANCH  27  28
ATOM     28  C   UNL A   1      32.011  27.916  25.936  1.00  0.00     0.338 C 
ATOM     29  O   UNL A   1      31.862  26.800  26.409  1.00  0.00    -0.246 OA
BRANCH  28  30
ATOM     30  C   UNL A   1      33.194  28.804  26.178  1.00  0.00     0.060 A 
ATOM     31  C   UNL A   1      34.477  28.384  25.777  1.00  0.00     0.016 A 
ATOM     32  C   UNL A   1      33.069  29.818  27.123  1.00  0.00     0.016 A 
ATOM     33  C   UNL A   1      35.616  28.835  26.465  1.00  0.00     0.010 A 
ATOM     34  C   UNL A   1      34.177  30.138  27.888  1.00  0.00     0.010 A 
ATOM     35  C   UNL A   1      35.457  29.621  27.595  1.00  0.00    -0.014 A 
BRANCH  35  36
ATOM     36  C   UNL A   1      36.524  30.081  28.498  1.00  0.00     0.031 A 
ATOM     37  C   UNL A   1      36.381  31.478  28.964  1.00  0.00     0.074 A 
ATOM     38  C   UNL A   1      37.354  29.244  29.175  1.00  0.00     0.049 A 
ATOM     39  N   UNL A   1      37.146  32.035  29.833  1.00  0.00    -0.248 NA
ATOM     40  C   UNL A   1      35.354  32.392  28.451  1.00  0.00     0.031 C 
ATOM     41  C   UNL A   1      37.739  29.353  30.590  1.00  0.00     0.029 A 
ATOM     42  N   UNL A   1      37.966  28.047  28.795  1.00  0.00    -0.354 N 
ATOM     43  C   UNL A   1      36.472  33.141  30.285  1.00  0.00     0.074 A 
ATOM     44  C   UNL A   1      35.480  33.424  29.287  1.00  0.00     0.031 C 
ATOM     45  C   UNL A   1      38.642  28.406  30.898  1.00  0.00     0.029 A 
ATOM     46  C   UNL A   1      39.036  27.771  29.654  1.00  0.00     0.049 A 
ATOM     47  H   UNL A   1      37.687  27.484  28.037  1.00  0.00     0.167 HD
ATOM     48  C   UNL A   1      36.718  33.555  31.554  1.00  0.00     0.034 A 
ATOM     49  C   UNL A   1      40.293  27.583  29.169  1.00  0.00     0.034 A 
ATOM     50  C   UNL A   1      37.928  32.896  32.092  1.00  0.00     0.049 A 
ATOM     51  C   UNL A   1      41.174  28.690  29.665  1.00  0.00     0.074 A 
ATOM     52  C   UNL A   1      38.144  31.954  33.082  1.00  0.00     0.029 A 
ATOM     53  N   UNL A   1      39.124  32.963  31.362  1.00  0.00    -0.354 N 
ATOM     54  N   UNL A   1      40.685  29.709  30.313  1.00  0.00    -0.248 NA
ATOM     55  C   UNL A   1      42.623  28.761  29.546  1.00  0.00     0.031 C 
ATOM     56  C   UNL A   1      39.428  31.367  32.854  1.00  0.00     0.029 A 
ATOM     57  C   UNL A   1      40.027  31.988  31.765  1.00  0.00     0.049 A 
ATOM     58  H   UNL A   1      39.303  33.621  30.651  1.00  0.00     0.167 HD
ATOM     59  C   UNL A   1      41.651  30.604  30.599  1.00  0.00     0.074 A 
ATOM     60  C   UNL A   1      42.867  29.942  30.147  1.00  0.00     0.031 C 
ATOM     61  C   UNL A   1      41.332  31.832  31.101  1.00  0.00     0.034 A 
BRANCH  48  62
ATOM     62  C   UNL A   1      35.763  34.411  32.375  1.00  0.00     0.023 A 
ATOM     63  C   UNL A   1      35.919  34.368  33.775  1.00  0.00     0.012 A 
ATOM     64  C   UNL A   1      34.667  35.188  31.897  1.00  0.00     0.148 A 
ATOM     65  C   UNL A   1      35.066  35.059  34.647  1.00  0.00     0.002 A 
ATOM     66  C   UNL A   1      33.867  35.941  32.763  1.00  0.00     0.091 A 
ATOM     67  F   UNL A   1      34.311  35.135  30.611  1.00  0.00    -0.205 F 
ATOM     68  C   UNL A   1      34.057  35.866  34.142  1.00  0.00     0.022 A 
BRANCH  66  69
ATOM     69  S   UNL A   1      32.575  37.064  32.180  1.00  0.00     0.127 S 
ATOM     70  O   UNL A   1      31.510  36.845  33.158  1.00  0.00    -0.237 OA
ATOM     71  O   UNL A   1      33.231  38.370  32.280  1.00  0.00    -0.237 OA
ATOM     72  O   UNL A   1      32.259  36.655  30.818  1.00  0.00    -0.744 OA
ENDBRANCH  66  69
ENDBRANCH  48  62
BRANCH  49  73
ATOM     73  C   UNL A   1      40.286  26.899  27.838  1.00  0.00     0.023 A 
ATOM     74  C   UNL A   1      40.849  27.643  26.769  1.00  0.00     0.012 A 
ATOM     75  C   UNL A   1      40.273  25.493  27.746  1.00  0.00     0.148 A 
ATOM     76  C   UNL A   1      41.509  27.006  25.717  1.00  0.00     0.002 A 
ATOM     77  C   UNL A   1      40.973  24.866  26.713  1.00  0.00     0.091 A 
ATOM     78  F   UNL A   1      39.664  24.796  28.714  1.00  0.00    -0.205 F 
ATOM     79  C   UNL A   1      41.617  25.621  25.717  1.00  0.00     0.022 A 
BRANCH  77  80
ATOM     80  S   UNL A   1      41.282  23.093  26.694  1.00  0.00     0.127 S 
ATOM     81  O   UNL A   1      42.289  22.980  25.642  1.00  0.00    -0.237 OA
ATOM     82  O   UNL A   1      41.787  22.855  28.048  1.00  0.00    -0.237 OA
ATOM     83  O   UNL A   1      39.997  22.473  26.413  1.00  0.00    -0.744 OA
ENDBRANCH  77  80
ENDBRANCH  49  73
BRANCH  61  84
ATOM     84  C   UNL A   1      42.288  32.983  30.975  1.00  0.00     0.023 A 
ATOM     85  C   UNL A   1      43.457  33.052  31.764  1.00  0.00     0.012 A 
ATOM     86  C   UNL A   1      42.131  33.950  29.964  1.00  0.00     0.148 A 
ATOM     87  C   UNL A   1      44.361  34.104  31.651  1.00  0.00     0.002 A 
ATOM     88  C   UNL A   1      43.104  34.919  29.767  1.00  0.00     0.091 A 
ATOM     89  F   UNL A   1      41.031  33.944  29.197  1.00  0.00    -0.205 F 
ATOM     90  C   UNL A   1      44.191  35.033  30.640  1.00  0.00     0.022 A 
BRANCH  88  91
ATOM     91  S   UNL A   1      43.095  35.950  28.300  1.00  0.00     0.127 S 
ATOM     92  O   UNL A   1      44.166  36.900  28.597  1.00  0.00    -0.237 OA
ATOM     93  O   UNL A   1      43.408  34.986  27.244  1.00  0.00    -0.237 OA
ATOM     94  O   UNL A   1      41.750  36.503  28.223  1.00  0.00    -0.744 OA
ENDBRANCH  88  91
ENDBRANCH  61  84
ENDBRANCH  35  36
ENDBRANCH  28  30
ENDBRANCH  27  28
ENDBRANCH  26  27
ENDBRANCH  25  26
ENDBRANCH  24  25
ENDBRANCH   1  24
TORSDOF 21
ENDMDL
MODEL 2
REMARK VINA RESULT:     -12.2      3.911      9.321
REMARK SMILES Cc1cccc(O[C@H](C)C(=O)N2CCC[C@@H](C(=O)OCCOCCOC(=O)c3ccc(-c4c5nc(c(-c6cccc(S(=O)(=O)[O-])c6F)c6ccc([nH]6)c(-c6cccc(S(=O)(=O)[O-])c6F)c6nc(c(-c7cccc(S(=O)(=O)[O-])c7F)c7ccc4[nH]7)C=C6)C=C5)cc3)C2)c1
REMARK SMILES IDX 21 1 20 2 19 3 17 4 18 5 16 6 12 7 13 8 91 9 14 10 15 11
REMARK SMILES IDX 10 12 11 13 8 14 9 15 7 16 6 17 1 18 2 19 3 20 92 21 4 22
REMARK SMILES IDX 5 23 22 24 23 25 24 26 25 27 26 28 27 29 28 30 29 31 90 32
REMARK SMILES IDX 30 33 89 34 31 35 32 36 33 37 83 38 34 39 88 40 82 41 84 42
REMARK SMILES IDX 35 43 87 44 81 45 80 46 36 48 68 49 48 50 67 51 49 52 52 53
REMARK SMILES IDX 66 54 85 55 50 56 51 57 65 59 86 60 53 61 37 62 38 63 46 64
REMARK SMILES IDX 39 65 41 66 47 67 40 68 42 69 43 70 44 71 45 72 69 73 70 74
REMARK SMILES IDX 78 75 71 76 73 77 79 78 72 79 74 80 75 81 76 82 77 83 54 84
REMARK SMILES IDX 55 85 63 86 56 87 58 88 64 89 57 90 59 91 60 92 61 93 62 94
REMARK H PARENT 84 47 52 58
REMARK Flexibility Score: inf
ROOT
ATOM      1  C   UNL A   1      32.216  29.694  25.445  1.00  0.00     0.202 C 
ENDROOT
BRANCH   1   2
ATOM      2  C   UNL A   1      31.497  28.699  26.306  1.00  0.00     0.261 C 
BRANCH   2   3
ATOM      3  O   UNL A   1      32.210  27.441  26.447  1.00  0.00    -0.463 OA
BRANCH   3   4
ATOM      4  C   UNL A   1      31.653  26.233  26.106  1.00  0.00     0.310 C 
ATOM      5  O   UNL A   1      30.492  25.978  25.899  1.00  0.00    -0.252 OA
BRANCH   4   6
ATOM      6  C   UNL A   1      32.739  25.210  25.932  1.00  0.00     0.119 C 
ATOM      7  N   UNL A   1      33.184  23.048  24.925  1.00  0.00    -0.339 N 
ATOM      8  C   UNL A   1      34.527  23.447  24.516  1.00  0.00     0.119 C 
ATOM      9  C   UNL A   1      32.222  24.110  25.007  1.00  0.00     0.134 C 
ATOM     10  C   UNL A   1      35.077  24.637  25.310  1.00  0.00     0.022 C 
ATOM     11  C   UNL A   1      34.060  25.778  25.429  1.00  0.00     0.019 C 
BRANCH   7  12
ATOM     12  C   UNL A   1      32.903  21.784  25.394  1.00  0.00     0.263 C 
ATOM     13  O   UNL A   1      33.302  21.415  26.503  1.00  0.00    -0.271 OA
BRANCH  12  14
ATOM     14  C   UNL A   1      32.130  20.790  24.462  1.00  0.00     0.259 C 
ATOM     15  C   UNL A   1      32.153  21.137  22.971  1.00  0.00     0.064 C 
BRANCH  14  16
ATOM     16  O   UNL A   1      32.034  19.436  24.912  1.00  0.00    -0.481 OA
BRANCH  16  17
ATOM     17  C   UNL A   1      32.949  18.436  24.889  1.00  0.00     0.120 A 
ATOM     18  C   UNL A   1      32.744  14.670  25.549  1.00  0.00     0.044 C 
ATOM     19  C   UNL A   1      33.274  16.019  25.170  1.00  0.00    -0.047 A 
ATOM     20  C   UNL A   1      34.615  16.146  24.810  1.00  0.00     0.003 A 
ATOM     21  C   UNL A   1      32.457  17.167  25.216  1.00  0.00     0.049 A 
ATOM     22  C   UNL A   1      35.115  17.395  24.485  1.00  0.00     0.004 A 
ATOM     23  C   UNL A   1      34.274  18.513  24.511  1.00  0.00     0.046 A 
ENDBRANCH  16  17
ENDBRANCH  14  16
ENDBRANCH  12  14
ENDBRANCH   7  12
ENDBRANCH   4   6
ENDBRANCH   3   4
ENDBRANCH   2   3
ENDBRANCH   1   2
BRANCH   1  24
ATOM     24  O   UNL A   1      33.351  30.164  26.132  1.00  0.00    -0.374 OA
BRANCH  24  25
ATOM     25  C   UNL A   1      33.135  30.931  27.295  1.00  0.00     0.202 C 
BRANCH  25  26
ATOM     26  C   UNL A   1      34.424  31.546  27.839  1.00  0.00     0.261 C 
BRANCH  26  27
ATOM     27  O   UNL A   1      34.352  32.989  27.793  1.00  0.00    -0.460 OA
BRANCH  27  28
ATOM     28  C   UNL A   1      34.192  33.606  29.003  1.00  0.00     0.338 C 
ATOM     29  O   UNL A   1      33.230  34.305  29.279  1.00  0.00    -0.246 OA
BRANCH  28  30
ATOM     30  C   UNL A   1      35.460  33.529  29.800  1.00  0.00     0.060 A 
ATOM     31  C   UNL A   1      36.692  33.817  29.183  1.00  0.00     0.016 A 
ATOM     32  C   UNL A   1      35.442  32.810  30.991  1.00  0.00     0.016 A 
ATOM     33  C   UNL A   1      37.874  33.216  29.648  1.00  0.00     0.010 A 
ATOM     34  C   UNL A   1      36.579  32.107  31.348  1.00  0.00     0.010 A 
ATOM     35  C   UNL A   1      37.799  32.270  30.658  1.00  0.00    -0.014 A 
BRANCH  35  36
ATOM     36  C   UNL A   1      38.911  31.462  31.182  1.00  0.00     0.031 A 
ATOM     37  C   UNL A   1      39.092  30.152  30.516  1.00  0.00     0.074 A 
ATOM     38  C   UNL A   1      39.934  31.970  31.920  1.00  0.00     0.049 A 
ATOM     39  N   UNL A   1      40.062  29.345  30.754  1.00  0.00    -0.248 NA
ATOM     40  C   UNL A   1      38.149  29.622  29.524  1.00  0.00     0.031 C 
ATOM     41  C   UNL A   1      41.365  31.676  31.747  1.00  0.00     0.029 A 
ATOM     42  N   UNL A   1      39.952  32.941  32.923  1.00  0.00    -0.354 N 
ATOM     43  C   UNL A   1      40.106  28.475  29.694  1.00  0.00     0.074 A 
ATOM     44  C   UNL A   1      38.816  28.560  29.070  1.00  0.00     0.031 C 
ATOM     45  C   UNL A   1      42.080  32.286  32.708  1.00  0.00     0.029 A 
ATOM     46  C   UNL A   1      41.135  32.833  33.662  1.00  0.00     0.049 A 
ATOM     47  H   UNL A   1      39.239  33.601  33.086  1.00  0.00     0.167 HD
ATOM     48  C   UNL A   1      41.310  27.941  29.365  1.00  0.00     0.034 A 
ATOM     49  C   UNL A   1      41.104  32.654  35.011  1.00  0.00     0.034 A 
ATOM     50  C   UNL A   1      42.295  28.172  30.445  1.00  0.00     0.049 A 
ATOM     51  C   UNL A   1      41.679  31.308  35.333  1.00  0.00     0.074 A 
ATOM     52  C   UNL A   1      43.433  28.951  30.551  1.00  0.00     0.029 A 
ATOM     53  N   UNL A   1      41.977  27.781  31.754  1.00  0.00    -0.354 N 
ATOM     54  N   UNL A   1      41.978  30.454  34.396  1.00  0.00    -0.248 NA
ATOM     55  C   UNL A   1      42.013  30.805  36.658  1.00  0.00     0.031 C 
ATOM     56  C   UNL A   1      43.712  29.129  31.942  1.00  0.00     0.029 A 
ATOM     57  C   UNL A   1      42.786  28.413  32.690  1.00  0.00     0.049 A 
ATOM     58  H   UNL A   1      41.267  27.137  31.983  1.00  0.00     0.167 HD
ATOM     59  C   UNL A   1      42.414  29.294  34.924  1.00  0.00     0.074 A 
ATOM     60  C   UNL A   1      42.474  29.576  36.352  1.00  0.00     0.031 C 
ATOM     61  C   UNL A   1      42.598  28.197  34.134  1.00  0.00     0.034 A 
BRANCH  48  62
ATOM     62  C   UNL A   1      41.649  27.376  27.993  1.00  0.00     0.023 A 
ATOM     63  C   UNL A   1      41.524  28.254  26.898  1.00  0.00     0.012 A 
ATOM     64  C   UNL A   1      41.996  26.031  27.672  1.00  0.00     0.148 A 
ATOM     65  C   UNL A   1      41.745  27.843  25.576  1.00  0.00     0.002 A 
ATOM     66  C   UNL A   1      42.294  25.641  26.361  1.00  0.00     0.091 A 
ATOM     67  F   UNL A   1      41.944  25.077  28.605  1.00  0.00    -0.205 F 
ATOM     68  C   UNL A   1      42.155  26.545  25.308  1.00  0.00     0.022 A 
BRANCH  66  69
ATOM     69  S   UNL A   1      42.895  23.989  25.940  1.00  0.00     0.127 S 
ATOM     70  O   UNL A   1      43.907  23.756  26.970  1.00  0.00    -0.237 OA
ATOM     71  O   UNL A   1      41.687  23.174  26.082  1.00  0.00    -0.237 OA
ATOM     72  O   UNL A   1      43.406  24.071  24.578  1.00  0.00    -0.744 OA
ENDBRANCH  66  69
ENDBRANCH  48  62
BRANCH  49  73
ATOM     73  C   UNL A   1      39.959  33.376  35.649  1.00  0.00     0.023 A 
ATOM     74  C   UNL A   1      38.773  32.613  35.809  1.00  0.00     0.012 A 
ATOM     75  C   UNL A   1      40.179  34.466  36.514  1.00  0.00     0.148 A 
ATOM     76  C   UNL A   1      37.914  32.834  36.886  1.00  0.00     0.002 A 
ATOM     77  C   UNL A   1      39.338  34.651  37.613  1.00  0.00     0.091 A 
ATOM     78  F   UNL A   1      41.255  35.237  36.306  1.00  0.00    -0.205 F 
ATOM     79  C   UNL A   1      38.224  33.818  37.817  1.00  0.00     0.022 A 
BRANCH  77  80
ATOM     80  S   UNL A   1      39.723  35.805  38.939  1.00  0.00     0.127 S 
ATOM     81  O   UNL A   1      41.091  35.422  39.277  1.00  0.00    -0.237 OA
ATOM     82  O   UNL A   1      39.602  37.099  38.263  1.00  0.00    -0.237 OA
ATOM     83  O   UNL A   1      38.724  35.569  39.969  1.00  0.00    -0.744 OA
ENDBRANCH  77  80
ENDBRANCH  49  73
BRANCH  61  84
ATOM     84  C   UNL A   1      42.607  26.818  34.727  1.00  0.00     0.023 A 
ATOM     85  C   UNL A   1      41.452  26.275  35.331  1.00  0.00     0.012 A 
ATOM     86  C   UNL A   1      43.715  25.965  34.565  1.00  0.00     0.148 A 
ATOM     87  C   UNL A   1      41.437  24.994  35.874  1.00  0.00     0.002 A 
ATOM     88  C   UNL A   1      43.648  24.645  34.987  1.00  0.00     0.091 A 
ATOM     89  F   UNL A   1      44.845  26.432  34.014  1.00  0.00    -0.205 F 
ATOM     90  C   UNL A   1      42.535  24.171  35.688  1.00  0.00     0.022 A 
BRANCH  88  91
ATOM     91  S   UNL A   1      44.904  23.459  34.508  1.00  0.00     0.127 S 
ATOM     92  O   UNL A   1      46.056  23.916  35.281  1.00  0.00    -0.237 OA
ATOM     93  O   UNL A   1      44.324  22.194  34.963  1.00  0.00    -0.237 OA
ATOM     94  O   UNL A   1      45.017  23.576  33.060  1.00  0.00    -0.744 OA
ENDBRANCH  88  91
ENDBRANCH  61  84
ENDBRANCH  35  36
ENDBRANCH  28  30
ENDBRANCH  27  28
ENDBRANCH  26  27
ENDBRANCH  25  26
ENDBRANCH  24  25
ENDBRANCH   1  24
TORSDOF 21
ENDMDL
MODEL 3
REMARK VINA RESULT:     -11.9      2.712      5.940
REMARK SMILES Cc1cccc(O[C@H](C)C(=O)N2CCC[C@@H](C(=O)OCCOCCOC(=O)c3ccc(-c4c5nc(c(-c6cccc(S(=O)(=O)[O-])c6F)c6ccc([nH]6)c(-c6cccc(S(=O)(=O)[O-])c6F)c6nc(c(-c7cccc(S(=O)(=O)[O-])c7F)c7ccc4[nH]7)C=C6)C=C5)cc3)C2)c1
REMARK SMILES IDX 21 1 20 2 19 3 17 4 18 5 16 6 12 7 13 8 91 9 14 10 15 11
REMARK SMILES IDX 10 12 11 13 8 14 9 15 7 16 6 17 1 18 2 19 3 20 92 21 4 22
REMARK SMILES IDX 5 23 22 24 23 25 24 26 25 27 26 28 27 29 28 30 29 31 90 32
REMARK SMILES IDX 30 33 89 34 31 35 32 36 33 37 83 38 34 39 88 40 82 41 84 42
REMARK SMILES IDX 35 43 87 44 81 45 80 46 36 48 68 49 48 50 67 51 49 52 52 53
REMARK SMILES IDX 66 54 85 55 50 56 51 57 65 59 86 60 53 61 37 62 38 63 46 64
REMARK SMILES IDX 39 65 41 66 47 67 40 68 42 69 43 70 44 71 45 72 69 73 70 74
REMARK SMILES IDX 78 75 71 76 73 77 79 78 72 79 74 80 75 81 76 82 77 83 54 84
REMARK SMILES IDX 55 85 63 86 56 87 58 88 64 89 57 90 59 91 60 92 61 93 62 94
REMARK H PARENT 84 47 52 58
REMARK Flexibility Score: inf
ROOT
ATOM      1  C   UNL A   1      34.113  22.363  25.944  1.00  0.00     0.202 C 
ENDROOT
BRANCH   1   2
ATOM      2  C   UNL A   1      32.871  22.836  26.638  1.00  0.00     0.261 C 
BRANCH   2   3
ATOM      3  O   UNL A   1      32.648  24.265  26.505  1.00  0.00    -0.463 OA
BRANCH   3   4
ATOM      4  C   UNL A   1      31.456  24.791  26.072  1.00  0.00     0.310 C 
ATOM      5  O   UNL A   1      30.397  24.816  26.651  1.00  0.00    -0.252 OA
BRANCH   4   6
ATOM      6  C   UNL A   1      31.651  25.446  24.735  1.00  0.00     0.119 C 
ATOM      7  N   UNL A   1      33.237  26.782  23.476  1.00  0.00    -0.339 N 
ATOM      8  C   UNL A   1      32.963  26.054  22.241  1.00  0.00     0.119 C 
ATOM      9  C   UNL A   1      33.061  26.032  24.686  1.00  0.00     0.134 C 
ATOM     10  C   UNL A   1      31.616  25.322  22.252  1.00  0.00     0.022 C 
ATOM     11  C   UNL A   1      31.394  24.529  23.545  1.00  0.00     0.019 C 
BRANCH   7  12
ATOM     12  C   UNL A   1      33.454  28.142  23.495  1.00  0.00     0.263 C 
ATOM     13  O   UNL A   1      34.520  28.621  23.098  1.00  0.00    -0.271 OA
BRANCH  12  14
ATOM     14  C   UNL A   1      32.348  29.071  24.102  1.00  0.00     0.259 C 
ATOM     15  C   UNL A   1      32.746  29.817  25.379  1.00  0.00     0.064 C 
BRANCH  14  16
ATOM     16  O   UNL A   1      31.398  29.618  23.184  1.00  0.00    -0.481 OA
BRANCH  16  17
ATOM     17  C   UNL A   1      30.060  29.429  23.087  1.00  0.00     0.120 A 
ATOM     18  C   UNL A   1      27.756  26.482  23.908  1.00  0.00     0.044 C 
ATOM     19  C   UNL A   1      28.232  27.845  23.506  1.00  0.00    -0.047 A 
ATOM     20  C   UNL A   1      27.298  28.797  23.098  1.00  0.00     0.003 A 
ATOM     21  C   UNL A   1      29.604  28.167  23.485  1.00  0.00     0.049 A 
ATOM     22  C   UNL A   1      27.734  30.049  22.701  1.00  0.00     0.004 A 
ATOM     23  C   UNL A   1      29.101  30.351  22.720  1.00  0.00     0.046 A 
ENDBRANCH  16  17
ENDBRANCH  14  16
ENDBRANCH  12  14
ENDBRANCH   7  12
ENDBRANCH   4   6
ENDBRANCH   3   4
ENDBRANCH   2   3
ENDBRANCH   1   2
BRANCH   1  24
ATOM     24  O   UNL A   1      35.232  22.993  26.520  1.00  0.00    -0.374 OA
BRANCH  24  25
ATOM     25  C   UNL A   1      36.389  23.116  25.725  1.00  0.00     0.202 C 
BRANCH  25  26
ATOM     26  C   UNL A   1      37.282  21.878  25.792  1.00  0.00     0.261 C 
BRANCH  26  27
ATOM     27  O   UNL A   1      38.651  22.227  25.486  1.00  0.00    -0.460 OA
BRANCH  27  28
ATOM     28  C   UNL A   1      39.422  22.573  26.561  1.00  0.00     0.338 C 
ATOM     29  O   UNL A   1      39.882  21.760  27.348  1.00  0.00    -0.246 OA
BRANCH  28  30
ATOM     30  C   UNL A   1      39.380  24.055  26.779  1.00  0.00     0.060 A 
ATOM     31  C   UNL A   1      40.167  24.903  25.976  1.00  0.00     0.016 A 
ATOM     32  C   UNL A   1      38.888  24.525  27.993  1.00  0.00     0.016 A 
ATOM     33  C   UNL A   1      40.622  26.133  26.479  1.00  0.00     0.010 A 
ATOM     34  C   UNL A   1      39.461  25.662  28.534  1.00  0.00     0.010 A 
ATOM     35  C   UNL A   1      40.365  26.460  27.801  1.00  0.00    -0.014 A 
BRANCH  35  36
ATOM     36  C   UNL A   1      40.862  27.642  28.522  1.00  0.00     0.031 A 
ATOM     37  C   UNL A   1      40.000  28.840  28.414  1.00  0.00     0.074 A 
ATOM     38  C   UNL A   1      41.791  27.588  29.513  1.00  0.00     0.049 A 
ATOM     39  N   UNL A   1      40.201  29.938  29.049  1.00  0.00    -0.248 NA
ATOM     40  C   UNL A   1      38.827  28.906  27.533  1.00  0.00     0.031 C 
ATOM     41  C   UNL A   1      41.735  28.297  30.800  1.00  0.00     0.029 A 
ATOM     42  N   UNL A   1      42.946  26.815  29.652  1.00  0.00    -0.354 N 
ATOM     43  C   UNL A   1      39.016  30.629  29.007  1.00  0.00     0.074 A 
ATOM     44  C   UNL A   1      38.273  30.056  27.921  1.00  0.00     0.031 C 
ATOM     45  C   UNL A   1      42.866  28.080  31.496  1.00  0.00     0.029 A 
ATOM     46  C   UNL A   1      43.786  27.391  30.611  1.00  0.00     0.049 A 
ATOM     47  H   UNL A   1      43.140  25.990  29.150  1.00  0.00     0.167 HD
ATOM     48  C   UNL A   1      38.739  31.470  30.036  1.00  0.00     0.034 A 
ATOM     49  C   UNL A   1      45.069  27.729  30.307  1.00  0.00     0.034 A 
ATOM     50  C   UNL A   1      39.949  31.710  30.853  1.00  0.00     0.049 A 
ATOM     51  C   UNL A   1      45.212  29.218  30.396  1.00  0.00     0.074 A 
ATOM     52  C   UNL A   1      40.322  31.355  32.137  1.00  0.00     0.029 A 
ATOM     53  N   UNL A   1      41.123  32.149  30.222  1.00  0.00    -0.354 N 
ATOM     54  N   UNL A   1      44.179  29.991  30.579  1.00  0.00    -0.248 NA
ATOM     55  C   UNL A   1      46.456  29.972  30.343  1.00  0.00     0.031 C 
ATOM     56  C   UNL A   1      41.746  31.461  32.223  1.00  0.00     0.029 A 
ATOM     57  C   UNL A   1      42.243  31.938  31.017  1.00  0.00     0.049 A 
ATOM     58  H   UNL A   1      41.151  32.557  29.326  1.00  0.00     0.167 HD
ATOM     59  C   UNL A   1      44.540  31.288  30.559  1.00  0.00     0.074 A 
ATOM     60  C   UNL A   1      45.992  31.231  30.464  1.00  0.00     0.031 C 
ATOM     61  C   UNL A   1      43.594  32.272  30.538  1.00  0.00     0.034 A 
BRANCH  48  62
ATOM     62  C   UNL A   1      37.337  31.927  30.414  1.00  0.00     0.023 A 
ATOM     63  C   UNL A   1      36.848  31.500  31.665  1.00  0.00     0.012 A 
ATOM     64  C   UNL A   1      36.421  32.667  29.610  1.00  0.00     0.148 A 
ATOM     65  C   UNL A   1      35.551  31.798  32.105  1.00  0.00     0.002 A 
ATOM     66  C   UNL A   1      35.156  33.032  30.084  1.00  0.00     0.091 A 
ATOM     67  F   UNL A   1      36.710  32.945  28.336  1.00  0.00    -0.205 F 
ATOM     68  C   UNL A   1      34.714  32.585  31.328  1.00  0.00     0.022 A 
BRANCH  66  69
ATOM     69  S   UNL A   1      34.034  34.107  29.160  1.00  0.00     0.127 S 
ATOM     70  O   UNL A   1      34.943  35.125  28.634  1.00  0.00    -0.237 OA
ATOM     71  O   UNL A   1      33.494  33.196  28.148  1.00  0.00    -0.237 OA
ATOM     72  O   UNL A   1      33.048  34.592  30.116  1.00  0.00    -0.744 OA
ENDBRANCH  66  69
ENDBRANCH  48  62
BRANCH  49  73
ATOM     73  C   UNL A   1      45.688  26.771  29.338  1.00  0.00     0.023 A 
ATOM     74  C   UNL A   1      45.738  25.419  29.767  1.00  0.00     0.012 A 
ATOM     75  C   UNL A   1      45.688  27.038  27.954  1.00  0.00     0.148 A 
ATOM     76  C   UNL A   1      45.639  24.369  28.854  1.00  0.00     0.002 A 
ATOM     77  C   UNL A   1      45.545  25.982  27.052  1.00  0.00     0.091 A 
ATOM     78  F   UNL A   1      45.728  28.315  27.552  1.00  0.00    -0.205 F 
ATOM     79  C   UNL A   1      45.490  24.651  27.501  1.00  0.00     0.022 A 
BRANCH  77  80
ATOM     80  S   UNL A   1      45.214  26.246  25.303  1.00  0.00     0.127 S 
ATOM     81  O   UNL A   1      45.411  24.905  24.759  1.00  0.00    -0.237 OA
ATOM     82  O   UNL A   1      43.820  26.698  25.320  1.00  0.00    -0.237 OA
ATOM     83  O   UNL A   1      46.167  27.255  24.869  1.00  0.00    -0.744 OA
ENDBRANCH  77  80
ENDBRANCH  49  73
BRANCH  61  84
ATOM     84  C   UNL A   1      43.930  33.647  30.040  1.00  0.00     0.023 A 
ATOM     85  C   UNL A   1      44.123  34.722  30.936  1.00  0.00     0.012 A 
ATOM     86  C   UNL A   1      44.214  33.878  28.681  1.00  0.00     0.148 A 
ATOM     87  C   UNL A   1      44.448  36.001  30.494  1.00  0.00     0.002 A 
ATOM     88  C   UNL A   1      44.670  35.121  28.264  1.00  0.00     0.091 A 
ATOM     89  F   UNL A   1      44.032  32.899  27.783  1.00  0.00    -0.205 F 
ATOM     90  C   UNL A   1      44.736  36.197  29.154  1.00  0.00     0.022 A 
BRANCH  88  91
ATOM     91  S   UNL A   1      45.344  35.351  26.618  1.00  0.00     0.127 S 
ATOM     92  O   UNL A   1      44.165  35.142  25.781  1.00  0.00    -0.237 OA
ATOM     93  O   UNL A   1      45.820  36.734  26.670  1.00  0.00    -0.237 OA
ATOM     94  O   UNL A   1      46.404  34.360  26.491  1.00  0.00    -0.744 OA
ENDBRANCH  88  91
ENDBRANCH  61  84
ENDBRANCH  35  36
ENDBRANCH  28  30
ENDBRANCH  27  28
ENDBRANCH  26  27
ENDBRANCH  25  26
ENDBRANCH  24  25
ENDBRANCH   1  24
TORSDOF 21
ENDMDL
