MODEL 1
REMARK VINA RESULT:     -11.3      0.000      0.000
REMARK SMILES O=C(CCc1nc(-c2ccccc2)c(-c2ccccc2)o1)OCCOCCOC(=O)c1ccc(-c2c3nc(c(-c4cccc(S(=O)(=O)[O-])c4F)c4ccc([nH]4)c(-c4cccc(S(=O)(=O)[O-])c4F)c4nc(c(-c5cccc(S(=O)(=O)[O-])c5F)c5ccc2[nH]5)C=C4)C=C3)cc1
REMARK SMILES IDX 25 1 24 2 23 3 22 4 2 5 1 6 3 7 4 8 5 9 6 10 21 11 7 12
REMARK SMILES IDX 14 13 8 14 9 15 13 16 10 17 12 18 11 19 15 20 16 21 20 22
REMARK SMILES IDX 17 23 19 24 18 25 26 26 27 27 28 28 29 29 30 30 31 31 32 32
REMARK SMILES IDX 93 33 33 34 92 35 34 36 35 37 36 38 86 39 37 40 91 41 85 42
REMARK SMILES IDX 87 43 38 44 90 45 84 46 83 47 39 49 71 50 51 51 70 52 52 53
REMARK SMILES IDX 55 54 69 55 88 56 53 57 54 58 68 60 89 61 56 62 40 63 41 64
REMARK SMILES IDX 49 65 42 66 44 67 50 68 43 69 45 70 46 71 47 72 48 73 72 74
REMARK SMILES IDX 73 75 81 76 74 77 76 78 82 79 75 80 77 81 78 82 79 83 80 84
REMARK SMILES IDX 57 85 58 86 66 87 59 88 61 89 67 90 60 91 62 92 63 93 64 94
REMARK SMILES IDX 65 95
REMARK H PARENT 87 48 55 59
REMARK Flexibility Score: inf
ROOT
ATOM      1  O   UNL A   1      35.917  23.886  24.199  1.00  0.00    -0.374 OA
ENDROOT
BRANCH   1   2
ATOM      2  C   UNL A   1      34.584  24.289  24.472  1.00  0.00     0.202 C 
BRANCH   2   3
ATOM      3  C   UNL A   1      33.436  23.636  23.695  1.00  0.00     0.261 C 
BRANCH   3   4
ATOM      4  O   UNL A   1      32.929  22.396  24.207  1.00  0.00    -0.463 OA
BRANCH   4   5
ATOM      5  C   UNL A   1      32.460  22.226  25.459  1.00  0.00     0.306 C 
ATOM      6  O   UNL A   1      33.226  21.922  26.371  1.00  0.00    -0.252 OA
BRANCH   5   7
ATOM      7  C   UNL A   1      30.971  22.215  25.678  1.00  0.00     0.132 C 
BRANCH   7   8
ATOM      8  C   UNL A   1      30.411  23.360  26.498  1.00  0.00     0.109 C 
BRANCH   8   9
ATOM      9  C   UNL A   1      30.646  24.714  25.932  1.00  0.00     0.196 A 
ATOM     10  N   UNL A   1      29.942  25.310  24.996  1.00  0.00    -0.213 NA
ATOM     11  O   UNL A   1      31.681  25.471  26.431  1.00  0.00    -0.440 OA
ATOM     12  C   UNL A   1      30.530  26.542  24.870  1.00  0.00     0.117 A 
ATOM     13  C   UNL A   1      31.560  26.689  25.786  1.00  0.00     0.162 A 
BRANCH  12  14
ATOM     14  C   UNL A   1      30.032  27.567  23.984  1.00  0.00     0.004 A 
ATOM     15  C   UNL A   1      28.661  27.680  23.721  1.00  0.00     0.010 A 
ATOM     16  C   UNL A   1      30.940  28.395  23.314  1.00  0.00     0.010 A 
ATOM     17  C   UNL A   1      28.206  28.583  22.762  1.00  0.00     0.001 A 
ATOM     18  C   UNL A   1      30.481  29.298  22.356  1.00  0.00     0.001 A 
ATOM     19  C   UNL A   1      29.117  29.385  22.075  1.00  0.00     0.000 A 
ENDBRANCH  12  14
BRANCH  13  20
ATOM     20  C   UNL A   1      32.390  27.808  26.244  1.00  0.00     0.020 A 
ATOM     21  C   UNL A   1      31.852  28.943  26.860  1.00  0.00     0.012 A 
ATOM     22  C   UNL A   1      33.786  27.759  26.079  1.00  0.00     0.012 A 
ATOM     23  C   UNL A   1      32.688  29.977  27.314  1.00  0.00     0.001 A 
ATOM     24  C   UNL A   1      34.622  28.772  26.560  1.00  0.00     0.001 A 
ATOM     25  C   UNL A   1      34.071  29.889  27.168  1.00  0.00     0.000 A 
ENDBRANCH  13  20
ENDBRANCH   8   9
ENDBRANCH   7   8
ENDBRANCH   5   7
ENDBRANCH   4   5
ENDBRANCH   3   4
ENDBRANCH   2   3
ENDBRANCH   1   2
BRANCH   1  26
ATOM     26  C   UNL A   1      36.104  22.617  23.586  1.00  0.00     0.202 C 
BRANCH  26  27
ATOM     27  C   UNL A   1      36.284  21.450  24.557  1.00  0.00     0.261 C 
BRANCH  27  28
ATOM     28  O   UNL A   1      36.972  21.852  25.755  1.00  0.00    -0.460 OA
BRANCH  28  29
ATOM     29  C   UNL A   1      38.283  21.515  25.827  1.00  0.00     0.338 C 
ATOM     30  O   UNL A   1      38.835  20.562  25.294  1.00  0.00    -0.246 OA
BRANCH  29  31
ATOM     31  C   UNL A   1      39.013  22.615  26.477  1.00  0.00     0.060 A 
ATOM     32  C   UNL A   1      38.566  23.925  26.268  1.00  0.00     0.016 A 
ATOM     33  C   UNL A   1      40.134  22.367  27.270  1.00  0.00     0.016 A 
ATOM     34  C   UNL A   1      39.228  24.988  26.872  1.00  0.00     0.010 A 
ATOM     35  C   UNL A   1      40.819  23.445  27.841  1.00  0.00     0.010 A 
ATOM     36  C   UNL A   1      40.373  24.762  27.636  1.00  0.00    -0.014 A 
BRANCH  36  37
ATOM     37  C   UNL A   1      41.185  25.922  28.073  1.00  0.00     0.031 A 
ATOM     38  C   UNL A   1      40.526  26.982  28.904  1.00  0.00     0.074 A 
ATOM     39  C   UNL A   1      42.493  26.017  27.770  1.00  0.00     0.049 A 
ATOM     40  N   UNL A   1      40.968  28.163  29.239  1.00  0.00    -0.248 NA
ATOM     41  C   UNL A   1      39.190  26.662  29.437  1.00  0.00     0.031 C 
ATOM     42  C   UNL A   1      43.279  25.005  27.066  1.00  0.00     0.029 A 
ATOM     43  N   UNL A   1      43.384  27.041  27.993  1.00  0.00    -0.354 N 
ATOM     44  C   UNL A   1      39.935  28.761  29.949  1.00  0.00     0.074 A 
ATOM     45  C   UNL A   1      38.862  27.796  30.040  1.00  0.00     0.031 C 
ATOM     46  C   UNL A   1      44.520  25.480  26.866  1.00  0.00     0.029 A 
ATOM     47  C   UNL A   1      44.593  26.852  27.365  1.00  0.00     0.049 A 
ATOM     48  H   UNL A   1      43.177  27.829  28.547  1.00  0.00     0.167 HD
ATOM     49  C   UNL A   1      39.884  30.012  30.460  1.00  0.00     0.034 A 
ATOM     50  C   UNL A   1      45.607  27.714  27.145  1.00  0.00     0.034 A 
ATOM     51  C   UNL A   1      40.972  30.947  30.402  1.00  0.00     0.049 A 
ATOM     52  C   UNL A   1      45.494  29.126  27.663  1.00  0.00     0.074 A 
ATOM     53  C   UNL A   1      41.031  32.225  30.931  1.00  0.00     0.029 A 
ATOM     54  N   UNL A   1      42.179  30.719  29.764  1.00  0.00    -0.354 N 
ATOM     55  N   UNL A   1      44.541  29.670  28.379  1.00  0.00    -0.248 NA
ATOM     56  C   UNL A   1      46.600  30.044  27.344  1.00  0.00     0.031 C 
ATOM     57  C   UNL A   1      42.257  32.787  30.567  1.00  0.00     0.029 A 
ATOM     58  C   UNL A   1      42.978  31.844  29.854  1.00  0.00     0.049 A 
ATOM     59  H   UNL A   1      42.431  29.882  29.312  1.00  0.00     0.167 HD
ATOM     60  C   UNL A   1      44.943  30.982  28.617  1.00  0.00     0.074 A 
ATOM     61  C   UNL A   1      46.239  31.141  27.993  1.00  0.00     0.031 C 
ATOM     62  C   UNL A   1      44.289  31.971  29.273  1.00  0.00     0.034 A 
BRANCH  49  63
ATOM     63  C   UNL A   1      38.598  30.469  31.086  1.00  0.00     0.023 A 
ATOM     64  C   UNL A   1      38.315  30.183  32.434  1.00  0.00     0.012 A 
ATOM     65  C   UNL A   1      37.711  31.273  30.342  1.00  0.00     0.148 A 
ATOM     66  C   UNL A   1      37.157  30.680  33.031  1.00  0.00     0.002 A 
ATOM     67  C   UNL A   1      36.586  31.804  30.956  1.00  0.00     0.091 A 
ATOM     68  F   UNL A   1      37.992  31.507  29.053  1.00  0.00    -0.205 F 
ATOM     69  C   UNL A   1      36.303  31.503  32.298  1.00  0.00     0.022 A 
BRANCH  67  70
ATOM     70  S   UNL A   1      35.474  32.938  30.120  1.00  0.00     0.127 S 
ATOM     71  O   UNL A   1      34.493  33.214  31.168  1.00  0.00    -0.237 OA
ATOM     72  O   UNL A   1      36.361  34.056  29.803  1.00  0.00    -0.237 OA
ATOM     73  O   UNL A   1      34.957  32.220  28.963  1.00  0.00    -0.744 OA
ENDBRANCH  67  70
ENDBRANCH  49  63
BRANCH  50  74
ATOM     74  C   UNL A   1      46.787  27.300  26.331  1.00  0.00     0.023 A 
ATOM     75  C   UNL A   1      46.806  27.535  24.944  1.00  0.00     0.012 A 
ATOM     76  C   UNL A   1      47.881  26.644  26.930  1.00  0.00     0.148 A 
ATOM     77  C   UNL A   1      47.874  27.090  24.163  1.00  0.00     0.002 A 
ATOM     78  C   UNL A   1      48.972  26.265  26.158  1.00  0.00     0.091 A 
ATOM     79  F   UNL A   1      47.833  26.398  28.246  1.00  0.00    -0.205 F 
ATOM     80  C   UNL A   1      48.962  26.467  24.771  1.00  0.00     0.022 A 
BRANCH  78  81
ATOM     81  S   UNL A   1      50.466  25.586  26.884  1.00  0.00     0.127 S 
ATOM     82  O   UNL A   1      51.313  25.402  25.710  1.00  0.00    -0.237 OA
ATOM     83  O   UNL A   1      50.879  26.665  27.782  1.00  0.00    -0.237 OA
ATOM     84  O   UNL A   1      50.049  24.368  27.566  1.00  0.00    -0.744 OA
ENDBRANCH  78  81
ENDBRANCH  50  74
BRANCH  62  85
ATOM     85  C   UNL A   1      44.971  33.309  29.392  1.00  0.00     0.023 A 
ATOM     86  C   UNL A   1      45.787  33.584  30.506  1.00  0.00     0.012 A 
ATOM     87  C   UNL A   1      44.878  34.253  28.350  1.00  0.00     0.148 A 
ATOM     88  C   UNL A   1      46.480  34.793  30.593  1.00  0.00     0.002 A 
ATOM     89  C   UNL A   1      45.611  35.430  28.419  1.00  0.00     0.091 A 
ATOM     90  F   UNL A   1      44.086  33.973  27.304  1.00  0.00    -0.205 F 
ATOM     91  C   UNL A   1      46.403  35.707  29.546  1.00  0.00     0.022 A 
BRANCH  89  92
ATOM     92  S   UNL A   1      45.654  36.623  27.077  1.00  0.00     0.127 S 
ATOM     93  O   UNL A   1      44.267  37.085  27.046  1.00  0.00    -0.237 OA
ATOM     94  O   UNL A   1      46.615  37.609  27.572  1.00  0.00    -0.237 OA
ATOM     95  O   UNL A   1      46.089  35.889  25.896  1.00  0.00    -0.744 OA
ENDBRANCH  89  92
ENDBRANCH  62  85
ENDBRANCH  36  37
ENDBRANCH  29  31
ENDBRANCH  28  29
ENDBRANCH  27  28
ENDBRANCH  26  27
ENDBRANCH   1  26
TORSDOF 21
ENDMDL
MODEL 2
REMARK VINA RESULT:     -10.8      1.406      2.533
REMARK SMILES O=C(CCc1nc(-c2ccccc2)c(-c2ccccc2)o1)OCCOCCOC(=O)c1ccc(-c2c3nc(c(-c4cccc(S(=O)(=O)[O-])c4F)c4ccc([nH]4)c(-c4cccc(S(=O)(=O)[O-])c4F)c4nc(c(-c5cccc(S(=O)(=O)[O-])c5F)c5ccc2[nH]5)C=C4)C=C3)cc1
REMARK SMILES IDX 25 1 24 2 23 3 22 4 2 5 1 6 3 7 4 8 5 9 6 10 21 11 7 12
REMARK SMILES IDX 14 13 8 14 9 15 13 16 10 17 12 18 11 19 15 20 16 21 20 22
REMARK SMILES IDX 17 23 19 24 18 25 26 26 27 27 28 28 29 29 30 30 31 31 32 32
REMARK SMILES IDX 93 33 33 34 92 35 34 36 35 37 36 38 86 39 37 40 91 41 85 42
REMARK SMILES IDX 87 43 38 44 90 45 84 46 83 47 39 49 71 50 51 51 70 52 52 53
REMARK SMILES IDX 55 54 69 55 88 56 53 57 54 58 68 60 89 61 56 62 40 63 41 64
REMARK SMILES IDX 49 65 42 66 44 67 50 68 43 69 45 70 46 71 47 72 48 73 72 74
REMARK SMILES IDX 73 75 81 76 74 77 76 78 82 79 75 80 77 81 78 82 79 83 80 84
REMARK SMILES IDX 57 85 58 86 66 87 59 88 61 89 67 90 60 91 62 92 63 93 64 94
REMARK SMILES IDX 65 95
REMARK H PARENT 87 48 55 59
REMARK Flexibility Score: inf
ROOT
ATOM      1  O   UNL A   1      35.939  23.304  24.056  1.00  0.00    -0.374 OA
ENDROOT
BRANCH   1   2
ATOM      2  C   UNL A   1      34.625  23.821  24.200  1.00  0.00     0.202 C 
BRANCH   2   3
ATOM      3  C   UNL A   1      33.698  23.843  22.980  1.00  0.00     0.261 C 
BRANCH   3   4
ATOM      4  O   UNL A   1      32.801  22.735  22.824  1.00  0.00    -0.463 OA
BRANCH   4   5
ATOM      5  C   UNL A   1      32.329  21.991  23.845  1.00  0.00     0.306 C 
ATOM      6  O   UNL A   1      32.864  20.921  24.129  1.00  0.00    -0.252 OA
BRANCH   5   7
ATOM      7  C   UNL A   1      31.028  22.390  24.488  1.00  0.00     0.132 C 
BRANCH   7   8
ATOM      8  C   UNL A   1      31.137  23.084  25.831  1.00  0.00     0.109 C 
BRANCH   8   9
ATOM      9  C   UNL A   1      31.235  24.566  25.768  1.00  0.00     0.196 A 
ATOM     10  N   UNL A   1      32.024  25.334  26.486  1.00  0.00    -0.213 NA
ATOM     11  O   UNL A   1      30.459  25.243  24.857  1.00  0.00    -0.440 OA
ATOM     12  C   UNL A   1      31.770  26.598  26.020  1.00  0.00     0.117 A 
ATOM     13  C   UNL A   1      30.861  26.562  24.975  1.00  0.00     0.162 A 
BRANCH  12  14
ATOM     14  C   UNL A   1      32.474  27.768  26.490  1.00  0.00     0.004 A 
ATOM     15  C   UNL A   1      31.769  28.897  26.928  1.00  0.00     0.010 A 
ATOM     16  C   UNL A   1      33.871  27.803  26.420  1.00  0.00     0.010 A 
ATOM     17  C   UNL A   1      32.456  30.067  27.250  1.00  0.00     0.001 A 
ATOM     18  C   UNL A   1      34.554  28.974  26.743  1.00  0.00     0.001 A 
ATOM     19  C   UNL A   1      33.847  30.106  27.150  1.00  0.00     0.000 A 
ENDBRANCH  12  14
BRANCH  13  20
ATOM     20  C   UNL A   1      30.375  27.531  23.988  1.00  0.00     0.020 A 
ATOM     21  C   UNL A   1      29.016  27.698  23.699  1.00  0.00     0.012 A 
ATOM     22  C   UNL A   1      31.290  28.345  23.294  1.00  0.00     0.012 A 
ATOM     23  C   UNL A   1      28.592  28.664  22.770  1.00  0.00     0.001 A 
ATOM     24  C   UNL A   1      30.868  29.329  22.394  1.00  0.00     0.001 A 
ATOM     25  C   UNL A   1      29.517  29.480  22.122  1.00  0.00     0.000 A 
ENDBRANCH  13  20
ENDBRANCH   8   9
ENDBRANCH   7   8
ENDBRANCH   5   7
ENDBRANCH   4   5
ENDBRANCH   3   4
ENDBRANCH   2   3
ENDBRANCH   1   2
BRANCH   1  26
ATOM     26  C   UNL A   1      36.083  21.892  23.990  1.00  0.00     0.202 C 
BRANCH  26  27
ATOM     27  C   UNL A   1      37.133  21.304  24.933  1.00  0.00     0.261 C 
BRANCH  27  28
ATOM     28  O   UNL A   1      38.151  22.264  25.266  1.00  0.00    -0.460 OA
BRANCH  28  29
ATOM     29  C   UNL A   1      39.096  21.845  26.142  1.00  0.00     0.338 C 
ATOM     30  O   UNL A   1      39.543  20.713  26.268  1.00  0.00    -0.246 OA
BRANCH  29  31
ATOM     31  C   UNL A   1      39.686  23.026  26.794  1.00  0.00     0.060 A 
ATOM     32  C   UNL A   1      39.193  24.290  26.451  1.00  0.00     0.016 A 
ATOM     33  C   UNL A   1      40.723  22.897  27.718  1.00  0.00     0.016 A 
ATOM     34  C   UNL A   1      39.721  25.427  27.052  1.00  0.00     0.010 A 
ATOM     35  C   UNL A   1      41.278  24.048  28.288  1.00  0.00     0.010 A 
ATOM     36  C   UNL A   1      40.784  25.320  27.949  1.00  0.00    -0.014 A 
BRANCH  36  37
ATOM     37  C   UNL A   1      41.476  26.553  28.393  1.00  0.00     0.031 A 
ATOM     38  C   UNL A   1      40.677  27.599  29.113  1.00  0.00     0.074 A 
ATOM     39  C   UNL A   1      42.796  26.727  28.197  1.00  0.00     0.049 A 
ATOM     40  N   UNL A   1      41.008  28.822  29.424  1.00  0.00    -0.248 NA
ATOM     41  C   UNL A   1      39.325  27.209  29.547  1.00  0.00     0.031 C 
ATOM     42  C   UNL A   1      43.706  25.743  27.612  1.00  0.00     0.029 A 
ATOM     43  N   UNL A   1      43.593  27.820  28.442  1.00  0.00    -0.354 N 
ATOM     44  C   UNL A   1      39.880  29.375  30.014  1.00  0.00     0.074 A 
ATOM     45  C   UNL A   1      38.870  28.342  30.064  1.00  0.00     0.031 C 
ATOM     46  C   UNL A   1      44.925  26.296  27.493  1.00  0.00     0.029 A 
ATOM     47  C   UNL A   1      44.862  27.690  27.928  1.00  0.00     0.049 A 
ATOM     48  H   UNL A   1      43.287  28.615  28.937  1.00  0.00     0.167 HD
ATOM     49  C   UNL A   1      39.701  30.640  30.456  1.00  0.00     0.034 A 
ATOM     50  C   UNL A   1      45.831  28.611  27.750  1.00  0.00     0.034 A 
ATOM     51  C   UNL A   1      40.724  31.648  30.443  1.00  0.00     0.049 A 
ATOM     52  C   UNL A   1      45.580  30.033  28.186  1.00  0.00     0.074 A 
ATOM     53  C   UNL A   1      40.652  32.948  30.910  1.00  0.00     0.029 A 
ATOM     54  N   UNL A   1      41.995  31.478  29.920  1.00  0.00    -0.354 N 
ATOM     55  N   UNL A   1      44.534  30.540  28.792  1.00  0.00    -0.248 NA
ATOM     56  C   UNL A   1      46.645  31.013  27.915  1.00  0.00     0.031 C 
ATOM     57  C   UNL A   1      41.864  33.580  30.623  1.00  0.00     0.029 A 
ATOM     58  C   UNL A   1      42.707  32.660  30.020  1.00  0.00     0.049 A 
ATOM     59  H   UNL A   1      42.341  30.641  29.533  1.00  0.00     0.167 HD
ATOM     60  C   UNL A   1      44.824  31.885  28.996  1.00  0.00     0.074 A 
ATOM     61  C   UNL A   1      46.156  32.109  28.476  1.00  0.00     0.031 C 
ATOM     62  C   UNL A   1      44.051  32.854  29.545  1.00  0.00     0.034 A 
BRANCH  49  63
ATOM     63  C   UNL A   1      38.338  31.033  30.950  1.00  0.00     0.023 A 
ATOM     64  C   UNL A   1      37.941  30.743  32.268  1.00  0.00     0.012 A 
ATOM     65  C   UNL A   1      37.485  31.780  30.112  1.00  0.00     0.148 A 
ATOM     66  C   UNL A   1      36.706  31.182  32.743  1.00  0.00     0.002 A 
ATOM     67  C   UNL A   1      36.280  32.253  30.607  1.00  0.00     0.091 A 
ATOM     68  F   UNL A   1      37.877  32.017  28.852  1.00  0.00    -0.205 F 
ATOM     69  C   UNL A   1      35.884  31.950  31.920  1.00  0.00     0.022 A 
BRANCH  67  70
ATOM     70  S   UNL A   1      35.194  33.317  29.651  1.00  0.00     0.127 S 
ATOM     71  O   UNL A   1      34.031  32.452  29.456  1.00  0.00    -0.237 OA
ATOM     72  O   UNL A   1      34.976  34.434  30.571  1.00  0.00    -0.237 OA
ATOM     73  O   UNL A   1      35.923  33.656  28.438  1.00  0.00    -0.744 OA
ENDBRANCH  67  70
ENDBRANCH  49  63
BRANCH  50  74
ATOM     74  C   UNL A   1      47.102  28.247  27.059  1.00  0.00     0.023 A 
ATOM     75  C   UNL A   1      48.298  28.133  27.793  1.00  0.00     0.012 A 
ATOM     76  C   UNL A   1      47.131  28.040  25.665  1.00  0.00     0.148 A 
ATOM     77  C   UNL A   1      49.505  27.860  27.146  1.00  0.00     0.002 A 
ATOM     78  C   UNL A   1      48.323  27.701  25.038  1.00  0.00     0.091 A 
ATOM     79  F   UNL A   1      45.991  28.184  24.977  1.00  0.00    -0.205 F 
ATOM     80  C   UNL A   1      49.515  27.632  25.772  1.00  0.00     0.022 A 
BRANCH  78  81
ATOM     81  S   UNL A   1      48.394  27.256  23.300  1.00  0.00     0.127 S 
ATOM     82  O   UNL A   1      49.816  27.409  23.009  1.00  0.00    -0.237 OA
ATOM     83  O   UNL A   1      47.914  25.873  23.326  1.00  0.00    -0.237 OA
ATOM     84  O   UNL A   1      47.500  28.186  22.623  1.00  0.00    -0.744 OA
ENDBRANCH  78  81
ENDBRANCH  50  74
BRANCH  62  85
ATOM     85  C   UNL A   1      44.629  34.241  29.654  1.00  0.00     0.023 A 
ATOM     86  C   UNL A   1      45.386  34.600  30.786  1.00  0.00     0.012 A 
ATOM     87  C   UNL A   1      44.502  35.153  28.587  1.00  0.00     0.148 A 
ATOM     88  C   UNL A   1      45.985  35.857  30.867  1.00  0.00     0.002 A 
ATOM     89  C   UNL A   1      45.144  36.382  28.651  1.00  0.00     0.091 A 
ATOM     90  F   UNL A   1      43.767  34.793  27.524  1.00  0.00    -0.205 F 
ATOM     91  C   UNL A   1      45.875  36.741  29.796  1.00  0.00     0.022 A 
BRANCH  89  92
ATOM     92  S   UNL A   1      45.143  37.546  27.283  1.00  0.00     0.127 S 
ATOM     93  O   UNL A   1      45.746  38.728  27.898  1.00  0.00    -0.237 OA
ATOM     94  O   UNL A   1      45.992  36.869  26.302  1.00  0.00    -0.237 OA
ATOM     95  O   UNL A   1      43.752  37.698  26.881  1.00  0.00    -0.744 OA
ENDBRANCH  89  92
ENDBRANCH  62  85
ENDBRANCH  36  37
ENDBRANCH  29  31
ENDBRANCH  28  29
ENDBRANCH  27  28
ENDBRANCH  26  27
ENDBRANCH   1  26
TORSDOF 21
ENDMDL
MODEL 3
REMARK VINA RESULT:     -10.6      3.804      9.754
REMARK SMILES O=C(CCc1nc(-c2ccccc2)c(-c2ccccc2)o1)OCCOCCOC(=O)c1ccc(-c2c3nc(c(-c4cccc(S(=O)(=O)[O-])c4F)c4ccc([nH]4)c(-c4cccc(S(=O)(=O)[O-])c4F)c4nc(c(-c5cccc(S(=O)(=O)[O-])c5F)c5ccc2[nH]5)C=C4)C=C3)cc1
REMARK SMILES IDX 25 1 24 2 23 3 22 4 2 5 1 6 3 7 4 8 5 9 6 10 21 11 7 12
REMARK SMILES IDX 14 13 8 14 9 15 13 16 10 17 12 18 11 19 15 20 16 21 20 22
REMARK SMILES IDX 17 23 19 24 18 25 26 26 27 27 28 28 29 29 30 30 31 31 32 32
REMARK SMILES IDX 93 33 33 34 92 35 34 36 35 37 36 38 86 39 37 40 91 41 85 42
REMARK SMILES IDX 87 43 38 44 90 45 84 46 83 47 39 49 71 50 51 51 70 52 52 53
REMARK SMILES IDX 55 54 69 55 88 56 53 57 54 58 68 60 89 61 56 62 40 63 41 64
REMARK SMILES IDX 49 65 42 66 44 67 50 68 43 69 45 70 46 71 47 72 48 73 72 74
REMARK SMILES IDX 73 75 81 76 74 77 76 78 82 79 75 80 77 81 78 82 79 83 80 84
REMARK SMILES IDX 57 85 58 86 66 87 59 88 61 89 67 90 60 91 62 92 63 93 64 94
REMARK SMILES IDX 65 95
REMARK H PARENT 87 48 55 59
REMARK Flexibility Score: inf
ROOT
ATOM      1  O   UNL A   1      34.945  35.884  33.383  1.00  0.00    -0.374 OA
ENDROOT
BRANCH   1   2
ATOM      2  C   UNL A   1      34.086  36.751  32.659  1.00  0.00     0.202 C 
BRANCH   2   3
ATOM      3  C   UNL A   1      32.733  36.221  32.174  1.00  0.00     0.261 C 
BRANCH   3   4
ATOM      4  O   UNL A   1      32.310  36.620  30.863  1.00  0.00    -0.463 OA
BRANCH   4   5
ATOM      5  C   UNL A   1      32.963  36.305  29.726  1.00  0.00     0.306 C 
ATOM      6  O   UNL A   1      32.910  37.055  28.754  1.00  0.00    -0.252 OA
BRANCH   5   7
ATOM      7  C   UNL A   1      33.580  34.938  29.603  1.00  0.00     0.132 C 
BRANCH   7   8
ATOM      8  C   UNL A   1      33.329  34.211  28.297  1.00  0.00     0.109 C 
BRANCH   8   9
ATOM      9  C   UNL A   1      33.953  32.866  28.194  1.00  0.00     0.196 A 
ATOM     10  N   UNL A   1      35.073  32.473  28.757  1.00  0.00    -0.213 NA
ATOM     11  O   UNL A   1      33.311  31.891  27.466  1.00  0.00    -0.440 OA
ATOM     12  C   UNL A   1      35.181  31.154  28.398  1.00  0.00     0.117 A 
ATOM     13  C   UNL A   1      34.078  30.756  27.659  1.00  0.00     0.162 A 
BRANCH  12  14
ATOM     14  C   UNL A   1      36.247  30.295  28.857  1.00  0.00     0.004 A 
ATOM     15  C   UNL A   1      37.197  29.793  27.958  1.00  0.00     0.010 A 
ATOM     16  C   UNL A   1      36.275  29.891  30.196  1.00  0.00     0.010 A 
ATOM     17  C   UNL A   1      38.138  28.858  28.387  1.00  0.00     0.001 A 
ATOM     18  C   UNL A   1      37.218  28.958  30.622  1.00  0.00     0.001 A 
ATOM     19  C   UNL A   1      38.143  28.437  29.716  1.00  0.00     0.000 A 
ENDBRANCH  12  14
BRANCH  13  20
ATOM     20  C   UNL A   1      33.555  29.470  27.186  1.00  0.00     0.020 A 
ATOM     21  C   UNL A   1      34.277  28.629  26.333  1.00  0.00     0.012 A 
ATOM     22  C   UNL A   1      32.281  29.037  27.598  1.00  0.00     0.012 A 
ATOM     23  C   UNL A   1      33.751  27.390  25.931  1.00  0.00     0.001 A 
ATOM     24  C   UNL A   1      31.770  27.790  27.226  1.00  0.00     0.001 A 
ATOM     25  C   UNL A   1      32.500  26.969  26.381  1.00  0.00     0.000 A 
ENDBRANCH  13  20
ENDBRANCH   8   9
ENDBRANCH   7   8
ENDBRANCH   5   7
ENDBRANCH   4   5
ENDBRANCH   3   4
ENDBRANCH   2   3
ENDBRANCH   1   2
BRANCH   1  26
ATOM     26  C   UNL A   1      35.698  34.936  32.639  1.00  0.00     0.202 C 
BRANCH  26  27
ATOM     27  C   UNL A   1      37.056  34.573  33.240  1.00  0.00     0.261 C 
BRANCH  27  28
ATOM     28  O   UNL A   1      37.879  33.852  32.305  1.00  0.00    -0.460 OA
BRANCH  28  29
ATOM     29  C   UNL A   1      37.972  32.515  32.508  1.00  0.00     0.338 C 
ATOM     30  O   UNL A   1      37.187  31.798  33.113  1.00  0.00    -0.246 OA
BRANCH  29  31
ATOM     31  C   UNL A   1      39.075  31.994  31.682  1.00  0.00     0.060 A 
ATOM     32  C   UNL A   1      40.157  31.384  32.327  1.00  0.00     0.016 A 
ATOM     33  C   UNL A   1      39.055  32.116  30.293  1.00  0.00     0.016 A 
ATOM     34  C   UNL A   1      41.211  30.874  31.579  1.00  0.00     0.010 A 
ATOM     35  C   UNL A   1      40.140  31.637  29.550  1.00  0.00     0.010 A 
ATOM     36  C   UNL A   1      41.228  31.021  30.192  1.00  0.00    -0.014 A 
BRANCH  36  37
ATOM     37  C   UNL A   1      42.462  30.679  29.448  1.00  0.00     0.031 A 
ATOM     38  C   UNL A   1      42.730  29.236  29.136  1.00  0.00     0.074 A 
ATOM     39  C   UNL A   1      43.312  31.631  29.022  1.00  0.00     0.049 A 
ATOM     40  N   UNL A   1      43.815  28.679  28.674  1.00  0.00    -0.248 NA
ATOM     41  C   UNL A   1      41.620  28.297  29.371  1.00  0.00     0.031 C 
ATOM     42  C   UNL A   1      43.114  33.073  29.161  1.00  0.00     0.029 A 
ATOM     43  N   UNL A   1      44.539  31.517  28.411  1.00  0.00    -0.354 N 
ATOM     44  C   UNL A   1      43.550  27.316  28.641  1.00  0.00     0.074 A 
ATOM     45  C   UNL A   1      42.186  27.133  29.083  1.00  0.00     0.031 C 
ATOM     46  C   UNL A   1      44.205  33.708  28.701  1.00  0.00     0.029 A 
ATOM     47  C   UNL A   1      45.202  32.718  28.301  1.00  0.00     0.049 A 
ATOM     48  H   UNL A   1      44.906  30.663  28.085  1.00  0.00     0.167 HD
ATOM     49  C   UNL A   1      44.382  26.310  28.291  1.00  0.00     0.034 A 
ATOM     50  C   UNL A   1      46.489  32.980  27.994  1.00  0.00     0.034 A 
ATOM     51  C   UNL A   1      45.721  26.505  27.811  1.00  0.00     0.049 A 
ATOM     52  C   UNL A   1      47.416  31.833  27.679  1.00  0.00     0.074 A 
ATOM     53  C   UNL A   1      46.628  25.548  27.389  1.00  0.00     0.029 A 
ATOM     54  N   UNL A   1      46.354  27.732  27.708  1.00  0.00    -0.354 N 
ATOM     55  N   UNL A   1      47.148  30.552  27.595  1.00  0.00    -0.248 NA
ATOM     56  C   UNL A   1      48.824  32.166  27.410  1.00  0.00     0.031 C 
ATOM     57  C   UNL A   1      47.827  26.193  27.080  1.00  0.00     0.029 A 
ATOM     58  C   UNL A   1      47.652  27.556  27.263  1.00  0.00     0.049 A 
ATOM     59  H   UNL A   1      45.943  28.600  27.922  1.00  0.00     0.167 HD
ATOM     60  C   UNL A   1      48.344  29.933  27.243  1.00  0.00     0.074 A 
ATOM     61  C   UNL A   1      49.331  30.982  27.099  1.00  0.00     0.031 C 
ATOM     62  C   UNL A   1      48.608  28.614  27.074  1.00  0.00     0.034 A 
BRANCH  49  63
ATOM     63  C   UNL A   1      43.895  24.898  28.455  1.00  0.00     0.023 A 
ATOM     64  C   UNL A   1      43.920  24.273  29.715  1.00  0.00     0.012 A 
ATOM     65  C   UNL A   1      43.321  24.230  27.355  1.00  0.00     0.148 A 
ATOM     66  C   UNL A   1      43.392  22.992  29.875  1.00  0.00     0.002 A 
ATOM     67  C   UNL A   1      42.755  22.976  27.532  1.00  0.00     0.091 A 
ATOM     68  F   UNL A   1      43.335  24.839  26.161  1.00  0.00    -0.205 F 
ATOM     69  C   UNL A   1      42.796  22.352  28.790  1.00  0.00     0.022 A 
BRANCH  67  70
ATOM     70  S   UNL A   1      41.893  22.110  26.217  1.00  0.00     0.127 S 
ATOM     71  O   UNL A   1      41.926  20.731  26.701  1.00  0.00    -0.237 OA
ATOM     72  O   UNL A   1      40.572  22.739  26.254  1.00  0.00    -0.237 OA
ATOM     73  O   UNL A   1      42.655  22.358  25.001  1.00  0.00    -0.744 OA
ENDBRANCH  67  70
ENDBRANCH  49  63
BRANCH  50  74
ATOM     74  C   UNL A   1      47.008  34.377  28.047  1.00  0.00     0.023 A 
ATOM     75  C   UNL A   1      46.992  35.182  26.892  1.00  0.00     0.012 A 
ATOM     76  C   UNL A   1      47.547  34.901  29.240  1.00  0.00     0.148 A 
ATOM     77  C   UNL A   1      47.537  36.467  26.914  1.00  0.00     0.002 A 
ATOM     78  C   UNL A   1      48.026  36.205  29.272  1.00  0.00     0.091 A 
ATOM     79  F   UNL A   1      47.586  34.112  30.321  1.00  0.00    -0.205 F 
ATOM     80  C   UNL A   1      48.043  36.982  28.105  1.00  0.00     0.022 A 
BRANCH  78  81
ATOM     81  S   UNL A   1      48.562  36.987  30.795  1.00  0.00     0.127 S 
ATOM     82  O   UNL A   1      49.010  38.293  30.320  1.00  0.00    -0.237 OA
ATOM     83  O   UNL A   1      47.324  37.005  31.575  1.00  0.00    -0.237 OA
ATOM     84  O   UNL A   1      49.598  36.117  31.337  1.00  0.00    -0.744 OA
ENDBRANCH  78  81
ENDBRANCH  50  74
BRANCH  62  85
ATOM     85  C   UNL A   1      50.006  28.220  26.676  1.00  0.00     0.023 A 
ATOM     86  C   UNL A   1      50.369  28.199  25.315  1.00  0.00     0.012 A 
ATOM     87  C   UNL A   1      50.984  27.967  27.658  1.00  0.00     0.148 A 
ATOM     88  C   UNL A   1      51.680  27.904  24.938  1.00  0.00     0.002 A 
ATOM     89  C   UNL A   1      52.297  27.726  27.278  1.00  0.00     0.091 A 
ATOM     90  F   UNL A   1      50.612  27.982  28.947  1.00  0.00    -0.205 F 
ATOM     91  C   UNL A   1      52.644  27.681  25.918  1.00  0.00     0.022 A 
BRANCH  89  92
ATOM     92  S   UNL A   1      53.628  27.526  28.468  1.00  0.00     0.127 S 
ATOM     93  O   UNL A   1      53.815  28.899  28.938  1.00  0.00    -0.237 OA
ATOM     94  O   UNL A   1      53.029  26.622  29.451  1.00  0.00    -0.237 OA
ATOM     95  O   UNL A   1      54.751  26.965  27.730  1.00  0.00    -0.744 OA
ENDBRANCH  89  92
ENDBRANCH  62  85
ENDBRANCH  36  37
ENDBRANCH  29  31
ENDBRANCH  28  29
ENDBRANCH  27  28
ENDBRANCH  26  27
ENDBRANCH   1  26
TORSDOF 21
ENDMDL
