MODEL 1
REMARK VINA RESULT:     -10.7      0.000      0.000
REMARK SMILES CC(=O)c1ccc(N2CCN(c3ccc(C(=O)OCCOCCOC(=O)c4ccc(-c5c6nc(c(-c7cccc(S(=O)(=O)[O-])c7F)c7ccc([nH]7)c(-c7cccc(S(=O)(=O)[O-])c7F)c7nc(c(-c8cccc(S(=O)(=O)[O-])c8F)c8ccc5[nH]8)C=C7)C=C6)cc4)cc3NS(=O)(=O)c3ccc(C)cc3)CC2)cc1
REMARK SMILES IDX 21 1 20 2 19 3 18 4 16 5 17 6 15 7 12 8 13 9 91 10 14 11
REMARK SMILES IDX 90 12 11 13 8 14 9 15 104 16 10 17 103 18 7 19 4 20 5 21
REMARK SMILES IDX 106 22 6 23 105 24 2 25 1 26 3 27 92 28 93 30 94 31 95 32
REMARK SMILES IDX 96 33 97 34 102 35 98 36 101 37 99 38 100 39 22 40 23 41
REMARK SMILES IDX 24 42 25 43 26 44 27 45 28 46 89 47 29 48 88 49 30 50 31 51
REMARK SMILES IDX 32 52 82 53 33 54 87 55 81 56 83 57 34 58 86 59 80 60 79 61
REMARK SMILES IDX 35 63 67 64 47 65 66 66 48 67 51 68 65 69 84 70 49 71 50 72
REMARK SMILES IDX 64 74 85 75 52 76 36 77 37 78 45 79 38 80 40 81 46 82 39 83
REMARK SMILES IDX 41 84 42 85 43 86 44 87 68 88 69 89 77 90 70 91 72 92 78 93
REMARK SMILES IDX 71 94 73 95 74 96 75 97 76 98 53 99 54 100 62 101 55 102
REMARK SMILES IDX 57 103 63 104 56 105 58 106 59 107 60 108 61 109
REMARK H PARENT 92 29 83 62 51 73
REMARK Flexibility Score: inf
ROOT
ATOM      1  O   UNL A   1      35.267  33.818  30.345  1.00  0.00    -0.374 OA
ENDROOT
BRANCH   1   2
ATOM      2  C   UNL A   1      34.490  33.429  29.209  1.00  0.00     0.202 C 
BRANCH   2   3
ATOM      3  C   UNL A   1      34.467  31.911  29.016  1.00  0.00     0.261 C 
BRANCH   3   4
ATOM      4  O   UNL A   1      34.366  31.600  27.615  1.00  0.00    -0.460 OA
BRANCH   4   5
ATOM      5  C   UNL A   1      33.127  31.334  27.139  1.00  0.00     0.338 C 
ATOM      6  O   UNL A   1      32.210  32.129  27.003  1.00  0.00    -0.246 OA
BRANCH   5   7
ATOM      7  C   UNL A   1      33.050  29.925  26.668  1.00  0.00     0.062 A 
ATOM      8  C   UNL A   1      32.905  27.198  25.996  1.00  0.00     0.061 A 
ATOM      9  C   UNL A   1      33.942  27.669  26.803  1.00  0.00     0.029 A 
ATOM     10  C   UNL A   1      31.933  28.111  25.527  1.00  0.00     0.073 A 
ATOM     11  C   UNL A   1      34.012  29.023  27.141  1.00  0.00     0.018 A 
ATOM     12  C   UNL A   1      32.016  29.467  25.843  1.00  0.00     0.044 A 
BRANCH   8  13
ATOM     13  N   UNL A   1      32.783  25.861  25.622  1.00  0.00    -0.366 N 
ATOM     14  N   UNL A   1      32.786  23.109  24.946  1.00  0.00    -0.368 N 
ATOM     15  C   UNL A   1      31.642  23.681  25.678  1.00  0.00     0.138 C 
ATOM     16  C   UNL A   1      33.513  24.057  24.075  1.00  0.00     0.138 C 
ATOM     17  C   UNL A   1      32.100  24.907  26.502  1.00  0.00     0.138 C 
ATOM     18  C   UNL A   1      33.936  25.309  24.872  1.00  0.00     0.138 C 
BRANCH  14  19
ATOM     19  C   UNL A   1      32.798  21.771  24.603  1.00  0.00     0.037 A 
ATOM     20  C   UNL A   1      32.947  19.090  23.735  1.00  0.00     0.017 A 
ATOM     21  C   UNL A   1      33.435  19.453  24.993  1.00  0.00     0.014 A 
ATOM     22  C   UNL A   1      32.339  20.053  22.930  1.00  0.00     0.014 A 
ATOM     23  C   UNL A   1      33.369  20.785  25.414  1.00  0.00     0.026 A 
ATOM     24  C   UNL A   1      32.258  21.376  23.372  1.00  0.00     0.026 A 
BRANCH  20  25
ATOM     25  C   UNL A   1      33.123  17.685  23.278  1.00  0.00     0.159 C 
ATOM     26  C   UNL A   1      33.932  16.753  24.141  1.00  0.00     0.093 C 
ATOM     27  O   UNL A   1      32.567  17.295  22.254  1.00  0.00    -0.295 OA
ENDBRANCH  20  25
ENDBRANCH  14  19
ENDBRANCH   8  13
BRANCH  10  28
ATOM     28  N   UNL A   1      30.788  27.509  24.911  1.00  0.00    -0.277 N 
ATOM     29  H   UNL A   1      30.021  27.267  25.480  1.00  0.00     0.180 HD
BRANCH  28  30
ATOM     30  S   UNL A   1      30.694  27.194  23.266  1.00  0.00     0.261 S 
ATOM     31  O   UNL A   1      32.029  27.334  22.717  1.00  0.00    -0.201 OA
ATOM     32  O   UNL A   1      29.947  25.964  23.139  1.00  0.00    -0.201 OA
BRANCH  30  33
ATOM     33  C   UNL A   1      29.672  28.519  22.705  1.00  0.00     0.087 A 
ATOM     34  C   UNL A   1      28.406  28.667  23.281  1.00  0.00     0.022 A 
ATOM     35  C   UNL A   1      30.238  29.525  21.922  1.00  0.00     0.022 A 
ATOM     36  C   UNL A   1      27.760  29.891  23.174  1.00  0.00     0.005 A 
ATOM     37  C   UNL A   1      29.567  30.736  21.795  1.00  0.00     0.005 A 
ATOM     38  C   UNL A   1      28.355  30.940  22.462  1.00  0.00    -0.051 A 
ATOM     39  C   UNL A   1      27.695  32.276  22.432  1.00  0.00     0.044 C 
ENDBRANCH  30  33
ENDBRANCH  28  30
ENDBRANCH  10  28
ENDBRANCH   5   7
ENDBRANCH   4   5
ENDBRANCH   3   4
ENDBRANCH   2   3
ENDBRANCH   1   2
BRANCH   1  40
ATOM     40  C   UNL A   1      34.491  34.090  31.517  1.00  0.00     0.202 C 
BRANCH  40  41
ATOM     41  C   UNL A   1      34.330  32.861  32.419  1.00  0.00     0.261 C 
BRANCH  41  42
ATOM     42  O   UNL A   1      35.531  32.062  32.426  1.00  0.00    -0.460 OA
BRANCH  42  43
ATOM     43  C   UNL A   1      36.395  32.286  33.448  1.00  0.00     0.338 C 
ATOM     44  O   UNL A   1      36.132  32.786  34.529  1.00  0.00    -0.246 OA
BRANCH  43  45
ATOM     45  C   UNL A   1      37.723  31.711  33.120  1.00  0.00     0.060 A 
ATOM     46  C   UNL A   1      38.833  32.142  33.860  1.00  0.00     0.016 A 
ATOM     47  C   UNL A   1      37.892  30.763  32.106  1.00  0.00     0.016 A 
ATOM     48  C   UNL A   1      40.108  31.631  33.589  1.00  0.00     0.010 A 
ATOM     49  C   UNL A   1      39.164  30.239  31.849  1.00  0.00     0.010 A 
ATOM     50  C   UNL A   1      40.286  30.681  32.575  1.00  0.00    -0.014 A 
BRANCH  50  51
ATOM     51  C   UNL A   1      41.647  30.229  32.181  1.00  0.00     0.031 A 
ATOM     52  C   UNL A   1      42.363  30.978  31.091  1.00  0.00     0.074 A 
ATOM     53  C   UNL A   1      42.227  29.145  32.732  1.00  0.00     0.049 A 
ATOM     54  N   UNL A   1      43.558  30.775  30.603  1.00  0.00    -0.248 NA
ATOM     55  C   UNL A   1      41.645  32.109  30.481  1.00  0.00     0.031 C 
ATOM     56  C   UNL A   1      41.663  28.328  33.800  1.00  0.00     0.029 A 
ATOM     57  N   UNL A   1      43.413  28.516  32.439  1.00  0.00    -0.354 N 
ATOM     58  C   UNL A   1      43.741  31.756  29.640  1.00  0.00     0.074 A 
ATOM     59  C   UNL A   1      42.516  32.523  29.573  1.00  0.00     0.031 C 
ATOM     60  C   UNL A   1      42.444  27.256  34.009  1.00  0.00     0.029 A 
ATOM     61  C   UNL A   1      43.600  27.337  33.124  1.00  0.00     0.049 A 
ATOM     62  H   UNL A   1      44.069  28.876  31.798  1.00  0.00     0.167 HD
ATOM     63  C   UNL A   1      44.845  32.028  28.908  1.00  0.00     0.034 A 
ATOM     64  C   UNL A   1      44.597  26.433  33.067  1.00  0.00     0.034 A 
ATOM     65  C   UNL A   1      46.068  31.278  28.982  1.00  0.00     0.049 A 
ATOM     66  C   UNL A   1      45.798  26.729  32.213  1.00  0.00     0.074 A 
ATOM     67  C   UNL A   1      47.267  31.521  28.336  1.00  0.00     0.029 A 
ATOM     68  N   UNL A   1      46.242  30.126  29.732  1.00  0.00    -0.354 N 
ATOM     69  N   UNL A   1      46.033  27.776  31.460  1.00  0.00    -0.248 NA
ATOM     70  C   UNL A   1      46.903  25.759  32.254  1.00  0.00     0.031 C 
ATOM     71  C   UNL A   1      48.163  30.503  28.684  1.00  0.00     0.029 A 
ATOM     72  C   UNL A   1      47.524  29.635  29.554  1.00  0.00     0.049 A 
ATOM     73  H   UNL A   1      45.556  29.718  30.308  1.00  0.00     0.167 HD
ATOM     74  C   UNL A   1      47.329  27.620  30.982  1.00  0.00     0.074 A 
ATOM     75  C   UNL A   1      47.831  26.378  31.535  1.00  0.00     0.031 C 
ATOM     76  C   UNL A   1      48.035  28.430  30.158  1.00  0.00     0.034 A 
BRANCH  63  77
ATOM     77  C   UNL A   1      44.795  33.235  28.016  1.00  0.00     0.023 A 
ATOM     78  C   UNL A   1      44.353  33.084  26.685  1.00  0.00     0.012 A 
ATOM     79  C   UNL A   1      45.156  34.509  28.487  1.00  0.00     0.148 A 
ATOM     80  C   UNL A   1      44.298  34.179  25.827  1.00  0.00     0.002 A 
ATOM     81  C   UNL A   1      45.066  35.604  27.636  1.00  0.00     0.091 A 
ATOM     82  F   UNL A   1      45.604  34.624  29.746  1.00  0.00    -0.205 F 
ATOM     83  C   UNL A   1      44.646  35.441  26.305  1.00  0.00     0.022 A 
BRANCH  81  84
ATOM     84  S   UNL A   1      45.438  37.275  28.176  1.00  0.00     0.127 S 
ATOM     85  O   UNL A   1      46.843  37.153  28.562  1.00  0.00    -0.237 OA
ATOM     86  O   UNL A   1      45.207  38.055  26.960  1.00  0.00    -0.237 OA
ATOM     87  O   UNL A   1      44.509  37.558  29.262  1.00  0.00    -0.744 OA
ENDBRANCH  81  84
ENDBRANCH  63  77
BRANCH  64  88
ATOM     88  C   UNL A   1      44.555  25.217  33.928  1.00  0.00     0.023 A 
ATOM     89  C   UNL A   1      44.016  24.023  33.410  1.00  0.00     0.012 A 
ATOM     90  C   UNL A   1      45.058  25.229  35.244  1.00  0.00     0.148 A 
ATOM     91  C   UNL A   1      43.948  22.874  34.196  1.00  0.00     0.002 A 
ATOM     92  C   UNL A   1      45.024  24.067  36.009  1.00  0.00     0.091 A 
ATOM     93  F   UNL A   1      45.556  26.378  35.724  1.00  0.00    -0.205 F 
ATOM     94  C   UNL A   1      44.456  22.893  35.492  1.00  0.00     0.022 A 
BRANCH  92  95
ATOM     95  S   UNL A   1      45.753  23.969  37.648  1.00  0.00     0.127 S 
ATOM     96  O   UNL A   1      44.930  24.916  38.398  1.00  0.00    -0.237 OA
ATOM     97  O   UNL A   1      45.540  22.562  37.991  1.00  0.00    -0.237 OA
ATOM     98  O   UNL A   1      47.150  24.337  37.475  1.00  0.00    -0.744 OA
ENDBRANCH  92  95
ENDBRANCH  64  88
BRANCH  76  99
ATOM     99  C   UNL A   1      49.444  28.029  29.819  1.00  0.00     0.023 A 
ATOM    100  C   UNL A   1      50.479  28.274  30.744  1.00  0.00     0.012 A 
ATOM    101  C   UNL A   1      49.729  27.333  28.628  1.00  0.00     0.148 A 
ATOM    102  C   UNL A   1      51.780  27.851  30.477  1.00  0.00     0.002 A 
ATOM    103  C   UNL A   1      51.020  26.874  28.391  1.00  0.00     0.091 A 
ATOM    104  F   UNL A   1      48.737  27.131  27.750  1.00  0.00    -0.205 F 
ATOM    105  C   UNL A   1      52.048  27.140  29.310  1.00  0.00     0.022 A 
BRANCH 103 106
ATOM    106  S   UNL A   1      51.428  25.869  26.959  1.00  0.00     0.127 S 
ATOM    107  O   UNL A   1      50.807  26.626  25.874  1.00  0.00    -0.237 OA
ATOM    108  O   UNL A   1      52.892  25.896  26.963  1.00  0.00    -0.237 OA
ATOM    109  O   UNL A   1      50.853  24.556  27.221  1.00  0.00    -0.744 OA
ENDBRANCH 103 106
ENDBRANCH  76  99
ENDBRANCH  50  51
ENDBRANCH  43  45
ENDBRANCH  42  43
ENDBRANCH  41  42
ENDBRANCH  40  41
ENDBRANCH   1  40
TORSDOF 23
ENDMDL
MODEL 2
REMARK VINA RESULT:     -10.4      6.167     10.581
REMARK SMILES CC(=O)c1ccc(N2CCN(c3ccc(C(=O)OCCOCCOC(=O)c4ccc(-c5c6nc(c(-c7cccc(S(=O)(=O)[O-])c7F)c7ccc([nH]7)c(-c7cccc(S(=O)(=O)[O-])c7F)c7nc(c(-c8cccc(S(=O)(=O)[O-])c8F)c8ccc5[nH]8)C=C7)C=C6)cc4)cc3NS(=O)(=O)c3ccc(C)cc3)CC2)cc1
REMARK SMILES IDX 21 1 20 2 19 3 18 4 16 5 17 6 15 7 12 8 13 9 91 10 14 11
REMARK SMILES IDX 90 12 11 13 8 14 9 15 104 16 10 17 103 18 7 19 4 20 5 21
REMARK SMILES IDX 106 22 6 23 105 24 2 25 1 26 3 27 92 28 93 30 94 31 95 32
REMARK SMILES IDX 96 33 97 34 102 35 98 36 101 37 99 38 100 39 22 40 23 41
REMARK SMILES IDX 24 42 25 43 26 44 27 45 28 46 89 47 29 48 88 49 30 50 31 51
REMARK SMILES IDX 32 52 82 53 33 54 87 55 81 56 83 57 34 58 86 59 80 60 79 61
REMARK SMILES IDX 35 63 67 64 47 65 66 66 48 67 51 68 65 69 84 70 49 71 50 72
REMARK SMILES IDX 64 74 85 75 52 76 36 77 37 78 45 79 38 80 40 81 46 82 39 83
REMARK SMILES IDX 41 84 42 85 43 86 44 87 68 88 69 89 77 90 70 91 72 92 78 93
REMARK SMILES IDX 71 94 73 95 74 96 75 97 76 98 53 99 54 100 62 101 55 102
REMARK SMILES IDX 57 103 63 104 56 105 58 106 59 107 60 108 61 109
REMARK H PARENT 92 29 83 62 51 73
REMARK Flexibility Score: inf
ROOT
ATOM      1  O   UNL A   1      36.220  33.129  35.256  1.00  0.00    -0.374 OA
ENDROOT
BRANCH   1   2
ATOM      2  C   UNL A   1      37.388  33.575  35.952  1.00  0.00     0.202 C 
BRANCH   2   3
ATOM      3  C   UNL A   1      38.392  34.257  35.021  1.00  0.00     0.261 C 
BRANCH   3   4
ATOM      4  O   UNL A   1      39.573  33.444  34.899  1.00  0.00    -0.460 OA
BRANCH   4   5
ATOM      5  C   UNL A   1      40.645  34.016  34.302  1.00  0.00     0.338 C 
ATOM      6  O   UNL A   1      40.792  35.199  34.042  1.00  0.00    -0.246 OA
BRANCH   5   7
ATOM      7  C   UNL A   1      41.719  33.006  34.102  1.00  0.00     0.062 A 
ATOM      8  C   UNL A   1      43.890  31.237  33.838  1.00  0.00     0.061 A 
ATOM      9  C   UNL A   1      43.997  32.553  33.386  1.00  0.00     0.029 A 
ATOM     10  C   UNL A   1      42.678  30.812  34.429  1.00  0.00     0.073 A 
ATOM     11  C   UNL A   1      42.920  33.434  33.521  1.00  0.00     0.018 A 
ATOM     12  C   UNL A   1      41.595  31.683  34.542  1.00  0.00     0.044 A 
BRANCH   8  13
ATOM     13  N   UNL A   1      44.926  30.312  33.729  1.00  0.00    -0.366 N 
ATOM     14  N   UNL A   1      47.076  28.526  33.261  1.00  0.00    -0.368 N 
ATOM     15  C   UNL A   1      47.000  29.262  34.536  1.00  0.00     0.138 C 
ATOM     16  C   UNL A   1      45.775  28.259  32.611  1.00  0.00     0.138 C 
ATOM     17  C   UNL A   1      46.231  30.589  34.336  1.00  0.00     0.138 C 
ATOM     18  C   UNL A   1      44.974  29.569  32.448  1.00  0.00     0.138 C 
BRANCH  14  19
ATOM     19  C   UNL A   1      48.114  27.647  33.023  1.00  0.00     0.037 A 
ATOM     20  C   UNL A   1      50.175  25.849  32.328  1.00  0.00     0.017 A 
ATOM     21  C   UNL A   1      50.483  27.101  32.865  1.00  0.00     0.014 A 
ATOM     22  C   UNL A   1      48.840  25.471  32.184  1.00  0.00     0.014 A 
ATOM     23  C   UNL A   1      49.458  27.994  33.196  1.00  0.00     0.026 A 
ATOM     24  C   UNL A   1      47.825  26.362  32.542  1.00  0.00     0.026 A 
BRANCH  20  25
ATOM     25  C   UNL A   1      51.290  24.964  31.893  1.00  0.00     0.159 C 
ATOM     26  C   UNL A   1      52.693  25.509  31.948  1.00  0.00     0.093 C 
ATOM     27  O   UNL A   1      51.063  23.804  31.558  1.00  0.00    -0.295 OA
ENDBRANCH  20  25
ENDBRANCH  14  19
ENDBRANCH   8  13
BRANCH  10  28
ATOM     28  N   UNL A   1      42.737  29.532  35.072  1.00  0.00    -0.277 N 
ATOM     29  H   UNL A   1      43.588  29.250  35.480  1.00  0.00     0.180 HD
BRANCH  28  30
ATOM     30  S   UNL A   1      41.425  28.492  35.159  1.00  0.00     0.261 S 
ATOM     31  O   UNL A   1      40.751  28.742  36.419  1.00  0.00    -0.201 OA
ATOM     32  O   UNL A   1      40.736  28.613  33.895  1.00  0.00    -0.201 OA
BRANCH  30  33
ATOM     33  C   UNL A   1      42.217  26.916  35.207  1.00  0.00     0.087 A 
ATOM     34  C   UNL A   1      41.508  25.835  35.742  1.00  0.00     0.022 A 
ATOM     35  C   UNL A   1      43.390  26.726  34.478  1.00  0.00     0.022 A 
ATOM     36  C   UNL A   1      41.915  24.546  35.431  1.00  0.00     0.005 A 
ATOM     37  C   UNL A   1      43.808  25.430  34.199  1.00  0.00     0.005 A 
ATOM     38  C   UNL A   1      43.044  24.340  34.629  1.00  0.00    -0.051 A 
ATOM     39  C   UNL A   1      43.417  22.953  34.227  1.00  0.00     0.044 C 
ENDBRANCH  30  33
ENDBRANCH  28  30
ENDBRANCH  10  28
ENDBRANCH   5   7
ENDBRANCH   4   5
ENDBRANCH   3   4
ENDBRANCH   2   3
ENDBRANCH   1   2
BRANCH   1  40
ATOM     40  C   UNL A   1      35.495  34.176  34.604  1.00  0.00     0.202 C 
BRANCH  40  41
ATOM     41  C   UNL A   1      34.634  33.667  33.442  1.00  0.00     0.261 C 
BRANCH  41  42
ATOM     42  O   UNL A   1      35.093  32.379  32.982  1.00  0.00    -0.460 OA
BRANCH  42  43
ATOM     43  C   UNL A   1      35.206  32.228  31.639  1.00  0.00     0.338 C 
ATOM     44  O   UNL A   1      34.351  32.465  30.803  1.00  0.00    -0.246 OA
BRANCH  43  45
ATOM     45  C   UNL A   1      36.596  31.841  31.291  1.00  0.00     0.060 A 
ATOM     46  C   UNL A   1      37.491  31.576  32.336  1.00  0.00     0.016 A 
ATOM     47  C   UNL A   1      37.028  31.734  29.966  1.00  0.00     0.016 A 
ATOM     48  C   UNL A   1      38.814  31.207  32.061  1.00  0.00     0.010 A 
ATOM     49  C   UNL A   1      38.345  31.347  29.691  1.00  0.00     0.010 A 
ATOM     50  C   UNL A   1      39.254  31.098  30.736  1.00  0.00    -0.014 A 
BRANCH  50  51
ATOM     51  C   UNL A   1      40.686  30.843  30.425  1.00  0.00     0.031 A 
ATOM     52  C   UNL A   1      41.595  32.022  30.214  1.00  0.00     0.074 A 
ATOM     53  C   UNL A   1      41.173  29.595  30.275  1.00  0.00     0.049 A 
ATOM     54  N   UNL A   1      42.876  32.037  29.956  1.00  0.00    -0.248 NA
ATOM     55  C   UNL A   1      40.985  33.358  30.322  1.00  0.00     0.031 C 
ATOM     56  C   UNL A   1      40.420  28.359  30.457  1.00  0.00     0.029 A 
ATOM     57  N   UNL A   1      42.420  29.159  29.895  1.00  0.00    -0.354 N 
ATOM     58  C   UNL A   1      43.227  33.376  29.881  1.00  0.00     0.074 A 
ATOM     59  C   UNL A   1      42.018  34.147  30.069  1.00  0.00     0.031 C 
ATOM     60  C   UNL A   1      41.178  27.312  30.097  1.00  0.00     0.029 A 
ATOM     61  C   UNL A   1      42.497  27.797  29.710  1.00  0.00     0.049 A 
ATOM     62  H   UNL A   1      43.186  29.764  29.767  1.00  0.00     0.167 HD
ATOM     63  C   UNL A   1      44.455  33.920  29.717  1.00  0.00     0.034 A 
ATOM     64  C   UNL A   1      43.518  27.021  29.297  1.00  0.00     0.034 A 
ATOM     65  C   UNL A   1      45.660  33.159  29.545  1.00  0.00     0.049 A 
ATOM     66  C   UNL A   1      44.866  27.650  29.076  1.00  0.00     0.074 A 
ATOM     67  C   UNL A   1      46.961  33.618  29.447  1.00  0.00     0.029 A 
ATOM     68  N   UNL A   1      45.710  31.780  29.423  1.00  0.00    -0.354 N 
ATOM     69  N   UNL A   1      45.219  28.905  29.211  1.00  0.00    -0.248 NA
ATOM     70  C   UNL A   1      45.972  26.750  28.717  1.00  0.00     0.031 C 
ATOM     71  C   UNL A   1      47.799  32.514  29.249  1.00  0.00     0.029 A 
ATOM     72  C   UNL A   1      47.018  31.369  29.234  1.00  0.00     0.049 A 
ATOM     73  H   UNL A   1      44.931  31.180  29.466  1.00  0.00     0.167 HD
ATOM     74  C   UNL A   1      46.594  28.939  29.010  1.00  0.00     0.074 A 
ATOM     75  C   UNL A   1      47.011  27.576  28.747  1.00  0.00     0.031 C 
ATOM     76  C   UNL A   1      47.432  30.003  29.036  1.00  0.00     0.034 A 
BRANCH  63  77
ATOM     77  C   UNL A   1      44.554  35.417  29.792  1.00  0.00     0.023 A 
ATOM     78  C   UNL A   1      44.743  36.029  31.048  1.00  0.00     0.012 A 
ATOM     79  C   UNL A   1      44.486  36.214  28.635  1.00  0.00     0.148 A 
ATOM     80  C   UNL A   1      44.835  37.414  31.157  1.00  0.00     0.002 A 
ATOM     81  C   UNL A   1      44.613  37.594  28.747  1.00  0.00     0.091 A 
ATOM     82  F   UNL A   1      44.274  35.614  27.455  1.00  0.00    -0.205 F 
ATOM     83  C   UNL A   1      44.778  38.196  30.006  1.00  0.00     0.022 A 
BRANCH  81  84
ATOM     84  S   UNL A   1      44.610  38.678  27.316  1.00  0.00     0.127 S 
ATOM     85  O   UNL A   1      43.332  38.337  26.692  1.00  0.00    -0.237 OA
ATOM     86  O   UNL A   1      44.652  40.005  27.931  1.00  0.00    -0.237 OA
ATOM     87  O   UNL A   1      45.798  38.328  26.550  1.00  0.00    -0.744 OA
ENDBRANCH  81  84
ENDBRANCH  63  77
BRANCH  64  88
ATOM     88  C   UNL A   1      43.336  25.546  29.176  1.00  0.00     0.023 A 
ATOM     89  C   UNL A   1      43.806  24.707  30.204  1.00  0.00     0.012 A 
ATOM     90  C   UNL A   1      42.690  24.973  28.062  1.00  0.00     0.148 A 
ATOM     91  C   UNL A   1      43.667  23.323  30.113  1.00  0.00     0.002 A 
ATOM     92  C   UNL A   1      42.518  23.594  27.997  1.00  0.00     0.091 A 
ATOM     93  F   UNL A   1      42.261  25.787  27.088  1.00  0.00    -0.205 F 
ATOM     94  C   UNL A   1      43.018  22.766  29.013  1.00  0.00     0.022 A 
BRANCH  92  95
ATOM     95  S   UNL A   1      41.600  22.798  26.673  1.00  0.00     0.127 S 
ATOM     96  O   UNL A   1      40.400  23.628  26.600  1.00  0.00    -0.237 OA
ATOM     97  O   UNL A   1      42.516  22.940  25.541  1.00  0.00    -0.237 OA
ATOM     98  O   UNL A   1      41.399  21.425  27.110  1.00  0.00    -0.744 OA
ENDBRANCH  92  95
ENDBRANCH  64  88
BRANCH  76  99
ATOM     99  C   UNL A   1      48.896  29.748  28.807  1.00  0.00     0.023 A 
ATOM    100  C   UNL A   1      49.703  29.318  29.880  1.00  0.00     0.012 A 
ATOM    101  C   UNL A   1      49.453  29.846  27.517  1.00  0.00     0.148 A 
ATOM    102  C   UNL A   1      51.048  29.013  29.675  1.00  0.00     0.002 A 
ATOM    103  C   UNL A   1      50.782  29.497  27.312  1.00  0.00     0.091 A 
ATOM    104  F   UNL A   1      48.675  30.280  26.515  1.00  0.00    -0.205 F 
ATOM    105  C   UNL A   1      51.584  29.088  28.391  1.00  0.00     0.022 A 
BRANCH 103 106
ATOM    106  S   UNL A   1      51.523  29.473  25.676  1.00  0.00     0.127 S 
ATOM    107  O   UNL A   1      50.663  28.523  24.972  1.00  0.00    -0.237 OA
ATOM    108  O   UNL A   1      51.377  30.865  25.244  1.00  0.00    -0.237 OA
ATOM    109  O   UNL A   1      52.902  29.049  25.871  1.00  0.00    -0.744 OA
ENDBRANCH 103 106
ENDBRANCH  76  99
ENDBRANCH  50  51
ENDBRANCH  43  45
ENDBRANCH  42  43
ENDBRANCH  41  42
ENDBRANCH  40  41
ENDBRANCH   1  40
TORSDOF 23
ENDMDL
MODEL 3
REMARK VINA RESULT:     -10.4      4.431      9.693
REMARK SMILES CC(=O)c1ccc(N2CCN(c3ccc(C(=O)OCCOCCOC(=O)c4ccc(-c5c6nc(c(-c7cccc(S(=O)(=O)[O-])c7F)c7ccc([nH]7)c(-c7cccc(S(=O)(=O)[O-])c7F)c7nc(c(-c8cccc(S(=O)(=O)[O-])c8F)c8ccc5[nH]8)C=C7)C=C6)cc4)cc3NS(=O)(=O)c3ccc(C)cc3)CC2)cc1
REMARK SMILES IDX 21 1 20 2 19 3 18 4 16 5 17 6 15 7 12 8 13 9 91 10 14 11
REMARK SMILES IDX 90 12 11 13 8 14 9 15 104 16 10 17 103 18 7 19 4 20 5 21
REMARK SMILES IDX 106 22 6 23 105 24 2 25 1 26 3 27 92 28 93 30 94 31 95 32
REMARK SMILES IDX 96 33 97 34 102 35 98 36 101 37 99 38 100 39 22 40 23 41
REMARK SMILES IDX 24 42 25 43 26 44 27 45 28 46 89 47 29 48 88 49 30 50 31 51
REMARK SMILES IDX 32 52 82 53 33 54 87 55 81 56 83 57 34 58 86 59 80 60 79 61
REMARK SMILES IDX 35 63 67 64 47 65 66 66 48 67 51 68 65 69 84 70 49 71 50 72
REMARK SMILES IDX 64 74 85 75 52 76 36 77 37 78 45 79 38 80 40 81 46 82 39 83
REMARK SMILES IDX 41 84 42 85 43 86 44 87 68 88 69 89 77 90 70 91 72 92 78 93
REMARK SMILES IDX 71 94 73 95 74 96 75 97 76 98 53 99 54 100 62 101 55 102
REMARK SMILES IDX 57 103 63 104 56 105 58 106 59 107 60 108 61 109
REMARK H PARENT 92 29 83 62 51 73
REMARK Flexibility Score: inf
ROOT
ATOM      1  O   UNL A   1      33.300  34.652  31.973  1.00  0.00    -0.374 OA
ENDROOT
BRANCH   1   2
ATOM      2  C   UNL A   1      32.658  35.922  31.821  1.00  0.00     0.202 C 
BRANCH   2   3
ATOM      3  C   UNL A   1      32.997  36.586  30.485  1.00  0.00     0.261 C 
BRANCH   3   4
ATOM      4  O   UNL A   1      32.591  35.733  29.400  1.00  0.00    -0.460 OA
BRANCH   4   5
ATOM      5  C   UNL A   1      33.561  35.337  28.543  1.00  0.00     0.338 C 
ATOM      6  O   UNL A   1      34.489  36.012  28.126  1.00  0.00    -0.246 OA
BRANCH   5   7
ATOM      7  C   UNL A   1      33.428  33.883  28.255  1.00  0.00     0.062 A 
ATOM      8  C   UNL A   1      33.204  31.187  27.488  1.00  0.00     0.061 A 
ATOM      9  C   UNL A   1      32.360  32.148  26.930  1.00  0.00     0.029 A 
ATOM     10  C   UNL A   1      34.169  31.591  28.439  1.00  0.00     0.073 A 
ATOM     11  C   UNL A   1      32.474  33.489  27.307  1.00  0.00     0.018 A 
ATOM     12  C   UNL A   1      34.267  32.924  28.835  1.00  0.00     0.044 A 
BRANCH   8  13
ATOM     13  N   UNL A   1      33.138  29.835  27.156  1.00  0.00    -0.366 N 
ATOM     14  N   UNL A   1      32.773  27.141  26.355  1.00  0.00    -0.368 N 
ATOM     15  C   UNL A   1      34.088  27.784  26.184  1.00  0.00     0.138 C 
ATOM     16  C   UNL A   1      31.955  27.670  27.467  1.00  0.00     0.138 C 
ATOM     17  C   UNL A   1      33.915  29.312  26.028  1.00  0.00     0.138 C 
ATOM     18  C   UNL A   1      31.812  29.203  27.352  1.00  0.00     0.138 C 
BRANCH  14  19
ATOM     19  C   UNL A   1      32.583  25.827  25.976  1.00  0.00     0.037 A 
ATOM     20  C   UNL A   1      32.406  23.114  25.218  1.00  0.00     0.017 A 
ATOM     21  C   UNL A   1      31.769  23.566  26.376  1.00  0.00     0.014 A 
ATOM     22  C   UNL A   1      33.088  24.024  24.410  1.00  0.00     0.014 A 
ATOM     23  C   UNL A   1      31.870  24.909  26.755  1.00  0.00     0.026 A 
ATOM     24  C   UNL A   1      33.161  25.368  24.785  1.00  0.00     0.026 A 
BRANCH  20  25
ATOM     25  C   UNL A   1      32.362  21.661  24.898  1.00  0.00     0.159 C 
ATOM     26  C   UNL A   1      33.567  21.042  24.239  1.00  0.00     0.093 C 
ATOM     27  O   UNL A   1      31.388  20.987  25.222  1.00  0.00    -0.295 OA
ENDBRANCH  20  25
ENDBRANCH  14  19
ENDBRANCH   8  13
BRANCH  10  28
ATOM     28  N   UNL A   1      35.138  30.590  28.778  1.00  0.00    -0.277 N 
ATOM     29  H   UNL A   1      34.849  29.821  29.322  1.00  0.00     0.180 HD
BRANCH  28  30
ATOM     30  S   UNL A   1      36.741  30.669  28.293  1.00  0.00     0.261 S 
ATOM     31  O   UNL A   1      36.953  29.624  27.309  1.00  0.00    -0.201 OA
ATOM     32  O   UNL A   1      36.997  32.057  27.990  1.00  0.00    -0.201 OA
BRANCH  30  33
ATOM     33  C   UNL A   1      37.589  30.265  29.787  1.00  0.00     0.087 A 
ATOM     34  C   UNL A   1      36.981  29.368  30.671  1.00  0.00     0.022 A 
ATOM     35  C   UNL A   1      38.931  30.621  29.921  1.00  0.00     0.022 A 
ATOM     36  C   UNL A   1      37.764  28.726  31.620  1.00  0.00     0.005 A 
ATOM     37  C   UNL A   1      39.699  29.996  30.896  1.00  0.00     0.005 A 
ATOM     38  C   UNL A   1      39.132  29.011  31.711  1.00  0.00    -0.051 A 
ATOM     39  C   UNL A   1      39.980  28.248  32.671  1.00  0.00     0.044 C 
ENDBRANCH  30  33
ENDBRANCH  28  30
ENDBRANCH  10  28
ENDBRANCH   5   7
ENDBRANCH   4   5
ENDBRANCH   3   4
ENDBRANCH   2   3
ENDBRANCH   1   2
BRANCH   1  40
ATOM     40  C   UNL A   1      34.191  34.579  33.090  1.00  0.00     0.202 C 
BRANCH  40  41
ATOM     41  C   UNL A   1      35.545  35.243  32.814  1.00  0.00     0.261 C 
BRANCH  41  42
ATOM     42  O   UNL A   1      36.074  34.831  31.537  1.00  0.00    -0.460 OA
BRANCH  42  43
ATOM     43  C   UNL A   1      36.798  33.683  31.531  1.00  0.00     0.338 C 
ATOM     44  O   UNL A   1      36.389  32.561  31.776  1.00  0.00    -0.246 OA
BRANCH  43  45
ATOM     45  C   UNL A   1      38.174  33.958  31.049  1.00  0.00     0.060 A 
ATOM     46  C   UNL A   1      38.354  34.250  29.690  1.00  0.00     0.016 A 
ATOM     47  C   UNL A   1      39.279  33.935  31.904  1.00  0.00     0.016 A 
ATOM     48  C   UNL A   1      39.632  34.517  29.185  1.00  0.00     0.010 A 
ATOM     49  C   UNL A   1      40.555  34.220  31.402  1.00  0.00     0.010 A 
ATOM     50  C   UNL A   1      40.745  34.496  30.035  1.00  0.00    -0.014 A 
BRANCH  50  51
ATOM     51  C   UNL A   1      42.123  34.640  29.495  1.00  0.00     0.031 A 
ATOM     52  C   UNL A   1      43.011  33.428  29.462  1.00  0.00     0.074 A 
ATOM     53  C   UNL A   1      42.610  35.829  29.088  1.00  0.00     0.049 A 
ATOM     54  N   UNL A   1      44.234  33.316  29.017  1.00  0.00    -0.248 NA
ATOM     55  C   UNL A   1      42.443  32.175  29.988  1.00  0.00     0.031 C 
ATOM     56  C   UNL A   1      41.869  37.085  29.051  1.00  0.00     0.029 A 
ATOM     57  N   UNL A   1      43.867  36.185  28.661  1.00  0.00    -0.354 N 
ATOM     58  C   UNL A   1      44.579  31.984  29.197  1.00  0.00     0.074 A 
ATOM     59  C   UNL A   1      43.457  31.336  29.839  1.00  0.00     0.031 C 
ATOM     60  C   UNL A   1      42.698  38.089  28.723  1.00  0.00     0.029 A 
ATOM     61  C   UNL A   1      44.024  37.539  28.469  1.00  0.00     0.049 A 
ATOM     62  H   UNL A   1      44.587  35.532  28.505  1.00  0.00     0.167 HD
ATOM     63  C   UNL A   1      45.709  31.345  28.819  1.00  0.00     0.034 A 
ATOM     64  C   UNL A   1      45.105  38.258  28.109  1.00  0.00     0.034 A 
ATOM     65  C   UNL A   1      46.819  31.982  28.168  1.00  0.00     0.049 A 
ATOM     66  C   UNL A   1      46.368  37.533  27.735  1.00  0.00     0.074 A 
ATOM     67  C   UNL A   1      47.977  31.405  27.679  1.00  0.00     0.029 A 
ATOM     68  N   UNL A   1      46.920  33.344  27.934  1.00  0.00    -0.354 N 
ATOM     69  N   UNL A   1      46.602  36.243  27.722  1.00  0.00    -0.248 NA
ATOM     70  C   UNL A   1      47.493  38.352  27.259  1.00  0.00     0.031 C 
ATOM     71  C   UNL A   1      48.787  32.423  27.163  1.00  0.00     0.029 A 
ATOM     72  C   UNL A   1      48.127  33.631  27.322  1.00  0.00     0.049 A 
ATOM     73  H   UNL A   1      46.233  34.009  28.168  1.00  0.00     0.167 HD
ATOM     74  C   UNL A   1      47.875  36.092  27.185  1.00  0.00     0.074 A 
ATOM     75  C   UNL A   1      48.362  37.422  26.882  1.00  0.00     0.031 C 
ATOM     76  C   UNL A   1      48.577  34.953  26.968  1.00  0.00     0.034 A 
BRANCH  63  77
ATOM     77  C   UNL A   1      45.761  29.861  29.040  1.00  0.00     0.023 A 
ATOM     78  C   UNL A   1      46.343  29.365  30.225  1.00  0.00     0.012 A 
ATOM     79  C   UNL A   1      45.222  28.960  28.104  1.00  0.00     0.148 A 
ATOM     80  C   UNL A   1      46.414  27.995  30.463  1.00  0.00     0.002 A 
ATOM     81  C   UNL A   1      45.265  27.596  28.363  1.00  0.00     0.091 A 
ATOM     82  F   UNL A   1      44.703  29.452  26.969  1.00  0.00    -0.205 F 
ATOM     83  C   UNL A   1      45.867  27.111  29.536  1.00  0.00     0.022 A 
BRANCH  81  84
ATOM     84  S   UNL A   1      44.537  26.384  27.257  1.00  0.00     0.127 S 
ATOM     85  O   UNL A   1      43.275  26.090  27.934  1.00  0.00    -0.237 OA
ATOM     86  O   UNL A   1      44.399  27.141  26.012  1.00  0.00    -0.237 OA
ATOM     87  O   UNL A   1      45.488  25.283  27.192  1.00  0.00    -0.744 OA
ENDBRANCH  81  84
ENDBRANCH  63  77
BRANCH  64  88
ATOM     88  C   UNL A   1      45.008  39.739  27.974  1.00  0.00     0.023 A 
ATOM     89  C   UNL A   1      45.331  40.554  29.076  1.00  0.00     0.012 A 
ATOM     90  C   UNL A   1      44.616  40.344  26.763  1.00  0.00     0.148 A 
ATOM     91  C   UNL A   1      45.234  41.942  28.987  1.00  0.00     0.002 A 
ATOM     92  C   UNL A   1      44.561  41.731  26.669  1.00  0.00     0.091 A 
ATOM     93  F   UNL A   1      44.302  39.551  25.729  1.00  0.00    -0.205 F 
ATOM     94  C   UNL A   1      44.855  42.532  27.783  1.00  0.00     0.022 A 
BRANCH  92  95
ATOM     95  S   UNL A   1      44.189  42.579  25.129  1.00  0.00     0.127 S 
ATOM     96  O   UNL A   1      45.141  41.962  24.209  1.00  0.00    -0.237 OA
ATOM     97  O   UNL A   1      42.791  42.208  24.909  1.00  0.00    -0.237 OA
ATOM     98  O   UNL A   1      44.396  43.994  25.405  1.00  0.00    -0.744 OA
ENDBRANCH  92  95
ENDBRANCH  64  88
BRANCH  76  99
ATOM     99  C   UNL A   1      49.939  35.078  26.342  1.00  0.00     0.023 A 
ATOM    100  C   UNL A   1      50.061  35.096  24.939  1.00  0.00     0.012 A 
ATOM    101  C   UNL A   1      51.084  35.267  27.140  1.00  0.00     0.148 A 
ATOM    102  C   UNL A   1      51.306  35.276  24.339  1.00  0.00     0.002 A 
ATOM    103  C   UNL A   1      52.315  35.492  26.535  1.00  0.00     0.091 A 
ATOM    104  F   UNL A   1      50.951  35.223  28.473  1.00  0.00    -0.205 F 
ATOM    105  C   UNL A   1      52.430  35.489  25.135  1.00  0.00     0.022 A 
BRANCH 103 106
ATOM    106  S   UNL A   1      53.792  35.870  27.485  1.00  0.00     0.127 S 
ATOM    107  O   UNL A   1      53.987  34.633  28.239  1.00  0.00    -0.237 OA
ATOM    108  O   UNL A   1      54.787  36.111  26.439  1.00  0.00    -0.237 OA
ATOM    109  O   UNL A   1      53.462  37.046  28.279  1.00  0.00    -0.744 OA
ENDBRANCH 103 106
ENDBRANCH  76  99
ENDBRANCH  50  51
ENDBRANCH  43  45
ENDBRANCH  42  43
ENDBRANCH  41  42
ENDBRANCH  40  41
ENDBRANCH   1  40
TORSDOF 23
ENDMDL
