MODEL 1
REMARK VINA RESULT:     -11.5      0.000      0.000
REMARK SMILES O=C(C[C@@H](NS(=O)(=O)c1ccc2c(c1)OCCO2)c1ccccc1)OCCOCCOC(=O)c1ccc(-c2c3nc(c(-c4cccc(S(=O)(=O)[O-])c4F)c4ccc([nH]4)c(-c4cccc(S(=O)(=O)[O-])c4F)c4nc(c(-c5cccc(S(=O)(=O)[O-])c5F)c5ccc2[nH]5)C=C4)C=C3)cc1
REMARK SMILES IDX 27 1 26 2 25 3 2 4 1 5 3 6 4 7 5 8 6 10 7 11 8 12 9 13 10 14
REMARK SMILES IDX 14 15 11 16 13 17 12 18 15 19 18 20 16 21 17 22 19 23 20 24
REMARK SMILES IDX 24 25 21 26 23 27 22 28 28 29 29 30 30 31 31 32 32 33 33 34
REMARK SMILES IDX 34 35 35 36 96 37 36 38 95 39 37 40 38 41 39 42 89 43 40 44
REMARK SMILES IDX 94 45 88 46 90 47 41 48 93 49 87 50 86 51 42 53 74 54 54 55
REMARK SMILES IDX 73 56 55 57 58 58 72 59 91 60 56 61 57 62 71 64 92 65 59 66
REMARK SMILES IDX 43 67 44 68 52 69 45 70 47 71 53 72 46 73 48 74 49 75 50 76
REMARK SMILES IDX 51 77 75 78 76 79 84 80 77 81 79 82 85 83 78 84 80 85 81 86
REMARK SMILES IDX 82 87 83 88 60 89 61 90 69 91 62 92 64 93 70 94 63 95 65 96
REMARK SMILES IDX 66 97 67 98 68 99
REMARK H PARENT 5 9 90 52 58 63
REMARK Flexibility Score: inf
ROOT
ATOM      1  C   UNL A   1      36.041  22.534  24.052  1.00  0.00     0.202 C 
ENDROOT
BRANCH   1   2
ATOM      2  C   UNL A   1      35.343  23.383  22.980  1.00  0.00     0.261 C 
BRANCH   2   3
ATOM      3  O   UNL A   1      34.736  24.632  23.408  1.00  0.00    -0.463 OA
BRANCH   3   4
ATOM      4  C   UNL A   1      33.758  25.241  22.694  1.00  0.00     0.307 C 
ATOM      5  O   UNL A   1      33.335  24.793  21.635  1.00  0.00    -0.252 OA
BRANCH   4   6
ATOM      6  C   UNL A   1      33.146  26.439  23.364  1.00  0.00     0.147 C 
BRANCH   6   7
ATOM      7  C   UNL A   1      32.306  26.158  24.623  1.00  0.00     0.111 C 
BRANCH   7   8
ATOM      8  N   UNL A   1      32.719  24.911  25.310  1.00  0.00    -0.203 NA
ATOM      9  H   UNL A   1      33.304  25.192  26.098  1.00  0.00     0.142 HD
BRANCH   8  10
ATOM     10  S   UNL A   1      31.560  23.854  25.921  1.00  0.00     0.241 S 
ATOM     11  O   UNL A   1      31.918  23.587  27.296  1.00  0.00    -0.207 OA
ATOM     12  O   UNL A   1      30.281  24.426  25.562  1.00  0.00    -0.207 OA
BRANCH  10  13
ATOM     13  C   UNL A   1      31.761  22.386  24.967  1.00  0.00     0.086 A 
ATOM     14  C   UNL A   1      31.834  22.459  23.573  1.00  0.00     0.026 A 
ATOM     15  C   UNL A   1      31.938  21.178  25.639  1.00  0.00     0.072 A 
ATOM     16  C   UNL A   1      32.152  21.310  22.846  1.00  0.00     0.052 A 
ATOM     17  C   UNL A   1      32.275  20.047  24.912  1.00  0.00     0.162 A 
ATOM     18  C   UNL A   1      32.382  20.107  23.517  1.00  0.00     0.161 A 
ATOM     19  O   UNL A   1      32.523  18.913  25.641  1.00  0.00    -0.486 OA
ATOM     20  O   UNL A   1      32.753  19.033  22.748  1.00  0.00    -0.486 OA
ATOM     21  C   UNL A   1      33.296  17.982  24.881  1.00  0.00     0.271 C 
ATOM     22  C   UNL A   1      32.706  17.811  23.491  1.00  0.00     0.271 C 
ENDBRANCH  10  13
ENDBRANCH   8  10
ENDBRANCH   7   8
BRANCH   7  23
ATOM     23  C   UNL A   1      32.448  27.371  25.535  1.00  0.00    -0.029 A 
ATOM     24  C   UNL A   1      33.426  28.357  25.290  1.00  0.00     0.005 A 
ATOM     25  C   UNL A   1      31.613  27.524  26.647  1.00  0.00     0.005 A 
ATOM     26  C   UNL A   1      33.565  29.458  26.133  1.00  0.00     0.000 A 
ATOM     27  C   UNL A   1      31.760  28.625  27.495  1.00  0.00     0.000 A 
ATOM     28  C   UNL A   1      32.735  29.589  27.240  1.00  0.00     0.000 A 
ENDBRANCH   7  23
ENDBRANCH   6   7
ENDBRANCH   4   6
ENDBRANCH   3   4
ENDBRANCH   2   3
ENDBRANCH   1   2
BRANCH   1  29
ATOM     29  O   UNL A   1      35.398  21.333  24.469  1.00  0.00    -0.374 OA
BRANCH  29  30
ATOM     30  C   UNL A   1      36.196  20.255  24.950  1.00  0.00     0.202 C 
BRANCH  30  31
ATOM     31  C   UNL A   1      37.700  20.501  24.892  1.00  0.00     0.261 C 
BRANCH  31  32
ATOM     32  O   UNL A   1      38.152  21.086  26.122  1.00  0.00    -0.460 OA
BRANCH  32  33
ATOM     33  C   UNL A   1      39.493  21.120  26.295  1.00  0.00     0.338 C 
ATOM     34  O   UNL A   1      40.308  20.300  25.907  1.00  0.00    -0.246 OA
BRANCH  33  35
ATOM     35  C   UNL A   1      39.860  22.425  26.879  1.00  0.00     0.060 A 
ATOM     36  C   UNL A   1      39.173  23.560  26.432  1.00  0.00     0.016 A 
ATOM     37  C   UNL A   1      40.882  22.535  27.826  1.00  0.00     0.016 A 
ATOM     38  C   UNL A   1      39.549  24.820  26.889  1.00  0.00     0.010 A 
ATOM     39  C   UNL A   1      41.259  23.797  28.282  1.00  0.00     0.010 A 
ATOM     40  C   UNL A   1      40.623  24.944  27.778  1.00  0.00    -0.014 A 
BRANCH  40  41
ATOM     41  C   UNL A   1      41.199  26.280  28.044  1.00  0.00     0.031 A 
ATOM     42  C   UNL A   1      42.585  26.572  27.543  1.00  0.00     0.074 A 
ATOM     43  C   UNL A   1      40.496  27.207  28.717  1.00  0.00     0.049 A 
ATOM     44  N   UNL A   1      43.297  27.661  27.662  1.00  0.00    -0.248 NA
ATOM     45  C   UNL A   1      43.265  25.487  26.812  1.00  0.00     0.031 C 
ATOM     46  C   UNL A   1      39.150  27.021  29.256  1.00  0.00     0.029 A 
ATOM     47  N   UNL A   1      40.835  28.483  29.082  1.00  0.00    -0.354 N 
ATOM     48  C   UNL A   1      44.507  27.391  27.035  1.00  0.00     0.074 A 
ATOM     49  C   UNL A   1      44.448  26.027  26.560  1.00  0.00     0.031 C 
ATOM     50  C   UNL A   1      38.786  28.137  29.911  1.00  0.00     0.029 A 
ATOM     51  C   UNL A   1      39.878  29.106  29.847  1.00  0.00     0.049 A 
ATOM     52  H   UNL A   1      41.681  28.913  28.821  1.00  0.00     0.167 HD
ATOM     53  C   UNL A   1      45.564  28.216  26.849  1.00  0.00     0.034 A 
ATOM     54  C   UNL A   1      39.895  30.317  30.437  1.00  0.00     0.034 A 
ATOM     55  C   UNL A   1      45.610  29.573  27.317  1.00  0.00     0.049 A 
ATOM     56  C   UNL A   1      41.089  31.211  30.226  1.00  0.00     0.074 A 
ATOM     57  C   UNL A   1      46.621  30.504  27.166  1.00  0.00     0.029 A 
ATOM     58  N   UNL A   1      44.599  30.192  28.036  1.00  0.00    -0.354 N 
ATOM     59  N   UNL A   1      42.179  30.985  29.529  1.00  0.00    -0.248 NA
ATOM     60  C   UNL A   1      41.041  32.542  30.848  1.00  0.00     0.031 C 
ATOM     61  C   UNL A   1      46.226  31.684  27.805  1.00  0.00     0.029 A 
ATOM     62  C   UNL A   1      44.960  31.492  28.337  1.00  0.00     0.049 A 
ATOM     63  H   UNL A   1      43.749  29.768  28.294  1.00  0.00     0.167 HD
ATOM     64  C   UNL A   1      42.926  32.156  29.599  1.00  0.00     0.074 A 
ATOM     65  C   UNL A   1      42.156  33.095  30.387  1.00  0.00     0.031 C 
ATOM     66  C   UNL A   1      44.148  32.427  29.074  1.00  0.00     0.034 A 
BRANCH  53  67
ATOM     67  C   UNL A   1      46.734  27.679  26.069  1.00  0.00     0.023 A 
ATOM     68  C   UNL A   1      46.807  27.918  24.681  1.00  0.00     0.012 A 
ATOM     69  C   UNL A   1      47.776  26.978  26.705  1.00  0.00     0.148 A 
ATOM     70  C   UNL A   1      47.882  27.443  23.932  1.00  0.00     0.002 A 
ATOM     71  C   UNL A   1      48.866  26.541  25.958  1.00  0.00     0.091 A 
ATOM     72  F   UNL A   1      47.677  26.737  28.019  1.00  0.00    -0.205 F 
ATOM     73  C   UNL A   1      48.915  26.763  24.572  1.00  0.00     0.022 A 
BRANCH  71  74
ATOM     74  S   UNL A   1      50.279  25.716  26.698  1.00  0.00     0.127 S 
ATOM     75  O   UNL A   1      51.174  25.577  25.549  1.00  0.00    -0.237 OA
ATOM     76  O   UNL A   1      50.718  26.693  27.696  1.00  0.00    -0.237 OA
ATOM     77  O   UNL A   1      49.774  24.468  27.251  1.00  0.00    -0.744 OA
ENDBRANCH  71  74
ENDBRANCH  53  67
BRANCH  54  78
ATOM     78  C   UNL A   1      38.728  30.772  31.244  1.00  0.00     0.023 A 
ATOM     79  C   UNL A   1      38.742  30.604  32.643  1.00  0.00     0.012 A 
ATOM     80  C   UNL A   1      37.613  31.380  30.637  1.00  0.00     0.148 A 
ATOM     81  C   UNL A   1      37.650  31.001  33.417  1.00  0.00     0.002 A 
ATOM     82  C   UNL A   1      36.552  31.823  31.421  1.00  0.00     0.091 A 
ATOM     83  F   UNL A   1      37.608  31.514  29.304  1.00  0.00    -0.205 F 
ATOM     84  C   UNL A   1      36.561  31.620  32.808  1.00  0.00     0.022 A 
BRANCH  82  85
ATOM     85  S   UNL A   1      35.170  32.737  30.728  1.00  0.00     0.127 S 
ATOM     86  O   UNL A   1      35.780  34.033  30.442  1.00  0.00    -0.237 OA
ATOM     87  O   UNL A   1      34.837  31.939  29.546  1.00  0.00    -0.237 OA
ATOM     88  O   UNL A   1      34.144  32.730  31.761  1.00  0.00    -0.744 OA
ENDBRANCH  82  85
ENDBRANCH  54  78
BRANCH  66  89
ATOM     89  C   UNL A   1      44.713  33.804  29.305  1.00  0.00     0.023 A 
ATOM     90  C   UNL A   1      45.454  34.068  30.474  1.00  0.00     0.012 A 
ATOM     91  C   UNL A   1      44.571  34.812  28.332  1.00  0.00     0.148 A 
ATOM     92  C   UNL A   1      46.015  35.327  30.686  1.00  0.00     0.002 A 
ATOM     93  C   UNL A   1      45.172  36.049  28.528  1.00  0.00     0.091 A 
ATOM     94  F   UNL A   1      43.845  34.546  27.235  1.00  0.00    -0.205 F 
ATOM     95  C   UNL A   1      45.884  36.312  29.710  1.00  0.00     0.022 A 
BRANCH  93  96
ATOM     96  S   UNL A   1      45.136  37.341  27.281  1.00  0.00     0.127 S 
ATOM     97  O   UNL A   1      45.675  38.482  28.017  1.00  0.00    -0.237 OA
ATOM     98  O   UNL A   1      46.026  36.804  26.249  1.00  0.00    -0.237 OA
ATOM     99  O   UNL A   1      43.743  37.459  26.870  1.00  0.00    -0.744 OA
ENDBRANCH  93  96
ENDBRANCH  66  89
ENDBRANCH  40  41
ENDBRANCH  33  35
ENDBRANCH  32  33
ENDBRANCH  31  32
ENDBRANCH  30  31
ENDBRANCH  29  30
ENDBRANCH   1  29
TORSDOF 22
ENDMDL
MODEL 2
REMARK VINA RESULT:     -11.2      0.552      7.513
REMARK SMILES O=C(C[C@@H](NS(=O)(=O)c1ccc2c(c1)OCCO2)c1ccccc1)OCCOCCOC(=O)c1ccc(-c2c3nc(c(-c4cccc(S(=O)(=O)[O-])c4F)c4ccc([nH]4)c(-c4cccc(S(=O)(=O)[O-])c4F)c4nc(c(-c5cccc(S(=O)(=O)[O-])c5F)c5ccc2[nH]5)C=C4)C=C3)cc1
REMARK SMILES IDX 27 1 26 2 25 3 2 4 1 5 3 6 4 7 5 8 6 10 7 11 8 12 9 13 10 14
REMARK SMILES IDX 14 15 11 16 13 17 12 18 15 19 18 20 16 21 17 22 19 23 20 24
REMARK SMILES IDX 24 25 21 26 23 27 22 28 28 29 29 30 30 31 31 32 32 33 33 34
REMARK SMILES IDX 34 35 35 36 96 37 36 38 95 39 37 40 38 41 39 42 89 43 40 44
REMARK SMILES IDX 94 45 88 46 90 47 41 48 93 49 87 50 86 51 42 53 74 54 54 55
REMARK SMILES IDX 73 56 55 57 58 58 72 59 91 60 56 61 57 62 71 64 92 65 59 66
REMARK SMILES IDX 43 67 44 68 52 69 45 70 47 71 53 72 46 73 48 74 49 75 50 76
REMARK SMILES IDX 51 77 75 78 76 79 84 80 77 81 79 82 85 83 78 84 80 85 81 86
REMARK SMILES IDX 82 87 83 88 60 89 61 90 69 91 62 92 64 93 70 94 63 95 65 96
REMARK SMILES IDX 66 97 67 98 68 99
REMARK H PARENT 5 9 90 52 58 63
REMARK Flexibility Score: inf
ROOT
ATOM      1  C   UNL A   1      36.095  22.380  24.168  1.00  0.00     0.202 C 
ENDROOT
BRANCH   1   2
ATOM      2  C   UNL A   1      35.344  23.301  23.196  1.00  0.00     0.261 C 
BRANCH   2   3
ATOM      3  O   UNL A   1      34.662  24.453  23.760  1.00  0.00    -0.463 OA
BRANCH   3   4
ATOM      4  C   UNL A   1      33.978  25.335  22.992  1.00  0.00     0.307 C 
ATOM      5  O   UNL A   1      33.677  25.103  21.828  1.00  0.00    -0.252 OA
BRANCH   4   6
ATOM      6  C   UNL A   1      33.510  26.566  23.715  1.00  0.00     0.147 C 
BRANCH   6   7
ATOM      7  C   UNL A   1      32.358  26.368  24.717  1.00  0.00     0.111 C 
BRANCH   7   8
ATOM      8  N   UNL A   1      32.572  25.194  25.598  1.00  0.00    -0.203 NA
ATOM      9  H   UNL A   1      32.942  25.553  26.478  1.00  0.00     0.142 HD
BRANCH   8  10
ATOM     10  S   UNL A   1      31.286  24.181  25.990  1.00  0.00     0.241 S 
ATOM     11  O   UNL A   1      31.441  23.825  27.382  1.00  0.00    -0.207 OA
ATOM     12  O   UNL A   1      30.100  24.847  25.500  1.00  0.00    -0.207 OA
BRANCH  10  13
ATOM     13  C   UNL A   1      31.533  22.753  24.988  1.00  0.00     0.086 A 
ATOM     14  C   UNL A   1      31.639  22.879  23.599  1.00  0.00     0.026 A 
ATOM     15  C   UNL A   1      31.712  21.523  25.619  1.00  0.00     0.072 A 
ATOM     16  C   UNL A   1      31.992  21.762  22.839  1.00  0.00     0.052 A 
ATOM     17  C   UNL A   1      32.084  20.425  24.859  1.00  0.00     0.162 A 
ATOM     18  C   UNL A   1      32.225  20.539  23.471  1.00  0.00     0.161 A 
ATOM     19  O   UNL A   1      32.332  19.268  25.552  1.00  0.00    -0.486 OA
ATOM     20  O   UNL A   1      32.630  19.500  22.672  1.00  0.00    -0.486 OA
ATOM     21  C   UNL A   1      33.137  18.378  24.778  1.00  0.00     0.271 C 
ATOM     22  C   UNL A   1      32.584  18.250  23.368  1.00  0.00     0.271 C 
ENDBRANCH  10  13
ENDBRANCH   8  10
ENDBRANCH   7   8
BRANCH   7  23
ATOM     23  C   UNL A   1      32.241  27.656  25.525  1.00  0.00    -0.029 A 
ATOM     24  C   UNL A   1      31.862  27.634  26.882  1.00  0.00     0.005 A 
ATOM     25  C   UNL A   1      32.499  28.894  24.926  1.00  0.00     0.005 A 
ATOM     26  C   UNL A   1      31.741  28.812  27.616  1.00  0.00     0.000 A 
ATOM     27  C   UNL A   1      32.369  30.075  25.661  1.00  0.00     0.000 A 
ATOM     28  C   UNL A   1      31.989  30.035  27.002  1.00  0.00     0.000 A 
ENDBRANCH   7  23
ENDBRANCH   6   7
ENDBRANCH   4   6
ENDBRANCH   3   4
ENDBRANCH   2   3
ENDBRANCH   1   2
BRANCH   1  29
ATOM     29  O   UNL A   1      35.508  21.118  24.474  1.00  0.00    -0.374 OA
BRANCH  29  30
ATOM     30  C   UNL A   1      36.336  20.078  24.986  1.00  0.00     0.202 C 
BRANCH  30  31
ATOM     31  C   UNL A   1      37.832  20.364  24.921  1.00  0.00     0.261 C 
BRANCH  31  32
ATOM     32  O   UNL A   1      38.290  20.884  26.177  1.00  0.00    -0.460 OA
BRANCH  32  33
ATOM     33  C   UNL A   1      39.631  20.882  26.358  1.00  0.00     0.338 C 
ATOM     34  O   UNL A   1      40.417  20.010  26.031  1.00  0.00    -0.246 OA
BRANCH  33  35
ATOM     35  C   UNL A   1      40.041  22.209  26.856  1.00  0.00     0.060 A 
ATOM     36  C   UNL A   1      39.473  23.340  26.257  1.00  0.00     0.016 A 
ATOM     37  C   UNL A   1      40.990  22.341  27.874  1.00  0.00     0.016 A 
ATOM     38  C   UNL A   1      39.899  24.610  26.634  1.00  0.00     0.010 A 
ATOM     39  C   UNL A   1      41.418  23.613  28.249  1.00  0.00     0.010 A 
ATOM     40  C   UNL A   1      40.905  24.747  27.597  1.00  0.00    -0.014 A 
BRANCH  40  41
ATOM     41  C   UNL A   1      41.551  26.062  27.795  1.00  0.00     0.031 A 
ATOM     42  C   UNL A   1      40.792  27.127  28.535  1.00  0.00     0.074 A 
ATOM     43  C   UNL A   1      42.788  26.295  27.324  1.00  0.00     0.049 A 
ATOM     44  N   UNL A   1      41.147  28.352  28.820  1.00  0.00    -0.248 NA
ATOM     45  C   UNL A   1      39.445  26.765  29.014  1.00  0.00     0.031 C 
ATOM     46  C   UNL A   1      43.605  25.335  26.584  1.00  0.00     0.029 A 
ATOM     47  N   UNL A   1      43.560  27.426  27.380  1.00  0.00    -0.354 N 
ATOM     48  C   UNL A   1      40.070  28.909  29.499  1.00  0.00     0.074 A 
ATOM     49  C   UNL A   1      39.036  27.900  29.560  1.00  0.00     0.031 C 
ATOM     50  C   UNL A   1      44.757  25.929  26.227  1.00  0.00     0.029 A 
ATOM     51  C   UNL A   1      44.750  27.310  26.702  1.00  0.00     0.049 A 
ATOM     52  H   UNL A   1      43.288  28.242  27.859  1.00  0.00     0.167 HD
ATOM     53  C   UNL A   1      39.963  30.142  30.046  1.00  0.00     0.034 A 
ATOM     54  C   UNL A   1      45.714  28.226  26.484  1.00  0.00     0.034 A 
ATOM     55  C   UNL A   1      41.000  31.134  29.988  1.00  0.00     0.049 A 
ATOM     56  C   UNL A   1      45.564  29.597  27.091  1.00  0.00     0.074 A 
ATOM     57  C   UNL A   1      41.007  32.408  30.525  1.00  0.00     0.029 A 
ATOM     58  N   UNL A   1      42.217  30.963  29.346  1.00  0.00    -0.354 N 
ATOM     59  N   UNL A   1      44.590  30.071  27.832  1.00  0.00    -0.248 NA
ATOM     60  C   UNL A   1      46.663  30.547  26.867  1.00  0.00     0.031 C 
ATOM     61  C   UNL A   1      42.225  33.013  30.197  1.00  0.00     0.029 A 
ATOM     62  C   UNL A   1      42.984  32.107  29.472  1.00  0.00     0.049 A 
ATOM     63  H   UNL A   1      42.495  30.147  28.871  1.00  0.00     0.167 HD
ATOM     64  C   UNL A   1      44.976  31.358  28.193  1.00  0.00     0.074 A 
ATOM     65  C   UNL A   1      46.282  31.580  27.606  1.00  0.00     0.031 C 
ATOM     66  C   UNL A   1      44.306  32.282  28.927  1.00  0.00     0.034 A 
BRANCH  53  67
ATOM     67  C   UNL A   1      38.694  30.464  30.790  1.00  0.00     0.023 A 
ATOM     68  C   UNL A   1      38.566  30.070  32.138  1.00  0.00     0.012 A 
ATOM     69  C   UNL A   1      37.651  31.184  30.177  1.00  0.00     0.148 A 
ATOM     70  C   UNL A   1      37.408  30.361  32.857  1.00  0.00     0.002 A 
ATOM     71  C   UNL A   1      36.515  31.506  30.914  1.00  0.00     0.091 A 
ATOM     72  F   UNL A   1      37.780  31.527  28.889  1.00  0.00    -0.205 F 
ATOM     73  C   UNL A   1      36.387  31.087  32.248  1.00  0.00     0.022 A 
BRANCH  71  74
ATOM     74  S   UNL A   1      35.175  32.495  30.243  1.00  0.00     0.127 S 
ATOM     75  O   UNL A   1      34.330  32.685  31.422  1.00  0.00    -0.237 OA
ATOM     76  O   UNL A   1      35.875  33.700  29.795  1.00  0.00    -0.237 OA
ATOM     77  O   UNL A   1      34.586  31.703  29.173  1.00  0.00    -0.744 OA
ENDBRANCH  71  74
ENDBRANCH  53  67
BRANCH  54  78
ATOM     78  C   UNL A   1      46.923  27.865  25.691  1.00  0.00     0.023 A 
ATOM     79  C   UNL A   1      46.873  27.914  24.284  1.00  0.00     0.012 A 
ATOM     80  C   UNL A   1      48.123  27.486  26.322  1.00  0.00     0.148 A 
ATOM     81  C   UNL A   1      47.986  27.559  23.520  1.00  0.00     0.002 A 
ATOM     82  C   UNL A   1      49.244  27.185  25.556  1.00  0.00     0.091 A 
ATOM     83  F   UNL A   1      48.146  27.425  27.661  1.00  0.00    -0.205 F 
ATOM     84  C   UNL A   1      49.173  27.204  24.156  1.00  0.00     0.022 A 
BRANCH  82  85
ATOM     85  S   UNL A   1      50.843  26.839  26.299  1.00  0.00     0.127 S 
ATOM     86  O   UNL A   1      50.818  25.382  26.400  1.00  0.00    -0.237 OA
ATOM     87  O   UNL A   1      51.768  27.371  25.297  1.00  0.00    -0.237 OA
ATOM     88  O   UNL A   1      50.848  27.566  27.561  1.00  0.00    -0.744 OA
ENDBRANCH  82  85
ENDBRANCH  54  78
BRANCH  66  89
ATOM     89  C   UNL A   1      44.986  33.603  29.168  1.00  0.00     0.023 A 
ATOM     90  C   UNL A   1      45.831  33.760  30.285  1.00  0.00     0.012 A 
ATOM     91  C   UNL A   1      44.847  34.662  28.251  1.00  0.00     0.148 A 
ATOM     92  C   UNL A   1      46.498  34.966  30.504  1.00  0.00     0.002 A 
ATOM     93  C   UNL A   1      45.552  35.843  28.449  1.00  0.00     0.091 A 
ATOM     94  F   UNL A   1      44.024  34.499  27.204  1.00  0.00    -0.205 F 
ATOM     95  C   UNL A   1      46.368  36.001  29.581  1.00  0.00     0.022 A 
BRANCH  93  96
ATOM     96  S   UNL A   1      45.519  37.190  27.261  1.00  0.00     0.127 S 
ATOM     97  O   UNL A   1      46.199  38.254  27.996  1.00  0.00    -0.237 OA
ATOM     98  O   UNL A   1      46.282  36.637  26.141  1.00  0.00    -0.237 OA
ATOM     99  O   UNL A   1      44.111  37.428  26.969  1.00  0.00    -0.744 OA
ENDBRANCH  93  96
ENDBRANCH  66  89
ENDBRANCH  40  41
ENDBRANCH  33  35
ENDBRANCH  32  33
ENDBRANCH  31  32
ENDBRANCH  30  31
ENDBRANCH  29  30
ENDBRANCH   1  29
TORSDOF 22
ENDMDL
MODEL 3
REMARK VINA RESULT:     -11.1      1.896      4.118
REMARK SMILES O=C(C[C@@H](NS(=O)(=O)c1ccc2c(c1)OCCO2)c1ccccc1)OCCOCCOC(=O)c1ccc(-c2c3nc(c(-c4cccc(S(=O)(=O)[O-])c4F)c4ccc([nH]4)c(-c4cccc(S(=O)(=O)[O-])c4F)c4nc(c(-c5cccc(S(=O)(=O)[O-])c5F)c5ccc2[nH]5)C=C4)C=C3)cc1
REMARK SMILES IDX 27 1 26 2 25 3 2 4 1 5 3 6 4 7 5 8 6 10 7 11 8 12 9 13 10 14
REMARK SMILES IDX 14 15 11 16 13 17 12 18 15 19 18 20 16 21 17 22 19 23 20 24
REMARK SMILES IDX 24 25 21 26 23 27 22 28 28 29 29 30 30 31 31 32 32 33 33 34
REMARK SMILES IDX 34 35 35 36 96 37 36 38 95 39 37 40 38 41 39 42 89 43 40 44
REMARK SMILES IDX 94 45 88 46 90 47 41 48 93 49 87 50 86 51 42 53 74 54 54 55
REMARK SMILES IDX 73 56 55 57 58 58 72 59 91 60 56 61 57 62 71 64 92 65 59 66
REMARK SMILES IDX 43 67 44 68 52 69 45 70 47 71 53 72 46 73 48 74 49 75 50 76
REMARK SMILES IDX 51 77 75 78 76 79 84 80 77 81 79 82 85 83 78 84 80 85 81 86
REMARK SMILES IDX 82 87 83 88 60 89 61 90 69 91 62 92 64 93 70 94 63 95 65 96
REMARK SMILES IDX 66 97 67 98 68 99
REMARK H PARENT 5 9 90 52 58 63
REMARK Flexibility Score: inf
ROOT
ATOM      1  C   UNL A   1      37.628  22.967  24.976  1.00  0.00     0.202 C 
ENDROOT
BRANCH   1   2
ATOM      2  C   UNL A   1      36.333  23.594  24.441  1.00  0.00     0.261 C 
BRANCH   2   3
ATOM      3  O   UNL A   1      35.555  22.813  23.494  1.00  0.00    -0.463 OA
BRANCH   3   4
ATOM      4  C   UNL A   1      34.309  23.180  23.108  1.00  0.00     0.307 C 
ATOM      5  O   UNL A   1      34.098  24.140  22.377  1.00  0.00    -0.252 OA
BRANCH   4   6
ATOM      6  C   UNL A   1      33.216  22.245  23.544  1.00  0.00     0.147 C 
BRANCH   6   7
ATOM      7  C   UNL A   1      33.541  21.331  24.739  1.00  0.00     0.111 C 
BRANCH   7   8
ATOM      8  N   UNL A   1      32.651  21.579  25.898  1.00  0.00    -0.203 NA
ATOM      9  H   UNL A   1      32.543  20.687  26.380  1.00  0.00     0.142 HD
BRANCH   8  10
ATOM     10  S   UNL A   1      33.075  22.713  27.068  1.00  0.00     0.241 S 
ATOM     11  O   UNL A   1      32.215  22.484  28.207  1.00  0.00    -0.207 OA
ATOM     12  O   UNL A   1      34.516  22.645  27.174  1.00  0.00    -0.207 OA
BRANCH  10  13
ATOM     13  C   UNL A   1      32.678  24.266  26.337  1.00  0.00     0.086 A 
ATOM     14  C   UNL A   1      33.694  25.175  26.023  1.00  0.00     0.026 A 
ATOM     15  C   UNL A   1      31.350  24.519  25.997  1.00  0.00     0.072 A 
ATOM     16  C   UNL A   1      33.378  26.328  25.302  1.00  0.00     0.052 A 
ATOM     17  C   UNL A   1      31.049  25.655  25.262  1.00  0.00     0.162 A 
ATOM     18  C   UNL A   1      32.058  26.562  24.913  1.00  0.00     0.161 A 
ATOM     19  O   UNL A   1      29.739  25.798  24.884  1.00  0.00    -0.486 OA
ATOM     20  O   UNL A   1      31.827  27.680  24.152  1.00  0.00    -0.486 OA
ATOM     21  C   UNL A   1      29.628  26.695  23.777  1.00  0.00     0.271 C 
ATOM     22  C   UNL A   1      30.429  27.961  24.035  1.00  0.00     0.271 C 
ENDBRANCH  10  13
ENDBRANCH   8  10
ENDBRANCH   7   8
BRANCH   7  23
ATOM     23  C   UNL A   1      33.428  19.893  24.247  1.00  0.00    -0.029 A 
ATOM     24  C   UNL A   1      34.334  18.902  24.676  1.00  0.00     0.005 A 
ATOM     25  C   UNL A   1      32.422  19.529  23.345  1.00  0.00     0.005 A 
ATOM     26  C   UNL A   1      34.238  17.590  24.215  1.00  0.00     0.000 A 
ATOM     27  C   UNL A   1      32.333  18.216  22.877  1.00  0.00     0.000 A 
ATOM     28  C   UNL A   1      33.240  17.249  23.310  1.00  0.00     0.000 A 
ENDBRANCH   7  23
ENDBRANCH   6   7
ENDBRANCH   4   6
ENDBRANCH   3   4
ENDBRANCH   2   3
ENDBRANCH   1   2
BRANCH   1  29
ATOM     29  O   UNL A   1      37.530  21.710  25.641  1.00  0.00    -0.374 OA
BRANCH  29  30
ATOM     30  C   UNL A   1      37.666  20.514  24.878  1.00  0.00     0.202 C 
BRANCH  30  31
ATOM     31  C   UNL A   1      38.746  19.560  25.376  1.00  0.00     0.261 C 
BRANCH  31  32
ATOM     32  O   UNL A   1      39.523  20.188  26.405  1.00  0.00    -0.460 OA
BRANCH  32  33
ATOM     33  C   UNL A   1      40.863  20.032  26.305  1.00  0.00     0.338 C 
ATOM     34  O   UNL A   1      41.461  19.057  25.882  1.00  0.00    -0.246 OA
BRANCH  33  35
ATOM     35  C   UNL A   1      41.513  21.319  26.616  1.00  0.00     0.060 A 
ATOM     36  C   UNL A   1      41.712  21.646  27.963  1.00  0.00     0.016 A 
ATOM     37  C   UNL A   1      41.894  22.204  25.603  1.00  0.00     0.016 A 
ATOM     38  C   UNL A   1      42.239  22.889  28.303  1.00  0.00     0.010 A 
ATOM     39  C   UNL A   1      42.420  23.449  25.944  1.00  0.00     0.010 A 
ATOM     40  C   UNL A   1      42.550  23.810  27.295  1.00  0.00    -0.014 A 
BRANCH  40  41
ATOM     41  C   UNL A   1      42.840  25.214  27.656  1.00  0.00     0.031 A 
ATOM     42  C   UNL A   1      44.256  25.704  27.538  1.00  0.00     0.074 A 
ATOM     43  C   UNL A   1      41.858  26.029  28.076  1.00  0.00     0.049 A 
ATOM     44  N   UNL A   1      44.749  26.884  27.804  1.00  0.00    -0.248 NA
ATOM     45  C   UNL A   1      45.254  24.729  27.062  1.00  0.00     0.031 C 
ATOM     46  C   UNL A   1      40.455  25.651  28.236  1.00  0.00     0.029 A 
ATOM     47  N   UNL A   1      41.903  27.341  28.469  1.00  0.00    -0.354 N 
ATOM     48  C   UNL A   1      46.110  26.792  27.539  1.00  0.00     0.074 A 
ATOM     49  C   UNL A   1      46.373  25.434  27.119  1.00  0.00     0.031 C 
ATOM     50  C   UNL A   1      39.775  26.702  28.725  1.00  0.00     0.029 A 
ATOM     51  C   UNL A   1      40.696  27.819  28.921  1.00  0.00     0.049 A 
ATOM     52  H   UNL A   1      42.720  27.888  28.431  1.00  0.00     0.167 HD
ATOM     53  C   UNL A   1      47.052  27.761  27.615  1.00  0.00     0.034 A 
ATOM     54  C   UNL A   1      40.382  29.019  29.446  1.00  0.00     0.034 A 
ATOM     55  C   UNL A   1      46.779  29.110  28.025  1.00  0.00     0.049 A 
ATOM     56  C   UNL A   1      41.452  30.076  29.533  1.00  0.00     0.074 A 
ATOM     57  C   UNL A   1      47.653  30.177  28.118  1.00  0.00     0.029 A 
ATOM     58  N   UNL A   1      45.533  29.576  28.419  1.00  0.00    -0.354 N 
ATOM     59  N   UNL A   1      42.711  30.010  29.168  1.00  0.00    -0.248 NA
ATOM     60  C   UNL A   1      41.051  31.385  30.067  1.00  0.00     0.031 C 
ATOM     61  C   UNL A   1      46.938  31.287  28.580  1.00  0.00     0.029 A 
ATOM     62  C   UNL A   1      45.614  30.915  28.755  1.00  0.00     0.049 A 
ATOM     63  H   UNL A   1      44.713  29.033  28.452  1.00  0.00     0.167 HD
ATOM     64  C   UNL A   1      43.241  31.277  29.392  1.00  0.00     0.074 A 
ATOM     65  C   UNL A   1      42.161  32.094  29.905  1.00  0.00     0.031 C 
ATOM     66  C   UNL A   1      44.510  31.722  29.208  1.00  0.00     0.034 A 
BRANCH  53  67
ATOM     67  C   UNL A   1      48.454  27.399  27.203  1.00  0.00     0.023 A 
ATOM     68  C   UNL A   1      49.310  26.777  28.135  1.00  0.00     0.012 A 
ATOM     69  C   UNL A   1      48.913  27.634  25.893  1.00  0.00     0.148 A 
ATOM     70  C   UNL A   1      50.610  26.420  27.781  1.00  0.00     0.002 A 
ATOM     71  C   UNL A   1      50.199  27.239  25.535  1.00  0.00     0.091 A 
ATOM     72  F   UNL A   1      48.096  28.250  25.028  1.00  0.00    -0.205 F 
ATOM     73  C   UNL A   1      51.051  26.643  26.479  1.00  0.00     0.022 A 
BRANCH  71  74
ATOM     74  S   UNL A   1      50.838  27.419  23.866  1.00  0.00     0.127 S 
ATOM     75  O   UNL A   1      52.099  26.684  23.953  1.00  0.00    -0.237 OA
ATOM     76  O   UNL A   1      49.803  26.761  23.068  1.00  0.00    -0.237 OA
ATOM     77  O   UNL A   1      50.964  28.851  23.635  1.00  0.00    -0.744 OA
ENDBRANCH  71  74
ENDBRANCH  53  67
BRANCH  54  78
ATOM     78  C   UNL A   1      38.987  29.300  29.889  1.00  0.00     0.023 A 
ATOM     79  C   UNL A   1      38.580  28.927  31.185  1.00  0.00     0.012 A 
ATOM     80  C   UNL A   1      38.068  29.944  29.040  1.00  0.00     0.148 A 
ATOM     81  C   UNL A   1      37.272  29.160  31.613  1.00  0.00     0.002 A 
ATOM     82  C   UNL A   1      36.782  30.222  29.492  1.00  0.00     0.091 A 
ATOM     83  F   UNL A   1      38.466  30.274  27.803  1.00  0.00    -0.205 F 
ATOM     84  C   UNL A   1      36.377  29.815  30.772  1.00  0.00     0.022 A 
BRANCH  82  85
ATOM     85  S   UNL A   1      35.610  31.170  28.515  1.00  0.00     0.127 S 
ATOM     86  O   UNL A   1      34.689  31.655  29.539  1.00  0.00    -0.237 OA
ATOM     87  O   UNL A   1      36.467  32.198  27.922  1.00  0.00    -0.237 OA
ATOM     88  O   UNL A   1      35.055  30.227  27.553  1.00  0.00    -0.744 OA
ENDBRANCH  82  85
ENDBRANCH  54  78
BRANCH  66  89
ATOM     89  C   UNL A   1      44.792  33.165  29.530  1.00  0.00     0.023 A 
ATOM     90  C   UNL A   1      45.239  33.519  30.818  1.00  0.00     0.012 A 
ATOM     91  C   UNL A   1      44.685  34.158  28.537  1.00  0.00     0.148 A 
ATOM     92  C   UNL A   1      45.541  34.847  31.123  1.00  0.00     0.002 A 
ATOM     93  C   UNL A   1      45.032  35.470  28.834  1.00  0.00     0.091 A 
ATOM     94  F   UNL A   1      44.239  33.803  27.322  1.00  0.00    -0.205 F 
ATOM     95  C   UNL A   1      45.448  35.818  30.128  1.00  0.00     0.022 A 
BRANCH  93  96
ATOM     96  S   UNL A   1      45.036  36.765  27.589  1.00  0.00     0.127 S 
ATOM     97  O   UNL A   1      43.630  36.798  27.189  1.00  0.00    -0.237 OA
ATOM     98  O   UNL A   1      45.480  37.932  28.353  1.00  0.00    -0.237 OA
ATOM     99  O   UNL A   1      45.972  36.328  26.561  1.00  0.00    -0.744 OA
ENDBRANCH  93  96
ENDBRANCH  66  89
ENDBRANCH  40  41
ENDBRANCH  33  35
ENDBRANCH  32  33
ENDBRANCH  31  32
ENDBRANCH  30  31
ENDBRANCH  29  30
ENDBRANCH   1  29
TORSDOF 22
ENDMDL
