MODEL 1
REMARK VINA RESULT:      -9.5      0.000      0.000
REMARK SMILES Cc1cccc(NC(=O)COc2ccc(N3C[C@@H](C(=O)OCCOCCOC(=O)c4ccc(-c5c6nc(c(-c7cccc(S(=O)(=O)[O-])c7F)c7ccc([nH]7)c(-c7cccc(S(=O)(=O)[O-])c7F)c7nc(c(-c8cccc(S(=O)(=O)[O-])c8F)c8ccc5[nH]8)C=C7)C=C6)cc4)CC3=O)cc2)c1
REMARK SMILES IDX 23 1 22 2 21 3 19 4 20 5 18 6 16 7 17 8 94 9 93 10 95 11
REMARK SMILES IDX 15 12 12 13 13 14 97 15 14 16 96 17 11 18 10 19 8 20 7 21
REMARK SMILES IDX 9 23 6 24 1 25 2 26 3 27 98 28 4 29 5 30 24 31 25 32 26 33
REMARK SMILES IDX 27 34 28 35 29 36 30 37 31 38 92 39 32 40 91 41 33 42 34 43
REMARK SMILES IDX 35 44 85 45 36 46 90 47 84 48 86 49 37 50 89 51 83 52 82 53
REMARK SMILES IDX 38 55 70 56 50 57 69 58 51 59 54 60 68 61 87 62 52 63 53 64
REMARK SMILES IDX 67 66 88 67 55 68 39 69 40 70 48 71 41 72 43 73 49 74 42 75
REMARK SMILES IDX 44 76 45 77 46 78 47 79 71 80 72 81 80 82 73 83 75 84 81 85
REMARK SMILES IDX 74 86 76 87 77 88 78 89 79 90 56 91 57 92 65 93 58 94 60 95
REMARK SMILES IDX 66 96 59 97 61 98 62 99 63 100 64 101
REMARK H PARENT 7 22 86 54 54 65
REMARK Flexibility Score: inf
ROOT
ATOM      1  C   UNL A   1      39.406  27.875  30.233  1.00  0.00     0.202 C 
ENDROOT
BRANCH   1   2
ATOM      2  C   UNL A   1      39.842  28.255  28.851  1.00  0.00     0.261 C 
BRANCH   2   3
ATOM      3  O   UNL A   1      41.092  28.992  28.913  1.00  0.00    -0.463 OA
BRANCH   3   4
ATOM      4  C   UNL A   1      42.265  28.332  28.649  1.00  0.00     0.311 C 
ATOM      5  O   UNL A   1      43.198  28.156  29.397  1.00  0.00    -0.252 OA
BRANCH   4   6
ATOM      6  C   UNL A   1      42.298  27.848  27.237  1.00  0.00     0.128 C 
ATOM      7  N   UNL A   1      43.635  26.250  26.199  1.00  0.00    -0.312 N 
ATOM      8  C   UNL A   1      42.661  26.390  27.248  1.00  0.00     0.141 C 
ATOM      9  C   UNL A   1      44.127  27.470  25.749  1.00  0.00     0.227 C 
ATOM     10  C   UNL A   1      43.337  28.569  26.394  1.00  0.00     0.117 C 
ATOM     11  O   UNL A   1      45.024  27.685  24.947  1.00  0.00    -0.274 OA
BRANCH   7  12
ATOM     12  C   UNL A   1      44.192  24.989  25.932  1.00  0.00     0.044 A 
ATOM     13  C   UNL A   1      45.175  22.399  25.534  1.00  0.00     0.120 A 
ATOM     14  C   UNL A   1      44.119  22.874  24.760  1.00  0.00     0.048 A 
ATOM     15  C   UNL A   1      45.748  23.228  26.494  1.00  0.00     0.048 A 
ATOM     16  C   UNL A   1      43.610  24.152  24.975  1.00  0.00     0.030 A 
ATOM     17  C   UNL A   1      45.279  24.529  26.670  1.00  0.00     0.030 A 
BRANCH  13  18
ATOM     18  O   UNL A   1      45.579  21.139  25.215  1.00  0.00    -0.484 OA
BRANCH  18  19
ATOM     19  C   UNL A   1      44.640  20.248  24.656  1.00  0.00     0.329 C 
BRANCH  19  20
ATOM     20  C   UNL A   1      43.947  19.169  25.491  1.00  0.00     0.262 C 
ATOM     21  N   UNL A   1      42.865  19.393  26.283  1.00  0.00    -0.323 N 
ATOM     22  H   UNL A   1      42.488  18.560  26.649  1.00  0.00     0.170 HD
ATOM     23  O   UNL A   1      44.364  18.002  25.446  1.00  0.00    -0.271 OA
BRANCH  21  24
ATOM     24  C   UNL A   1      42.159  20.531  26.703  1.00  0.00     0.041 A 
ATOM     25  C   UNL A   1      42.859  23.281  29.267  1.00  0.00     0.044 C 
ATOM     26  C   UNL A   1      42.180  22.461  28.211  1.00  0.00    -0.049 A 
ATOM     27  C   UNL A   1      40.958  22.879  27.681  1.00  0.00     0.003 A 
ATOM     28  C   UNL A   1      42.763  21.283  27.724  1.00  0.00     0.029 A 
ATOM     29  C   UNL A   1      40.351  22.145  26.666  1.00  0.00     0.002 A 
ATOM     30  C   UNL A   1      40.961  20.989  26.166  1.00  0.00     0.026 A 
ENDBRANCH  21  24
ENDBRANCH  19  20
ENDBRANCH  18  19
ENDBRANCH  13  18
ENDBRANCH   7  12
ENDBRANCH   4   6
ENDBRANCH   3   4
ENDBRANCH   2   3
ENDBRANCH   1   2
BRANCH   1  31
ATOM     31  O   UNL A   1      38.031  28.214  30.263  1.00  0.00    -0.374 OA
BRANCH  31  32
ATOM     32  C   UNL A   1      37.539  29.032  29.235  1.00  0.00     0.202 C 
BRANCH  32  33
ATOM     33  C   UNL A   1      36.279  29.775  29.661  1.00  0.00     0.261 C 
BRANCH  33  34
ATOM     34  O   UNL A   1      36.235  29.843  31.102  1.00  0.00    -0.460 OA
BRANCH  34  35
ATOM     35  C   UNL A   1      36.238  31.106  31.624  1.00  0.00     0.338 C 
ATOM     36  O   UNL A   1      35.225  31.749  31.846  1.00  0.00    -0.246 OA
BRANCH  35  37
ATOM     37  C   UNL A   1      37.628  31.653  31.643  1.00  0.00     0.060 A 
ATOM     38  C   UNL A   1      38.591  31.095  32.502  1.00  0.00     0.016 A 
ATOM     39  C   UNL A   1      37.878  32.884  31.042  1.00  0.00     0.016 A 
ATOM     40  C   UNL A   1      39.697  31.851  32.914  1.00  0.00     0.010 A 
ATOM     41  C   UNL A   1      38.927  33.652  31.510  1.00  0.00     0.010 A 
ATOM     42  C   UNL A   1      39.800  33.171  32.504  1.00  0.00    -0.014 A 
BRANCH  42  43
ATOM     43  C   UNL A   1      40.790  34.144  32.975  1.00  0.00     0.031 A 
ATOM     44  C   UNL A   1      40.438  34.858  34.219  1.00  0.00     0.074 A 
ATOM     45  C   UNL A   1      42.077  34.140  32.536  1.00  0.00     0.049 A 
ATOM     46  N   UNL A   1      41.191  35.732  34.783  1.00  0.00    -0.248 NA
ATOM     47  C   UNL A   1      39.163  34.672  34.920  1.00  0.00     0.031 C 
ATOM     48  C   UNL A   1      43.284  34.386  33.333  1.00  0.00     0.029 A 
ATOM     49  N   UNL A   1      42.611  33.839  31.278  1.00  0.00    -0.354 N 
ATOM     50  C   UNL A   1      40.717  35.881  36.062  1.00  0.00     0.074 A 
ATOM     51  C   UNL A   1      39.369  35.386  36.028  1.00  0.00     0.031 C 
ATOM     52  C   UNL A   1      44.359  34.459  32.526  1.00  0.00     0.029 A 
ATOM     53  C   UNL A   1      43.872  34.439  31.157  1.00  0.00     0.049 A 
ATOM     54  H   UNL A   1      42.171  33.292  30.588  1.00  0.00     0.167 HD
ATOM     55  C   UNL A   1      41.604  36.218  37.034  1.00  0.00     0.034 A 
ATOM     56  C   UNL A   1      44.142  35.325  30.160  1.00  0.00     0.034 A 
ATOM     57  C   UNL A   1      42.894  36.624  36.437  1.00  0.00     0.049 A 
ATOM     58  C   UNL A   1      44.400  36.672  30.779  1.00  0.00     0.074 A 
ATOM     59  C   UNL A   1      44.157  36.059  36.407  1.00  0.00     0.029 A 
ATOM     60  N   UNL A   1      42.906  37.637  35.470  1.00  0.00    -0.354 N 
ATOM     61  N   UNL A   1      44.143  36.898  32.037  1.00  0.00    -0.248 NA
ATOM     62  C   UNL A   1      45.007  37.828  30.132  1.00  0.00     0.031 C 
ATOM     63  C   UNL A   1      44.878  36.655  35.324  1.00  0.00     0.029 A 
ATOM     64  C   UNL A   1      44.079  37.622  34.729  1.00  0.00     0.049 A 
ATOM     65  H   UNL A   1      42.172  38.279  35.333  1.00  0.00     0.167 HD
ATOM     66  C   UNL A   1      44.512  38.145  32.391  1.00  0.00     0.074 A 
ATOM     67  C   UNL A   1      45.055  38.701  31.158  1.00  0.00     0.031 C 
ATOM     68  C   UNL A   1      44.298  38.604  33.657  1.00  0.00     0.034 A 
BRANCH  55  69
ATOM     69  C   UNL A   1      41.381  36.007  38.524  1.00  0.00     0.023 A 
ATOM     70  C   UNL A   1      41.394  34.673  38.983  1.00  0.00     0.012 A 
ATOM     71  C   UNL A   1      41.084  36.995  39.504  1.00  0.00     0.148 A 
ATOM     72  C   UNL A   1      41.149  34.337  40.322  1.00  0.00     0.002 A 
ATOM     73  C   UNL A   1      40.923  36.668  40.855  1.00  0.00     0.091 A 
ATOM     74  F   UNL A   1      40.847  38.258  39.142  1.00  0.00    -0.205 F 
ATOM     75  C   UNL A   1      40.940  35.334  41.264  1.00  0.00     0.022 A 
BRANCH  73  76
ATOM     76  S   UNL A   1      40.718  37.914  42.147  1.00  0.00     0.127 S 
ATOM     77  O   UNL A   1      39.421  38.498  41.811  1.00  0.00    -0.237 OA
ATOM     78  O   UNL A   1      40.721  37.103  43.366  1.00  0.00    -0.237 OA
ATOM     79  O   UNL A   1      41.855  38.820  42.028  1.00  0.00    -0.744 OA
ENDBRANCH  73  76
ENDBRANCH  55  69
BRANCH  56  80
ATOM     80  C   UNL A   1      43.436  34.981  28.884  1.00  0.00     0.023 A 
ATOM     81  C   UNL A   1      42.592  35.985  28.336  1.00  0.00     0.012 A 
ATOM     82  C   UNL A   1      43.945  33.994  28.021  1.00  0.00     0.148 A 
ATOM     83  C   UNL A   1      42.369  36.077  26.958  1.00  0.00     0.002 A 
ATOM     84  C   UNL A   1      43.768  34.127  26.642  1.00  0.00     0.091 A 
ATOM     85  F   UNL A   1      44.656  32.989  28.550  1.00  0.00    -0.205 F 
ATOM     86  C   UNL A   1      43.003  35.179  26.107  1.00  0.00     0.022 A 
BRANCH  84  87
ATOM     87  S   UNL A   1      44.670  33.109  25.463  1.00  0.00     0.127 S 
ATOM     88  O   UNL A   1      44.437  31.767  25.990  1.00  0.00    -0.237 OA
ATOM     89  O   UNL A   1      43.975  33.401  24.208  1.00  0.00    -0.237 OA
ATOM     90  O   UNL A   1      46.046  33.579  25.511  1.00  0.00    -0.744 OA
ENDBRANCH  84  87
ENDBRANCH  56  80
BRANCH  68  91
ATOM     91  C   UNL A   1      44.261  40.068  33.976  1.00  0.00     0.023 A 
ATOM     92  C   UNL A   1      43.126  40.852  33.689  1.00  0.00     0.012 A 
ATOM     93  C   UNL A   1      45.279  40.652  34.762  1.00  0.00     0.148 A 
ATOM     94  C   UNL A   1      43.032  42.179  34.100  1.00  0.00     0.002 A 
ATOM     95  C   UNL A   1      45.117  41.925  35.284  1.00  0.00     0.091 A 
ATOM     96  F   UNL A   1      46.409  39.975  35.007  1.00  0.00    -0.205 F 
ATOM     97  C   UNL A   1      44.017  42.708  34.921  1.00  0.00     0.022 A 
BRANCH  95  98
ATOM     98  S   UNL A   1      46.203  42.531  36.577  1.00  0.00     0.127 S 
ATOM     99  O   UNL A   1      47.455  42.721  35.849  1.00  0.00    -0.237 OA
ATOM    100  O   UNL A   1      45.536  43.769  36.983  1.00  0.00    -0.237 OA
ATOM    101  O   UNL A   1      46.207  41.493  37.598  1.00  0.00    -0.744 OA
ENDBRANCH  95  98
ENDBRANCH  68  91
ENDBRANCH  42  43
ENDBRANCH  35  37
ENDBRANCH  34  35
ENDBRANCH  33  34
ENDBRANCH  32  33
ENDBRANCH  31  32
ENDBRANCH   1  31
TORSDOF 22
ENDMDL
MODEL 2
REMARK VINA RESULT:      -9.5      9.586     13.377
REMARK SMILES Cc1cccc(NC(=O)COc2ccc(N3C[C@@H](C(=O)OCCOCCOC(=O)c4ccc(-c5c6nc(c(-c7cccc(S(=O)(=O)[O-])c7F)c7ccc([nH]7)c(-c7cccc(S(=O)(=O)[O-])c7F)c7nc(c(-c8cccc(S(=O)(=O)[O-])c8F)c8ccc5[nH]8)C=C7)C=C6)cc4)CC3=O)cc2)c1
REMARK SMILES IDX 23 1 22 2 21 3 19 4 20 5 18 6 16 7 17 8 94 9 93 10 95 11
REMARK SMILES IDX 15 12 12 13 13 14 97 15 14 16 96 17 11 18 10 19 8 20 7 21
REMARK SMILES IDX 9 23 6 24 1 25 2 26 3 27 98 28 4 29 5 30 24 31 25 32 26 33
REMARK SMILES IDX 27 34 28 35 29 36 30 37 31 38 92 39 32 40 91 41 33 42 34 43
REMARK SMILES IDX 35 44 85 45 36 46 90 47 84 48 86 49 37 50 89 51 83 52 82 53
REMARK SMILES IDX 38 55 70 56 50 57 69 58 51 59 54 60 68 61 87 62 52 63 53 64
REMARK SMILES IDX 67 66 88 67 55 68 39 69 40 70 48 71 41 72 43 73 49 74 42 75
REMARK SMILES IDX 44 76 45 77 46 78 47 79 71 80 72 81 80 82 73 83 75 84 81 85
REMARK SMILES IDX 74 86 76 87 77 88 78 89 79 90 56 91 57 92 65 93 58 94 60 95
REMARK SMILES IDX 66 96 59 97 61 98 62 99 63 100 64 101
REMARK H PARENT 7 22 86 54 54 65
REMARK Flexibility Score: inf
ROOT
ATOM      1  C   UNL A   1      50.864  22.365  35.036  1.00  0.00     0.202 C 
ENDROOT
BRANCH   1   2
ATOM      2  C   UNL A   1      49.811  22.585  36.079  1.00  0.00     0.261 C 
BRANCH   2   3
ATOM      3  O   UNL A   1      49.737  21.431  36.956  1.00  0.00    -0.463 OA
BRANCH   3   4
ATOM      4  C   UNL A   1      48.524  21.083  37.494  1.00  0.00     0.311 C 
ATOM      5  O   UNL A   1      47.566  21.798  37.679  1.00  0.00    -0.252 OA
BRANCH   4   6
ATOM      6  C   UNL A   1      48.510  19.645  37.892  1.00  0.00     0.128 C 
ATOM      7  N   UNL A   1      47.660  18.590  39.787  1.00  0.00    -0.312 N 
ATOM      8  C   UNL A   1      47.245  19.382  38.659  1.00  0.00     0.141 C 
ATOM      9  C   UNL A   1      49.039  18.584  39.965  1.00  0.00     0.227 C 
ATOM     10  C   UNL A   1      49.674  19.275  38.796  1.00  0.00     0.117 C 
ATOM     11  O   UNL A   1      49.691  18.094  40.877  1.00  0.00    -0.274 OA
BRANCH   7  12
ATOM     12  C   UNL A   1      46.707  18.160  40.723  1.00  0.00     0.044 A 
ATOM     13  C   UNL A   1      44.954  17.294  42.726  1.00  0.00     0.120 A 
ATOM     14  C   UNL A   1      45.169  18.655  42.524  1.00  0.00     0.048 A 
ATOM     15  C   UNL A   1      45.604  16.370  41.913  1.00  0.00     0.048 A 
ATOM     16  C   UNL A   1      46.063  19.088  41.547  1.00  0.00     0.030 A 
ATOM     17  C   UNL A   1      46.452  16.802  40.895  1.00  0.00     0.030 A 
BRANCH  13  18
ATOM     18  O   UNL A   1      44.053  17.010  43.706  1.00  0.00    -0.484 OA
BRANCH  18  19
ATOM     19  C   UNL A   1      43.793  15.660  44.018  1.00  0.00     0.329 C 
BRANCH  19  20
ATOM     20  C   UNL A   1      43.947  15.110  45.437  1.00  0.00     0.262 C 
ATOM     21  N   UNL A   1      43.877  13.790  45.758  1.00  0.00    -0.323 N 
ATOM     22  H   UNL A   1      44.116  13.618  46.697  1.00  0.00     0.170 HD
ATOM     23  O   UNL A   1      44.172  15.892  46.372  1.00  0.00    -0.271 OA
BRANCH  21  24
ATOM     24  C   UNL A   1      43.543  12.616  45.065  1.00  0.00     0.041 A 
ATOM     25  C   UNL A   1      40.746  11.687  42.627  1.00  0.00     0.044 C 
ATOM     26  C   UNL A   1      41.958  11.589  43.505  1.00  0.00    -0.049 A 
ATOM     27  C   UNL A   1      42.694  10.403  43.549  1.00  0.00     0.003 A 
ATOM     28  C   UNL A   1      42.384  12.681  44.275  1.00  0.00     0.029 A 
ATOM     29  C   UNL A   1      43.846  10.328  44.327  1.00  0.00     0.002 A 
ATOM     30  C   UNL A   1      44.279  11.436  45.063  1.00  0.00     0.026 A 
ENDBRANCH  21  24
ENDBRANCH  19  20
ENDBRANCH  18  19
ENDBRANCH  13  18
ENDBRANCH   7  12
ENDBRANCH   4   6
ENDBRANCH   3   4
ENDBRANCH   2   3
ENDBRANCH   1   2
BRANCH   1  31
ATOM     31  O   UNL A   1      50.140  21.892  33.914  1.00  0.00    -0.374 OA
BRANCH  31  32
ATOM     32  C   UNL A   1      50.207  20.520  33.627  1.00  0.00     0.202 C 
BRANCH  32  33
ATOM     33  C   UNL A   1      48.829  19.870  33.659  1.00  0.00     0.261 C 
BRANCH  33  34
ATOM     34  O   UNL A   1      47.820  20.901  33.651  1.00  0.00    -0.460 OA
BRANCH  34  35
ATOM     35  C   UNL A   1      46.750  20.671  34.468  1.00  0.00     0.338 C 
ATOM     36  O   UNL A   1      46.424  19.564  34.862  1.00  0.00    -0.246 OA
BRANCH  35  37
ATOM     37  C   UNL A   1      45.921  21.909  34.594  1.00  0.00     0.060 A 
ATOM     38  C   UNL A   1      44.520  21.828  34.513  1.00  0.00     0.016 A 
ATOM     39  C   UNL A   1      46.543  23.151  34.490  1.00  0.00     0.016 A 
ATOM     40  C   UNL A   1      43.766  22.946  34.130  1.00  0.00     0.010 A 
ATOM     41  C   UNL A   1      45.804  24.228  34.039  1.00  0.00     0.010 A 
ATOM     42  C   UNL A   1      44.425  24.115  33.783  1.00  0.00    -0.014 A 
BRANCH  42  43
ATOM     43  C   UNL A   1      43.807  25.311  33.203  1.00  0.00     0.031 A 
ATOM     44  C   UNL A   1      43.106  26.191  34.158  1.00  0.00     0.074 A 
ATOM     45  C   UNL A   1      44.147  25.779  31.973  1.00  0.00     0.049 A 
ATOM     46  N   UNL A   1      42.521  27.286  33.830  1.00  0.00    -0.248 NA
ATOM     47  C   UNL A   1      42.967  25.881  35.586  1.00  0.00     0.031 C 
ATOM     48  C   UNL A   1      44.307  27.182  31.574  1.00  0.00     0.029 A 
ATOM     49  N   UNL A   1      44.503  25.098  30.803  1.00  0.00    -0.354 N 
ATOM     50  C   UNL A   1      42.327  27.984  34.996  1.00  0.00     0.074 A 
ATOM     51  C   UNL A   1      42.415  27.007  36.045  1.00  0.00     0.031 C 
ATOM     52  C   UNL A   1      44.489  27.262  30.242  1.00  0.00     0.029 A 
ATOM     53  C   UNL A   1      44.280  25.931  29.698  1.00  0.00     0.049 A 
ATOM     54  H   UNL A   1      44.856  24.179  30.763  1.00  0.00     0.167 HD
ATOM     55  C   UNL A   1      42.321  29.341  34.930  1.00  0.00     0.034 A 
ATOM     56  C   UNL A   1      43.443  25.560  28.690  1.00  0.00     0.034 A 
ATOM     57  C   UNL A   1      42.259  29.790  33.523  1.00  0.00     0.049 A 
ATOM     58  C   UNL A   1      42.269  26.500  28.679  1.00  0.00     0.074 A 
ATOM     59  C   UNL A   1      43.157  30.418  32.677  1.00  0.00     0.029 A 
ATOM     60  N   UNL A   1      41.230  29.312  32.703  1.00  0.00    -0.354 N 
ATOM     61  N   UNL A   1      42.062  27.336  29.659  1.00  0.00    -0.248 NA
ATOM     62  C   UNL A   1      41.293  26.665  27.610  1.00  0.00     0.031 C 
ATOM     63  C   UNL A   1      42.720  30.194  31.333  1.00  0.00     0.029 A 
ATOM     64  C   UNL A   1      41.528  29.482  31.358  1.00  0.00     0.049 A 
ATOM     65  H   UNL A   1      40.399  28.906  33.038  1.00  0.00     0.167 HD
ATOM     66  C   UNL A   1      40.998  28.124  29.408  1.00  0.00     0.074 A 
ATOM     67  C   UNL A   1      40.539  27.669  28.102  1.00  0.00     0.031 C 
ATOM     68  C   UNL A   1      40.581  29.047  30.322  1.00  0.00     0.034 A 
BRANCH  55  69
ATOM     69  C   UNL A   1      42.558  30.268  36.113  1.00  0.00     0.023 A 
ATOM     70  C   UNL A   1      41.576  31.252  36.354  1.00  0.00     0.012 A 
ATOM     71  C   UNL A   1      43.696  30.309  36.966  1.00  0.00     0.148 A 
ATOM     72  C   UNL A   1      41.699  32.201  37.377  1.00  0.00     0.002 A 
ATOM     73  C   UNL A   1      43.780  31.203  38.040  1.00  0.00     0.091 A 
ATOM     74  F   UNL A   1      44.770  29.561  36.700  1.00  0.00    -0.205 F 
ATOM     75  C   UNL A   1      42.787  32.162  38.239  1.00  0.00     0.022 A 
BRANCH  73  76
ATOM     76  S   UNL A   1      45.127  31.166  39.243  1.00  0.00     0.127 S 
ATOM     77  O   UNL A   1      44.890  29.900  39.935  1.00  0.00    -0.237 OA
ATOM     78  O   UNL A   1      46.313  31.175  38.384  1.00  0.00    -0.237 OA
ATOM     79  O   UNL A   1      44.976  32.360  40.067  1.00  0.00    -0.744 OA
ENDBRANCH  73  76
ENDBRANCH  55  69
BRANCH  56  80
ATOM     80  C   UNL A   1      43.488  24.086  28.423  1.00  0.00     0.023 A 
ATOM     81  C   UNL A   1      42.360  23.332  28.845  1.00  0.00     0.012 A 
ATOM     82  C   UNL A   1      44.295  23.563  27.398  1.00  0.00     0.148 A 
ATOM     83  C   UNL A   1      41.977  22.162  28.181  1.00  0.00     0.002 A 
ATOM     84  C   UNL A   1      43.873  22.428  26.701  1.00  0.00     0.091 A 
ATOM     85  F   UNL A   1      45.415  24.220  27.069  1.00  0.00    -0.205 F 
ATOM     86  C   UNL A   1      42.704  21.742  27.073  1.00  0.00     0.022 A 
BRANCH  84  87
ATOM     87  S   UNL A   1      44.661  21.903  25.170  1.00  0.00     0.127 S 
ATOM     88  O   UNL A   1      46.022  21.620  25.618  1.00  0.00    -0.237 OA
ATOM     89  O   UNL A   1      43.879  20.718  24.812  1.00  0.00    -0.237 OA
ATOM     90  O   UNL A   1      44.514  23.020  24.250  1.00  0.00    -0.744 OA
ENDBRANCH  84  87
ENDBRANCH  56  80
BRANCH  68  91
ATOM     91  C   UNL A   1      39.191  29.607  30.307  1.00  0.00     0.023 A 
ATOM     92  C   UNL A   1      38.081  28.822  30.678  1.00  0.00     0.012 A 
ATOM     93  C   UNL A   1      38.984  30.992  30.128  1.00  0.00     0.148 A 
ATOM     94  C   UNL A   1      36.806  29.370  30.794  1.00  0.00     0.002 A 
ATOM     95  C   UNL A   1      37.742  31.553  30.381  1.00  0.00     0.091 A 
ATOM     96  F   UNL A   1      39.990  31.773  29.710  1.00  0.00    -0.205 F 
ATOM     97  C   UNL A   1      36.641  30.742  30.672  1.00  0.00     0.022 A 
BRANCH  95  98
ATOM     98  S   UNL A   1      37.551  33.330  30.529  1.00  0.00     0.127 S 
ATOM     99  O   UNL A   1      38.587  33.661  31.503  1.00  0.00    -0.237 OA
ATOM    100  O   UNL A   1      37.826  33.784  29.164  1.00  0.00    -0.237 OA
ATOM    101  O   UNL A   1      36.176  33.539  30.960  1.00  0.00    -0.744 OA
ENDBRANCH  95  98
ENDBRANCH  68  91
ENDBRANCH  42  43
ENDBRANCH  35  37
ENDBRANCH  34  35
ENDBRANCH  33  34
ENDBRANCH  32  33
ENDBRANCH  31  32
ENDBRANCH   1  31
TORSDOF 22
ENDMDL
MODEL 3
REMARK VINA RESULT:      -9.3      1.692      2.147
REMARK SMILES Cc1cccc(NC(=O)COc2ccc(N3C[C@@H](C(=O)OCCOCCOC(=O)c4ccc(-c5c6nc(c(-c7cccc(S(=O)(=O)[O-])c7F)c7ccc([nH]7)c(-c7cccc(S(=O)(=O)[O-])c7F)c7nc(c(-c8cccc(S(=O)(=O)[O-])c8F)c8ccc5[nH]8)C=C7)C=C6)cc4)CC3=O)cc2)c1
REMARK SMILES IDX 23 1 22 2 21 3 19 4 20 5 18 6 16 7 17 8 94 9 93 10 95 11
REMARK SMILES IDX 15 12 12 13 13 14 97 15 14 16 96 17 11 18 10 19 8 20 7 21
REMARK SMILES IDX 9 23 6 24 1 25 2 26 3 27 98 28 4 29 5 30 24 31 25 32 26 33
REMARK SMILES IDX 27 34 28 35 29 36 30 37 31 38 92 39 32 40 91 41 33 42 34 43
REMARK SMILES IDX 35 44 85 45 36 46 90 47 84 48 86 49 37 50 89 51 83 52 82 53
REMARK SMILES IDX 38 55 70 56 50 57 69 58 51 59 54 60 68 61 87 62 52 63 53 64
REMARK SMILES IDX 67 66 88 67 55 68 39 69 40 70 48 71 41 72 43 73 49 74 42 75
REMARK SMILES IDX 44 76 45 77 46 78 47 79 71 80 72 81 80 82 73 83 75 84 81 85
REMARK SMILES IDX 74 86 76 87 77 88 78 89 79 90 56 91 57 92 65 93 58 94 60 95
REMARK SMILES IDX 66 96 59 97 61 98 62 99 63 100 64 101
REMARK H PARENT 7 22 86 54 54 65
REMARK Flexibility Score: inf
ROOT
ATOM      1  C   UNL A   1      39.142  27.998  31.203  1.00  0.00     0.202 C 
ENDROOT
BRANCH   1   2
ATOM      2  C   UNL A   1      39.480  28.091  29.747  1.00  0.00     0.261 C 
BRANCH   2   3
ATOM      3  O   UNL A   1      40.804  28.666  29.583  1.00  0.00    -0.463 OA
BRANCH   3   4
ATOM      4  C   UNL A   1      41.847  27.842  29.245  1.00  0.00     0.311 C 
ATOM      5  O   UNL A   1      42.769  27.493  29.945  1.00  0.00    -0.252 OA
BRANCH   4   6
ATOM      6  C   UNL A   1      41.750  27.417  27.817  1.00  0.00     0.128 C 
ATOM      7  N   UNL A   1      43.110  26.024  26.540  1.00  0.00    -0.312 N 
ATOM      8  C   UNL A   1      42.272  26.012  27.709  1.00  0.00     0.141 C 
ATOM      9  C   UNL A   1      43.400  27.309  26.094  1.00  0.00     0.227 C 
ATOM     10  C   UNL A   1      42.583  28.284  26.889  1.00  0.00     0.117 C 
ATOM     11  O   UNL A   1      44.155  27.657  25.198  1.00  0.00    -0.274 OA
BRANCH   7  12
ATOM     12  C   UNL A   1      43.765  24.848  26.142  1.00  0.00     0.044 A 
ATOM     13  C   UNL A   1      44.948  22.402  25.472  1.00  0.00     0.120 A 
ATOM     14  C   UNL A   1      43.859  22.875  24.745  1.00  0.00     0.048 A 
ATOM     15  C   UNL A   1      45.454  23.163  26.522  1.00  0.00     0.048 A 
ATOM     16  C   UNL A   1      43.250  24.078  25.094  1.00  0.00     0.030 A 
ATOM     17  C   UNL A   1      44.884  24.396  26.835  1.00  0.00     0.030 A 
BRANCH  13  18
ATOM     18  O   UNL A   1      45.450  21.219  25.021  1.00  0.00    -0.484 OA
BRANCH  18  19
ATOM     19  C   UNL A   1      44.550  20.221  24.592  1.00  0.00     0.329 C 
BRANCH  19  20
ATOM     20  C   UNL A   1      44.021  19.144  25.540  1.00  0.00     0.262 C 
ATOM     21  N   UNL A   1      42.977  19.322  26.393  1.00  0.00    -0.323 N 
ATOM     22  H   UNL A   1      42.707  18.485  26.837  1.00  0.00     0.170 HD
ATOM     23  O   UNL A   1      44.544  18.020  25.539  1.00  0.00    -0.271 OA
BRANCH  21  24
ATOM     24  C   UNL A   1      42.194  20.417  26.791  1.00  0.00     0.041 A 
ATOM     25  C   UNL A   1      38.736  21.702  25.783  1.00  0.00     0.044 C 
ATOM     26  C   UNL A   1      40.070  21.590  26.460  1.00  0.00    -0.049 A 
ATOM     27  C   UNL A   1      40.431  22.508  27.447  1.00  0.00     0.003 A 
ATOM     28  C   UNL A   1      40.962  20.559  26.133  1.00  0.00     0.029 A 
ATOM     29  C   UNL A   1      41.648  22.376  28.109  1.00  0.00     0.002 A 
ATOM     30  C   UNL A   1      42.514  21.322  27.797  1.00  0.00     0.026 A 
ENDBRANCH  21  24
ENDBRANCH  19  20
ENDBRANCH  18  19
ENDBRANCH  13  18
ENDBRANCH   7  12
ENDBRANCH   4   6
ENDBRANCH   3   4
ENDBRANCH   2   3
ENDBRANCH   1   2
BRANCH   1  31
ATOM     31  O   UNL A   1      37.791  28.420  31.268  1.00  0.00    -0.374 OA
BRANCH  31  32
ATOM     32  C   UNL A   1      37.269  29.104  30.159  1.00  0.00     0.202 C 
BRANCH  32  33
ATOM     33  C   UNL A   1      35.969  29.823  30.502  1.00  0.00     0.261 C 
BRANCH  33  34
ATOM     34  O   UNL A   1      36.162  30.601  31.702  1.00  0.00    -0.460 OA
BRANCH  34  35
ATOM     35  C   UNL A   1      36.151  31.955  31.523  1.00  0.00     0.338 C 
ATOM     36  O   UNL A   1      35.152  32.592  31.233  1.00  0.00    -0.246 OA
BRANCH  35  37
ATOM     37  C   UNL A   1      37.549  32.483  31.490  1.00  0.00     0.060 A 
ATOM     38  C   UNL A   1      38.602  31.714  32.015  1.00  0.00     0.016 A 
ATOM     39  C   UNL A   1      37.754  33.834  31.219  1.00  0.00     0.016 A 
ATOM     40  C   UNL A   1      39.782  32.334  32.453  1.00  0.00     0.010 A 
ATOM     41  C   UNL A   1      38.886  34.448  31.722  1.00  0.00     0.010 A 
ATOM     42  C   UNL A   1      39.872  33.716  32.410  1.00  0.00    -0.014 A 
BRANCH  42  43
ATOM     43  C   UNL A   1      40.952  34.526  32.980  1.00  0.00     0.031 A 
ATOM     44  C   UNL A   1      40.676  35.110  34.307  1.00  0.00     0.074 A 
ATOM     45  C   UNL A   1      42.231  34.457  32.523  1.00  0.00     0.049 A 
ATOM     46  N   UNL A   1      41.510  35.833  34.962  1.00  0.00    -0.248 NA
ATOM     47  C   UNL A   1      39.391  34.959  35.001  1.00  0.00     0.031 C 
ATOM     48  C   UNL A   1      43.459  34.488  33.324  1.00  0.00     0.029 A 
ATOM     49  N   UNL A   1      42.728  34.266  31.229  1.00  0.00    -0.354 N 
ATOM     50  C   UNL A   1      41.058  35.867  36.258  1.00  0.00     0.074 A 
ATOM     51  C   UNL A   1      39.669  35.508  36.186  1.00  0.00     0.031 C 
ATOM     52  C   UNL A   1      44.533  34.560  32.515  1.00  0.00     0.029 A 
ATOM     53  C   UNL A   1      44.039  34.755  31.161  1.00  0.00     0.049 A 
ATOM     54  H   UNL A   1      42.235  33.852  30.483  1.00  0.00     0.167 HD
ATOM     55  C   UNL A   1      41.978  35.997  37.249  1.00  0.00     0.034 A 
ATOM     56  C   UNL A   1      44.387  35.729  30.276  1.00  0.00     0.034 A 
ATOM     57  C   UNL A   1      43.298  36.351  36.685  1.00  0.00     0.049 A 
ATOM     58  C   UNL A   1      44.774  36.959  31.052  1.00  0.00     0.074 A 
ATOM     59  C   UNL A   1      44.502  35.678  36.565  1.00  0.00     0.029 A 
ATOM     60  N   UNL A   1      43.401  37.470  35.850  1.00  0.00    -0.354 N 
ATOM     61  N   UNL A   1      44.546  37.050  32.332  1.00  0.00    -0.248 NA
ATOM     62  C   UNL A   1      45.485  38.124  30.542  1.00  0.00     0.031 C 
ATOM     63  C   UNL A   1      45.270  36.334  35.552  1.00  0.00     0.029 A 
ATOM     64  C   UNL A   1      44.563  37.439  35.094  1.00  0.00     0.049 A 
ATOM     65  H   UNL A   1      42.731  38.190  35.805  1.00  0.00     0.167 HD
ATOM     66  C   UNL A   1      45.033  38.204  32.831  1.00  0.00     0.074 A 
ATOM     67  C   UNL A   1      45.620  38.855  31.667  1.00  0.00     0.031 C 
ATOM     68  C   UNL A   1      44.870  38.521  34.147  1.00  0.00     0.034 A 
BRANCH  55  69
ATOM     69  C   UNL A   1      41.743  35.624  38.705  1.00  0.00     0.023 A 
ATOM     70  C   UNL A   1      41.965  36.636  39.662  1.00  0.00     0.012 A 
ATOM     71  C   UNL A   1      41.396  34.346  39.226  1.00  0.00     0.148 A 
ATOM     72  C   UNL A   1      41.837  36.410  41.039  1.00  0.00     0.002 A 
ATOM     73  C   UNL A   1      41.186  34.141  40.595  1.00  0.00     0.091 A 
ATOM     74  F   UNL A   1      41.363  33.275  38.430  1.00  0.00    -0.205 F 
ATOM     75  C   UNL A   1      41.421  35.171  41.507  1.00  0.00     0.022 A 
BRANCH  73  76
ATOM     76  S   UNL A   1      40.578  32.580  41.270  1.00  0.00     0.127 S 
ATOM     77  O   UNL A   1      41.693  31.672  41.004  1.00  0.00    -0.237 OA
ATOM     78  O   UNL A   1      40.384  32.905  42.684  1.00  0.00    -0.237 OA
ATOM     79  O   UNL A   1      39.346  32.274  40.551  1.00  0.00    -0.744 OA
ENDBRANCH  73  76
ENDBRANCH  55  69
BRANCH  56  80
ATOM     80  C   UNL A   1      43.646  35.613  28.979  1.00  0.00     0.023 A 
ATOM     81  C   UNL A   1      43.015  36.794  28.503  1.00  0.00     0.012 A 
ATOM     82  C   UNL A   1      43.969  34.608  28.050  1.00  0.00     0.148 A 
ATOM     83  C   UNL A   1      42.831  37.020  27.134  1.00  0.00     0.002 A 
ATOM     84  C   UNL A   1      43.839  34.867  26.684  1.00  0.00     0.091 A 
ATOM     85  F   UNL A   1      44.469  33.453  28.508  1.00  0.00    -0.205 F 
ATOM     86  C   UNL A   1      43.295  36.078  26.223  1.00  0.00     0.022 A 
BRANCH  84  87
ATOM     87  S   UNL A   1      44.547  33.777  25.437  1.00  0.00     0.127 S 
ATOM     88  O   UNL A   1      45.974  33.879  25.729  1.00  0.00    -0.237 OA
ATOM     89  O   UNL A   1      43.946  32.487  25.779  1.00  0.00    -0.237 OA
ATOM     90  O   UNL A   1      44.120  34.317  24.156  1.00  0.00    -0.744 OA
ENDBRANCH  84  87
ENDBRANCH  56  80
BRANCH  68  91
ATOM     91  C   UNL A   1      44.973  39.931  34.644  1.00  0.00     0.023 A 
ATOM     92  C   UNL A   1      46.172  40.429  35.192  1.00  0.00     0.012 A 
ATOM     93  C   UNL A   1      43.940  40.856  34.380  1.00  0.00     0.148 A 
ATOM     94  C   UNL A   1      46.317  41.771  35.533  1.00  0.00     0.002 A 
ATOM     95  C   UNL A   1      44.142  42.210  34.593  1.00  0.00     0.091 A 
ATOM     96  F   UNL A   1      42.756  40.427  33.922  1.00  0.00    -0.205 F 
ATOM     97  C   UNL A   1      45.310  42.668  35.208  1.00  0.00     0.022 A 
BRANCH  95  98
ATOM     98  S   UNL A   1      43.005  43.424  33.919  1.00  0.00     0.127 S 
ATOM     99  O   UNL A   1      41.814  43.203  34.736  1.00  0.00    -0.237 OA
ATOM    100  O   UNL A   1      43.705  44.682  34.184  1.00  0.00    -0.237 OA
ATOM    101  O   UNL A   1      42.881  43.097  32.505  1.00  0.00    -0.744 OA
ENDBRANCH  95  98
ENDBRANCH  68  91
ENDBRANCH  42  43
ENDBRANCH  35  37
ENDBRANCH  34  35
ENDBRANCH  33  34
ENDBRANCH  32  33
ENDBRANCH  31  32
ENDBRANCH   1  31
TORSDOF 22
ENDMDL
