MODEL 1
REMARK VINA RESULT:     -10.5      0.000      0.000
REMARK SMILES O=C(C[N@H+]1CCC[C@H](CBr)C1)OCCOCCOC(=O)c1ccc(-c2c3nc(c(-c4cccc(S(=O)(=O)[O-])c4F)c4ccc([nH]4)c(-c4cccc(S(=O)(=O)[O-])c4F)c4nc(c(-c5cccc(S(=O)(=O)[O-])c5F)c5ccc2[nH]5)C=C4)C=C3)cc1
REMARK SMILES IDX 16 1 15 2 14 3 13 4 12 5 2 6 1 7 3 8 4 9 5 10 11 11 6 13
REMARK SMILES IDX 8 14 7 15 9 16 10 17 17 18 18 19 19 20 20 21 21 22 22 23
REMARK SMILES IDX 83 24 23 25 82 26 24 27 25 28 26 29 76 30 27 31 81 32 75 33
REMARK SMILES IDX 77 34 28 35 80 36 74 37 73 38 29 40 61 41 41 42 60 43 42 44
REMARK SMILES IDX 45 45 59 46 78 47 43 48 44 49 58 51 79 52 46 53 30 54 31 55
REMARK SMILES IDX 39 56 32 57 34 58 40 59 33 60 35 61 36 62 37 63 38 64 62 65
REMARK SMILES IDX 63 66 71 67 64 68 66 69 72 70 65 71 67 72 68 73 69 74 70 75
REMARK SMILES IDX 47 76 48 77 56 78 49 79 51 80 57 81 50 82 52 83 53 84 54 85
REMARK SMILES IDX 55 86
REMARK H PARENT 4 12 77 39 45 50
REMARK Flexibility Score: inf
ROOT
ATOM      1  C   UNL A   1      35.832  20.973  25.365  1.00  0.00     0.202 C 
ENDROOT
BRANCH   1   2
ATOM      2  O   UNL A   1      34.785  20.902  24.392  1.00  0.00    -0.374 OA
BRANCH   2   3
ATOM      3  C   UNL A   1      33.440  20.963  24.849  1.00  0.00     0.202 C 
BRANCH   3   4
ATOM      4  C   UNL A   1      32.445  21.819  24.068  1.00  0.00     0.261 C 
BRANCH   4   5
ATOM      5  O   UNL A   1      32.970  22.460  22.898  1.00  0.00    -0.459 OA
BRANCH   5   6
ATOM      6  C   UNL A   1      33.388  23.746  22.850  1.00  0.00     0.361 C 
ATOM      7  O   UNL A   1      34.356  24.096  23.527  1.00  0.00    -0.245 OA
BRANCH   6   8
ATOM      8  C   UNL A   1      32.599  24.783  22.058  1.00  0.00     0.386 C 
BRANCH   8   9
ATOM      9  N   UNL A   1      31.806  25.735  22.866  1.00  0.00    -0.325 N 
ATOM     10  C   UNL A   1      31.405  26.867  22.015  1.00  0.00     0.262 C 
ATOM     11  C   UNL A   1      30.651  25.091  23.508  1.00  0.00     0.267 C 
ATOM     12  H   UNL A   1      32.385  26.083  23.629  1.00  0.00     0.348 HD
ATOM     13  C   UNL A   1      30.572  27.902  22.769  1.00  0.00     0.062 C 
ATOM     14  C   UNL A   1      29.879  26.087  24.393  1.00  0.00     0.055 C 
ATOM     15  C   UNL A   1      29.407  27.251  23.507  1.00  0.00     0.016 C 
BRANCH  14  16
ATOM     16  C   UNL A   1      30.739  26.532  25.584  1.00  0.00     0.090 C 
ATOM     17  Br  UNL A   1      31.775  25.043  26.305  1.00  0.00    -0.092 Br
ENDBRANCH  14  16
ENDBRANCH   8   9
ENDBRANCH   6   8
ENDBRANCH   5   6
ENDBRANCH   4   5
ENDBRANCH   3   4
ENDBRANCH   2   3
ENDBRANCH   1   2
BRANCH   1  18
ATOM     18  C   UNL A   1      37.177  20.324  25.030  1.00  0.00     0.261 C 
BRANCH  18  19
ATOM     19  O   UNL A   1      38.251  21.277  25.057  1.00  0.00    -0.460 OA
BRANCH  19  20
ATOM     20  C   UNL A   1      39.239  20.987  25.929  1.00  0.00     0.338 C 
ATOM     21  O   UNL A   1      39.867  19.933  26.008  1.00  0.00    -0.246 OA
BRANCH  20  22
ATOM     22  C   UNL A   1      39.636  22.195  26.670  1.00  0.00     0.060 A 
ATOM     23  C   UNL A   1      38.945  23.380  26.381  1.00  0.00     0.016 A 
ATOM     24  C   UNL A   1      40.727  22.194  27.540  1.00  0.00     0.016 A 
ATOM     25  C   UNL A   1      39.415  24.591  26.870  1.00  0.00     0.010 A 
ATOM     26  C   UNL A   1      41.203  23.414  28.027  1.00  0.00     0.010 A 
ATOM     27  C   UNL A   1      40.591  24.616  27.628  1.00  0.00    -0.014 A 
BRANCH  27  28
ATOM     28  C   UNL A   1      41.310  25.902  27.760  1.00  0.00     0.031 A 
ATOM     29  C   UNL A   1      40.634  27.016  28.518  1.00  0.00     0.074 A 
ATOM     30  C   UNL A   1      42.552  26.054  27.273  1.00  0.00     0.049 A 
ATOM     31  N   UNL A   1      41.077  28.210  28.807  1.00  0.00    -0.248 NA
ATOM     32  C   UNL A   1      39.274  26.746  29.017  1.00  0.00     0.031 C 
ATOM     33  C   UNL A   1      43.302  25.037  26.537  1.00  0.00     0.029 A 
ATOM     34  N   UNL A   1      43.397  27.132  27.320  1.00  0.00    -0.354 N 
ATOM     35  C   UNL A   1      40.042  28.842  29.487  1.00  0.00     0.074 A 
ATOM     36  C   UNL A   1      38.943  27.908  29.557  1.00  0.00     0.031 C 
ATOM     37  C   UNL A   1      44.495  25.547  26.185  1.00  0.00     0.029 A 
ATOM     38  C   UNL A   1      44.583  26.927  26.657  1.00  0.00     0.049 A 
ATOM     39  H   UNL A   1      43.175  27.971  27.782  1.00  0.00     0.167 HD
ATOM     40  C   UNL A   1      40.015  30.085  30.021  1.00  0.00     0.034 A 
ATOM     41  C   UNL A   1      45.616  27.768  26.454  1.00  0.00     0.034 A 
ATOM     42  C   UNL A   1      41.125  30.996  29.973  1.00  0.00     0.049 A 
ATOM     43  C   UNL A   1      45.563  29.145  27.064  1.00  0.00     0.074 A 
ATOM     44  C   UNL A   1      41.226  32.262  30.520  1.00  0.00     0.029 A 
ATOM     45  N   UNL A   1      42.327  30.738  29.332  1.00  0.00    -0.354 N 
ATOM     46  N   UNL A   1      44.622  29.689  27.799  1.00  0.00    -0.248 NA
ATOM     47  C   UNL A   1      46.732  30.008  26.852  1.00  0.00     0.031 C 
ATOM     48  C   UNL A   1      42.481  32.780  30.185  1.00  0.00     0.029 A 
ATOM     49  C   UNL A   1      43.175  31.822  29.462  1.00  0.00     0.049 A 
ATOM     50  H   UNL A   1      42.545  29.905  28.854  1.00  0.00     0.167 HD
ATOM     51  C   UNL A   1      45.106  30.937  28.178  1.00  0.00     0.074 A 
ATOM     52  C   UNL A   1      46.429  31.060  27.601  1.00  0.00     0.031 C 
ATOM     53  C   UNL A   1      44.510  31.897  28.929  1.00  0.00     0.034 A 
BRANCH  40  54
ATOM     54  C   UNL A   1      38.751  30.523  30.715  1.00  0.00     0.023 A 
ATOM     55  C   UNL A   1      38.597  30.310  32.100  1.00  0.00     0.012 A 
ATOM     56  C   UNL A   1      37.730  31.178  29.999  1.00  0.00     0.148 A 
ATOM     57  C   UNL A   1      37.434  30.711  32.756  1.00  0.00     0.002 A 
ATOM     58  C   UNL A   1      36.593  31.616  30.668  1.00  0.00     0.091 A 
ATOM     59  F   UNL A   1      37.881  31.346  28.678  1.00  0.00    -0.205 F 
ATOM     60  C   UNL A   1      36.438  31.374  32.043  1.00  0.00     0.022 A 
BRANCH  58  61
ATOM     61  S   UNL A   1      35.292  32.549  29.854  1.00  0.00     0.127 S 
ATOM     62  O   UNL A   1      36.022  33.725  29.384  1.00  0.00    -0.237 OA
ATOM     63  O   UNL A   1      34.871  31.631  28.796  1.00  0.00    -0.237 OA
ATOM     64  O   UNL A   1      34.283  32.805  30.872  1.00  0.00    -0.744 OA
ENDBRANCH  58  61
ENDBRANCH  40  54
BRANCH  41  65
ATOM     65  C   UNL A   1      46.810  27.310  25.691  1.00  0.00     0.023 A 
ATOM     66  C   UNL A   1      47.733  26.438  26.299  1.00  0.00     0.012 A 
ATOM     67  C   UNL A   1      47.027  27.721  24.361  1.00  0.00     0.148 A 
ATOM     68  C   UNL A   1      48.867  26.008  25.608  1.00  0.00     0.002 A 
ATOM     69  C   UNL A   1      48.130  27.246  23.660  1.00  0.00     0.091 A 
ATOM     70  F   UNL A   1      46.144  28.563  23.805  1.00  0.00    -0.205 F 
ATOM     71  C   UNL A   1      49.060  26.403  24.288  1.00  0.00     0.022 A 
BRANCH  69  72
ATOM     72  S   UNL A   1      48.391  27.603  21.920  1.00  0.00     0.127 S 
ATOM     73  O   UNL A   1      49.548  28.493  21.968  1.00  0.00    -0.237 OA
ATOM     74  O   UNL A   1      48.660  26.271  21.376  1.00  0.00    -0.237 OA
ATOM     75  O   UNL A   1      47.150  28.203  21.451  1.00  0.00    -0.744 OA
ENDBRANCH  69  72
ENDBRANCH  41  65
BRANCH  53  76
ATOM     76  C   UNL A   1      45.304  33.143  29.223  1.00  0.00     0.023 A 
ATOM     77  C   UNL A   1      46.143  33.198  30.353  1.00  0.00     0.012 A 
ATOM     78  C   UNL A   1      45.266  34.237  28.336  1.00  0.00     0.148 A 
ATOM     79  C   UNL A   1      46.897  34.340  30.619  1.00  0.00     0.002 A 
ATOM     80  C   UNL A   1      46.061  35.350  28.579  1.00  0.00     0.091 A 
ATOM     81  F   UNL A   1      44.447  34.175  27.275  1.00  0.00    -0.205 F 
ATOM     82  C   UNL A   1      46.866  35.410  29.727  1.00  0.00     0.022 A 
BRANCH  80  83
ATOM     83  S   UNL A   1      46.158  36.724  27.427  1.00  0.00     0.127 S 
ATOM     84  O   UNL A   1      46.596  36.057  26.202  1.00  0.00    -0.237 OA
ATOM     85  O   UNL A   1      44.776  37.207  27.398  1.00  0.00    -0.237 OA
ATOM     86  O   UNL A   1      47.110  37.663  28.008  1.00  0.00    -0.744 OA
ENDBRANCH  80  83
ENDBRANCH  53  76
ENDBRANCH  27  28
ENDBRANCH  20  22
ENDBRANCH  19  20
ENDBRANCH  18  19
ENDBRANCH   1  18
TORSDOF 19
ENDMDL
MODEL 2
REMARK VINA RESULT:     -10.5      5.235      8.093
REMARK SMILES O=C(C[N@H+]1CCC[C@H](CBr)C1)OCCOCCOC(=O)c1ccc(-c2c3nc(c(-c4cccc(S(=O)(=O)[O-])c4F)c4ccc([nH]4)c(-c4cccc(S(=O)(=O)[O-])c4F)c4nc(c(-c5cccc(S(=O)(=O)[O-])c5F)c5ccc2[nH]5)C=C4)C=C3)cc1
REMARK SMILES IDX 16 1 15 2 14 3 13 4 12 5 2 6 1 7 3 8 4 9 5 10 11 11 6 13
REMARK SMILES IDX 8 14 7 15 9 16 10 17 17 18 18 19 19 20 20 21 21 22 22 23
REMARK SMILES IDX 83 24 23 25 82 26 24 27 25 28 26 29 76 30 27 31 81 32 75 33
REMARK SMILES IDX 77 34 28 35 80 36 74 37 73 38 29 40 61 41 41 42 60 43 42 44
REMARK SMILES IDX 45 45 59 46 78 47 43 48 44 49 58 51 79 52 46 53 30 54 31 55
REMARK SMILES IDX 39 56 32 57 34 58 40 59 33 60 35 61 36 62 37 63 38 64 62 65
REMARK SMILES IDX 63 66 71 67 64 68 66 69 72 70 65 71 67 72 68 73 69 74 70 75
REMARK SMILES IDX 47 76 48 77 56 78 49 79 51 80 57 81 50 82 52 83 53 84 54 85
REMARK SMILES IDX 55 86
REMARK H PARENT 4 12 77 39 45 50
REMARK Flexibility Score: inf
ROOT
ATOM      1  C   UNL A   1      31.339  30.567  25.699  1.00  0.00     0.202 C 
ENDROOT
BRANCH   1   2
ATOM      2  O   UNL A   1      32.237  29.463  25.844  1.00  0.00    -0.374 OA
BRANCH   2   3
ATOM      3  C   UNL A   1      31.902  28.238  25.206  1.00  0.00     0.202 C 
BRANCH   3   4
ATOM      4  C   UNL A   1      32.229  26.930  25.924  1.00  0.00     0.261 C 
BRANCH   4   5
ATOM      5  O   UNL A   1      31.226  25.910  25.835  1.00  0.00    -0.459 OA
BRANCH   5   6
ATOM      6  C   UNL A   1      31.445  24.596  26.072  1.00  0.00     0.361 C 
ATOM      7  O   UNL A   1      31.421  24.174  27.230  1.00  0.00    -0.245 OA
BRANCH   6   8
ATOM      8  C   UNL A   1      31.837  23.663  24.931  1.00  0.00     0.386 C 
BRANCH   8   9
ATOM      9  N   UNL A   1      32.810  22.604  25.278  1.00  0.00    -0.325 N 
ATOM     10  C   UNL A   1      32.090  21.336  25.469  1.00  0.00     0.262 C 
ATOM     11  C   UNL A   1      33.881  22.487  24.278  1.00  0.00     0.267 C 
ATOM     12  H   UNL A   1      33.275  22.856  26.150  1.00  0.00     0.348 HD
ATOM     13  C   UNL A   1      33.023  20.179  25.826  1.00  0.00     0.062 C 
ATOM     14  C   UNL A   1      34.915  21.423  24.693  1.00  0.00     0.055 C 
ATOM     15  C   UNL A   1      34.187  20.079  24.845  1.00  0.00     0.016 C 
BRANCH  14  16
ATOM     16  C   UNL A   1      35.665  21.863  25.958  1.00  0.00     0.090 C 
ATOM     17  Br  UNL A   1      36.564  23.573  25.692  1.00  0.00    -0.092 Br
ENDBRANCH  14  16
ENDBRANCH   8   9
ENDBRANCH   6   8
ENDBRANCH   5   6
ENDBRANCH   4   5
ENDBRANCH   3   4
ENDBRANCH   2   3
ENDBRANCH   1   2
BRANCH   1  18
ATOM     18  C   UNL A   1      31.575  31.810  26.561  1.00  0.00     0.261 C 
BRANCH  18  19
ATOM     19  O   UNL A   1      32.554  31.572  27.584  1.00  0.00    -0.460 OA
BRANCH  19  20
ATOM     20  C   UNL A   1      33.412  32.593  27.790  1.00  0.00     0.338 C 
ATOM     21  O   UNL A   1      33.122  33.761  28.040  1.00  0.00    -0.246 OA
BRANCH  20  22
ATOM     22  C   UNL A   1      34.791  32.089  27.888  1.00  0.00     0.060 A 
ATOM     23  C   UNL A   1      34.961  30.699  27.965  1.00  0.00     0.016 A 
ATOM     24  C   UNL A   1      35.880  32.953  28.014  1.00  0.00     0.016 A 
ATOM     25  C   UNL A   1      36.204  30.172  28.288  1.00  0.00     0.010 A 
ATOM     26  C   UNL A   1      37.129  32.422  28.343  1.00  0.00     0.010 A 
ATOM     27  C   UNL A   1      37.270  31.039  28.554  1.00  0.00    -0.014 A 
BRANCH  27  28
ATOM     28  C   UNL A   1      38.428  30.511  29.309  1.00  0.00     0.031 A 
ATOM     29  C   UNL A   1      38.591  30.936  30.745  1.00  0.00     0.074 A 
ATOM     30  C   UNL A   1      39.274  29.630  28.750  1.00  0.00     0.049 A 
ATOM     31  N   UNL A   1      39.490  30.574  31.620  1.00  0.00    -0.248 NA
ATOM     32  C   UNL A   1      37.605  31.901  31.265  1.00  0.00     0.031 C 
ATOM     33  C   UNL A   1      39.199  29.143  27.374  1.00  0.00     0.029 A 
ATOM     34  N   UNL A   1      40.371  28.999  29.275  1.00  0.00    -0.354 N 
ATOM     35  C   UNL A   1      39.201  31.290  32.776  1.00  0.00     0.074 A 
ATOM     36  C   UNL A   1      38.054  32.119  32.491  1.00  0.00     0.031 C 
ATOM     37  C   UNL A   1      40.221  28.296  27.157  1.00  0.00     0.029 A 
ATOM     38  C   UNL A   1      41.026  28.197  28.372  1.00  0.00     0.049 A 
ATOM     39  H   UNL A   1      40.661  29.109  30.209  1.00  0.00     0.167 HD
ATOM     40  C   UNL A   1      39.827  31.249  33.976  1.00  0.00     0.034 A 
ATOM     41  C   UNL A   1      42.153  27.472  28.518  1.00  0.00     0.034 A 
ATOM     42  C   UNL A   1      40.950  30.399  34.259  1.00  0.00     0.049 A 
ATOM     43  C   UNL A   1      42.827  27.440  29.865  1.00  0.00     0.074 A 
ATOM     44  C   UNL A   1      41.633  30.242  35.451  1.00  0.00     0.029 A 
ATOM     45  N   UNL A   1      41.560  29.567  33.332  1.00  0.00    -0.354 N 
ATOM     46  N   UNL A   1      42.477  28.037  30.981  1.00  0.00    -0.248 NA
ATOM     47  C   UNL A   1      44.026  26.601  29.985  1.00  0.00     0.031 C 
ATOM     48  C   UNL A   1      42.675  29.332  35.236  1.00  0.00     0.029 A 
ATOM     49  C   UNL A   1      42.616  28.897  33.922  1.00  0.00     0.049 A 
ATOM     50  H   UNL A   1      41.281  29.467  32.393  1.00  0.00     0.167 HD
ATOM     51  C   UNL A   1      43.382  27.606  31.945  1.00  0.00     0.074 A 
ATOM     52  C   UNL A   1      44.288  26.689  31.282  1.00  0.00     0.031 C 
ATOM     53  C   UNL A   1      43.465  27.943  33.256  1.00  0.00     0.034 A 
BRANCH  40  54
ATOM     54  C   UNL A   1      39.300  32.138  35.072  1.00  0.00     0.023 A 
ATOM     55  C   UNL A   1      38.282  31.672  35.930  1.00  0.00     0.012 A 
ATOM     56  C   UNL A   1      39.839  33.423  35.275  1.00  0.00     0.148 A 
ATOM     57  C   UNL A   1      37.786  32.482  36.950  1.00  0.00     0.002 A 
ATOM     58  C   UNL A   1      39.371  34.208  36.323  1.00  0.00     0.091 A 
ATOM     59  F   UNL A   1      40.785  33.861  34.433  1.00  0.00    -0.205 F 
ATOM     60  C   UNL A   1      38.338  33.745  37.153  1.00  0.00     0.022 A 
BRANCH  58  61
ATOM     61  S   UNL A   1      40.072  35.815  36.715  1.00  0.00     0.127 S 
ATOM     62  O   UNL A   1      39.407  36.126  37.979  1.00  0.00    -0.237 OA
ATOM     63  O   UNL A   1      41.497  35.508  36.836  1.00  0.00    -0.237 OA
ATOM     64  O   UNL A   1      39.732  36.685  35.599  1.00  0.00    -0.744 OA
ENDBRANCH  58  61
ENDBRANCH  40  54
BRANCH  41  65
ATOM     65  C   UNL A   1      42.677  26.673  27.376  1.00  0.00     0.023 A 
ATOM     66  C   UNL A   1      43.542  27.276  26.443  1.00  0.00     0.012 A 
ATOM     67  C   UNL A   1      42.336  25.315  27.219  1.00  0.00     0.148 A 
ATOM     68  C   UNL A   1      44.033  26.551  25.356  1.00  0.00     0.002 A 
ATOM     69  C   UNL A   1      42.873  24.584  26.165  1.00  0.00     0.091 A 
ATOM     70  F   UNL A   1      41.500  24.763  28.110  1.00  0.00    -0.205 F 
ATOM     71  C   UNL A   1      43.707  25.205  25.222  1.00  0.00     0.022 A 
BRANCH  69  72
ATOM     72  S   UNL A   1      42.607  22.817  25.987  1.00  0.00     0.127 S 
ATOM     73  O   UNL A   1      41.150  22.738  25.930  1.00  0.00    -0.237 OA
ATOM     74  O   UNL A   1      43.289  22.536  24.723  1.00  0.00    -0.237 OA
ATOM     75  O   UNL A   1      43.229  22.206  27.153  1.00  0.00    -0.744 OA
ENDBRANCH  69  72
ENDBRANCH  41  65
BRANCH  53  76
ATOM     76  C   UNL A   1      44.532  27.272  34.081  1.00  0.00     0.023 A 
ATOM     77  C   UNL A   1      45.791  27.885  34.243  1.00  0.00     0.012 A 
ATOM     78  C   UNL A   1      44.260  26.064  34.752  1.00  0.00     0.148 A 
ATOM     79  C   UNL A   1      46.775  27.281  35.023  1.00  0.00     0.002 A 
ATOM     80  C   UNL A   1      45.227  25.496  35.571  1.00  0.00     0.091 A 
ATOM     81  F   UNL A   1      43.063  25.486  34.571  1.00  0.00    -0.205 F 
ATOM     82  C   UNL A   1      46.491  26.095  35.696  1.00  0.00     0.022 A 
BRANCH  80  83
ATOM     83  S   UNL A   1      44.905  24.027  36.553  1.00  0.00     0.127 S 
ATOM     84  O   UNL A   1      46.182  23.839  37.238  1.00  0.00    -0.237 OA
ATOM     85  O   UNL A   1      43.807  24.464  37.417  1.00  0.00    -0.237 OA
ATOM     86  O   UNL A   1      44.541  22.985  35.601  1.00  0.00    -0.744 OA
ENDBRANCH  80  83
ENDBRANCH  53  76
ENDBRANCH  27  28
ENDBRANCH  20  22
ENDBRANCH  19  20
ENDBRANCH  18  19
ENDBRANCH   1  18
TORSDOF 19
ENDMDL
MODEL 3
REMARK VINA RESULT:     -10.4      5.513     10.532
REMARK SMILES O=C(C[N@H+]1CCC[C@H](CBr)C1)OCCOCCOC(=O)c1ccc(-c2c3nc(c(-c4cccc(S(=O)(=O)[O-])c4F)c4ccc([nH]4)c(-c4cccc(S(=O)(=O)[O-])c4F)c4nc(c(-c5cccc(S(=O)(=O)[O-])c5F)c5ccc2[nH]5)C=C4)C=C3)cc1
REMARK SMILES IDX 16 1 15 2 14 3 13 4 12 5 2 6 1 7 3 8 4 9 5 10 11 11 6 13
REMARK SMILES IDX 8 14 7 15 9 16 10 17 17 18 18 19 19 20 20 21 21 22 22 23
REMARK SMILES IDX 83 24 23 25 82 26 24 27 25 28 26 29 76 30 27 31 81 32 75 33
REMARK SMILES IDX 77 34 28 35 80 36 74 37 73 38 29 40 61 41 41 42 60 43 42 44
REMARK SMILES IDX 45 45 59 46 78 47 43 48 44 49 58 51 79 52 46 53 30 54 31 55
REMARK SMILES IDX 39 56 32 57 34 58 40 59 33 60 35 61 36 62 37 63 38 64 62 65
REMARK SMILES IDX 63 66 71 67 64 68 66 69 72 70 65 71 67 72 68 73 69 74 70 75
REMARK SMILES IDX 47 76 48 77 56 78 49 79 51 80 57 81 50 82 52 83 53 84 54 85
REMARK SMILES IDX 55 86
REMARK H PARENT 4 12 77 39 45 50
REMARK Flexibility Score: inf
ROOT
ATOM      1  C   UNL A   1      31.582  30.443  26.227  1.00  0.00     0.202 C 
ENDROOT
BRANCH   1   2
ATOM      2  O   UNL A   1      31.935  29.505  27.248  1.00  0.00    -0.374 OA
BRANCH   2   3
ATOM      3  C   UNL A   1      31.626  28.134  27.033  1.00  0.00     0.202 C 
BRANCH   3   4
ATOM      4  C   UNL A   1      31.763  27.570  25.621  1.00  0.00     0.261 C 
BRANCH   4   5
ATOM      5  O   UNL A   1      30.643  26.809  25.150  1.00  0.00    -0.459 OA
BRANCH   5   6
ATOM      6  C   UNL A   1      30.468  26.416  23.867  1.00  0.00     0.361 C 
ATOM      7  O   UNL A   1      30.286  25.223  23.615  1.00  0.00    -0.245 OA
BRANCH   6   8
ATOM      8  C   UNL A   1      30.611  27.419  22.727  1.00  0.00     0.386 C 
BRANCH   8   9
ATOM      9  N   UNL A   1      29.467  28.337  22.538  1.00  0.00    -0.325 N 
ATOM     10  C   UNL A   1      28.309  27.820  23.284  1.00  0.00     0.262 C 
ATOM     11  C   UNL A   1      29.796  29.719  22.915  1.00  0.00     0.267 C 
ATOM     12  H   UNL A   1      29.233  28.372  21.546  1.00  0.00     0.348 HD
ATOM     13  C   UNL A   1      27.077  28.714  23.150  1.00  0.00     0.062 C 
ATOM     14  C   UNL A   1      28.611  30.666  22.649  1.00  0.00     0.055 C 
ATOM     15  C   UNL A   1      27.407  30.170  23.465  1.00  0.00     0.016 C 
BRANCH  14  16
ATOM     16  C   UNL A   1      28.331  30.772  21.144  1.00  0.00     0.090 C 
ATOM     17  Br  UNL A   1      27.896  32.603  20.630  1.00  0.00    -0.092 Br
ENDBRANCH  14  16
ENDBRANCH   8   9
ENDBRANCH   6   8
ENDBRANCH   5   6
ENDBRANCH   4   5
ENDBRANCH   3   4
ENDBRANCH   2   3
ENDBRANCH   1   2
BRANCH   1  18
ATOM     18  C   UNL A   1      31.780  31.934  26.514  1.00  0.00     0.261 C 
BRANCH  18  19
ATOM     19  O   UNL A   1      32.453  32.151  27.764  1.00  0.00    -0.460 OA
BRANCH  19  20
ATOM     20  C   UNL A   1      33.440  33.071  27.719  1.00  0.00     0.338 C 
ATOM     21  O   UNL A   1      33.307  34.291  27.663  1.00  0.00    -0.246 OA
BRANCH  20  22
ATOM     22  C   UNL A   1      34.743  32.433  27.962  1.00  0.00     0.060 A 
ATOM     23  C   UNL A   1      34.741  31.059  28.243  1.00  0.00     0.016 A 
ATOM     24  C   UNL A   1      35.923  33.176  28.022  1.00  0.00     0.016 A 
ATOM     25  C   UNL A   1      35.899  30.446  28.703  1.00  0.00     0.010 A 
ATOM     26  C   UNL A   1      37.086  32.560  28.490  1.00  0.00     0.010 A 
ATOM     27  C   UNL A   1      37.051  31.216  28.902  1.00  0.00    -0.014 A 
BRANCH  27  28
ATOM     28  C   UNL A   1      38.108  30.676  29.784  1.00  0.00     0.031 A 
ATOM     29  C   UNL A   1      39.071  29.673  29.203  1.00  0.00     0.074 A 
ATOM     30  C   UNL A   1      38.245  31.111  31.047  1.00  0.00     0.049 A 
ATOM     31  N   UNL A   1      40.102  29.095  29.758  1.00  0.00    -0.248 NA
ATOM     32  C   UNL A   1      38.838  29.265  27.806  1.00  0.00     0.031 C 
ATOM     33  C   UNL A   1      37.378  32.089  31.703  1.00  0.00     0.029 A 
ATOM     34  N   UNL A   1      39.164  30.775  32.006  1.00  0.00    -0.354 N 
ATOM     35  C   UNL A   1      40.617  28.235  28.795  1.00  0.00     0.074 A 
ATOM     36  C   UNL A   1      39.779  28.352  27.625  1.00  0.00     0.031 C 
ATOM     37  C   UNL A   1      37.798  32.263  32.968  1.00  0.00     0.029 A 
ATOM     38  C   UNL A   1      38.951  31.399  33.212  1.00  0.00     0.049 A 
ATOM     39  H   UNL A   1      39.905  30.148  31.847  1.00  0.00     0.167 HD
ATOM     40  C   UNL A   1      41.702  27.430  28.873  1.00  0.00     0.034 A 
ATOM     41  C   UNL A   1      39.614  31.275  34.378  1.00  0.00     0.034 A 
ATOM     42  C   UNL A   1      42.547  27.342  30.031  1.00  0.00     0.049 A 
ATOM     43  C   UNL A   1      40.821  30.376  34.436  1.00  0.00     0.074 A 
ATOM     44  C   UNL A   1      43.698  26.596  30.204  1.00  0.00     0.029 A 
ATOM     45  N   UNL A   1      42.326  28.022  31.219  1.00  0.00    -0.354 N 
ATOM     46  N   UNL A   1      41.362  29.652  33.483  1.00  0.00    -0.248 NA
ATOM     47  C   UNL A   1      41.536  30.309  35.718  1.00  0.00     0.031 C 
ATOM     48  C   UNL A   1      44.158  26.805  31.509  1.00  0.00     0.029 A 
ATOM     49  C   UNL A   1      43.314  27.709  32.134  1.00  0.00     0.049 A 
ATOM     50  H   UNL A   1      41.576  28.638  31.386  1.00  0.00     0.167 HD
ATOM     51  C   UNL A   1      42.505  29.085  34.036  1.00  0.00     0.074 A 
ATOM     52  C   UNL A   1      42.585  29.560  35.402  1.00  0.00     0.031 C 
ATOM     53  C   UNL A   1      43.405  28.242  33.469  1.00  0.00     0.034 A 
BRANCH  40  54
ATOM     54  C   UNL A   1      42.042  26.593  27.666  1.00  0.00     0.023 A 
ATOM     55  C   UNL A   1      42.737  27.168  26.583  1.00  0.00     0.012 A 
ATOM     56  C   UNL A   1      41.703  25.227  27.623  1.00  0.00     0.148 A 
ATOM     57  C   UNL A   1      43.060  26.405  25.461  1.00  0.00     0.002 A 
ATOM     58  C   UNL A   1      42.068  24.462  26.520  1.00  0.00     0.091 A 
ATOM     59  F   UNL A   1      41.016  24.704  28.649  1.00  0.00    -0.205 F 
ATOM     60  C   UNL A   1      42.735  25.051  25.435  1.00  0.00     0.022 A 
BRANCH  58  61
ATOM     61  S   UNL A   1      41.766  22.694  26.428  1.00  0.00     0.127 S 
ATOM     62  O   UNL A   1      40.305  22.646  26.394  1.00  0.00    -0.237 OA
ATOM     63  O   UNL A   1      42.416  22.335  25.168  1.00  0.00    -0.237 OA
ATOM     64  O   UNL A   1      42.383  22.118  27.614  1.00  0.00    -0.744 OA
ENDBRANCH  58  61
ENDBRANCH  40  54
BRANCH  41  65
ATOM     65  C   UNL A   1      39.186  32.066  35.566  1.00  0.00     0.023 A 
ATOM     66  C   UNL A   1      38.290  31.502  36.493  1.00  0.00     0.012 A 
ATOM     67  C   UNL A   1      39.676  33.368  35.789  1.00  0.00     0.148 A 
ATOM     68  C   UNL A   1      37.863  32.230  37.604  1.00  0.00     0.002 A 
ATOM     69  C   UNL A   1      39.290  34.068  36.927  1.00  0.00     0.091 A 
ATOM     70  F   UNL A   1      40.518  33.893  34.887  1.00  0.00    -0.205 F 
ATOM     71  C   UNL A   1      38.370  33.507  37.827  1.00  0.00     0.022 A 
BRANCH  69  72
ATOM     72  S   UNL A   1      39.987  35.665  37.356  1.00  0.00     0.127 S 
ATOM     73  O   UNL A   1      39.617  36.474  36.198  1.00  0.00    -0.237 OA
ATOM     74  O   UNL A   1      39.266  35.988  38.588  1.00  0.00    -0.237 OA
ATOM     75  O   UNL A   1      41.414  35.436  37.539  1.00  0.00    -0.744 OA
ENDBRANCH  69  72
ENDBRANCH  41  65
BRANCH  53  76
ATOM     76  C   UNL A   1      44.588  27.824  34.302  1.00  0.00     0.023 A 
ATOM     77  C   UNL A   1      45.756  28.612  34.318  1.00  0.00     0.012 A 
ATOM     78  C   UNL A   1      44.513  26.682  35.123  1.00  0.00     0.148 A 
ATOM     79  C   UNL A   1      46.847  28.243  35.104  1.00  0.00     0.002 A 
ATOM     80  C   UNL A   1      45.583  26.351  35.944  1.00  0.00     0.091 A 
ATOM     81  F   UNL A   1      43.400  25.933  35.081  1.00  0.00    -0.205 F 
ATOM     82  C   UNL A   1      46.757  27.121  35.925  1.00  0.00     0.022 A 
BRANCH  80  83
ATOM     83  S   UNL A   1      45.508  24.984  37.106  1.00  0.00     0.127 S 
ATOM     84  O   UNL A   1      46.850  25.008  37.684  1.00  0.00    -0.237 OA
ATOM     85  O   UNL A   1      44.444  25.407  38.019  1.00  0.00    -0.237 OA
ATOM     86  O   UNL A   1      45.184  23.805  36.313  1.00  0.00    -0.744 OA
ENDBRANCH  80  83
ENDBRANCH  53  76
ENDBRANCH  27  28
ENDBRANCH  20  22
ENDBRANCH  19  20
ENDBRANCH  18  19
ENDBRANCH   1  18
TORSDOF 19
ENDMDL
