MODEL 1
REMARK VINA RESULT:     -11.5      0.000      0.000
REMARK SMILES N#Cc1ccc(C(=O)N2CCC(Oc3ccccc3)(C(=O)OCCOCCOC(=O)c3ccc(-c4c5nc(c(-c6cccc(S(=O)(=O)[O-])c6F)c6ccc([nH]6)c(-c6cccc(S(=O)(=O)[O-])c6F)c6nc(c(-c7cccc(S(=O)(=O)[O-])c7F)c7ccc4[nH]7)C=C6)C=C5)cc3)CC2)cc1
REMARK SMILES IDX 26 1 25 2 24 3 23 4 22 5 20 6 21 7 12 8 7 9 8 10 9 11 10 12
REMARK SMILES IDX 95 13 11 14 94 15 6 16 3 17 4 18 97 19 5 20 96 21 2 22 1 23
REMARK SMILES IDX 13 24 14 25 15 26 19 27 16 28 18 29 17 30 27 31 28 32 29 33
REMARK SMILES IDX 30 34 31 35 32 36 93 37 33 38 92 39 34 40 35 41 36 42 86 43
REMARK SMILES IDX 37 44 91 45 85 46 87 47 38 48 90 49 84 50 83 51 39 53 71 54
REMARK SMILES IDX 51 55 70 56 52 57 55 58 69 59 88 60 53 61 54 62 68 64 89 65
REMARK SMILES IDX 56 66 40 67 41 68 49 69 42 70 44 71 50 72 43 73 45 74 46 75
REMARK SMILES IDX 47 76 48 77 72 78 73 79 81 80 74 81 76 82 82 83 75 84 77 85
REMARK SMILES IDX 78 86 79 87 80 88 57 89 58 90 66 91 59 92 61 93 67 94 60 95
REMARK SMILES IDX 62 96 63 97 64 98 65 99
REMARK H PARENT 87 52 55 63
REMARK Flexibility Score: inf
ROOT
ATOM      1  C   UNL A   1      39.185  21.762  25.939  1.00  0.00     0.202 C 
ENDROOT
BRANCH   1   2
ATOM      2  O   UNL A   1      37.962  21.658  25.235  1.00  0.00    -0.374 OA
BRANCH   2   3
ATOM      3  C   UNL A   1      37.003  22.700  25.366  1.00  0.00     0.202 C 
BRANCH   3   4
ATOM      4  C   UNL A   1      35.663  22.451  26.071  1.00  0.00     0.261 C 
BRANCH   4   5
ATOM      5  O   UNL A   1      34.883  21.369  25.526  1.00  0.00    -0.460 OA
BRANCH   5   6
ATOM      6  C   UNL A   1      33.677  21.145  26.122  1.00  0.00     0.350 C 
ATOM      7  O   UNL A   1      33.559  20.870  27.315  1.00  0.00    -0.247 OA
BRANCH   6   8
ATOM      8  C   UNL A   1      32.466  21.249  25.161  1.00  0.00     0.209 C 
ATOM      9  C   UNL A   1      31.571  25.222  23.627  1.00  0.00     0.253 C 
ATOM     10  O   UNL A   1      30.912  25.245  22.588  1.00  0.00    -0.269 OA
ATOM     11  N   UNL A   1      32.058  24.028  24.170  1.00  0.00    -0.338 N 
ATOM     12  C   UNL A   1      32.431  23.006  23.210  1.00  0.00     0.124 C 
ATOM     13  C   UNL A   1      31.947  23.695  25.583  1.00  0.00     0.124 C 
ATOM     14  C   UNL A   1      32.835  21.624  23.716  1.00  0.00     0.082 C 
ATOM     15  C   UNL A   1      31.473  22.256  25.786  1.00  0.00     0.082 C 
BRANCH   9  16
ATOM     16  C   UNL A   1      32.006  26.531  24.198  1.00  0.00     0.040 A 
ATOM     17  C   UNL A   1      32.930  28.753  25.663  1.00  0.00     0.052 A 
ATOM     18  C   UNL A   1      33.843  27.870  25.078  1.00  0.00     0.020 A 
ATOM     19  C   UNL A   1      31.559  28.530  25.506  1.00  0.00     0.020 A 
ATOM     20  C   UNL A   1      33.383  26.766  24.350  1.00  0.00     0.015 A 
ATOM     21  C   UNL A   1      31.100  27.421  24.783  1.00  0.00     0.015 A 
BRANCH  17  22
ATOM     22  C   UNL A   1      33.396  29.859  26.444  1.00  0.00     0.099 C 
ATOM     23  N   UNL A   1      33.777  30.755  27.082  1.00  0.00    -0.192 NA
ENDBRANCH  17  22
ENDBRANCH   9  16
BRANCH   8  24
ATOM     24  O   UNL A   1      32.071  19.846  25.255  1.00  0.00    -0.475 OA
BRANCH  24  25
ATOM     25  C   UNL A   1      32.690  18.963  24.422  1.00  0.00     0.121 A 
ATOM     26  C   UNL A   1      32.131  18.732  23.167  1.00  0.00     0.046 A 
ATOM     27  C   UNL A   1      33.766  18.194  24.855  1.00  0.00     0.046 A 
ATOM     28  C   UNL A   1      32.717  17.799  22.310  1.00  0.00     0.004 A 
ATOM     29  C   UNL A   1      34.373  17.288  23.989  1.00  0.00     0.004 A 
ATOM     30  C   UNL A   1      33.854  17.097  22.712  1.00  0.00     0.000 A 
ENDBRANCH  24  25
ENDBRANCH   8  24
ENDBRANCH   6   8
ENDBRANCH   5   6
ENDBRANCH   4   5
ENDBRANCH   3   4
ENDBRANCH   2   3
ENDBRANCH   1   2
BRANCH   1  31
ATOM     31  C   UNL A   1      39.939  20.502  26.394  1.00  0.00     0.261 C 
BRANCH  31  32
ATOM     32  O   UNL A   1      40.774  19.877  25.420  1.00  0.00    -0.460 OA
BRANCH  32  33
ATOM     33  C   UNL A   1      42.021  19.608  25.879  1.00  0.00     0.338 C 
ATOM     34  O   UNL A   1      42.574  18.521  25.901  1.00  0.00    -0.246 OA
BRANCH  33  35
ATOM     35  C   UNL A   1      42.726  20.857  26.204  1.00  0.00     0.060 A 
ATOM     36  C   UNL A   1      42.863  21.165  27.561  1.00  0.00     0.016 A 
ATOM     37  C   UNL A   1      43.140  21.754  25.218  1.00  0.00     0.016 A 
ATOM     38  C   UNL A   1      43.371  22.399  27.940  1.00  0.00     0.010 A 
ATOM     39  C   UNL A   1      43.648  23.000  25.604  1.00  0.00     0.010 A 
ATOM     40  C   UNL A   1      43.727  23.342  26.966  1.00  0.00    -0.014 A 
BRANCH  40  41
ATOM     41  C   UNL A   1      44.070  24.710  27.420  1.00  0.00     0.031 A 
ATOM     42  C   UNL A   1      45.491  25.196  27.327  1.00  0.00     0.074 A 
ATOM     43  C   UNL A   1      43.091  25.545  27.809  1.00  0.00     0.049 A 
ATOM     44  N   UNL A   1      45.968  26.394  27.537  1.00  0.00    -0.248 NA
ATOM     45  C   UNL A   1      46.506  24.203  26.943  1.00  0.00     0.031 C 
ATOM     46  C   UNL A   1      41.679  25.187  27.927  1.00  0.00     0.029 A 
ATOM     47  N   UNL A   1      43.134  26.869  28.160  1.00  0.00    -0.354 N 
ATOM     48  C   UNL A   1      47.340  26.300  27.334  1.00  0.00     0.074 A 
ATOM     49  C   UNL A   1      47.620  24.918  27.008  1.00  0.00     0.031 C 
ATOM     50  C   UNL A   1      40.984  26.270  28.309  1.00  0.00     0.029 A 
ATOM     51  C   UNL A   1      41.906  27.387  28.493  1.00  0.00     0.049 A 
ATOM     52  H   UNL A   1      43.965  27.398  28.174  1.00  0.00     0.167 HD
ATOM     53  C   UNL A   1      48.279  27.275  27.399  1.00  0.00     0.034 A 
ATOM     54  C   UNL A   1      41.565  28.622  28.908  1.00  0.00     0.034 A 
ATOM     55  C   UNL A   1      47.990  28.647  27.731  1.00  0.00     0.049 A 
ATOM     56  C   UNL A   1      42.630  29.678  29.004  1.00  0.00     0.074 A 
ATOM     57  C   UNL A   1      48.861  29.720  27.795  1.00  0.00     0.029 A 
ATOM     58  N   UNL A   1      46.738  29.131  28.084  1.00  0.00    -0.354 N 
ATOM     59  N   UNL A   1      43.907  29.596  28.715  1.00  0.00    -0.248 NA
ATOM     60  C   UNL A   1      42.197  31.008  29.448  1.00  0.00     0.031 C 
ATOM     61  C   UNL A   1      48.146  30.838  28.240  1.00  0.00     0.029 A 
ATOM     62  C   UNL A   1      46.816  30.481  28.387  1.00  0.00     0.049 A 
ATOM     63  H   UNL A   1      45.914  28.594  28.113  1.00  0.00     0.167 HD
ATOM     64  C   UNL A   1      44.423  30.872  28.907  1.00  0.00     0.074 A 
ATOM     65  C   UNL A   1      43.310  31.711  29.308  1.00  0.00     0.031 C 
ATOM     66  C   UNL A   1      45.700  31.310  28.770  1.00  0.00     0.034 A 
BRANCH  53  67
ATOM     67  C   UNL A   1      49.710  26.884  27.115  1.00  0.00     0.023 A 
ATOM     68  C   UNL A   1      50.492  26.275  28.119  1.00  0.00     0.012 A 
ATOM     69  C   UNL A   1      50.274  27.102  25.843  1.00  0.00     0.148 A 
ATOM     70  C   UNL A   1      51.825  25.939  27.877  1.00  0.00     0.002 A 
ATOM     71  C   UNL A   1      51.584  26.716  25.593  1.00  0.00     0.091 A 
ATOM     72  F   UNL A   1      49.524  27.698  24.904  1.00  0.00    -0.205 F 
ATOM     73  C   UNL A   1      52.368  26.151  26.614  1.00  0.00     0.022 A 
BRANCH  71  74
ATOM     74  S   UNL A   1      52.349  26.870  23.976  1.00  0.00     0.127 S 
ATOM     75  O   UNL A   1      51.181  26.873  23.096  1.00  0.00    -0.237 OA
ATOM     76  O   UNL A   1      53.033  28.159  24.083  1.00  0.00    -0.237 OA
ATOM     77  O   UNL A   1      53.233  25.722  23.836  1.00  0.00    -0.744 OA
ENDBRANCH  71  74
ENDBRANCH  53  67
BRANCH  54  78
ATOM     78  C   UNL A   1      40.144  28.929  29.229  1.00  0.00     0.023 A 
ATOM     79  C   UNL A   1      39.215  29.128  28.189  1.00  0.00     0.012 A 
ATOM     80  C   UNL A   1      39.707  29.001  30.565  1.00  0.00     0.148 A 
ATOM     81  C   UNL A   1      37.883  29.426  28.476  1.00  0.00     0.002 A 
ATOM     82  C   UNL A   1      38.368  29.238  30.844  1.00  0.00     0.091 A 
ATOM     83  F   UNL A   1      40.612  28.816  31.537  1.00  0.00    -0.205 F 
ATOM     84  C   UNL A   1      37.457  29.469  29.802  1.00  0.00     0.022 A 
BRANCH  82  85
ATOM     85  S   UNL A   1      37.709  29.186  32.512  1.00  0.00     0.127 S 
ATOM     86  O   UNL A   1      37.804  27.762  32.827  1.00  0.00    -0.237 OA
ATOM     87  O   UNL A   1      38.652  30.042  33.231  1.00  0.00    -0.237 OA
ATOM     88  O   UNL A   1      36.357  29.719  32.423  1.00  0.00    -0.744 OA
ENDBRANCH  82  85
ENDBRANCH  54  78
BRANCH  66  89
ATOM     89  C   UNL A   1      45.952  32.779  29.013  1.00  0.00     0.023 A 
ATOM     90  C   UNL A   1      46.439  33.223  30.260  1.00  0.00     0.012 A 
ATOM     91  C   UNL A   1      45.708  33.723  27.996  1.00  0.00     0.148 A 
ATOM     92  C   UNL A   1      46.608  34.585  30.513  1.00  0.00     0.002 A 
ATOM     93  C   UNL A   1      45.941  35.072  28.233  1.00  0.00     0.091 A 
ATOM     94  F   UNL A   1      45.234  33.288  26.819  1.00  0.00    -0.205 F 
ATOM     95  C   UNL A   1      46.367  35.507  29.498  1.00  0.00     0.022 A 
BRANCH  93  96
ATOM     96  S   UNL A   1      45.755  36.320  26.955  1.00  0.00     0.127 S 
ATOM     97  O   UNL A   1      46.630  35.801  25.904  1.00  0.00    -0.237 OA
ATOM     98  O   UNL A   1      44.325  36.240  26.653  1.00  0.00    -0.237 OA
ATOM     99  O   UNL A   1      46.177  37.578  27.557  1.00  0.00    -0.744 OA
ENDBRANCH  93  96
ENDBRANCH  66  89
ENDBRANCH  40  41
ENDBRANCH  33  35
ENDBRANCH  32  33
ENDBRANCH  31  32
ENDBRANCH   1  31
TORSDOF 21
ENDMDL
MODEL 2
REMARK VINA RESULT:     -11.4      2.330      5.309
REMARK SMILES N#Cc1ccc(C(=O)N2CCC(Oc3ccccc3)(C(=O)OCCOCCOC(=O)c3ccc(-c4c5nc(c(-c6cccc(S(=O)(=O)[O-])c6F)c6ccc([nH]6)c(-c6cccc(S(=O)(=O)[O-])c6F)c6nc(c(-c7cccc(S(=O)(=O)[O-])c7F)c7ccc4[nH]7)C=C6)C=C5)cc3)CC2)cc1
REMARK SMILES IDX 26 1 25 2 24 3 23 4 22 5 20 6 21 7 12 8 7 9 8 10 9 11 10 12
REMARK SMILES IDX 95 13 11 14 94 15 6 16 3 17 4 18 97 19 5 20 96 21 2 22 1 23
REMARK SMILES IDX 13 24 14 25 15 26 19 27 16 28 18 29 17 30 27 31 28 32 29 33
REMARK SMILES IDX 30 34 31 35 32 36 93 37 33 38 92 39 34 40 35 41 36 42 86 43
REMARK SMILES IDX 37 44 91 45 85 46 87 47 38 48 90 49 84 50 83 51 39 53 71 54
REMARK SMILES IDX 51 55 70 56 52 57 55 58 69 59 88 60 53 61 54 62 68 64 89 65
REMARK SMILES IDX 56 66 40 67 41 68 49 69 42 70 44 71 50 72 43 73 45 74 46 75
REMARK SMILES IDX 47 76 48 77 72 78 73 79 81 80 74 81 76 82 82 83 75 84 77 85
REMARK SMILES IDX 78 86 79 87 80 88 57 89 58 90 66 91 59 92 61 93 67 94 60 95
REMARK SMILES IDX 62 96 63 97 64 98 65 99
REMARK H PARENT 87 52 55 63
REMARK Flexibility Score: inf
ROOT
ATOM      1  C   UNL A   1      35.734  21.773  24.610  1.00  0.00     0.202 C 
ENDROOT
BRANCH   1   2
ATOM      2  O   UNL A   1      35.947  22.696  23.559  1.00  0.00    -0.374 OA
BRANCH   2   3
ATOM      3  C   UNL A   1      34.828  23.155  22.810  1.00  0.00     0.202 C 
BRANCH   3   4
ATOM      4  C   UNL A   1      34.530  24.654  22.680  1.00  0.00     0.261 C 
BRANCH   4   5
ATOM      5  O   UNL A   1      33.243  24.970  22.113  1.00  0.00    -0.460 OA
BRANCH   5   6
ATOM      6  C   UNL A   1      32.685  26.146  22.520  1.00  0.00     0.350 C 
ATOM      7  O   UNL A   1      32.737  27.179  21.855  1.00  0.00    -0.247 OA
BRANCH   6   8
ATOM      8  C   UNL A   1      31.995  26.072  23.906  1.00  0.00     0.209 C 
ATOM      9  C   UNL A   1      32.038  22.188  25.867  1.00  0.00     0.253 C 
ATOM     10  O   UNL A   1      31.875  22.217  27.087  1.00  0.00    -0.269 OA
ATOM     11  N   UNL A   1      32.188  23.356  25.112  1.00  0.00    -0.338 N 
ATOM     12  C   UNL A   1      32.873  24.450  25.774  1.00  0.00     0.124 C 
ATOM     13  C   UNL A   1      31.478  23.591  23.862  1.00  0.00     0.124 C 
ATOM     14  C   UNL A   1      32.955  25.805  25.078  1.00  0.00     0.082 C 
ATOM     15  C   UNL A   1      30.887  24.999  23.807  1.00  0.00     0.082 C 
BRANCH   9  16
ATOM     16  C   UNL A   1      32.263  20.856  25.232  1.00  0.00     0.040 A 
ATOM     17  C   UNL A   1      33.145  18.464  24.033  1.00  0.00     0.052 A 
ATOM     18  C   UNL A   1      33.282  18.649  25.412  1.00  0.00     0.020 A 
ATOM     19  C   UNL A   1      32.559  19.470  23.258  1.00  0.00     0.020 A 
ATOM     20  C   UNL A   1      32.844  19.839  26.007  1.00  0.00     0.015 A 
ATOM     21  C   UNL A   1      32.127  20.661  23.853  1.00  0.00     0.015 A 
BRANCH  17  22
ATOM     22  C   UNL A   1      33.631  17.267  23.415  1.00  0.00     0.099 C 
ATOM     23  N   UNL A   1      34.030  16.296  22.913  1.00  0.00    -0.192 NA
ENDBRANCH  17  22
ENDBRANCH   9  16
BRANCH   8  24
ATOM     24  O   UNL A   1      31.522  27.455  23.918  1.00  0.00    -0.475 OA
BRANCH  24  25
ATOM     25  C   UNL A   1      31.734  28.179  25.053  1.00  0.00     0.121 A 
ATOM     26  C   UNL A   1      32.497  29.341  24.965  1.00  0.00     0.046 A 
ATOM     27  C   UNL A   1      31.332  27.705  26.298  1.00  0.00     0.046 A 
ATOM     28  C   UNL A   1      32.769  30.079  26.119  1.00  0.00     0.004 A 
ATOM     29  C   UNL A   1      31.572  28.457  27.445  1.00  0.00     0.004 A 
ATOM     30  C   UNL A   1      32.283  29.650  27.354  1.00  0.00     0.000 A 
ENDBRANCH  24  25
ENDBRANCH   8  24
ENDBRANCH   6   8
ENDBRANCH   5   6
ENDBRANCH   4   5
ENDBRANCH   3   4
ENDBRANCH   2   3
ENDBRANCH   1   2
BRANCH   1  31
ATOM     31  C   UNL A   1      36.909  20.988  25.215  1.00  0.00     0.261 C 
BRANCH  31  32
ATOM     32  O   UNL A   1      38.217  21.474  24.916  1.00  0.00    -0.460 OA
BRANCH  32  33
ATOM     33  C   UNL A   1      39.136  21.150  25.858  1.00  0.00     0.338 C 
ATOM     34  O   UNL A   1      39.659  20.061  26.027  1.00  0.00    -0.246 OA
BRANCH  33  35
ATOM     35  C   UNL A   1      39.578  22.354  26.576  1.00  0.00     0.060 A 
ATOM     36  C   UNL A   1      39.129  23.582  26.079  1.00  0.00     0.016 A 
ATOM     37  C   UNL A   1      40.489  22.297  27.631  1.00  0.00     0.016 A 
ATOM     38  C   UNL A   1      39.631  24.764  26.603  1.00  0.00     0.010 A 
ATOM     39  C   UNL A   1      40.998  23.492  28.156  1.00  0.00     0.010 A 
ATOM     40  C   UNL A   1      40.601  24.728  27.615  1.00  0.00    -0.014 A 
BRANCH  40  41
ATOM     41  C   UNL A   1      41.250  26.004  27.997  1.00  0.00     0.031 A 
ATOM     42  C   UNL A   1      42.635  26.318  27.502  1.00  0.00     0.074 A 
ATOM     43  C   UNL A   1      40.553  26.921  28.692  1.00  0.00     0.049 A 
ATOM     44  N   UNL A   1      43.315  27.430  27.605  1.00  0.00    -0.248 NA
ATOM     45  C   UNL A   1      43.345  25.242  26.795  1.00  0.00     0.031 C 
ATOM     46  C   UNL A   1      39.200  26.729  29.213  1.00  0.00     0.029 A 
ATOM     47  N   UNL A   1      40.881  28.198  29.063  1.00  0.00    -0.354 N 
ATOM     48  C   UNL A   1      44.541  27.184  26.998  1.00  0.00     0.074 A 
ATOM     49  C   UNL A   1      44.518  25.807  26.551  1.00  0.00     0.031 C 
ATOM     50  C   UNL A   1      38.805  27.857  29.825  1.00  0.00     0.029 A 
ATOM     51  C   UNL A   1      39.888  28.835  29.766  1.00  0.00     0.049 A 
ATOM     52  H   UNL A   1      41.744  28.619  28.848  1.00  0.00     0.167 HD
ATOM     53  C   UNL A   1      45.585  28.029  26.816  1.00  0.00     0.034 A 
ATOM     54  C   UNL A   1      39.858  30.066  30.310  1.00  0.00     0.034 A 
ATOM     55  C   UNL A   1      45.600  29.396  27.271  1.00  0.00     0.049 A 
ATOM     56  C   UNL A   1      41.042  30.973  30.124  1.00  0.00     0.074 A 
ATOM     57  C   UNL A   1      46.593  30.346  27.111  1.00  0.00     0.029 A 
ATOM     58  N   UNL A   1      44.586  30.001  27.999  1.00  0.00    -0.354 N 
ATOM     59  N   UNL A   1      42.154  30.758  29.464  1.00  0.00    -0.248 NA
ATOM     60  C   UNL A   1      40.946  32.309  30.727  1.00  0.00     0.031 C 
ATOM     61  C   UNL A   1      46.202  31.506  27.791  1.00  0.00     0.029 A 
ATOM     62  C   UNL A   1      44.936  31.304  28.315  1.00  0.00     0.049 A 
ATOM     63  H   UNL A   1      43.739  29.568  28.252  1.00  0.00     0.167 HD
ATOM     64  C   UNL A   1      42.877  31.944  29.540  1.00  0.00     0.074 A 
ATOM     65  C   UNL A   1      42.058  32.879  30.287  1.00  0.00     0.031 C 
ATOM     66  C   UNL A   1      44.107  32.231  29.045  1.00  0.00     0.034 A 
BRANCH  53  67
ATOM     67  C   UNL A   1      46.802  27.489  26.103  1.00  0.00     0.023 A 
ATOM     68  C   UNL A   1      46.929  27.631  24.706  1.00  0.00     0.012 A 
ATOM     69  C   UNL A   1      47.834  26.858  26.826  1.00  0.00     0.148 A 
ATOM     70  C   UNL A   1      48.035  27.108  24.034  1.00  0.00     0.002 A 
ATOM     71  C   UNL A   1      48.958  26.388  26.157  1.00  0.00     0.091 A 
ATOM     72  F   UNL A   1      47.692  26.715  28.152  1.00  0.00    -0.205 F 
ATOM     73  C   UNL A   1      49.052  26.495  24.760  1.00  0.00     0.022 A 
BRANCH  71  74
ATOM     74  S   UNL A   1      50.359  25.657  27.011  1.00  0.00     0.127 S 
ATOM     75  O   UNL A   1      51.321  25.504  25.920  1.00  0.00    -0.237 OA
ATOM     76  O   UNL A   1      50.701  26.696  27.983  1.00  0.00    -0.237 OA
ATOM     77  O   UNL A   1      49.873  24.414  27.592  1.00  0.00    -0.744 OA
ENDBRANCH  71  74
ENDBRANCH  53  67
BRANCH  54  78
ATOM     78  C   UNL A   1      38.649  30.520  31.052  1.00  0.00     0.023 A 
ATOM     79  C   UNL A   1      38.545  30.285  32.437  1.00  0.00     0.012 A 
ATOM     80  C   UNL A   1      37.613  31.204  30.390  1.00  0.00     0.148 A 
ATOM     81  C   UNL A   1      37.414  30.697  33.142  1.00  0.00     0.002 A 
ATOM     82  C   UNL A   1      36.518  31.665  31.108  1.00  0.00     0.091 A 
ATOM     83  F   UNL A   1      37.732  31.408  29.070  1.00  0.00    -0.205 F 
ATOM     84  C   UNL A   1      36.406  31.396  32.481  1.00  0.00     0.022 A 
BRANCH  82  85
ATOM     85  S   UNL A   1      35.238  32.680  30.366  1.00  0.00     0.127 S 
ATOM     86  O   UNL A   1      34.794  31.838  29.258  1.00  0.00    -0.237 OA
ATOM     87  O   UNL A   1      34.283  32.807  31.467  1.00  0.00    -0.237 OA
ATOM     88  O   UNL A   1      35.888  33.926  29.985  1.00  0.00    -0.744 OA
ENDBRANCH  82  85
ENDBRANCH  54  78
BRANCH  66  89
ATOM     89  C   UNL A   1      44.622  33.635  29.257  1.00  0.00     0.023 A 
ATOM     90  C   UNL A   1      45.629  33.890  30.211  1.00  0.00     0.012 A 
ATOM     91  C   UNL A   1      44.106  34.706  28.500  1.00  0.00     0.148 A 
ATOM     92  C   UNL A   1      46.058  35.194  30.459  1.00  0.00     0.002 A 
ATOM     93  C   UNL A   1      44.585  35.994  28.707  1.00  0.00     0.091 A 
ATOM     94  F   UNL A   1      43.141  34.451  27.604  1.00  0.00    -0.205 F 
ATOM     95  C   UNL A   1      45.543  36.243  29.703  1.00  0.00     0.022 A 
BRANCH  93  96
ATOM     96  S   UNL A   1      44.054  37.389  27.710  1.00  0.00     0.127 S 
ATOM     97  O   UNL A   1      43.339  38.202  28.693  1.00  0.00    -0.237 OA
ATOM     98  O   UNL A   1      45.329  37.952  27.264  1.00  0.00    -0.237 OA
ATOM     99  O   UNL A   1      43.234  36.832  26.642  1.00  0.00    -0.744 OA
ENDBRANCH  93  96
ENDBRANCH  66  89
ENDBRANCH  40  41
ENDBRANCH  33  35
ENDBRANCH  32  33
ENDBRANCH  31  32
ENDBRANCH   1  31
TORSDOF 21
ENDMDL
MODEL 3
REMARK VINA RESULT:     -11.4      5.962     10.697
REMARK SMILES N#Cc1ccc(C(=O)N2CCC(Oc3ccccc3)(C(=O)OCCOCCOC(=O)c3ccc(-c4c5nc(c(-c6cccc(S(=O)(=O)[O-])c6F)c6ccc([nH]6)c(-c6cccc(S(=O)(=O)[O-])c6F)c6nc(c(-c7cccc(S(=O)(=O)[O-])c7F)c7ccc4[nH]7)C=C6)C=C5)cc3)CC2)cc1
REMARK SMILES IDX 26 1 25 2 24 3 23 4 22 5 20 6 21 7 12 8 7 9 8 10 9 11 10 12
REMARK SMILES IDX 95 13 11 14 94 15 6 16 3 17 4 18 97 19 5 20 96 21 2 22 1 23
REMARK SMILES IDX 13 24 14 25 15 26 19 27 16 28 18 29 17 30 27 31 28 32 29 33
REMARK SMILES IDX 30 34 31 35 32 36 93 37 33 38 92 39 34 40 35 41 36 42 86 43
REMARK SMILES IDX 37 44 91 45 85 46 87 47 38 48 90 49 84 50 83 51 39 53 71 54
REMARK SMILES IDX 51 55 70 56 52 57 55 58 69 59 88 60 53 61 54 62 68 64 89 65
REMARK SMILES IDX 56 66 40 67 41 68 49 69 42 70 44 71 50 72 43 73 45 74 46 75
REMARK SMILES IDX 47 76 48 77 72 78 73 79 81 80 74 81 76 82 82 83 75 84 77 85
REMARK SMILES IDX 78 86 79 87 80 88 57 89 58 90 66 91 59 92 61 93 67 94 60 95
REMARK SMILES IDX 62 96 63 97 64 98 65 99
REMARK H PARENT 87 52 55 63
REMARK Flexibility Score: inf
ROOT
ATOM      1  C   UNL A   1      32.618  30.922  26.698  1.00  0.00     0.202 C 
ENDROOT
BRANCH   1   2
ATOM      2  O   UNL A   1      32.667  29.761  27.506  1.00  0.00    -0.374 OA
BRANCH   2   3
ATOM      3  C   UNL A   1      33.784  28.888  27.389  1.00  0.00     0.202 C 
BRANCH   3   4
ATOM      4  C   UNL A   1      34.134  28.237  26.044  1.00  0.00     0.261 C 
BRANCH   4   5
ATOM      5  O   UNL A   1      34.271  26.803  26.083  1.00  0.00    -0.460 OA
BRANCH   5   6
ATOM      6  C   UNL A   1      33.741  26.126  25.024  1.00  0.00     0.350 C 
ATOM      7  O   UNL A   1      34.227  26.160  23.894  1.00  0.00    -0.247 OA
BRANCH   6   8
ATOM      8  C   UNL A   1      32.459  25.324  25.363  1.00  0.00     0.209 C 
ATOM      9  C   UNL A   1      28.746  26.834  23.667  1.00  0.00     0.253 C 
ATOM     10  O   UNL A   1      27.837  26.009  23.585  1.00  0.00    -0.269 OA
ATOM     11  N   UNL A   1      30.040  26.473  24.059  1.00  0.00    -0.338 N 
ATOM     12  C   UNL A   1      30.475  25.150  23.652  1.00  0.00     0.124 C 
ATOM     13  C   UNL A   1      30.812  27.224  25.039  1.00  0.00     0.124 C 
ATOM     14  C   UNL A   1      31.814  24.620  24.157  1.00  0.00     0.082 C 
ATOM     15  C   UNL A   1      31.481  26.300  26.056  1.00  0.00     0.082 C 
BRANCH   9  16
ATOM     16  C   UNL A   1      28.481  28.209  23.150  1.00  0.00     0.040 A 
ATOM     17  C   UNL A   1      28.279  30.946  22.514  1.00  0.00     0.052 A 
ATOM     18  C   UNL A   1      29.394  30.211  22.101  1.00  0.00     0.020 A 
ATOM     19  C   UNL A   1      27.262  30.310  23.234  1.00  0.00     0.020 A 
ATOM     20  C   UNL A   1      29.494  28.851  22.419  1.00  0.00     0.015 A 
ATOM     21  C   UNL A   1      27.367  28.951  23.556  1.00  0.00     0.015 A 
BRANCH  17  22
ATOM     22  C   UNL A   1      28.192  32.347  22.229  1.00  0.00     0.099 C 
ATOM     23  N   UNL A   1      28.119  33.484  21.994  1.00  0.00    -0.192 NA
ENDBRANCH  17  22
ENDBRANCH   9  16
BRANCH   8  24
ATOM     24  O   UNL A   1      33.108  24.360  26.248  1.00  0.00    -0.475 OA
BRANCH  24  25
ATOM     25  C   UNL A   1      33.334  23.110  25.756  1.00  0.00     0.121 A 
ATOM     26  C   UNL A   1      32.322  22.159  25.869  1.00  0.00     0.046 A 
ATOM     27  C   UNL A   1      34.590  22.735  25.286  1.00  0.00     0.046 A 
ATOM     28  C   UNL A   1      32.542  20.857  25.414  1.00  0.00     0.004 A 
ATOM     29  C   UNL A   1      34.800  21.447  24.800  1.00  0.00     0.004 A 
ATOM     30  C   UNL A   1      33.773  20.510  24.856  1.00  0.00     0.000 A 
ENDBRANCH  24  25
ENDBRANCH   8  24
ENDBRANCH   6   8
ENDBRANCH   5   6
ENDBRANCH   4   5
ENDBRANCH   3   4
ENDBRANCH   2   3
ENDBRANCH   1   2
BRANCH   1  31
ATOM     31  C   UNL A   1      32.301  32.294  27.313  1.00  0.00     0.261 C 
BRANCH  31  32
ATOM     32  O   UNL A   1      33.326  33.283  27.216  1.00  0.00    -0.460 OA
BRANCH  32  33
ATOM     33  C   UNL A   1      33.440  34.046  28.331  1.00  0.00     0.338 C 
ATOM     34  O   UNL A   1      32.659  34.900  28.716  1.00  0.00    -0.246 OA
BRANCH  33  35
ATOM     35  C   UNL A   1      34.572  33.589  29.149  1.00  0.00     0.060 A 
ATOM     36  C   UNL A   1      35.841  34.044  28.775  1.00  0.00     0.016 A 
ATOM     37  C   UNL A   1      34.418  32.659  30.178  1.00  0.00     0.016 A 
ATOM     38  C   UNL A   1      36.969  33.530  29.397  1.00  0.00     0.010 A 
ATOM     39  C   UNL A   1      35.559  32.138  30.800  1.00  0.00     0.010 A 
ATOM     40  C   UNL A   1      36.840  32.542  30.383  1.00  0.00    -0.014 A 
BRANCH  40  41
ATOM     41  C   UNL A   1      38.075  31.884  30.869  1.00  0.00     0.031 A 
ATOM     42  C   UNL A   1      38.608  32.207  32.238  1.00  0.00     0.074 A 
ATOM     43  C   UNL A   1      38.650  30.921  30.127  1.00  0.00     0.049 A 
ATOM     44  N   UNL A   1      39.584  31.641  32.898  1.00  0.00    -0.248 NA
ATOM     45  C   UNL A   1      37.953  33.309  32.960  1.00  0.00     0.031 C 
ATOM     46  C   UNL A   1      38.213  30.517  28.791  1.00  0.00     0.029 A 
ATOM     47  N   UNL A   1      39.711  30.098  30.399  1.00  0.00    -0.354 N 
ATOM     48  C   UNL A   1      39.678  32.328  34.103  1.00  0.00     0.074 A 
ATOM     49  C   UNL A   1      38.674  33.370  34.069  1.00  0.00     0.031 C 
ATOM     50  C   UNL A   1      38.991  29.510  28.364  1.00  0.00     0.029 A 
ATOM     51  C   UNL A   1      39.999  29.222  29.381  1.00  0.00     0.049 A 
ATOM     52  H   UNL A   1      40.220  30.132  31.241  1.00  0.00     0.167 HD
ATOM     53  C   UNL A   1      40.513  32.105  35.146  1.00  0.00     0.034 A 
ATOM     54  C   UNL A   1      40.971  28.296  29.277  1.00  0.00     0.034 A 
ATOM     55  C   UNL A   1      41.515  31.069  35.166  1.00  0.00     0.049 A 
ATOM     56  C   UNL A   1      41.907  28.090  30.435  1.00  0.00     0.074 A 
ATOM     57  C   UNL A   1      42.391  30.737  36.184  1.00  0.00     0.029 A 
ATOM     58  N   UNL A   1      41.792  30.214  34.109  1.00  0.00    -0.354 N 
ATOM     59  N   UNL A   1      41.921  28.683  31.605  1.00  0.00    -0.248 NA
ATOM     60  C   UNL A   1      42.938  27.058  30.270  1.00  0.00     0.031 C 
ATOM     61  C   UNL A   1      43.235  29.720  35.721  1.00  0.00     0.029 A 
ATOM     62  C   UNL A   1      42.840  29.369  34.440  1.00  0.00     0.049 A 
ATOM     63  H   UNL A   1      41.314  30.207  33.249  1.00  0.00     0.167 HD
ATOM     64  C   UNL A   1      42.937  28.071  32.330  1.00  0.00     0.074 A 
ATOM     65  C   UNL A   1      43.493  27.042  31.472  1.00  0.00     0.031 C 
ATOM     66  C   UNL A   1      43.375  28.338  33.586  1.00  0.00     0.034 A 
BRANCH  53  67
ATOM     67  C   UNL A   1      40.384  33.010  36.348  1.00  0.00     0.023 A 
ATOM     68  C   UNL A   1      41.158  34.186  36.438  1.00  0.00     0.012 A 
ATOM     69  C   UNL A   1      39.477  32.705  37.382  1.00  0.00     0.148 A 
ATOM     70  C   UNL A   1      41.070  35.014  37.558  1.00  0.00     0.002 A 
ATOM     71  C   UNL A   1      39.355  33.562  38.468  1.00  0.00     0.091 A 
ATOM     72  F   UNL A   1      38.760  31.576  37.291  1.00  0.00    -0.205 F 
ATOM     73  C   UNL A   1      40.163  34.706  38.568  1.00  0.00     0.022 A 
BRANCH  71  74
ATOM     74  S   UNL A   1      38.158  33.298  39.781  1.00  0.00     0.127 S 
ATOM     75  O   UNL A   1      36.915  33.156  39.022  1.00  0.00    -0.237 OA
ATOM     76  O   UNL A   1      38.642  32.060  40.392  1.00  0.00    -0.237 OA
ATOM     77  O   UNL A   1      38.235  34.472  40.639  1.00  0.00    -0.744 OA
ENDBRANCH  71  74
ENDBRANCH  53  67
BRANCH  54  78
ATOM     78  C   UNL A   1      41.083  27.474  28.041  1.00  0.00     0.023 A 
ATOM     79  C   UNL A   1      41.742  27.991  26.909  1.00  0.00     0.012 A 
ATOM     80  C   UNL A   1      40.555  26.170  27.994  1.00  0.00     0.148 A 
ATOM     81  C   UNL A   1      41.846  27.234  25.742  1.00  0.00     0.002 A 
ATOM     82  C   UNL A   1      40.714  25.400  26.850  1.00  0.00     0.091 A 
ATOM     83  F   UNL A   1      39.924  25.703  29.082  1.00  0.00    -0.205 F 
ATOM     84  C   UNL A   1      41.342  25.935  25.716  1.00  0.00     0.022 A 
BRANCH  82  85
ATOM     85  S   UNL A   1      40.211  23.679  26.772  1.00  0.00     0.127 S 
ATOM     86  O   UNL A   1      40.398  23.249  28.155  1.00  0.00    -0.237 OA
ATOM     87  O   UNL A   1      38.817  23.796  26.344  1.00  0.00    -0.237 OA
ATOM     88  O   UNL A   1      41.090  23.050  25.796  1.00  0.00    -0.744 OA
ENDBRANCH  82  85
ENDBRANCH  54  78
BRANCH  66  89
ATOM     89  C   UNL A   1      44.486  27.468  34.125  1.00  0.00     0.023 A 
ATOM     90  C   UNL A   1      45.831  27.747  33.805  1.00  0.00     0.012 A 
ATOM     91  C   UNL A   1      44.191  26.372  34.959  1.00  0.00     0.148 A 
ATOM     92  C   UNL A   1      46.854  26.906  34.244  1.00  0.00     0.002 A 
ATOM     93  C   UNL A   1      45.222  25.577  35.447  1.00  0.00     0.091 A 
ATOM     94  F   UNL A   1      42.907  26.112  35.247  1.00  0.00    -0.205 F 
ATOM     95  C   UNL A   1      46.551  25.828  35.070  1.00  0.00     0.022 A 
BRANCH  93  96
ATOM     96  S   UNL A   1      44.935  24.229  36.598  1.00  0.00     0.127 S 
ATOM     97  O   UNL A   1      44.295  23.234  35.738  1.00  0.00    -0.237 OA
ATOM     98  O   UNL A   1      46.295  23.888  37.018  1.00  0.00    -0.237 OA
ATOM     99  O   UNL A   1      44.095  24.776  37.656  1.00  0.00    -0.744 OA
ENDBRANCH  93  96
ENDBRANCH  66  89
ENDBRANCH  40  41
ENDBRANCH  33  35
ENDBRANCH  32  33
ENDBRANCH  31  32
ENDBRANCH   1  31
TORSDOF 21
ENDMDL
