MODEL 1
REMARK VINA RESULT:     -11.3      0.000      0.000
REMARK SMILES C[NH2+][C@]1(C(=O)OCCOCCOC(=O)c2ccc(-c3c4nc(c(-c5cccc(S(=O)(=O)[O-])c5F)c5ccc([nH]5)c(-c5cccc(S(=O)(=O)[O-])c5F)c5nc(c(-c6cccc(S(=O)(=O)[O-])c6F)c6ccc3[nH]6)C=C5)C=C4)cc2)CCC[C@H](Oc2ccc(C)cc2)C1
REMARK SMILES IDX 10 1 9 2 8 3 7 4 6 5 4 6 5 7 3 8 78 9 90 10 79 11 81 12
REMARK SMILES IDX 80 13 2 14 1 15 82 18 83 19 84 20 89 21 85 22 88 23 86 24
REMARK SMILES IDX 87 25 11 26 12 27 13 28 14 29 15 30 16 31 77 32 17 33 76 34
REMARK SMILES IDX 18 35 19 36 20 37 70 38 21 39 75 40 69 41 71 42 22 43 74 44
REMARK SMILES IDX 68 45 67 46 23 48 55 49 35 50 54 51 36 52 39 53 53 54 72 55
REMARK SMILES IDX 37 56 38 57 52 59 73 60 40 61 24 62 25 63 33 64 26 65 28 66
REMARK SMILES IDX 34 67 27 68 29 69 30 70 31 71 32 72 56 73 57 74 65 75 58 76
REMARK SMILES IDX 60 77 66 78 59 79 61 80 62 81 63 82 64 83 41 84 42 85 50 86
REMARK SMILES IDX 43 87 45 88 51 89 44 90 46 91 47 92 48 93 49 94
REMARK H PARENT 2 16 2 17 71 47 39 58
REMARK Flexibility Score: inf
ROOT
ATOM      1  C   UNL A   1      31.024  31.280  25.441  1.00  0.00     0.202 C 
ENDROOT
BRANCH   1   2
ATOM      2  O   UNL A   1      31.852  30.136  25.248  1.00  0.00    -0.374 OA
BRANCH   2   3
ATOM      3  C   UNL A   1      31.475  29.215  24.225  1.00  0.00     0.202 C 
BRANCH   3   4
ATOM      4  C   UNL A   1      31.136  27.778  24.641  1.00  0.00     0.261 C 
BRANCH   4   5
ATOM      5  O   UNL A   1      32.304  26.949  24.762  1.00  0.00    -0.459 OA
BRANCH   5   6
ATOM      6  C   UNL A   1      32.155  25.845  25.546  1.00  0.00     0.368 C 
ATOM      7  O   UNL A   1      31.700  25.866  26.687  1.00  0.00    -0.245 OA
BRANCH   6   8
ATOM      8  C   UNL A   1      32.655  24.540  24.856  1.00  0.00     0.197 C 
ATOM      9  C   UNL A   1      33.269  24.713  23.446  1.00  0.00     0.081 C 
ATOM     10  C   UNL A   1      33.767  24.007  25.810  1.00  0.00     0.126 C 
ATOM     11  C   UNL A   1      33.972  23.454  22.933  1.00  0.00     0.011 C 
ATOM     12  C   UNL A   1      34.459  22.723  25.322  1.00  0.00     0.180 C 
ATOM     13  C   UNL A   1      35.026  22.958  23.915  1.00  0.00     0.046 C 
BRANCH   8  14
ATOM     14  N   UNL A   1      31.538  23.553  24.743  1.00  0.00    -0.334 N 
ATOM     15  C   UNL A   1      30.642  23.707  23.609  1.00  0.00     0.331 C 
ATOM     16  H   UNL A   1      31.952  22.622  24.685  1.00  0.00     0.347 HD
ATOM     17  H   UNL A   1      30.957  23.709  25.566  1.00  0.00     0.347 HD
ENDBRANCH   8  14
BRANCH  12  18
ATOM     18  O   UNL A   1      33.458  21.704  25.384  1.00  0.00    -0.490 OA
BRANCH  18  19
ATOM     19  C   UNL A   1      33.686  20.449  24.922  1.00  0.00     0.119 A 
ATOM     20  C   UNL A   1      34.818  19.677  25.149  1.00  0.00     0.047 A 
ATOM     21  C   UNL A   1      32.641  19.934  24.151  1.00  0.00     0.047 A 
ATOM     22  C   UNL A   1      34.921  18.409  24.568  1.00  0.00     0.007 A 
ATOM     23  C   UNL A   1      32.735  18.668  23.578  1.00  0.00     0.007 A 
ATOM     24  C   UNL A   1      33.882  17.896  23.780  1.00  0.00    -0.051 A 
ATOM     25  C   UNL A   1      34.021  16.552  23.132  1.00  0.00     0.044 C 
ENDBRANCH  18  19
ENDBRANCH  12  18
ENDBRANCH   6   8
ENDBRANCH   5   6
ENDBRANCH   4   5
ENDBRANCH   3   4
ENDBRANCH   2   3
ENDBRANCH   1   2
BRANCH   1  26
ATOM     26  C   UNL A   1      31.361  32.240  26.592  1.00  0.00     0.261 C 
BRANCH  26  27
ATOM     27  O   UNL A   1      32.485  31.816  27.382  1.00  0.00    -0.460 OA
BRANCH  27  28
ATOM     28  C   UNL A   1      33.399  32.786  27.627  1.00  0.00     0.338 C 
ATOM     29  O   UNL A   1      33.191  33.991  27.714  1.00  0.00    -0.246 OA
BRANCH  28  30
ATOM     30  C   UNL A   1      34.702  32.194  27.974  1.00  0.00     0.060 A 
ATOM     31  C   UNL A   1      34.736  30.817  28.233  1.00  0.00     0.016 A 
ATOM     32  C   UNL A   1      35.843  32.979  28.144  1.00  0.00     0.016 A 
ATOM     33  C   UNL A   1      35.903  30.225  28.710  1.00  0.00     0.010 A 
ATOM     34  C   UNL A   1      37.011  32.384  28.636  1.00  0.00     0.010 A 
ATOM     35  C   UNL A   1      37.033  31.014  28.958  1.00  0.00    -0.014 A 
BRANCH  35  36
ATOM     36  C   UNL A   1      38.176  30.427  29.696  1.00  0.00     0.031 A 
ATOM     37  C   UNL A   1      38.410  30.839  31.125  1.00  0.00     0.074 A 
ATOM     38  C   UNL A   1      38.981  29.524  29.111  1.00  0.00     0.049 A 
ATOM     39  N   UNL A   1      39.342  30.453  31.955  1.00  0.00    -0.248 NA
ATOM     40  C   UNL A   1      37.466  31.818  31.691  1.00  0.00     0.031 C 
ATOM     41  C   UNL A   1      38.852  29.044  27.737  1.00  0.00     0.029 A 
ATOM     42  N   UNL A   1      40.083  28.866  29.597  1.00  0.00    -0.354 N 
ATOM     43  C   UNL A   1      39.113  31.154  33.133  1.00  0.00     0.074 A 
ATOM     44  C   UNL A   1      37.962  32.001  32.907  1.00  0.00     0.031 C 
ATOM     45  C   UNL A   1      39.855  28.187  27.479  1.00  0.00     0.029 A 
ATOM     46  C   UNL A   1      40.707  28.074  28.662  1.00  0.00     0.049 A 
ATOM     47  H   UNL A   1      40.397  28.951  30.526  1.00  0.00     0.167 HD
ATOM     48  C   UNL A   1      39.788  31.086  34.306  1.00  0.00     0.034 A 
ATOM     49  C   UNL A   1      41.844  27.357  28.747  1.00  0.00     0.034 A 
ATOM     50  C   UNL A   1      40.920  30.230  34.535  1.00  0.00     0.049 A 
ATOM     51  C   UNL A   1      42.590  27.312  30.056  1.00  0.00     0.074 A 
ATOM     52  C   UNL A   1      41.647  30.058  35.700  1.00  0.00     0.029 A 
ATOM     53  N   UNL A   1      41.496  29.409  33.578  1.00  0.00    -0.354 N 
ATOM     54  N   UNL A   1      42.290  27.886  31.197  1.00  0.00    -0.248 NA
ATOM     55  C   UNL A   1      43.808  26.491  30.101  1.00  0.00     0.031 C 
ATOM     56  C   UNL A   1      42.677  29.148  35.440  1.00  0.00     0.029 A 
ATOM     57  C   UNL A   1      42.577  28.736  34.121  1.00  0.00     0.049 A 
ATOM     58  H   UNL A   1      41.184  29.319  32.649  1.00  0.00     0.167 HD
ATOM     59  C   UNL A   1      43.261  27.472  32.101  1.00  0.00     0.074 A 
ATOM     60  C   UNL A   1      44.148  26.580  31.380  1.00  0.00     0.031 C 
ATOM     61  C   UNL A   1      43.417  27.809  33.405  1.00  0.00     0.034 A 
BRANCH  48  62
ATOM     62  C   UNL A   1      39.297  31.941  35.444  1.00  0.00     0.023 A 
ATOM     63  C   UNL A   1      38.367  31.409  36.361  1.00  0.00     0.012 A 
ATOM     64  C   UNL A   1      39.789  33.245  35.635  1.00  0.00     0.148 A 
ATOM     65  C   UNL A   1      37.913  32.173  37.434  1.00  0.00     0.002 A 
ATOM     66  C   UNL A   1      39.363  33.987  36.731  1.00  0.00     0.091 A 
ATOM     67  F   UNL A   1      40.653  33.742  34.739  1.00  0.00    -0.205 F 
ATOM     68  C   UNL A   1      38.418  33.457  37.626  1.00  0.00     0.022 A 
BRANCH  66  69
ATOM     69  S   UNL A   1      40.008  35.622  37.104  1.00  0.00     0.127 S 
ATOM     70  O   UNL A   1      39.305  35.940  38.345  1.00  0.00    -0.237 OA
ATOM     71  O   UNL A   1      41.439  35.361  37.263  1.00  0.00    -0.237 OA
ATOM     72  O   UNL A   1      39.667  36.456  35.959  1.00  0.00    -0.744 OA
ENDBRANCH  66  69
ENDBRANCH  48  62
BRANCH  49  73
ATOM     73  C   UNL A   1      42.330  26.594  27.562  1.00  0.00     0.023 A 
ATOM     74  C   UNL A   1      43.111  27.243  26.587  1.00  0.00     0.012 A 
ATOM     75  C   UNL A   1      42.042  25.223  27.412  1.00  0.00     0.148 A 
ATOM     76  C   UNL A   1      43.573  26.546  25.469  1.00  0.00     0.002 A 
ATOM     77  C   UNL A   1      42.552  24.523  26.326  1.00  0.00     0.091 A 
ATOM     78  F   UNL A   1      41.279  24.629  28.340  1.00  0.00    -0.205 F 
ATOM     79  C   UNL A   1      43.304  25.186  25.344  1.00  0.00     0.022 A 
BRANCH  77  80
ATOM     80  S   UNL A   1      42.365  22.745  26.158  1.00  0.00     0.127 S 
ATOM     81  O   UNL A   1      43.005  22.495  24.869  1.00  0.00    -0.237 OA
ATOM     82  O   UNL A   1      43.106  22.251  27.320  1.00  0.00    -0.237 OA
ATOM     83  O   UNL A   1      40.931  22.495  26.214  1.00  0.00    -0.744 OA
ENDBRANCH  77  80
ENDBRANCH  49  73
BRANCH  61  84
ATOM     84  C   UNL A   1      44.568  27.193  34.157  1.00  0.00     0.023 A 
ATOM     85  C   UNL A   1      45.813  27.850  34.188  1.00  0.00     0.012 A 
ATOM     86  C   UNL A   1      44.392  26.008  34.899  1.00  0.00     0.148 A 
ATOM     87  C   UNL A   1      46.875  27.322  34.921  1.00  0.00     0.002 A 
ATOM     88  C   UNL A   1      45.442  25.512  35.664  1.00  0.00     0.091 A 
ATOM     89  F   UNL A   1      43.206  25.387  34.842  1.00  0.00    -0.205 F 
ATOM     90  C   UNL A   1      46.686  26.163  35.668  1.00  0.00     0.022 A 
BRANCH  88  91
ATOM     91  S   UNL A   1      45.259  24.078  36.731  1.00  0.00     0.127 S 
ATOM     92  O   UNL A   1      44.535  23.152  35.862  1.00  0.00    -0.237 OA
ATOM     93  O   UNL A   1      46.649  23.706  36.995  1.00  0.00    -0.237 OA
ATOM     94  O   UNL A   1      44.527  24.542  37.902  1.00  0.00    -0.744 OA
ENDBRANCH  88  91
ENDBRANCH  61  84
ENDBRANCH  35  36
ENDBRANCH  28  30
ENDBRANCH  27  28
ENDBRANCH  26  27
ENDBRANCH   1  26
TORSDOF 20
ENDMDL
MODEL 2
REMARK VINA RESULT:     -11.0      5.026      8.408
REMARK SMILES C[NH2+][C@]1(C(=O)OCCOCCOC(=O)c2ccc(-c3c4nc(c(-c5cccc(S(=O)(=O)[O-])c5F)c5ccc([nH]5)c(-c5cccc(S(=O)(=O)[O-])c5F)c5nc(c(-c6cccc(S(=O)(=O)[O-])c6F)c6ccc3[nH]6)C=C5)C=C4)cc2)CCC[C@H](Oc2ccc(C)cc2)C1
REMARK SMILES IDX 10 1 9 2 8 3 7 4 6 5 4 6 5 7 3 8 78 9 90 10 79 11 81 12
REMARK SMILES IDX 80 13 2 14 1 15 82 18 83 19 84 20 89 21 85 22 88 23 86 24
REMARK SMILES IDX 87 25 11 26 12 27 13 28 14 29 15 30 16 31 77 32 17 33 76 34
REMARK SMILES IDX 18 35 19 36 20 37 70 38 21 39 75 40 69 41 71 42 22 43 74 44
REMARK SMILES IDX 68 45 67 46 23 48 55 49 35 50 54 51 36 52 39 53 53 54 72 55
REMARK SMILES IDX 37 56 38 57 52 59 73 60 40 61 24 62 25 63 33 64 26 65 28 66
REMARK SMILES IDX 34 67 27 68 29 69 30 70 31 71 32 72 56 73 57 74 65 75 58 76
REMARK SMILES IDX 60 77 66 78 59 79 61 80 62 81 63 82 64 83 41 84 42 85 50 86
REMARK SMILES IDX 43 87 45 88 51 89 44 90 46 91 47 92 48 93 49 94
REMARK H PARENT 2 16 2 17 71 47 39 58
REMARK Flexibility Score: inf
ROOT
ATOM      1  C   UNL A   1      35.835  20.273  24.966  1.00  0.00     0.202 C 
ENDROOT
BRANCH   1   2
ATOM      2  O   UNL A   1      35.365  21.143  25.992  1.00  0.00    -0.374 OA
BRANCH   2   3
ATOM      3  C   UNL A   1      33.985  21.057  26.348  1.00  0.00     0.202 C 
BRANCH   3   4
ATOM      4  C   UNL A   1      32.997  20.567  25.280  1.00  0.00     0.261 C 
BRANCH   4   5
ATOM      5  O   UNL A   1      32.138  21.615  24.803  1.00  0.00    -0.459 OA
BRANCH   5   6
ATOM      6  C   UNL A   1      32.314  21.964  23.497  1.00  0.00     0.368 C 
ATOM      7  O   UNL A   1      32.288  21.167  22.562  1.00  0.00    -0.245 OA
BRANCH   6   8
ATOM      8  C   UNL A   1      32.586  23.486  23.309  1.00  0.00     0.197 C 
ATOM      9  C   UNL A   1      32.832  23.955  21.855  1.00  0.00     0.081 C 
ATOM     10  C   UNL A   1      31.284  24.172  23.829  1.00  0.00     0.126 C 
ATOM     11  C   UNL A   1      32.832  25.479  21.702  1.00  0.00     0.011 C 
ATOM     12  C   UNL A   1      31.285  25.704  23.710  1.00  0.00     0.180 C 
ATOM     13  C   UNL A   1      31.555  26.099  22.251  1.00  0.00     0.046 C 
BRANCH   8  14
ATOM     14  N   UNL A   1      33.765  23.908  24.125  1.00  0.00    -0.334 N 
ATOM     15  C   UNL A   1      35.078  23.575  23.596  1.00  0.00     0.331 C 
ATOM     16  H   UNL A   1      33.722  24.922  24.231  1.00  0.00     0.347 HD
ATOM     17  H   UNL A   1      33.689  23.386  24.998  1.00  0.00     0.347 HD
ENDBRANCH   8  14
BRANCH  12  18
ATOM     18  O   UNL A   1      32.282  26.157  24.629  1.00  0.00    -0.490 OA
BRANCH  18  19
ATOM     19  C   UNL A   1      32.167  27.340  25.284  1.00  0.00     0.119 A 
ATOM     20  C   UNL A   1      31.853  27.515  26.626  1.00  0.00     0.047 A 
ATOM     21  C   UNL A   1      32.403  28.456  24.478  1.00  0.00     0.047 A 
ATOM     22  C   UNL A   1      31.732  28.807  27.147  1.00  0.00     0.007 A 
ATOM     23  C   UNL A   1      32.294  29.744  24.995  1.00  0.00     0.007 A 
ATOM     24  C   UNL A   1      31.952  29.930  26.337  1.00  0.00    -0.051 A 
ATOM     25  C   UNL A   1      31.783  31.309  26.898  1.00  0.00     0.044 C 
ENDBRANCH  18  19
ENDBRANCH  12  18
ENDBRANCH   6   8
ENDBRANCH   5   6
ENDBRANCH   4   5
ENDBRANCH   3   4
ENDBRANCH   2   3
ENDBRANCH   1   2
BRANCH   1  26
ATOM     26  C   UNL A   1      37.350  20.053  24.833  1.00  0.00     0.261 C 
BRANCH  26  27
ATOM     27  O   UNL A   1      38.131  21.203  25.201  1.00  0.00    -0.460 OA
BRANCH  27  28
ATOM     28  C   UNL A   1      39.192  20.931  25.998  1.00  0.00     0.338 C 
ATOM     29  O   UNL A   1      39.788  19.863  26.095  1.00  0.00    -0.246 OA
BRANCH  28  30
ATOM     30  C   UNL A   1      39.694  22.162  26.631  1.00  0.00     0.060 A 
ATOM     31  C   UNL A   1      39.098  23.372  26.251  1.00  0.00     0.016 A 
ATOM     32  C   UNL A   1      40.787  22.149  27.498  1.00  0.00     0.016 A 
ATOM     33  C   UNL A   1      39.624  24.580  26.699  1.00  0.00     0.010 A 
ATOM     34  C   UNL A   1      41.323  23.366  27.937  1.00  0.00     0.010 A 
ATOM     35  C   UNL A   1      40.768  24.585  27.508  1.00  0.00    -0.014 A 
BRANCH  35  36
ATOM     36  C   UNL A   1      41.463  25.868  27.768  1.00  0.00     0.031 A 
ATOM     37  C   UNL A   1      40.732  26.956  28.508  1.00  0.00     0.074 A 
ATOM     38  C   UNL A   1      42.733  26.054  27.371  1.00  0.00     0.049 A 
ATOM     39  N   UNL A   1      41.145  28.149  28.843  1.00  0.00    -0.248 NA
ATOM     40  C   UNL A   1      39.351  26.657  28.924  1.00  0.00     0.031 C 
ATOM     41  C   UNL A   1      43.544  25.074  26.652  1.00  0.00     0.029 A 
ATOM     42  N   UNL A   1      43.556  27.144  27.499  1.00  0.00    -0.354 N 
ATOM     43  C   UNL A   1      40.073  28.753  29.490  1.00  0.00     0.074 A 
ATOM     44  C   UNL A   1      38.984  27.800  29.487  1.00  0.00     0.031 C 
ATOM     45  C   UNL A   1      44.742  25.618  26.376  1.00  0.00     0.029 A 
ATOM     46  C   UNL A   1      44.775  26.990  26.881  1.00  0.00     0.049 A 
ATOM     47  H   UNL A   1      43.300  27.960  27.987  1.00  0.00     0.167 HD
ATOM     48  C   UNL A   1      40.005  29.983  30.053  1.00  0.00     0.034 A 
ATOM     49  C   UNL A   1      45.790  27.862  26.726  1.00  0.00     0.034 A 
ATOM     50  C   UNL A   1      41.093  30.922  30.071  1.00  0.00     0.049 A 
ATOM     51  C   UNL A   1      45.684  29.233  27.344  1.00  0.00     0.074 A 
ATOM     52  C   UNL A   1      41.137  32.177  30.652  1.00  0.00     0.029 A 
ATOM     53  N   UNL A   1      42.327  30.713  29.474  1.00  0.00    -0.354 N 
ATOM     54  N   UNL A   1      44.708  29.743  28.056  1.00  0.00    -0.248 NA
ATOM     55  C   UNL A   1      46.831  30.133  27.168  1.00  0.00     0.031 C 
ATOM     56  C   UNL A   1      42.392  32.736  30.387  1.00  0.00     0.029 A 
ATOM     57  C   UNL A   1      43.137  31.819  29.662  1.00  0.00     0.049 A 
ATOM     58  H   UNL A   1      42.588  29.898  28.988  1.00  0.00     0.167 HD
ATOM     59  C   UNL A   1      45.137  31.009  28.441  1.00  0.00     0.074 A 
ATOM     60  C   UNL A   1      46.470  31.179  27.899  1.00  0.00     0.031 C 
ATOM     61  C   UNL A   1      44.482  31.952  29.162  1.00  0.00     0.034 A 
BRANCH  48  62
ATOM     62  C   UNL A   1      38.715  30.372  30.725  1.00  0.00     0.023 A 
ATOM     63  C   UNL A   1      38.529  30.081  32.092  1.00  0.00     0.012 A 
ATOM     64  C   UNL A   1      37.712  31.066  30.022  1.00  0.00     0.148 A 
ATOM     65  C   UNL A   1      37.352  30.449  32.742  1.00  0.00     0.002 A 
ATOM     66  C   UNL A   1      36.558  31.467  30.687  1.00  0.00     0.091 A 
ATOM     67  F   UNL A   1      37.896  31.312  28.718  1.00  0.00    -0.205 F 
ATOM     68  C   UNL A   1      36.372  31.151  32.044  1.00  0.00     0.022 A 
BRANCH  66  69
ATOM     69  S   UNL A   1      35.271  32.435  29.893  1.00  0.00     0.127 S 
ATOM     70  O   UNL A   1      34.331  32.636  30.995  1.00  0.00    -0.237 OA
ATOM     71  O   UNL A   1      35.996  33.639  29.485  1.00  0.00    -0.237 OA
ATOM     72  O   UNL A   1      34.779  31.620  28.791  1.00  0.00    -0.744 OA
ENDBRANCH  66  69
ENDBRANCH  48  62
BRANCH  49  73
ATOM     73  C   UNL A   1      47.013  27.451  25.978  1.00  0.00     0.023 A 
ATOM     74  C   UNL A   1      48.013  26.707  26.632  1.00  0.00     0.012 A 
ATOM     75  C   UNL A   1      47.175  27.774  24.617  1.00  0.00     0.148 A 
ATOM     76  C   UNL A   1      49.166  26.315  25.951  1.00  0.00     0.002 A 
ATOM     77  C   UNL A   1      48.300  27.333  23.930  1.00  0.00     0.091 A 
ATOM     78  F   UNL A   1      46.222  28.501  24.018  1.00  0.00    -0.205 F 
ATOM     79  C   UNL A   1      49.304  26.617  24.599  1.00  0.00     0.022 A 
BRANCH  77  80
ATOM     80  S   UNL A   1      48.493  27.563  22.159  1.00  0.00     0.127 S 
ATOM     81  O   UNL A   1      48.730  26.196  21.702  1.00  0.00    -0.237 OA
ATOM     82  O   UNL A   1      47.195  28.124  21.783  1.00  0.00    -0.237 OA
ATOM     83  O   UNL A   1      49.609  28.487  22.004  1.00  0.00    -0.744 OA
ENDBRANCH  77  80
ENDBRANCH  49  73
BRANCH  61  84
ATOM     84  C   UNL A   1      45.202  33.246  29.442  1.00  0.00     0.023 A 
ATOM     85  C   UNL A   1      45.969  33.378  30.616  1.00  0.00     0.012 A 
ATOM     86  C   UNL A   1      45.185  34.297  28.505  1.00  0.00     0.148 A 
ATOM     87  C   UNL A   1      46.684  34.548  30.868  1.00  0.00     0.002 A 
ATOM     88  C   UNL A   1      45.937  35.443  28.740  1.00  0.00     0.091 A 
ATOM     89  F   UNL A   1      44.434  34.160  27.402  1.00  0.00    -0.205 F 
ATOM     90  C   UNL A   1      46.678  35.574  29.925  1.00  0.00     0.022 A 
BRANCH  88  91
ATOM     91  S   UNL A   1      46.064  36.772  27.538  1.00  0.00     0.127 S 
ATOM     92  O   UNL A   1      44.702  37.305  27.539  1.00  0.00    -0.237 OA
ATOM     93  O   UNL A   1      47.062  37.651  28.149  1.00  0.00    -0.237 OA
ATOM     94  O   UNL A   1      46.492  36.147  26.294  1.00  0.00    -0.744 OA
ENDBRANCH  88  91
ENDBRANCH  61  84
ENDBRANCH  35  36
ENDBRANCH  28  30
ENDBRANCH  27  28
ENDBRANCH  26  27
ENDBRANCH   1  26
TORSDOF 20
ENDMDL
MODEL 3
REMARK VINA RESULT:     -11.0      4.729     10.535
REMARK SMILES C[NH2+][C@]1(C(=O)OCCOCCOC(=O)c2ccc(-c3c4nc(c(-c5cccc(S(=O)(=O)[O-])c5F)c5ccc([nH]5)c(-c5cccc(S(=O)(=O)[O-])c5F)c5nc(c(-c6cccc(S(=O)(=O)[O-])c6F)c6ccc3[nH]6)C=C5)C=C4)cc2)CCC[C@H](Oc2ccc(C)cc2)C1
REMARK SMILES IDX 10 1 9 2 8 3 7 4 6 5 4 6 5 7 3 8 78 9 90 10 79 11 81 12
REMARK SMILES IDX 80 13 2 14 1 15 82 18 83 19 84 20 89 21 85 22 88 23 86 24
REMARK SMILES IDX 87 25 11 26 12 27 13 28 14 29 15 30 16 31 77 32 17 33 76 34
REMARK SMILES IDX 18 35 19 36 20 37 70 38 21 39 75 40 69 41 71 42 22 43 74 44
REMARK SMILES IDX 68 45 67 46 23 48 55 49 35 50 54 51 36 52 39 53 53 54 72 55
REMARK SMILES IDX 37 56 38 57 52 59 73 60 40 61 24 62 25 63 33 64 26 65 28 66
REMARK SMILES IDX 34 67 27 68 29 69 30 70 31 71 32 72 56 73 57 74 65 75 58 76
REMARK SMILES IDX 60 77 66 78 59 79 61 80 62 81 63 82 64 83 41 84 42 85 50 86
REMARK SMILES IDX 43 87 45 88 51 89 44 90 46 91 47 92 48 93 49 94
REMARK H PARENT 2 16 2 17 71 47 39 58
REMARK Flexibility Score: inf
ROOT
ATOM      1  C   UNL A   1      35.982  20.213  24.784  1.00  0.00     0.202 C 
ENDROOT
BRANCH   1   2
ATOM      2  O   UNL A   1      34.582  20.160  25.047  1.00  0.00    -0.374 OA
BRANCH   2   3
ATOM      3  C   UNL A   1      33.851  21.383  24.974  1.00  0.00     0.202 C 
BRANCH   3   4
ATOM      4  C   UNL A   1      32.887  21.715  26.120  1.00  0.00     0.261 C 
BRANCH   4   5
ATOM      5  O   UNL A   1      31.764  22.500  25.687  1.00  0.00    -0.459 OA
BRANCH   5   6
ATOM      6  C   UNL A   1      31.628  23.709  26.299  1.00  0.00     0.368 C 
ATOM      7  O   UNL A   1      31.399  23.853  27.497  1.00  0.00    -0.245 OA
BRANCH   6   8
ATOM      8  C   UNL A   1      31.763  24.906  25.311  1.00  0.00     0.197 C 
ATOM      9  C   UNL A   1      33.094  24.991  24.527  1.00  0.00     0.081 C 
ATOM     10  C   UNL A   1      30.607  24.687  24.287  1.00  0.00     0.126 C 
ATOM     11  C   UNL A   1      33.066  26.021  23.395  1.00  0.00     0.011 C 
ATOM     12  C   UNL A   1      30.548  25.734  23.163  1.00  0.00     0.180 C 
ATOM     13  C   UNL A   1      31.903  25.779  22.442  1.00  0.00     0.046 C 
BRANCH   8  14
ATOM     14  N   UNL A   1      31.584  26.201  26.037  1.00  0.00    -0.334 N 
ATOM     15  C   UNL A   1      32.792  26.854  26.514  1.00  0.00     0.331 C 
ATOM     16  H   UNL A   1      31.112  26.848  25.406  1.00  0.00     0.347 HD
ATOM     17  H   UNL A   1      31.057  25.967  26.878  1.00  0.00     0.347 HD
ENDBRANCH   8  14
BRANCH  12  18
ATOM     18  O   UNL A   1      30.188  26.960  23.803  1.00  0.00    -0.490 OA
BRANCH  18  19
ATOM     19  C   UNL A   1      29.790  28.047  23.096  1.00  0.00     0.119 A 
ATOM     20  C   UNL A   1      30.608  28.918  22.388  1.00  0.00     0.047 A 
ATOM     21  C   UNL A   1      28.409  28.259  23.117  1.00  0.00     0.047 A 
ATOM     22  C   UNL A   1      30.048  30.023  21.739  1.00  0.00     0.007 A 
ATOM     23  C   UNL A   1      27.846  29.352  22.464  1.00  0.00     0.007 A 
ATOM     24  C   UNL A   1      28.665  30.247  21.771  1.00  0.00    -0.051 A 
ATOM     25  C   UNL A   1      28.081  31.455  21.104  1.00  0.00     0.044 C 
ENDBRANCH  18  19
ENDBRANCH  12  18
ENDBRANCH   6   8
ENDBRANCH   5   6
ENDBRANCH   4   5
ENDBRANCH   3   4
ENDBRANCH   2   3
ENDBRANCH   1   2
BRANCH   1  26
ATOM     26  C   UNL A   1      36.866  21.064  25.707  1.00  0.00     0.261 C 
BRANCH  26  27
ATOM     27  O   UNL A   1      38.165  21.347  25.158  1.00  0.00    -0.460 OA
BRANCH  27  28
ATOM     28  C   UNL A   1      39.194  21.149  26.017  1.00  0.00     0.338 C 
ATOM     29  O   UNL A   1      39.848  20.122  26.162  1.00  0.00    -0.246 OA
BRANCH  28  30
ATOM     30  C   UNL A   1      39.583  22.416  26.659  1.00  0.00     0.060 A 
ATOM     31  C   UNL A   1      38.956  23.586  26.210  1.00  0.00     0.016 A 
ATOM     32  C   UNL A   1      40.608  22.476  27.605  1.00  0.00     0.016 A 
ATOM     33  C   UNL A   1      39.385  24.828  26.670  1.00  0.00     0.010 A 
ATOM     34  C   UNL A   1      41.046  23.726  28.056  1.00  0.00     0.010 A 
ATOM     35  C   UNL A   1      40.463  24.907  27.561  1.00  0.00    -0.014 A 
BRANCH  35  36
ATOM     36  C   UNL A   1      41.070  26.229  27.845  1.00  0.00     0.031 A 
ATOM     37  C   UNL A   1      42.476  26.500  27.382  1.00  0.00     0.074 A 
ATOM     38  C   UNL A   1      40.372  27.182  28.487  1.00  0.00     0.049 A 
ATOM     39  N   UNL A   1      43.199  27.580  27.520  1.00  0.00    -0.248 NA
ATOM     40  C   UNL A   1      43.157  25.407  26.668  1.00  0.00     0.031 C 
ATOM     41  C   UNL A   1      39.003  27.038  28.978  1.00  0.00     0.029 A 
ATOM     42  N   UNL A   1      40.731  28.454  28.853  1.00  0.00    -0.354 N 
ATOM     43  C   UNL A   1      44.425  27.293  26.932  1.00  0.00     0.074 A 
ATOM     44  C   UNL A   1      44.355  25.932  26.448  1.00  0.00     0.031 C 
ATOM     45  C   UNL A   1      38.646  28.170  29.609  1.00  0.00     0.029 A 
ATOM     46  C   UNL A   1      39.767  29.109  29.583  1.00  0.00     0.049 A 
ATOM     47  H   UNL A   1      41.596  28.861  28.617  1.00  0.00     0.167 HD
ATOM     48  C   UNL A   1      45.507  28.096  26.790  1.00  0.00     0.034 A 
ATOM     49  C   UNL A   1      39.795  30.318  30.177  1.00  0.00     0.034 A 
ATOM     50  C   UNL A   1      45.568  29.454  27.255  1.00  0.00     0.049 A 
ATOM     51  C   UNL A   1      41.017  31.187  30.022  1.00  0.00     0.074 A 
ATOM     52  C   UNL A   1      46.603  30.363  27.123  1.00  0.00     0.029 A 
ATOM     53  N   UNL A   1      44.556  30.098  27.950  1.00  0.00    -0.354 N 
ATOM     54  N   UNL A   1      42.122  30.944  29.358  1.00  0.00    -0.248 NA
ATOM     55  C   UNL A   1      40.982  32.507  30.666  1.00  0.00     0.031 C 
ATOM     56  C   UNL A   1      46.223  31.551  27.758  1.00  0.00     0.029 A 
ATOM     57  C   UNL A   1      44.944  31.389  28.265  1.00  0.00     0.049 A 
ATOM     58  H   UNL A   1      43.689  29.696  28.186  1.00  0.00     0.167 HD
ATOM     59  C   UNL A   1      42.899  32.092  29.477  1.00  0.00     0.074 A 
ATOM     60  C   UNL A   1      42.128  33.037  30.259  1.00  0.00     0.031 C 
ATOM     61  C   UNL A   1      44.143  32.337  28.997  1.00  0.00     0.034 A 
BRANCH  48  62
ATOM     62  C   UNL A   1      46.704  27.532  26.073  1.00  0.00     0.023 A 
ATOM     63  C   UNL A   1      46.825  27.707  24.679  1.00  0.00     0.012 A 
ATOM     64  C   UNL A   1      47.730  26.876  26.780  1.00  0.00     0.148 A 
ATOM     65  C   UNL A   1      47.934  27.212  23.995  1.00  0.00     0.002 A 
ATOM     66  C   UNL A   1      48.853  26.422  26.098  1.00  0.00     0.091 A 
ATOM     67  F   UNL A   1      47.586  26.698  28.100  1.00  0.00    -0.205 F 
ATOM     68  C   UNL A   1      48.953  26.579  24.705  1.00  0.00     0.022 A 
BRANCH  66  69
ATOM     69  S   UNL A   1      50.249  25.658  26.932  1.00  0.00     0.127 S 
ATOM     70  O   UNL A   1      51.176  25.447  25.822  1.00  0.00    -0.237 OA
ATOM     71  O   UNL A   1      50.654  26.701  27.875  1.00  0.00    -0.237 OA
ATOM     72  O   UNL A   1      49.730  24.447  27.552  1.00  0.00    -0.744 OA
ENDBRANCH  66  69
ENDBRANCH  48  62
BRANCH  49  73
ATOM     73  C   UNL A   1      38.609  30.794  30.946  1.00  0.00     0.023 A 
ATOM     74  C   UNL A   1      38.560  30.604  32.340  1.00  0.00     0.012 A 
ATOM     75  C   UNL A   1      37.544  31.455  30.304  1.00  0.00     0.148 A 
ATOM     76  C   UNL A   1      37.458  31.040  33.077  1.00  0.00     0.002 A 
ATOM     77  C   UNL A   1      36.477  31.937  31.052  1.00  0.00     0.091 A 
ATOM     78  F   UNL A   1      37.601  31.608  28.973  1.00  0.00    -0.205 F 
ATOM     79  C   UNL A   1      36.423  31.715  32.436  1.00  0.00     0.022 A 
BRANCH  77  80
ATOM     80  S   UNL A   1      35.169  32.932  30.326  1.00  0.00     0.127 S 
ATOM     81  O   UNL A   1      34.646  32.037  29.298  1.00  0.00    -0.237 OA
ATOM     82  O   UNL A   1      34.281  33.146  31.469  1.00  0.00    -0.237 OA
ATOM     83  O   UNL A   1      35.822  34.142  29.843  1.00  0.00    -0.744 OA
ENDBRANCH  77  80
ENDBRANCH  49  73
BRANCH  61  84
ATOM     84  C   UNL A   1      44.746  33.690  29.271  1.00  0.00     0.023 A 
ATOM     85  C   UNL A   1      45.407  33.926  30.492  1.00  0.00     0.012 A 
ATOM     86  C   UNL A   1      44.731  34.699  28.287  1.00  0.00     0.148 A 
ATOM     87  C   UNL A   1      46.017  35.154  30.743  1.00  0.00     0.002 A 
ATOM     88  C   UNL A   1      45.380  35.904  28.525  1.00  0.00     0.091 A 
ATOM     89  F   UNL A   1      44.081  34.463  27.139  1.00  0.00    -0.205 F 
ATOM     90  C   UNL A   1      46.015  36.137  29.756  1.00  0.00     0.022 A 
BRANCH  88  91
ATOM     91  S   UNL A   1      45.509  37.190  27.277  1.00  0.00     0.127 S 
ATOM     92  O   UNL A   1      44.107  37.553  27.079  1.00  0.00    -0.237 OA
ATOM     93  O   UNL A   1      46.312  38.207  27.957  1.00  0.00    -0.237 OA
ATOM     94  O   UNL A   1      46.165  36.571  26.133  1.00  0.00    -0.744 OA
ENDBRANCH  88  91
ENDBRANCH  61  84
ENDBRANCH  35  36
ENDBRANCH  28  30
ENDBRANCH  27  28
ENDBRANCH  26  27
ENDBRANCH   1  26
TORSDOF 20
ENDMDL
