MODEL 1
REMARK VINA RESULT:     -12.4      0.000      0.000
REMARK SMILES O=C(OCCOCCOC(=O)[C@H]1CCCN(c2cc(-c3ccccn3)nc(-c3ccccc3F)n2)C1)c1ccc(-c2c3nc(c(-c4cccc(S(=O)(=O)[O-])c4F)c4ccc([nH]4)c(-c4cccc(S(=O)(=O)[O-])c4F)c4nc(c(-c5cccc(S(=O)(=O)[O-])c5F)c5ccc2[nH]5)C=C4)C=C3)cc1
REMARK SMILES IDX 5 1 4 2 3 3 2 4 1 5 37 6 38 7 99 8 39 9 98 10 40 11 41 12
REMARK SMILES IDX 42 13 92 14 43 15 97 16 91 17 93 18 44 19 96 20 90 21 89 22
REMARK SMILES IDX 45 24 77 25 57 26 76 27 58 28 61 29 75 30 94 31 59 32 60 33
REMARK SMILES IDX 74 35 95 36 62 37 46 38 47 39 55 40 48 41 50 42 56 43 49 44
REMARK SMILES IDX 51 45 52 46 53 47 54 48 78 49 79 50 87 51 80 52 82 53 88 54
REMARK SMILES IDX 81 55 83 56 84 57 85 58 86 59 63 60 64 61 72 62 65 63 67 64
REMARK SMILES IDX 73 65 66 66 68 67 69 68 70 69 71 70 6 71 7 72 8 73 9 74
REMARK SMILES IDX 10 75 11 76 12 77 13 78 36 79 14 80 16 81 15 82 17 83 18 84
REMARK SMILES IDX 35 85 19 86 27 87 26 88 20 89 21 90 25 91 22 92 24 93 23 94
REMARK SMILES IDX 28 95 29 96 33 97 30 98 32 99 34 100 31 101
REMARK H PARENT 93 23 61 34
REMARK Flexibility Score: inf
ROOT
ATOM      1  C   UNL A   1      35.648  22.589  26.133  1.00  0.00     0.202 C 
ENDROOT
BRANCH   1   2
ATOM      2  C   UNL A   1      36.247  21.268  25.643  1.00  0.00     0.261 C 
BRANCH   2   3
ATOM      3  O   UNL A   1      37.578  21.484  25.141  1.00  0.00    -0.460 OA
BRANCH   3   4
ATOM      4  C   UNL A   1      38.749  21.439  25.819  1.00  0.00     0.338 C 
ATOM      5  O   UNL A   1      39.312  20.354  25.953  1.00  0.00    -0.246 OA
BRANCH   4   6
ATOM      6  C   UNL A   1      39.400  22.653  26.391  1.00  0.00     0.060 A 
ATOM      7  C   UNL A   1      39.012  23.958  26.096  1.00  0.00     0.016 A 
ATOM      8  C   UNL A   1      40.418  22.463  27.339  1.00  0.00     0.016 A 
ATOM      9  C   UNL A   1      39.669  25.047  26.623  1.00  0.00     0.010 A 
ATOM     10  C   UNL A   1      41.047  23.560  27.934  1.00  0.00     0.010 A 
ATOM     11  C   UNL A   1      40.683  24.854  27.551  1.00  0.00    -0.014 A 
BRANCH  11  12
ATOM     12  C   UNL A   1      41.373  26.068  28.002  1.00  0.00     0.031 A 
ATOM     13  C   UNL A   1      42.734  26.349  27.459  1.00  0.00     0.074 A 
ATOM     14  C   UNL A   1      40.676  26.976  28.708  1.00  0.00     0.049 A 
ATOM     15  N   UNL A   1      43.487  27.394  27.640  1.00  0.00    -0.248 NA
ATOM     16  C   UNL A   1      43.319  25.326  26.570  1.00  0.00     0.031 C 
ATOM     17  C   UNL A   1      39.287  26.807  29.149  1.00  0.00     0.029 A 
ATOM     18  N   UNL A   1      41.009  28.232  29.133  1.00  0.00    -0.354 N 
ATOM     19  C   UNL A   1      44.655  27.136  26.938  1.00  0.00     0.074 A 
ATOM     20  C   UNL A   1      44.507  25.845  26.308  1.00  0.00     0.031 C 
ATOM     21  C   UNL A   1      38.878  27.931  29.752  1.00  0.00     0.029 A 
ATOM     22  C   UNL A   1      39.995  28.865  29.811  1.00  0.00     0.049 A 
ATOM     23  H   UNL A   1      41.888  28.643  28.968  1.00  0.00     0.167 HD
ATOM     24  C   UNL A   1      45.753  27.915  26.846  1.00  0.00     0.034 A 
ATOM     25  C   UNL A   1      39.990  30.055  30.439  1.00  0.00     0.034 A 
ATOM     26  C   UNL A   1      45.849  29.200  27.478  1.00  0.00     0.049 A 
ATOM     27  C   UNL A   1      41.246  30.875  30.376  1.00  0.00     0.074 A 
ATOM     28  C   UNL A   1      46.918  30.073  27.493  1.00  0.00     0.029 A 
ATOM     29  N   UNL A   1      44.830  29.790  28.217  1.00  0.00    -0.354 N 
ATOM     30  N   UNL A   1      42.354  30.624  29.717  1.00  0.00    -0.248 NA
ATOM     31  C   UNL A   1      41.264  32.134  31.129  1.00  0.00     0.031 C 
ATOM     32  C   UNL A   1      46.561  31.170  28.280  1.00  0.00     0.029 A 
ATOM     33  C   UNL A   1      45.252  31.005  28.715  1.00  0.00     0.049 A 
ATOM     34  H   UNL A   1      43.940  29.397  28.364  1.00  0.00     0.167 HD
ATOM     35  C   UNL A   1      43.198  31.697  29.960  1.00  0.00     0.074 A 
ATOM     36  C   UNL A   1      42.462  32.612  30.814  1.00  0.00     0.031 C 
ATOM     37  C   UNL A   1      44.467  31.903  29.530  1.00  0.00     0.034 A 
BRANCH  24  38
ATOM     38  C   UNL A   1      46.933  27.363  26.099  1.00  0.00     0.023 A 
ATOM     39  C   UNL A   1      47.832  26.480  26.729  1.00  0.00     0.012 A 
ATOM     40  C   UNL A   1      47.153  27.736  24.759  1.00  0.00     0.148 A 
ATOM     41  C   UNL A   1      48.952  26.005  26.047  1.00  0.00     0.002 A 
ATOM     42  C   UNL A   1      48.245  27.223  24.072  1.00  0.00     0.091 A 
ATOM     43  F   UNL A   1      46.307  28.606  24.191  1.00  0.00    -0.205 F 
ATOM     44  C   UNL A   1      49.154  26.369  24.717  1.00  0.00     0.022 A 
BRANCH  42  45
ATOM     45  S   UNL A   1      48.548  27.579  22.337  1.00  0.00     0.127 S 
ATOM     46  O   UNL A   1      48.687  26.233  21.781  1.00  0.00    -0.237 OA
ATOM     47  O   UNL A   1      47.322  28.275  21.951  1.00  0.00    -0.237 OA
ATOM     48  O   UNL A   1      49.753  28.396  22.298  1.00  0.00    -0.744 OA
ENDBRANCH  42  45
ENDBRANCH  24  38
BRANCH  25  49
ATOM     49  C   UNL A   1      38.765  30.501  31.163  1.00  0.00     0.023 A 
ATOM     50  C   UNL A   1      38.556  30.115  32.498  1.00  0.00     0.012 A 
ATOM     51  C   UNL A   1      37.853  31.392  30.556  1.00  0.00     0.148 A 
ATOM     52  C   UNL A   1      37.462  30.606  33.216  1.00  0.00     0.002 A 
ATOM     53  C   UNL A   1      36.801  31.922  31.292  1.00  0.00     0.091 A 
ATOM     54  F   UNL A   1      38.061  31.737  29.277  1.00  0.00    -0.205 F 
ATOM     55  C   UNL A   1      36.595  31.520  32.620  1.00  0.00     0.022 A 
BRANCH  53  56
ATOM     56  S   UNL A   1      35.724  33.211  30.651  1.00  0.00     0.127 S 
ATOM     57  O   UNL A   1      34.402  32.620  30.850  1.00  0.00    -0.237 OA
ATOM     58  O   UNL A   1      36.038  34.331  31.537  1.00  0.00    -0.237 OA
ATOM     59  O   UNL A   1      36.120  33.408  29.264  1.00  0.00    -0.744 OA
ENDBRANCH  53  56
ENDBRANCH  25  49
BRANCH  37  60
ATOM     60  C   UNL A   1      45.149  33.173  29.954  1.00  0.00     0.023 A 
ATOM     61  C   UNL A   1      45.971  33.173  31.096  1.00  0.00     0.012 A 
ATOM     62  C   UNL A   1      45.109  34.305  29.118  1.00  0.00     0.148 A 
ATOM     63  C   UNL A   1      46.745  34.290  31.402  1.00  0.00     0.002 A 
ATOM     64  C   UNL A   1      45.927  35.390  29.397  1.00  0.00     0.091 A 
ATOM     65  F   UNL A   1      44.305  34.278  28.046  1.00  0.00    -0.205 F 
ATOM     66  C   UNL A   1      46.738  35.389  30.543  1.00  0.00     0.022 A 
BRANCH  64  67
ATOM     67  S   UNL A   1      46.080  36.788  28.282  1.00  0.00     0.127 S 
ATOM     68  O   UNL A   1      46.829  37.740  29.101  1.00  0.00    -0.237 OA
ATOM     69  O   UNL A   1      46.835  36.213  27.169  1.00  0.00    -0.237 OA
ATOM     70  O   UNL A   1      44.721  37.192  27.949  1.00  0.00    -0.744 OA
ENDBRANCH  64  67
ENDBRANCH  37  60
ENDBRANCH  11  12
ENDBRANCH   4   6
ENDBRANCH   3   4
ENDBRANCH   2   3
ENDBRANCH   1   2
BRANCH   1  71
ATOM     71  O   UNL A   1      34.489  22.489  26.967  1.00  0.00    -0.374 OA
BRANCH  71  72
ATOM     72  C   UNL A   1      33.791  21.235  26.943  1.00  0.00     0.202 C 
BRANCH  72  73
ATOM     73  C   UNL A   1      32.475  21.391  26.178  1.00  0.00     0.261 C 
BRANCH  73  74
ATOM     74  O   UNL A   1      32.572  22.603  25.418  1.00  0.00    -0.463 OA
BRANCH  74  75
ATOM     75  C   UNL A   1      32.775  22.405  24.084  1.00  0.00     0.310 C 
ATOM     76  O   UNL A   1      32.663  21.334  23.501  1.00  0.00    -0.252 OA
BRANCH  75  77
ATOM     77  C   UNL A   1      33.040  23.734  23.419  1.00  0.00     0.118 C 
ATOM     78  C   UNL A   1      33.132  23.577  21.897  1.00  0.00     0.019 C 
ATOM     79  C   UNL A   1      32.021  24.766  23.905  1.00  0.00     0.133 C 
ATOM     80  C   UNL A   1      33.146  24.923  21.181  1.00  0.00     0.022 C 
ATOM     81  N   UNL A   1      32.131  25.966  23.082  1.00  0.00    -0.356 N 
ATOM     82  C   UNL A   1      31.986  25.790  21.648  1.00  0.00     0.118 C 
BRANCH  81  83
ATOM     83  C   UNL A   1      31.820  27.175  23.664  1.00  0.00     0.133 A 
ATOM     84  C   UNL A   1      30.790  27.945  23.178  1.00  0.00     0.077 A 
ATOM     85  N   UNL A   1      32.589  27.592  24.683  1.00  0.00    -0.211 NA
ATOM     86  C   UNL A   1      30.584  29.177  23.766  1.00  0.00     0.095 A 
ATOM     87  C   UNL A   1      32.318  28.806  25.203  1.00  0.00     0.165 A 
ATOM     88  N   UNL A   1      31.345  29.627  24.780  1.00  0.00    -0.226 NA
BRANCH  86  89
ATOM     89  C   UNL A   1      29.521  30.060  23.275  1.00  0.00     0.089 A 
ATOM     90  C   UNL A   1      28.729  29.698  22.185  1.00  0.00     0.030 A 
ATOM     91  N   UNL A   1      29.420  31.275  23.875  1.00  0.00    -0.255 NA
ATOM     92  C   UNL A   1      27.797  30.610  21.697  1.00  0.00     0.004 A 
ATOM     93  C   UNL A   1      28.495  32.131  23.390  1.00  0.00     0.112 A 
ATOM     94  C   UNL A   1      27.676  31.850  22.310  1.00  0.00     0.020 A 
ENDBRANCH  86  89
BRANCH  87  95
ATOM     95  C   UNL A   1      33.237  29.332  26.210  1.00  0.00     0.055 A 
ATOM     96  C   UNL A   1      34.426  28.650  26.535  1.00  0.00     0.015 A 
ATOM     97  C   UNL A   1      32.992  30.550  26.853  1.00  0.00     0.134 A 
ATOM     98  C   UNL A   1      35.340  29.184  27.450  1.00  0.00     0.001 A 
ATOM     99  C   UNL A   1      33.893  31.083  27.776  1.00  0.00     0.040 A 
ATOM    100  F   UNL A   1      31.864  31.234  26.606  1.00  0.00    -0.206 F 
ATOM    101  C   UNL A   1      35.074  30.404  28.069  1.00  0.00     0.003 A 
ENDBRANCH  87  95
ENDBRANCH  81  83
ENDBRANCH  75  77
ENDBRANCH  74  75
ENDBRANCH  73  74
ENDBRANCH  72  73
ENDBRANCH  71  72
ENDBRANCH   1  71
TORSDOF 20
ENDMDL
MODEL 2
REMARK VINA RESULT:     -12.0      0.830      2.854
REMARK SMILES O=C(OCCOCCOC(=O)[C@H]1CCCN(c2cc(-c3ccccn3)nc(-c3ccccc3F)n2)C1)c1ccc(-c2c3nc(c(-c4cccc(S(=O)(=O)[O-])c4F)c4ccc([nH]4)c(-c4cccc(S(=O)(=O)[O-])c4F)c4nc(c(-c5cccc(S(=O)(=O)[O-])c5F)c5ccc2[nH]5)C=C4)C=C3)cc1
REMARK SMILES IDX 5 1 4 2 3 3 2 4 1 5 37 6 38 7 99 8 39 9 98 10 40 11 41 12
REMARK SMILES IDX 42 13 92 14 43 15 97 16 91 17 93 18 44 19 96 20 90 21 89 22
REMARK SMILES IDX 45 24 77 25 57 26 76 27 58 28 61 29 75 30 94 31 59 32 60 33
REMARK SMILES IDX 74 35 95 36 62 37 46 38 47 39 55 40 48 41 50 42 56 43 49 44
REMARK SMILES IDX 51 45 52 46 53 47 54 48 78 49 79 50 87 51 80 52 82 53 88 54
REMARK SMILES IDX 81 55 83 56 84 57 85 58 86 59 63 60 64 61 72 62 65 63 67 64
REMARK SMILES IDX 73 65 66 66 68 67 69 68 70 69 71 70 6 71 7 72 8 73 9 74
REMARK SMILES IDX 10 75 11 76 12 77 13 78 36 79 14 80 16 81 15 82 17 83 18 84
REMARK SMILES IDX 35 85 19 86 27 87 26 88 20 89 21 90 25 91 22 92 24 93 23 94
REMARK SMILES IDX 28 95 29 96 33 97 30 98 32 99 34 100 31 101
REMARK H PARENT 93 23 61 34
REMARK Flexibility Score: inf
ROOT
ATOM      1  C   UNL A   1      35.620  22.666  26.469  1.00  0.00     0.202 C 
ENDROOT
BRANCH   1   2
ATOM      2  C   UNL A   1      36.065  21.391  25.748  1.00  0.00     0.261 C 
BRANCH   2   3
ATOM      3  O   UNL A   1      37.357  21.588  25.145  1.00  0.00    -0.460 OA
BRANCH   3   4
ATOM      4  C   UNL A   1      38.576  21.505  25.728  1.00  0.00     0.338 C 
ATOM      5  O   UNL A   1      39.147  20.417  25.752  1.00  0.00    -0.246 OA
BRANCH   4   6
ATOM      6  C   UNL A   1      39.271  22.684  26.321  1.00  0.00     0.060 A 
ATOM      7  C   UNL A   1      38.936  24.009  26.045  1.00  0.00     0.016 A 
ATOM      8  C   UNL A   1      40.277  22.441  27.270  1.00  0.00     0.016 A 
ATOM      9  C   UNL A   1      39.632  25.062  26.591  1.00  0.00     0.010 A 
ATOM     10  C   UNL A   1      40.945  23.504  27.885  1.00  0.00     0.010 A 
ATOM     11  C   UNL A   1      40.633  24.817  27.520  1.00  0.00    -0.014 A 
BRANCH  11  12
ATOM     12  C   UNL A   1      41.368  25.996  27.992  1.00  0.00     0.031 A 
ATOM     13  C   UNL A   1      42.724  26.256  27.426  1.00  0.00     0.074 A 
ATOM     14  C   UNL A   1      40.714  26.900  28.743  1.00  0.00     0.049 A 
ATOM     15  N   UNL A   1      43.510  27.274  27.622  1.00  0.00    -0.248 NA
ATOM     16  C   UNL A   1      43.259  25.246  26.493  1.00  0.00     0.031 C 
ATOM     17  C   UNL A   1      39.330  26.755  29.211  1.00  0.00     0.029 A 
ATOM     18  N   UNL A   1      41.092  28.132  29.198  1.00  0.00    -0.354 N 
ATOM     19  C   UNL A   1      44.654  27.005  26.886  1.00  0.00     0.074 A 
ATOM     20  C   UNL A   1      44.455  25.740  26.218  1.00  0.00     0.031 C 
ATOM     21  C   UNL A   1      38.967  27.871  29.858  1.00  0.00     0.029 A 
ATOM     22  C   UNL A   1      40.112  28.771  29.920  1.00  0.00     0.049 A 
ATOM     23  H   UNL A   1      41.978  28.523  29.025  1.00  0.00     0.167 HD
ATOM     24  C   UNL A   1      45.771  27.756  26.792  1.00  0.00     0.034 A 
ATOM     25  C   UNL A   1      40.154  29.941  30.585  1.00  0.00     0.034 A 
ATOM     26  C   UNL A   1      45.918  29.017  27.461  1.00  0.00     0.049 A 
ATOM     27  C   UNL A   1      41.432  30.726  30.518  1.00  0.00     0.074 A 
ATOM     28  C   UNL A   1      47.012  29.859  27.478  1.00  0.00     0.029 A 
ATOM     29  N   UNL A   1      44.934  29.612  28.242  1.00  0.00    -0.354 N 
ATOM     30  N   UNL A   1      42.517  30.466  29.825  1.00  0.00    -0.248 NA
ATOM     31  C   UNL A   1      41.503  31.960  31.309  1.00  0.00     0.031 C 
ATOM     32  C   UNL A   1      46.705  30.940  28.308  1.00  0.00     0.029 A 
ATOM     33  C   UNL A   1      45.401  30.798  28.768  1.00  0.00     0.049 A 
ATOM     34  H   UNL A   1      44.036  29.239  28.398  1.00  0.00     0.167 HD
ATOM     35  C   UNL A   1      43.396  31.507  30.082  1.00  0.00     0.074 A 
ATOM     36  C   UNL A   1      42.707  32.414  30.981  1.00  0.00     0.031 C 
ATOM     37  C   UNL A   1      44.661  31.691  29.628  1.00  0.00     0.034 A 
BRANCH  24  38
ATOM     38  C   UNL A   1      46.918  27.196  26.000  1.00  0.00     0.023 A 
ATOM     39  C   UNL A   1      47.792  26.251  26.574  1.00  0.00     0.012 A 
ATOM     40  C   UNL A   1      47.132  27.623  24.675  1.00  0.00     0.148 A 
ATOM     41  C   UNL A   1      48.882  25.766  25.851  1.00  0.00     0.002 A 
ATOM     42  C   UNL A   1      48.193  27.101  23.947  1.00  0.00     0.091 A 
ATOM     43  F   UNL A   1      46.311  28.549  24.163  1.00  0.00    -0.205 F 
ATOM     44  C   UNL A   1      49.078  26.184  24.536  1.00  0.00     0.022 A 
BRANCH  42  45
ATOM     45  S   UNL A   1      48.483  27.526  22.226  1.00  0.00     0.127 S 
ATOM     46  O   UNL A   1      49.656  28.393  22.331  1.00  0.00    -0.237 OA
ATOM     47  O   UNL A   1      48.745  26.217  21.629  1.00  0.00    -0.237 OA
ATOM     48  O   UNL A   1      47.268  28.177  21.760  1.00  0.00    -0.744 OA
ENDBRANCH  42  45
ENDBRANCH  24  38
BRANCH  25  49
ATOM     49  C   UNL A   1      38.960  30.397  31.350  1.00  0.00     0.023 A 
ATOM     50  C   UNL A   1      38.682  29.848  32.614  1.00  0.00     0.012 A 
ATOM     51  C   UNL A   1      38.152  31.449  30.867  1.00  0.00     0.148 A 
ATOM     52  C   UNL A   1      37.620  30.337  33.382  1.00  0.00     0.002 A 
ATOM     53  C   UNL A   1      37.137  31.970  31.659  1.00  0.00     0.091 A 
ATOM     54  F   UNL A   1      38.424  31.950  29.653  1.00  0.00    -0.205 F 
ATOM     55  C   UNL A   1      36.860  31.406  32.913  1.00  0.00     0.022 A 
BRANCH  53  56
ATOM     56  S   UNL A   1      36.204  33.435  31.197  1.00  0.00     0.127 S 
ATOM     57  O   UNL A   1      36.319  33.415  29.740  1.00  0.00    -0.237 OA
ATOM     58  O   UNL A   1      34.872  33.118  31.714  1.00  0.00    -0.237 OA
ATOM     59  O   UNL A   1      36.859  34.552  31.862  1.00  0.00    -0.744 OA
ENDBRANCH  53  56
ENDBRANCH  25  49
BRANCH  37  60
ATOM     60  C   UNL A   1      45.389  32.927  30.076  1.00  0.00     0.023 A 
ATOM     61  C   UNL A   1      46.242  32.866  31.193  1.00  0.00     0.012 A 
ATOM     62  C   UNL A   1      45.355  34.088  29.280  1.00  0.00     0.148 A 
ATOM     63  C   UNL A   1      47.054  33.951  31.514  1.00  0.00     0.002 A 
ATOM     64  C   UNL A   1      46.209  35.141  29.573  1.00  0.00     0.091 A 
ATOM     65  F   UNL A   1      44.520  34.120  28.232  1.00  0.00    -0.205 F 
ATOM     66  C   UNL A   1      47.052  35.079  30.694  1.00  0.00     0.022 A 
BRANCH  64  67
ATOM     67  S   UNL A   1      46.368  36.574  28.503  1.00  0.00     0.127 S 
ATOM     68  O   UNL A   1      46.916  35.976  27.286  1.00  0.00    -0.237 OA
ATOM     69  O   UNL A   1      44.983  37.029  28.391  1.00  0.00    -0.237 OA
ATOM     70  O   UNL A   1      47.258  37.499  29.193  1.00  0.00    -0.744 OA
ENDBRANCH  64  67
ENDBRANCH  37  60
ENDBRANCH  11  12
ENDBRANCH   4   6
ENDBRANCH   3   4
ENDBRANCH   2   3
ENDBRANCH   1   2
BRANCH   1  71
ATOM     71  O   UNL A   1      34.226  22.764  26.781  1.00  0.00    -0.374 OA
BRANCH  71  72
ATOM     72  C   UNL A   1      33.499  21.529  26.851  1.00  0.00     0.202 C 
BRANCH  72  73
ATOM     73  C   UNL A   1      32.332  21.560  25.862  1.00  0.00     0.261 C 
BRANCH  73  74
ATOM     74  O   UNL A   1      32.478  22.752  25.077  1.00  0.00    -0.463 OA
BRANCH  74  75
ATOM     75  C   UNL A   1      33.046  22.543  23.855  1.00  0.00     0.310 C 
ATOM     76  O   UNL A   1      33.266  21.449  23.352  1.00  0.00    -0.252 OA
BRANCH  75  77
ATOM     77  C   UNL A   1      33.251  23.872  23.169  1.00  0.00     0.118 C 
ATOM     78  C   UNL A   1      33.102  23.734  21.650  1.00  0.00     0.019 C 
ATOM     79  C   UNL A   1      32.353  24.929  23.814  1.00  0.00     0.133 C 
ATOM     80  C   UNL A   1      33.052  25.088  20.951  1.00  0.00     0.022 C 
ATOM     81  N   UNL A   1      32.375  26.137  22.995  1.00  0.00    -0.356 N 
ATOM     82  C   UNL A   1      32.006  25.985  21.599  1.00  0.00     0.118 C 
BRANCH  81  83
ATOM     83  C   UNL A   1      32.198  27.346  23.629  1.00  0.00     0.133 A 
ATOM     84  C   UNL A   1      33.065  27.757  24.614  1.00  0.00     0.077 A 
ATOM     85  N   UNL A   1      31.125  28.078  23.288  1.00  0.00    -0.211 NA
ATOM     86  C   UNL A   1      32.783  28.946  25.255  1.00  0.00     0.095 A 
ATOM     87  C   UNL A   1      30.924  29.228  23.961  1.00  0.00     0.165 A 
ATOM     88  N   UNL A   1      31.710  29.696  24.943  1.00  0.00    -0.226 NA
BRANCH  86  89
ATOM     89  C   UNL A   1      33.652  29.426  26.334  1.00  0.00     0.089 A 
ATOM     90  C   UNL A   1      33.449  30.676  26.921  1.00  0.00     0.030 A 
ATOM     91  N   UNL A   1      34.708  28.635  26.658  1.00  0.00    -0.255 NA
ATOM     92  C   UNL A   1      34.356  31.128  27.875  1.00  0.00     0.004 A 
ATOM     93  C   UNL A   1      35.560  29.093  27.600  1.00  0.00     0.112 A 
ATOM     94  C   UNL A   1      35.433  30.323  28.224  1.00  0.00     0.020 A 
ENDBRANCH  86  89
BRANCH  87  95
ATOM     95  C   UNL A   1      29.685  29.958  23.701  1.00  0.00     0.055 A 
ATOM     96  C   UNL A   1      29.603  31.348  23.912  1.00  0.00     0.015 A 
ATOM     97  C   UNL A   1      28.554  29.311  23.193  1.00  0.00     0.134 A 
ATOM     98  C   UNL A   1      28.439  32.060  23.600  1.00  0.00     0.001 A 
ATOM     99  C   UNL A   1      27.385  30.012  22.891  1.00  0.00     0.040 A 
ATOM    100  F   UNL A   1      28.560  27.984  22.996  1.00  0.00    -0.206 F 
ATOM    101  C   UNL A   1      27.329  31.391  23.087  1.00  0.00     0.003 A 
ENDBRANCH  87  95
ENDBRANCH  81  83
ENDBRANCH  75  77
ENDBRANCH  74  75
ENDBRANCH  73  74
ENDBRANCH  72  73
ENDBRANCH  71  72
ENDBRANCH   1  71
TORSDOF 20
ENDMDL
MODEL 3
REMARK VINA RESULT:     -11.9      5.205     10.773
REMARK SMILES O=C(OCCOCCOC(=O)[C@H]1CCCN(c2cc(-c3ccccn3)nc(-c3ccccc3F)n2)C1)c1ccc(-c2c3nc(c(-c4cccc(S(=O)(=O)[O-])c4F)c4ccc([nH]4)c(-c4cccc(S(=O)(=O)[O-])c4F)c4nc(c(-c5cccc(S(=O)(=O)[O-])c5F)c5ccc2[nH]5)C=C4)C=C3)cc1
REMARK SMILES IDX 5 1 4 2 3 3 2 4 1 5 37 6 38 7 99 8 39 9 98 10 40 11 41 12
REMARK SMILES IDX 42 13 92 14 43 15 97 16 91 17 93 18 44 19 96 20 90 21 89 22
REMARK SMILES IDX 45 24 77 25 57 26 76 27 58 28 61 29 75 30 94 31 59 32 60 33
REMARK SMILES IDX 74 35 95 36 62 37 46 38 47 39 55 40 48 41 50 42 56 43 49 44
REMARK SMILES IDX 51 45 52 46 53 47 54 48 78 49 79 50 87 51 80 52 82 53 88 54
REMARK SMILES IDX 81 55 83 56 84 57 85 58 86 59 63 60 64 61 72 62 65 63 67 64
REMARK SMILES IDX 73 65 66 66 68 67 69 68 70 69 71 70 6 71 7 72 8 73 9 74
REMARK SMILES IDX 10 75 11 76 12 77 13 78 36 79 14 80 16 81 15 82 17 83 18 84
REMARK SMILES IDX 35 85 19 86 27 87 26 88 20 89 21 90 25 91 22 92 24 93 23 94
REMARK SMILES IDX 28 95 29 96 33 97 30 98 32 99 34 100 31 101
REMARK H PARENT 93 23 61 34
REMARK Flexibility Score: inf
ROOT
ATOM      1  C   UNL A   1      31.478  30.218  25.722  1.00  0.00     0.202 C 
ENDROOT
BRANCH   1   2
ATOM      2  C   UNL A   1      31.720  31.543  26.449  1.00  0.00     0.261 C 
BRANCH   2   3
ATOM      3  O   UNL A   1      33.132  31.772  26.605  1.00  0.00    -0.460 OA
BRANCH   3   4
ATOM      4  C   UNL A   1      33.775  32.386  27.627  1.00  0.00     0.338 C 
ATOM      5  O   UNL A   1      33.264  33.383  28.132  1.00  0.00    -0.246 OA
BRANCH   4   6
ATOM      6  C   UNL A   1      35.067  31.889  28.184  1.00  0.00     0.060 A 
ATOM      7  C   UNL A   1      35.275  30.585  28.629  1.00  0.00     0.016 A 
ATOM      8  C   UNL A   1      36.157  32.773  28.194  1.00  0.00     0.016 A 
ATOM      9  C   UNL A   1      36.476  30.186  29.169  1.00  0.00     0.010 A 
ATOM     10  C   UNL A   1      37.402  32.359  28.676  1.00  0.00     0.010 A 
ATOM     11  C   UNL A   1      37.548  31.067  29.187  1.00  0.00    -0.014 A 
BRANCH  11  12
ATOM     12  C   UNL A   1      38.764  30.578  29.847  1.00  0.00     0.031 A 
ATOM     13  C   UNL A   1      38.976  30.925  31.283  1.00  0.00     0.074 A 
ATOM     14  C   UNL A   1      39.520  29.670  29.204  1.00  0.00     0.049 A 
ATOM     15  N   UNL A   1      39.919  30.532  32.088  1.00  0.00    -0.248 NA
ATOM     16  C   UNL A   1      37.979  31.816  31.905  1.00  0.00     0.031 C 
ATOM     17  C   UNL A   1      39.274  29.191  27.839  1.00  0.00     0.029 A 
ATOM     18  N   UNL A   1      40.607  28.951  29.619  1.00  0.00    -0.354 N 
ATOM     19  C   UNL A   1      39.665  31.168  33.294  1.00  0.00     0.074 A 
ATOM     20  C   UNL A   1      38.467  31.957  33.126  1.00  0.00     0.031 C 
ATOM     21  C   UNL A   1      40.163  28.233  27.544  1.00  0.00     0.029 A 
ATOM     22  C   UNL A   1      41.087  28.089  28.662  1.00  0.00     0.049 A 
ATOM     23  H   UNL A   1      41.004  29.041  30.514  1.00  0.00     0.167 HD
ATOM     24  C   UNL A   1      40.385  31.097  34.433  1.00  0.00     0.034 A 
ATOM     25  C   UNL A   1      42.177  27.299  28.682  1.00  0.00     0.034 A 
ATOM     26  C   UNL A   1      41.562  30.285  34.559  1.00  0.00     0.049 A 
ATOM     27  C   UNL A   1      42.998  27.288  29.938  1.00  0.00     0.074 A 
ATOM     28  C   UNL A   1      42.403  30.153  35.645  1.00  0.00     0.029 A 
ATOM     29  N   UNL A   1      42.067  29.472  33.550  1.00  0.00    -0.354 N 
ATOM     30  N   UNL A   1      42.759  27.897  31.077  1.00  0.00    -0.248 NA
ATOM     31  C   UNL A   1      44.228  26.489  29.929  1.00  0.00     0.031 C 
ATOM     32  C   UNL A   1      43.443  29.295  35.277  1.00  0.00     0.029 A 
ATOM     33  C   UNL A   1      43.223  28.853  33.979  1.00  0.00     0.049 A 
ATOM     34  H   UNL A   1      41.660  29.356  32.662  1.00  0.00     0.167 HD
ATOM     35  C   UNL A   1      43.797  27.546  31.927  1.00  0.00     0.074 A 
ATOM     36  C   UNL A   1      44.659  26.653  31.174  1.00  0.00     0.031 C 
ATOM     37  C   UNL A   1      44.027  27.936  33.205  1.00  0.00     0.034 A 
BRANCH  24  38
ATOM     38  C   UNL A   1      39.952  31.963  35.581  1.00  0.00     0.023 A 
ATOM     39  C   UNL A   1      40.509  33.245  35.763  1.00  0.00     0.012 A 
ATOM     40  C   UNL A   1      38.989  31.491  36.493  1.00  0.00     0.148 A 
ATOM     41  C   UNL A   1      40.138  34.028  36.856  1.00  0.00     0.002 A 
ATOM     42  C   UNL A   1      38.591  32.295  37.552  1.00  0.00     0.091 A 
ATOM     43  F   UNL A   1      38.500  30.255  36.322  1.00  0.00    -0.205 F 
ATOM     44  C   UNL A   1      39.174  33.558  37.745  1.00  0.00     0.022 A 
BRANCH  42  45
ATOM     45  S   UNL A   1      37.306  31.804  38.707  1.00  0.00     0.127 S 
ATOM     46  O   UNL A   1      37.073  30.415  38.315  1.00  0.00    -0.237 OA
ATOM     47  O   UNL A   1      37.976  31.970  39.996  1.00  0.00    -0.237 OA
ATOM     48  O   UNL A   1      36.190  32.710  38.479  1.00  0.00    -0.744 OA
ENDBRANCH  42  45
ENDBRANCH  24  38
BRANCH  25  49
ATOM     49  C   UNL A   1      42.521  26.489  27.479  1.00  0.00     0.023 A 
ATOM     50  C   UNL A   1      42.917  27.126  26.290  1.00  0.00     0.012 A 
ATOM     51  C   UNL A   1      42.552  25.079  27.545  1.00  0.00     0.148 A 
ATOM     52  C   UNL A   1      43.335  26.374  25.188  1.00  0.00     0.002 A 
ATOM     53  C   UNL A   1      43.024  24.341  26.467  1.00  0.00     0.091 A 
ATOM     54  F   UNL A   1      42.157  24.489  28.682  1.00  0.00    -0.205 F 
ATOM     55  C   UNL A   1      43.404  24.986  25.281  1.00  0.00     0.022 A 
BRANCH  53  56
ATOM     56  S   UNL A   1      43.282  22.563  26.550  1.00  0.00     0.127 S 
ATOM     57  O   UNL A   1      42.518  22.207  27.744  1.00  0.00    -0.237 OA
ATOM     58  O   UNL A   1      42.695  22.116  25.287  1.00  0.00    -0.237 OA
ATOM     59  O   UNL A   1      44.722  22.373  26.647  1.00  0.00    -0.744 OA
ENDBRANCH  53  56
ENDBRANCH  25  49
BRANCH  37  60
ATOM     60  C   UNL A   1      45.247  27.391  33.891  1.00  0.00     0.023 A 
ATOM     61  C   UNL A   1      46.431  28.151  33.914  1.00  0.00     0.012 A 
ATOM     62  C   UNL A   1      45.155  26.212  34.656  1.00  0.00     0.148 A 
ATOM     63  C   UNL A   1      47.513  27.741  34.690  1.00  0.00     0.002 A 
ATOM     64  C   UNL A   1      46.214  25.842  35.472  1.00  0.00     0.091 A 
ATOM     65  F   UNL A   1      44.018  25.503  34.602  1.00  0.00    -0.205 F 
ATOM     66  C   UNL A   1      47.397  26.599  35.483  1.00  0.00     0.022 A 
BRANCH  64  67
ATOM     67  S   UNL A   1      46.107  24.467  36.620  1.00  0.00     0.127 S 
ATOM     68  O   UNL A   1      44.930  24.829  37.409  1.00  0.00    -0.237 OA
ATOM     69  O   UNL A   1      45.915  23.330  35.721  1.00  0.00    -0.237 OA
ATOM     70  O   UNL A   1      47.365  24.454  37.355  1.00  0.00    -0.744 OA
ENDBRANCH  64  67
ENDBRANCH  37  60
ENDBRANCH  11  12
ENDBRANCH   4   6
ENDBRANCH   3   4
ENDBRANCH   2   3
ENDBRANCH   1   2
BRANCH   1  71
ATOM     71  O   UNL A   1      30.508  30.240  24.670  1.00  0.00    -0.374 OA
BRANCH  71  72
ATOM     72  C   UNL A   1      30.690  29.287  23.613  1.00  0.00     0.202 C 
BRANCH  72  73
ATOM     73  C   UNL A   1      31.318  28.009  24.172  1.00  0.00     0.261 C 
BRANCH  73  74
ATOM     74  O   UNL A   1      30.257  27.237  24.750  1.00  0.00    -0.463 OA
BRANCH  74  75
ATOM     75  C   UNL A   1      30.667  26.374  25.723  1.00  0.00     0.310 C 
ATOM     76  O   UNL A   1      30.822  26.658  26.904  1.00  0.00    -0.252 OA
BRANCH  75  77
ATOM     77  C   UNL A   1      30.784  24.987  25.139  1.00  0.00     0.118 C 
ATOM     78  C   UNL A   1      30.103  24.909  23.768  1.00  0.00     0.019 C 
ATOM     79  C   UNL A   1      32.246  24.539  25.163  1.00  0.00     0.133 C 
ATOM     80  C   UNL A   1      30.417  23.606  23.043  1.00  0.00     0.022 C 
ATOM     81  N   UNL A   1      32.381  23.314  24.381  1.00  0.00    -0.356 N 
ATOM     82  C   UNL A   1      31.920  23.363  23.005  1.00  0.00     0.118 C 
BRANCH  81  83
ATOM     83  C   UNL A   1      33.365  22.424  24.748  1.00  0.00     0.133 A 
ATOM     84  C   UNL A   1      34.607  22.869  25.137  1.00  0.00     0.077 A 
ATOM     85  N   UNL A   1      33.085  21.113  24.661  1.00  0.00    -0.211 NA
ATOM     86  C   UNL A   1      35.565  21.917  25.420  1.00  0.00     0.095 A 
ATOM     87  C   UNL A   1      34.076  20.250  24.959  1.00  0.00     0.165 A 
ATOM     88  N   UNL A   1      35.317  20.597  25.332  1.00  0.00    -0.226 NA
BRANCH  86  89
ATOM     89  C   UNL A   1      36.917  22.325  25.812  1.00  0.00     0.089 A 
ATOM     90  C   UNL A   1      37.199  23.646  26.163  1.00  0.00     0.030 A 
ATOM     91  N   UNL A   1      37.886  21.376  25.721  1.00  0.00    -0.255 NA
ATOM     92  C   UNL A   1      38.516  24.006  26.435  1.00  0.00     0.004 A 
ATOM     93  C   UNL A   1      39.151  21.751  26.008  1.00  0.00     0.112 A 
ATOM     94  C   UNL A   1      39.513  23.041  26.358  1.00  0.00     0.020 A 
ENDBRANCH  86  89
BRANCH  87  95
ATOM     95  C   UNL A   1      33.828  18.828  24.728  1.00  0.00     0.055 A 
ATOM     96  C   UNL A   1      34.386  18.165  23.617  1.00  0.00     0.015 A 
ATOM     97  C   UNL A   1      33.068  18.068  25.622  1.00  0.00     0.134 A 
ATOM     98  C   UNL A   1      34.206  16.790  23.429  1.00  0.00     0.001 A 
ATOM     99  C   UNL A   1      32.874  16.698  25.435  1.00  0.00     0.040 A 
ATOM    100  F   UNL A   1      32.489  18.646  26.686  1.00  0.00    -0.206 F 
ATOM    101  C   UNL A   1      33.450  16.055  24.341  1.00  0.00     0.003 A 
ENDBRANCH  87  95
ENDBRANCH  81  83
ENDBRANCH  75  77
ENDBRANCH  74  75
ENDBRANCH  73  74
ENDBRANCH  72  73
ENDBRANCH  71  72
ENDBRANCH   1  71
TORSDOF 20
ENDMDL
