MODEL 1
REMARK VINA RESULT:     -10.1      0.000      0.000
REMARK SMILES Cc1ccc(NC(=O)C[C@@H](C(=O)OCCOCCOC(=O)c2ccc(-c3c4nc(c(-c5cccc(S(=O)(=O)[O-])c5F)c5ccc([nH]5)c(-c5cccc(S(=O)(=O)[O-])c5F)c5nc(c(-c6cccc(S(=O)(=O)[O-])c6F)c6ccc3[nH]6)C=C5)C=C4)cc2)[NH+]2CCOCC2)cc1
REMARK SMILES IDX 16 1 15 2 14 3 13 4 11 5 12 6 10 7 9 8 7 9 6 10 8 12 5 13
REMARK SMILES IDX 1 14 2 15 3 16 92 17 4 18 91 19 85 20 86 21 90 22 87 24
REMARK SMILES IDX 89 25 88 26 17 27 18 28 19 29 20 30 21 31 22 32 23 33 84 34
REMARK SMILES IDX 24 35 83 36 25 37 26 38 27 39 77 40 28 41 82 42 76 43 78 44
REMARK SMILES IDX 29 45 81 46 75 47 74 48 30 50 62 51 42 52 61 53 43 54 46 55
REMARK SMILES IDX 60 56 79 57 44 58 45 59 59 61 80 62 47 63 31 64 32 65 40 66
REMARK SMILES IDX 33 67 35 68 41 69 34 70 36 71 37 72 38 73 39 74 63 75 64 76
REMARK SMILES IDX 72 77 65 78 67 79 73 80 66 81 68 82 69 83 70 84 71 85 48 86
REMARK SMILES IDX 49 87 57 88 50 89 52 90 58 91 51 92 53 93 54 94 55 95 56 96
REMARK H PARENT 6 11 85 23 78 49 46 60
REMARK Flexibility Score: inf
ROOT
ATOM      1  O   UNL A   1      35.435  31.361  28.443  1.00  0.00    -0.374 OA
ENDROOT
BRANCH   1   2
ATOM      2  C   UNL A   1      34.322  30.732  27.539  1.00  0.00     0.202 C 
BRANCH   2   3
ATOM      3  C   UNL A   1      33.575  28.566  27.365  1.00  0.00     0.261 C 
BRANCH   3   4
ATOM      4  O   UNL A   1      32.390  27.951  26.735  1.00  0.00    -0.459 OA
BRANCH   4   5
ATOM      5  C   UNL A   1      31.752  28.328  25.650  1.00  0.00     0.365 C 
ATOM      6  O   UNL A   1      31.555  29.476  25.297  1.00  0.00    -0.245 OA
BRANCH   5   7
ATOM      7  C   UNL A   1      31.429  27.079  24.850  1.00  0.00     0.304 C 
BRANCH   7   8
ATOM      8  C   UNL A   1      31.560  25.776  25.736  1.00  0.00     0.177 C 
BRANCH   8   9
ATOM      9  C   UNL A   1      30.305  24.953  26.130  1.00  0.00     0.231 C 
ATOM     10  N   UNL A   1      30.222  23.568  26.023  1.00  0.00    -0.326 N 
ATOM     11  H   UNL A   1      29.317  23.193  25.931  1.00  0.00     0.169 HD
ATOM     12  O   UNL A   1      29.307  25.546  26.562  1.00  0.00    -0.274 OA
BRANCH  10  13
ATOM     13  C   UNL A   1      31.302  22.622  26.030  1.00  0.00     0.041 A 
ATOM     14  C   UNL A   1      36.583  20.371  25.014  1.00  0.00     0.044 C 
ATOM     15  C   UNL A   1      35.363  21.181  25.521  1.00  0.00    -0.051 A 
ATOM     16  C   UNL A   1      33.934  21.003  24.170  1.00  0.00     0.005 A 
ATOM     17  C   UNL A   1      34.546  22.066  27.287  1.00  0.00     0.005 A 
ATOM     18  C   UNL A   1      32.179  21.881  24.429  1.00  0.00     0.026 A 
ATOM     19  C   UNL A   1      32.646  22.567  27.565  1.00  0.00     0.026 A 
ENDBRANCH  10  13
ENDBRANCH   8   9
ENDBRANCH   7   8
BRANCH   7  20
ATOM     20  N   UNL A   1      32.347  27.217  23.713  1.00  0.00    -0.319 N 
ATOM     21  C   UNL A   1      31.715  27.263  22.376  1.00  0.00     0.291 C 
ATOM     22  C   UNL A   1      33.693  26.716  23.678  1.00  0.00     0.291 C 
ATOM     23  H   UNL A   1      32.606  28.141  24.058  1.00  0.00     0.348 HD
ATOM     24  C   UNL A   1      31.805  25.915  21.687  1.00  0.00     0.221 C 
ATOM     25  C   UNL A   1      33.785  25.416  22.879  1.00  0.00     0.221 C 
ATOM     26  O   UNL A   1      33.170  25.497  21.584  1.00  0.00    -0.370 OA
ENDBRANCH   7  20
ENDBRANCH   5   7
ENDBRANCH   4   5
ENDBRANCH   3   4
ENDBRANCH   2   3
ENDBRANCH   1   2
BRANCH   1  27
ATOM     27  C   UNL A   1      36.762  30.991  28.296  1.00  0.00     0.202 C 
BRANCH  27  28
ATOM     28  C   UNL A   1      36.859  29.790  29.158  1.00  0.00     0.261 C 
BRANCH  28  29
ATOM     29  O   UNL A   1      37.674  30.074  30.354  1.00  0.00    -0.460 OA
BRANCH  29  30
ATOM     30  C   UNL A   1      37.613  29.849  31.717  1.00  0.00     0.338 C 
ATOM     31  O   UNL A   1      36.443  29.795  32.127  1.00  0.00    -0.246 OA
BRANCH  30  32
ATOM     32  C   UNL A   1      38.723  29.778  32.918  1.00  0.00     0.060 A 
ATOM     33  C   UNL A   1      39.871  28.448  32.441  1.00  0.00     0.016 A 
ATOM     34  C   UNL A   1      39.215  30.351  34.809  1.00  0.00     0.016 A 
ATOM     35  C   UNL A   1      41.140  27.915  33.583  1.00  0.00     0.010 A 
ATOM     36  C   UNL A   1      40.679  29.700  35.570  1.00  0.00     0.010 A 
ATOM     37  C   UNL A   1      41.436  28.519  35.133  1.00  0.00    -0.014 A 
BRANCH  37  38
ATOM     38  C   UNL A   1      42.351  28.441  36.377  1.00  0.00     0.031 A 
ATOM     39  C   UNL A   1      42.776  27.049  36.731  1.00  0.00     0.074 A 
ATOM     40  C   UNL A   1      43.329  29.460  36.475  1.00  0.00     0.049 A 
ATOM     41  N   UNL A   1      43.228  26.626  37.864  1.00  0.00    -0.248 NA
ATOM     42  C   UNL A   1      42.693  25.971  35.736  1.00  0.00     0.031 C 
ATOM     43  C   UNL A   1      44.833  29.392  36.494  1.00  0.00     0.029 A 
ATOM     44  N   UNL A   1      43.226  30.791  35.994  1.00  0.00    -0.354 N 
ATOM     45  C   UNL A   1      43.799  25.381  37.592  1.00  0.00     0.074 A 
ATOM     46  C   UNL A   1      43.179  24.912  36.379  1.00  0.00     0.031 C 
ATOM     47  C   UNL A   1      45.390  30.638  36.427  1.00  0.00     0.029 A 
ATOM     48  C   UNL A   1      44.306  31.614  36.342  1.00  0.00     0.049 A 
ATOM     49  H   UNL A   1      42.463  31.109  35.460  1.00  0.00     0.167 HD
ATOM     50  C   UNL A   1      45.091  25.097  37.945  1.00  0.00     0.034 A 
ATOM     51  C   UNL A   1      44.034  32.707  37.099  1.00  0.00     0.034 A 
ATOM     52  C   UNL A   1      45.818  26.341  38.310  1.00  0.00     0.049 A 
ATOM     53  C   UNL A   1      44.276  32.191  38.494  1.00  0.00     0.074 A 
ATOM     54  C   UNL A   1      46.940  26.997  37.826  1.00  0.00     0.029 A 
ATOM     55  N   UNL A   1      45.212  27.255  39.173  1.00  0.00    -0.354 N 
ATOM     56  N   UNL A   1      44.426  30.916  38.729  1.00  0.00    -0.248 NA
ATOM     57  C   UNL A   1      44.615  32.993  39.655  1.00  0.00     0.031 C 
ATOM     58  C   UNL A   1      47.005  28.293  38.449  1.00  0.00     0.029 A 
ATOM     59  C   UNL A   1      45.895  28.455  39.275  1.00  0.00     0.049 A 
ATOM     60  H   UNL A   1      44.378  27.066  39.663  1.00  0.00     0.167 HD
ATOM     61  C   UNL A   1      45.056  30.702  39.892  1.00  0.00     0.074 A 
ATOM     62  C   UNL A   1      45.083  32.037  40.485  1.00  0.00     0.031 C 
ATOM     63  C   UNL A   1      45.468  29.456  40.271  1.00  0.00     0.034 A 
BRANCH  50  64
ATOM     64  C   UNL A   1      45.768  23.727  37.727  1.00  0.00     0.023 A 
ATOM     65  C   UNL A   1      46.494  23.546  36.527  1.00  0.00     0.012 A 
ATOM     66  C   UNL A   1      45.870  22.654  38.665  1.00  0.00     0.148 A 
ATOM     67  C   UNL A   1      47.248  22.394  36.254  1.00  0.00     0.002 A 
ATOM     68  C   UNL A   1      46.593  21.481  38.373  1.00  0.00     0.091 A 
ATOM     69  F   UNL A   1      45.329  22.780  39.883  1.00  0.00    -0.205 F 
ATOM     70  C   UNL A   1      47.292  21.358  37.170  1.00  0.00     0.022 A 
BRANCH  68  71
ATOM     71  S   UNL A   1      46.678  20.053  39.482  1.00  0.00     0.127 S 
ATOM     72  O   UNL A   1      45.711  19.131  38.878  1.00  0.00    -0.237 OA
ATOM     73  O   UNL A   1      48.071  19.629  39.350  1.00  0.00    -0.237 OA
ATOM     74  O   UNL A   1      46.286  20.537  40.799  1.00  0.00    -0.744 OA
ENDBRANCH  68  71
ENDBRANCH  50  64
BRANCH  51  75
ATOM     75  C   UNL A   1      42.881  33.485  36.503  1.00  0.00     0.023 A 
ATOM     76  C   UNL A   1      42.904  33.728  35.095  1.00  0.00     0.012 A 
ATOM     77  C   UNL A   1      41.634  33.576  37.153  1.00  0.00     0.148 A 
ATOM     78  C   UNL A   1      41.737  34.019  34.369  1.00  0.00     0.002 A 
ATOM     79  C   UNL A   1      40.466  33.783  36.409  1.00  0.00     0.091 A 
ATOM     80  F   UNL A   1      41.588  33.372  38.475  1.00  0.00    -0.205 F 
ATOM     81  C   UNL A   1      40.514  34.031  35.027  1.00  0.00     0.022 A 
BRANCH  79  82
ATOM     82  S   UNL A   1      38.838  33.491  37.131  1.00  0.00     0.127 S 
ATOM     83  O   UNL A   1      38.709  34.626  38.039  1.00  0.00    -0.237 OA
ATOM     84  O   UNL A   1      37.965  33.548  35.954  1.00  0.00    -0.237 OA
ATOM     85  O   UNL A   1      38.921  32.173  37.738  1.00  0.00    -0.744 OA
ENDBRANCH  79  82
ENDBRANCH  51  75
BRANCH  63  86
ATOM     86  C   UNL A   1      45.392  29.058  41.716  1.00  0.00     0.023 A 
ATOM     87  C   UNL A   1      44.179  28.623  42.280  1.00  0.00     0.012 A 
ATOM     88  C   UNL A   1      46.560  28.903  42.497  1.00  0.00     0.148 A 
ATOM     89  C   UNL A   1      44.094  28.184  43.592  1.00  0.00     0.002 A 
ATOM     90  C   UNL A   1      46.492  28.308  43.742  1.00  0.00     0.091 A 
ATOM     91  F   UNL A   1      47.745  29.340  42.052  1.00  0.00    -0.205 F 
ATOM     92  C   UNL A   1      45.257  28.003  44.317  1.00  0.00     0.022 A 
BRANCH  90  93
ATOM     93  S   UNL A   1      47.967  27.784  44.612  1.00  0.00     0.127 S 
ATOM     94  O   UNL A   1      47.393  26.973  45.683  1.00  0.00    -0.237 OA
ATOM     95  O   UNL A   1      48.672  27.028  43.577  1.00  0.00    -0.237 OA
ATOM     96  O   UNL A   1      48.641  29.005  45.031  1.00  0.00    -0.744 OA
ENDBRANCH  90  93
ENDBRANCH  63  86
ENDBRANCH  37  38
ENDBRANCH  30  32
ENDBRANCH  29  30
ENDBRANCH  28  29
ENDBRANCH  27  28
ENDBRANCH   1  27
TORSDOF 21
ENDMDL
MODEL 2
REMARK VINA RESULT:      -9.9      9.067     16.000
REMARK SMILES Cc1ccc(NC(=O)C[C@@H](C(=O)OCCOCCOC(=O)c2ccc(-c3c4nc(c(-c5cccc(S(=O)(=O)[O-])c5F)c5ccc([nH]5)c(-c5cccc(S(=O)(=O)[O-])c5F)c5nc(c(-c6cccc(S(=O)(=O)[O-])c6F)c6ccc3[nH]6)C=C5)C=C4)cc2)[NH+]2CCOCC2)cc1
REMARK SMILES IDX 16 1 15 2 14 3 13 4 11 5 12 6 10 7 9 8 7 9 6 10 8 12 5 13
REMARK SMILES IDX 1 14 2 15 3 16 92 17 4 18 91 19 85 20 86 21 90 22 87 24
REMARK SMILES IDX 89 25 88 26 17 27 18 28 19 29 20 30 21 31 22 32 23 33 84 34
REMARK SMILES IDX 24 35 83 36 25 37 26 38 27 39 77 40 28 41 82 42 76 43 78 44
REMARK SMILES IDX 29 45 81 46 75 47 74 48 30 50 62 51 42 52 61 53 43 54 46 55
REMARK SMILES IDX 60 56 79 57 44 58 45 59 59 61 80 62 47 63 31 64 32 65 40 66
REMARK SMILES IDX 33 67 35 68 41 69 34 70 36 71 37 72 38 73 39 74 63 75 64 76
REMARK SMILES IDX 72 77 65 78 67 79 73 80 66 81 68 82 69 83 70 84 71 85 48 86
REMARK SMILES IDX 49 87 57 88 50 89 52 90 58 91 51 92 53 93 54 94 55 95 56 96
REMARK H PARENT 6 11 85 23 78 49 46 60
REMARK Flexibility Score: inf
ROOT
ATOM      1  O   UNL A   1      44.654  40.288  25.746  1.00  0.00    -0.374 OA
ENDROOT
BRANCH   1   2
ATOM      2  C   UNL A   1      45.303  41.701  25.564  1.00  0.00     0.202 C 
BRANCH   2   3
ATOM      3  C   UNL A   1      45.036  43.641  26.766  1.00  0.00     0.261 C 
BRANCH   3   4
ATOM      4  O   UNL A   1      44.681  43.921  28.171  1.00  0.00    -0.459 OA
BRANCH   4   5
ATOM      5  C   UNL A   1      45.216  43.426  29.264  1.00  0.00     0.365 C 
ATOM      6  O   UNL A   1      46.333  42.950  29.364  1.00  0.00    -0.245 OA
BRANCH   5   7
ATOM      7  C   UNL A   1      44.248  43.681  30.405  1.00  0.00     0.304 C 
BRANCH   7   8
ATOM      8  C   UNL A   1      45.001  44.190  31.698  1.00  0.00     0.177 C 
BRANCH   8   9
ATOM      9  C   UNL A   1      44.240  44.968  32.805  1.00  0.00     0.231 C 
ATOM     10  N   UNL A   1      44.678  45.066  34.123  1.00  0.00    -0.326 N 
ATOM     11  H   UNL A   1      43.984  45.235  34.800  1.00  0.00     0.169 HD
ATOM     12  O   UNL A   1      43.177  45.536  32.521  1.00  0.00    -0.274 OA
BRANCH  10  13
ATOM     13  C   UNL A   1      46.024  44.950  34.610  1.00  0.00     0.041 A 
ATOM     14  C   UNL A   1      50.416  44.380  38.402  1.00  0.00     0.044 C 
ATOM     15  C   UNL A   1      49.187  44.180  37.479  1.00  0.00    -0.051 A 
ATOM     16  C   UNL A   1      48.462  45.969  37.064  1.00  0.00     0.005 A 
ATOM     17  C   UNL A   1      48.257  42.739  36.202  1.00  0.00     0.005 A 
ATOM     18  C   UNL A   1      46.880  46.176  35.893  1.00  0.00     0.026 A 
ATOM     19  C   UNL A   1      46.932  43.129  34.779  1.00  0.00     0.026 A 
ENDBRANCH  10  13
ENDBRANCH   8   9
ENDBRANCH   7   8
BRANCH   7  20
ATOM     20  N   UNL A   1      43.556  42.389  30.492  1.00  0.00    -0.319 N 
ATOM     21  C   UNL A   1      42.223  42.413  31.132  1.00  0.00     0.291 C 
ATOM     22  C   UNL A   1      44.209  41.114  30.606  1.00  0.00     0.291 C 
ATOM     23  H   UNL A   1      43.503  42.369  29.474  1.00  0.00     0.348 HD
ATOM     24  C   UNL A   1      42.304  41.939  32.572  1.00  0.00     0.221 C 
ATOM     25  C   UNL A   1      44.178  40.597  32.045  1.00  0.00     0.221 C 
ATOM     26  O   UNL A   1      42.870  40.626  32.634  1.00  0.00    -0.370 OA
ENDBRANCH   7  20
ENDBRANCH   5   7
ENDBRANCH   4   5
ENDBRANCH   3   4
ENDBRANCH   2   3
ENDBRANCH   1   2
BRANCH   1  27
ATOM     27  C   UNL A   1      44.612  39.681  26.991  1.00  0.00     0.202 C 
BRANCH  27  28
ATOM     28  C   UNL A   1      45.518  38.523  26.815  1.00  0.00     0.261 C 
BRANCH  28  29
ATOM     29  O   UNL A   1      44.875  37.284  27.292  1.00  0.00    -0.460 OA
BRANCH  29  30
ATOM     30  C   UNL A   1      43.909  36.394  26.859  1.00  0.00     0.338 C 
ATOM     31  O   UNL A   1      42.859  36.970  26.534  1.00  0.00    -0.246 OA
BRANCH  30  32
ATOM     32  C   UNL A   1      43.792  34.762  26.811  1.00  0.00     0.060 A 
ATOM     33  C   UNL A   1      43.687  34.231  28.549  1.00  0.00     0.016 A 
ATOM     34  C   UNL A   1      43.970  33.081  25.676  1.00  0.00     0.016 A 
ATOM     35  C   UNL A   1      43.733  32.489  28.953  1.00  0.00     0.010 A 
ATOM     36  C   UNL A   1      43.797  31.487  26.435  1.00  0.00     0.010 A 
ATOM     37  C   UNL A   1      43.864  31.196  27.874  1.00  0.00    -0.014 A 
BRANCH  37  38
ATOM     38  C   UNL A   1      43.893  29.657  27.728  1.00  0.00     0.031 A 
ATOM     39  C   UNL A   1      45.259  29.099  27.467  1.00  0.00     0.074 A 
ATOM     40  C   UNL A   1      43.067  28.946  28.631  1.00  0.00     0.049 A 
ATOM     41  N   UNL A   1      45.559  27.947  26.968  1.00  0.00    -0.248 NA
ATOM     42  C   UNL A   1      46.457  29.893  27.774  1.00  0.00     0.031 C 
ATOM     43  C   UNL A   1      43.403  27.938  29.698  1.00  0.00     0.029 A 
ATOM     44  N   UNL A   1      41.841  29.386  29.194  1.00  0.00    -0.354 N 
ATOM     45  C   UNL A   1      46.914  27.764  27.248  1.00  0.00     0.074 A 
ATOM     46  C   UNL A   1      47.462  29.080  27.455  1.00  0.00     0.031 C 
ATOM     47  C   UNL A   1      42.308  27.631  30.456  1.00  0.00     0.029 A 
ATOM     48  C   UNL A   1      41.180  28.418  29.962  1.00  0.00     0.049 A 
ATOM     49  H   UNL A   1      41.485  30.293  29.056  1.00  0.00     0.167 HD
ATOM     50  C   UNL A   1      47.363  26.644  27.894  1.00  0.00     0.034 A 
ATOM     51  C   UNL A   1      39.944  28.038  29.553  1.00  0.00     0.034 A 
ATOM     52  C   UNL A   1      46.228  25.899  28.501  1.00  0.00     0.049 A 
ATOM     53  C   UNL A   1      40.250  26.827  28.711  1.00  0.00     0.074 A 
ATOM     54  C   UNL A   1      45.878  25.527  29.790  1.00  0.00     0.029 A 
ATOM     55  N   UNL A   1      45.086  25.659  27.734  1.00  0.00    -0.354 N 
ATOM     56  N   UNL A   1      41.473  26.541  28.354  1.00  0.00    -0.248 NA
ATOM     57  C   UNL A   1      39.338  25.737  28.416  1.00  0.00     0.031 C 
ATOM     58  C   UNL A   1      44.529  25.027  29.761  1.00  0.00     0.029 A 
ATOM     59  C   UNL A   1      44.031  25.141  28.465  1.00  0.00     0.049 A 
ATOM     60  H   UNL A   1      45.036  25.840  26.768  1.00  0.00     0.167 HD
ATOM     61  C   UNL A   1      41.598  25.249  28.018  1.00  0.00     0.074 A 
ATOM     62  C   UNL A   1      40.208  24.797  27.991  1.00  0.00     0.031 C 
ATOM     63  C   UNL A   1      42.815  24.683  27.767  1.00  0.00     0.034 A 
BRANCH  50  64
ATOM     64  C   UNL A   1      48.850  26.349  28.188  1.00  0.00     0.023 A 
ATOM     65  C   UNL A   1      49.641  25.872  27.117  1.00  0.00     0.012 A 
ATOM     66  C   UNL A   1      49.567  26.637  29.390  1.00  0.00     0.148 A 
ATOM     67  C   UNL A   1      51.026  25.672  27.218  1.00  0.00     0.002 A 
ATOM     68  C   UNL A   1      50.950  26.398  29.504  1.00  0.00     0.091 A 
ATOM     69  F   UNL A   1      48.936  27.215  30.419  1.00  0.00    -0.205 F 
ATOM     70  C   UNL A   1      51.681  25.925  28.411  1.00  0.00     0.022 A 
BRANCH  68  71
ATOM     71  S   UNL A   1      51.891  26.654  31.028  1.00  0.00     0.127 S 
ATOM     72  O   UNL A   1      53.277  26.592  30.553  1.00  0.00    -0.237 OA
ATOM     73  O   UNL A   1      51.463  27.986  31.448  1.00  0.00    -0.237 OA
ATOM     74  O   UNL A   1      51.525  25.561  31.920  1.00  0.00    -0.744 OA
ENDBRANCH  68  71
ENDBRANCH  50  64
BRANCH  51  75
ATOM     75  C   UNL A   1      39.082  29.253  29.286  1.00  0.00     0.023 A 
ATOM     76  C   UNL A   1      38.447  29.346  28.009  1.00  0.00     0.012 A 
ATOM     77  C   UNL A   1      38.536  30.019  30.335  1.00  0.00     0.148 A 
ATOM     78  C   UNL A   1      37.307  30.142  27.799  1.00  0.00     0.002 A 
ATOM     79  C   UNL A   1      37.354  30.743  30.137  1.00  0.00     0.091 A 
ATOM     80  F   UNL A   1      39.123  29.965  31.536  1.00  0.00    -0.205 F 
ATOM     81  C   UNL A   1      36.753  30.830  28.870  1.00  0.00     0.022 A 
BRANCH  79  82
ATOM     82  S   UNL A   1      36.409  31.383  31.535  1.00  0.00     0.127 S 
ATOM     83  O   UNL A   1      35.213  31.895  30.875  1.00  0.00    -0.237 OA
ATOM     84  O   UNL A   1      36.195  30.177  32.340  1.00  0.00    -0.237 OA
ATOM     85  O   UNL A   1      37.278  32.364  32.166  1.00  0.00    -0.744 OA
ENDBRANCH  79  82
ENDBRANCH  51  75
BRANCH  63  86
ATOM     86  C   UNL A   1      42.941  23.645  26.691  1.00  0.00     0.023 A 
ATOM     87  C   UNL A   1      43.847  23.816  25.628  1.00  0.00     0.012 A 
ATOM     88  C   UNL A   1      42.322  22.381  26.814  1.00  0.00     0.148 A 
ATOM     89  C   UNL A   1      44.035  22.843  24.659  1.00  0.00     0.002 A 
ATOM     90  C   UNL A   1      42.642  21.358  25.941  1.00  0.00     0.091 A 
ATOM     91  F   UNL A   1      41.409  22.155  27.768  1.00  0.00    -0.205 F 
ATOM     92  C   UNL A   1      43.450  21.603  24.829  1.00  0.00     0.022 A 
BRANCH  90  93
ATOM     93  S   UNL A   1      42.152  19.666  26.259  1.00  0.00     0.127 S 
ATOM     94  O   UNL A   1      40.726  19.718  25.945  1.00  0.00    -0.237 OA
ATOM     95  O   UNL A   1      42.969  18.932  25.292  1.00  0.00    -0.237 OA
ATOM     96  O   UNL A   1      42.488  19.406  27.652  1.00  0.00    -0.744 OA
ENDBRANCH  90  93
ENDBRANCH  63  86
ENDBRANCH  37  38
ENDBRANCH  30  32
ENDBRANCH  29  30
ENDBRANCH  28  29
ENDBRANCH  27  28
ENDBRANCH   1  27
TORSDOF 21
ENDMDL
MODEL 3
REMARK VINA RESULT:      -9.8      4.624     10.080
REMARK SMILES Cc1ccc(NC(=O)C[C@@H](C(=O)OCCOCCOC(=O)c2ccc(-c3c4nc(c(-c5cccc(S(=O)(=O)[O-])c5F)c5ccc([nH]5)c(-c5cccc(S(=O)(=O)[O-])c5F)c5nc(c(-c6cccc(S(=O)(=O)[O-])c6F)c6ccc3[nH]6)C=C5)C=C4)cc2)[NH+]2CCOCC2)cc1
REMARK SMILES IDX 16 1 15 2 14 3 13 4 11 5 12 6 10 7 9 8 7 9 6 10 8 12 5 13
REMARK SMILES IDX 1 14 2 15 3 16 92 17 4 18 91 19 85 20 86 21 90 22 87 24
REMARK SMILES IDX 89 25 88 26 17 27 18 28 19 29 20 30 21 31 22 32 23 33 84 34
REMARK SMILES IDX 24 35 83 36 25 37 26 38 27 39 77 40 28 41 82 42 76 43 78 44
REMARK SMILES IDX 29 45 81 46 75 47 74 48 30 50 62 51 42 52 61 53 43 54 46 55
REMARK SMILES IDX 60 56 79 57 44 58 45 59 59 61 80 62 47 63 31 64 32 65 40 66
REMARK SMILES IDX 33 67 35 68 41 69 34 70 36 71 37 72 38 73 39 74 63 75 64 76
REMARK SMILES IDX 72 77 65 78 67 79 73 80 66 81 68 82 69 83 70 84 71 85 48 86
REMARK SMILES IDX 49 87 57 88 50 89 52 90 58 91 51 92 53 93 54 94 55 95 56 96
REMARK H PARENT 6 11 85 23 78 49 46 60
REMARK Flexibility Score: inf
ROOT
ATOM      1  O   UNL A   1      40.117  21.817  26.675  1.00  0.00    -0.374 OA
ENDROOT
BRANCH   1   2
ATOM      2  C   UNL A   1      38.728  22.331  26.164  1.00  0.00     0.202 C 
BRANCH   2   3
ATOM      3  C   UNL A   1      37.175  21.342  24.790  1.00  0.00     0.261 C 
BRANCH   3   4
ATOM      4  O   UNL A   1      35.821  21.730  24.348  1.00  0.00    -0.459 OA
BRANCH   4   5
ATOM      5  C   UNL A   1      34.688  21.087  24.522  1.00  0.00     0.365 C 
ATOM      6  O   UNL A   1      34.569  19.920  24.847  1.00  0.00    -0.245 OA
BRANCH   5   7
ATOM      7  C   UNL A   1      33.562  22.095  24.380  1.00  0.00     0.304 C 
BRANCH   7   8
ATOM      8  C   UNL A   1      34.095  23.485  23.850  1.00  0.00     0.177 C 
BRANCH   8   9
ATOM      9  C   UNL A   1      33.411  24.193  22.650  1.00  0.00     0.231 C 
ATOM     10  N   UNL A   1      32.478  25.217  22.785  1.00  0.00    -0.326 N 
ATOM     11  H   UNL A   1      31.849  25.332  22.037  1.00  0.00     0.169 HD
ATOM     12  O   UNL A   1      33.695  23.837  21.499  1.00  0.00    -0.274 OA
BRANCH  10  13
ATOM     13  C   UNL A   1      32.327  26.126  23.886  1.00  0.00     0.041 A 
ATOM     14  C   UNL A   1      33.057  30.900  27.152  1.00  0.00     0.044 C 
ATOM     15  C   UNL A   1      32.675  29.861  26.068  1.00  0.00    -0.051 A 
ATOM     16  C   UNL A   1      33.930  28.345  26.234  1.00  0.00     0.005 A 
ATOM     17  C   UNL A   1      31.079  29.303  24.759  1.00  0.00     0.005 A 
ATOM     18  C   UNL A   1      33.789  26.776  25.036  1.00  0.00     0.026 A 
ATOM     19  C   UNL A   1      30.845  27.530  23.899  1.00  0.00     0.026 A 
ENDBRANCH  10  13
ENDBRANCH   8   9
ENDBRANCH   7   8
BRANCH   7  20
ATOM     20  N   UNL A   1      32.976  22.065  25.726  1.00  0.00    -0.319 N 
ATOM     21  C   UNL A   1      31.541  21.716  25.797  1.00  0.00     0.291 C 
ATOM     22  C   UNL A   1      33.408  22.880  26.828  1.00  0.00     0.291 C 
ATOM     23  H   UNL A   1      33.584  21.279  25.954  1.00  0.00     0.348 HD
ATOM     24  C   UNL A   1      30.686  22.959  25.958  1.00  0.00     0.221 C 
ATOM     25  C   UNL A   1      32.468  24.066  27.050  1.00  0.00     0.221 C 
ATOM     26  O   UNL A   1      31.084  23.691  27.121  1.00  0.00    -0.370 OA
ENDBRANCH   7  20
ENDBRANCH   5   7
ENDBRANCH   4   5
ENDBRANCH   3   4
ENDBRANCH   2   3
ENDBRANCH   1   2
BRANCH   1  27
ATOM     27  C   UNL A   1      41.264  22.003  25.920  1.00  0.00     0.202 C 
BRANCH  27  28
ATOM     28  C   UNL A   1      42.097  20.842  26.311  1.00  0.00     0.261 C 
BRANCH  28  29
ATOM     29  O   UNL A   1      43.528  21.139  26.107  1.00  0.00    -0.460 OA
BRANCH  29  30
ATOM     30  C   UNL A   1      44.385  22.215  26.249  1.00  0.00     0.338 C 
ATOM     31  O   UNL A   1      45.318  22.176  25.432  1.00  0.00    -0.246 OA
BRANCH  30  32
ATOM     32  C   UNL A   1      44.522  23.438  27.328  1.00  0.00     0.060 A 
ATOM     33  C   UNL A   1      43.683  22.853  28.835  1.00  0.00     0.016 A 
ATOM     34  C   UNL A   1      44.992  25.397  27.622  1.00  0.00     0.016 A 
ATOM     35  C   UNL A   1      43.441  23.971  30.210  1.00  0.00     0.010 A 
ATOM     36  C   UNL A   1      44.744  26.130  29.218  1.00  0.00     0.010 A 
ATOM     37  C   UNL A   1      43.918  25.588  30.306  1.00  0.00    -0.014 A 
BRANCH  37  38
ATOM     38  C   UNL A   1      43.983  26.847  31.203  1.00  0.00     0.031 A 
ATOM     39  C   UNL A   1      43.253  28.028  30.642  1.00  0.00     0.074 A 
ATOM     40  C   UNL A   1      43.856  26.608  32.592  1.00  0.00     0.049 A 
ATOM     41  N   UNL A   1      43.404  29.271  30.957  1.00  0.00    -0.248 NA
ATOM     42  C   UNL A   1      42.234  27.846  29.599  1.00  0.00     0.031 C 
ATOM     43  C   UNL A   1      42.825  27.070  33.587  1.00  0.00     0.029 A 
ATOM     44  N   UNL A   1      44.268  25.449  33.301  1.00  0.00    -0.354 N 
ATOM     45  C   UNL A   1      42.285  29.923  30.436  1.00  0.00     0.074 A 
ATOM     46  C   UNL A   1      41.784  29.079  29.381  1.00  0.00     0.031 C 
ATOM     47  C   UNL A   1      42.992  26.460  34.798  1.00  0.00     0.029 A 
ATOM     48  C   UNL A   1      44.127  25.544  34.692  1.00  0.00     0.049 A 
ATOM     49  H   UNL A   1      44.623  24.647  32.854  1.00  0.00     0.167 HD
ATOM     50  C   UNL A   1      41.487  30.709  31.224  1.00  0.00     0.034 A 
ATOM     51  C   UNL A   1      45.254  25.437  35.439  1.00  0.00     0.034 A 
ATOM     52  C   UNL A   1      41.787  30.482  32.662  1.00  0.00     0.049 A 
ATOM     53  C   UNL A   1      45.654  26.879  35.613  1.00  0.00     0.074 A 
ATOM     54  C   UNL A   1      41.060  30.037  33.756  1.00  0.00     0.029 A 
ATOM     55  N   UNL A   1      43.118  30.468  33.085  1.00  0.00    -0.354 N 
ATOM     56  N   UNL A   1      45.094  27.828  34.912  1.00  0.00    -0.248 NA
ATOM     57  C   UNL A   1      46.468  27.417  36.688  1.00  0.00     0.031 C 
ATOM     58  C   UNL A   1      41.978  29.801  34.839  1.00  0.00     0.029 A 
ATOM     59  C   UNL A   1      43.275  30.050  34.395  1.00  0.00     0.049 A 
ATOM     60  H   UNL A   1      43.871  30.730  32.508  1.00  0.00     0.167 HD
ATOM     61  C   UNL A   1      45.241  29.024  35.499  1.00  0.00     0.074 A 
ATOM     62  C   UNL A   1      46.185  28.732  36.575  1.00  0.00     0.031 C 
ATOM     63  C   UNL A   1      44.601  30.138  35.035  1.00  0.00     0.034 A 
BRANCH  50  64
ATOM     64  C   UNL A   1      40.268  31.502  30.706  1.00  0.00     0.023 A 
ATOM     65  C   UNL A   1      40.448  32.883  30.463  1.00  0.00     0.012 A 
ATOM     66  C   UNL A   1      39.002  30.974  30.303  1.00  0.00     0.148 A 
ATOM     67  C   UNL A   1      39.458  33.694  29.888  1.00  0.00     0.002 A 
ATOM     68  C   UNL A   1      37.995  31.797  29.764  1.00  0.00     0.091 A 
ATOM     69  F   UNL A   1      38.778  29.657  30.368  1.00  0.00    -0.205 F 
ATOM     70  C   UNL A   1      38.229  33.157  29.546  1.00  0.00     0.022 A 
BRANCH  68  71
ATOM     71  S   UNL A   1      36.342  31.204  29.325  1.00  0.00     0.127 S 
ATOM     72  O   UNL A   1      35.477  32.041  30.162  1.00  0.00    -0.237 OA
ATOM     73  O   UNL A   1      36.264  31.505  27.896  1.00  0.00    -0.237 OA
ATOM     74  O   UNL A   1      36.312  29.790  29.675  1.00  0.00    -0.744 OA
ENDBRANCH  68  71
ENDBRANCH  50  64
BRANCH  51  75
ATOM     75  C   UNL A   1      46.048  24.219  35.020  1.00  0.00     0.023 A 
ATOM     76  C   UNL A   1      47.389  24.426  34.574  1.00  0.00     0.012 A 
ATOM     77  C   UNL A   1      45.707  22.925  35.460  1.00  0.00     0.148 A 
ATOM     78  C   UNL A   1      48.349  23.399  34.593  1.00  0.00     0.002 A 
ATOM     79  C   UNL A   1      46.689  21.931  35.554  1.00  0.00     0.091 A 
ATOM     80  F   UNL A   1      44.452  22.699  35.866  1.00  0.00    -0.205 F 
ATOM     81  C   UNL A   1      47.999  22.153  35.099  1.00  0.00     0.022 A 
BRANCH  79  82
ATOM     82  S   UNL A   1      46.395  20.417  36.490  1.00  0.00     0.127 S 
ATOM     83  O   UNL A   1      47.746  19.881  36.619  1.00  0.00    -0.237 OA
ATOM     84  O   UNL A   1      45.819  20.932  37.736  1.00  0.00    -0.237 OA
ATOM     85  O   UNL A   1      45.460  19.646  35.685  1.00  0.00    -0.744 OA
ENDBRANCH  79  82
ENDBRANCH  51  75
BRANCH  63  86
ATOM     86  C   UNL A   1      45.299  31.466  35.083  1.00  0.00     0.023 A 
ATOM     87  C   UNL A   1      44.976  32.414  36.071  1.00  0.00     0.012 A 
ATOM     88  C   UNL A   1      46.435  31.727  34.284  1.00  0.00     0.148 A 
ATOM     89  C   UNL A   1      45.652  33.619  36.182  1.00  0.00     0.002 A 
ATOM     90  C   UNL A   1      47.205  32.852  34.511  1.00  0.00     0.091 A 
ATOM     91  F   UNL A   1      46.777  30.900  33.288  1.00  0.00    -0.205 F 
ATOM     92  C   UNL A   1      46.784  33.828  35.416  1.00  0.00     0.022 A 
BRANCH  90  93
ATOM     93  S   UNL A   1      48.822  33.048  33.767  1.00  0.00     0.127 S 
ATOM     94  O   UNL A   1      48.481  33.057  32.346  1.00  0.00    -0.237 OA
ATOM     95  O   UNL A   1      49.245  34.340  34.307  1.00  0.00    -0.237 OA
ATOM     96  O   UNL A   1      49.614  31.915  34.224  1.00  0.00    -0.744 OA
ENDBRANCH  90  93
ENDBRANCH  63  86
ENDBRANCH  37  38
ENDBRANCH  30  32
ENDBRANCH  29  30
ENDBRANCH  28  29
ENDBRANCH  27  28
ENDBRANCH   1  27
TORSDOF 21
ENDMDL
