MODEL 1
REMARK VINA RESULT:     -11.2      0.000      0.000
REMARK SMILES CC(C)[NH2+][C@]1(C(=O)OCCOCCOC(=O)c2ccc(-c3c4nc(c(-c5cccc(S(=O)(=O)[O-])c5F)c5ccc([nH]5)c(-c5cccc(S(=O)(=O)[O-])c5F)c5nc(c(-c6cccc(S(=O)(=O)[O-])c6F)c6ccc3[nH]6)C=C5)C=C4)cc2)CC[C@H]([NH+]2CCC(C)(C)CC2)C1
REMARK SMILES IDX 12 1 11 2 10 3 9 4 8 5 6 6 7 7 5 8 80 9 91 10 81 11 82 12
REMARK SMILES IDX 4 13 2 16 1 17 3 18 83 19 84 20 90 21 85 23 89 24 86 25
REMARK SMILES IDX 87 26 88 27 13 28 14 29 15 30 16 31 17 32 18 33 79 34 19 35
REMARK SMILES IDX 78 36 20 37 21 38 22 39 72 40 23 41 77 42 71 43 73 44 24 45
REMARK SMILES IDX 76 46 70 47 69 48 25 50 57 51 37 52 56 53 38 54 41 55 55 56
REMARK SMILES IDX 74 57 39 58 40 59 54 61 75 62 42 63 26 64 27 65 35 66 28 67
REMARK SMILES IDX 30 68 36 69 29 70 31 71 32 72 33 73 34 74 58 75 59 76 67 77
REMARK SMILES IDX 60 78 62 79 68 80 61 81 63 82 64 83 65 84 66 85 43 86 44 87
REMARK SMILES IDX 52 88 45 89 47 90 53 91 46 92 48 93 49 94 50 95 51 96
REMARK H PARENT 4 14 4 15 83 22 73 49 41 60
REMARK Flexibility Score: inf
ROOT
ATOM      1  C   UNL A   1      31.567  29.618  25.400  1.00  0.00     0.202 C 
ENDROOT
BRANCH   1   2
ATOM      2  O   UNL A   1      32.839  29.103  25.002  1.00  0.00    -0.374 OA
BRANCH   2   3
ATOM      3  C   UNL A   1      33.031  27.706  25.244  1.00  0.00     0.202 C 
BRANCH   3   4
ATOM      4  C   UNL A   1      33.638  26.924  24.079  1.00  0.00     0.261 C 
BRANCH   4   5
ATOM      5  O   UNL A   1      34.068  25.623  24.508  1.00  0.00    -0.459 OA
BRANCH   5   6
ATOM      6  C   UNL A   1      34.078  24.663  23.551  1.00  0.00     0.368 C 
ATOM      7  O   UNL A   1      34.091  24.902  22.345  1.00  0.00    -0.245 OA
BRANCH   6   8
ATOM      8  C   UNL A   1      34.005  23.228  24.111  1.00  0.00     0.200 C 
ATOM      9  C   UNL A   1      33.684  23.454  25.610  1.00  0.00     0.087 C 
ATOM     10  C   UNL A   1      32.735  22.496  23.618  1.00  0.00     0.146 C 
ATOM     11  C   UNL A   1      32.842  22.279  26.064  1.00  0.00     0.072 C 
ATOM     12  C   UNL A   1      32.112  21.750  24.816  1.00  0.00     0.191 C 
BRANCH   8  13
ATOM     13  N   UNL A   1      35.245  22.424  24.028  1.00  0.00    -0.330 N 
ATOM     14  H   UNL A   1      34.943  21.453  23.953  1.00  0.00     0.347 HD
ATOM     15  H   UNL A   1      35.723  22.885  23.254  1.00  0.00     0.347 HD
BRANCH  13  16
ATOM     16  C   UNL A   1      36.299  22.433  25.047  1.00  0.00     0.176 C 
ATOM     17  C   UNL A   1      37.186  21.204  24.776  1.00  0.00     0.075 C 
ATOM     18  C   UNL A   1      37.234  23.643  25.117  1.00  0.00     0.075 C 
ENDBRANCH  13  16
ENDBRANCH   8  13
BRANCH  12  19
ATOM     19  N   UNL A   1      32.056  20.270  24.706  1.00  0.00    -0.332 N 
ATOM     20  C   UNL A   1      32.739  19.638  25.847  1.00  0.00     0.263 C 
ATOM     21  C   UNL A   1      32.504  19.781  23.397  1.00  0.00     0.263 C 
ATOM     22  H   UNL A   1      31.077  19.985  24.759  1.00  0.00     0.348 HD
ATOM     23  C   UNL A   1      32.928  18.121  25.722  1.00  0.00     0.068 C 
ATOM     24  C   UNL A   1      32.658  18.271  23.281  1.00  0.00     0.068 C 
ATOM     25  C   UNL A   1      33.569  17.715  24.382  1.00  0.00    -0.025 C 
ATOM     26  C   UNL A   1      33.631  16.187  24.259  1.00  0.00     0.011 C 
ATOM     27  C   UNL A   1      35.007  18.260  24.253  1.00  0.00     0.011 C 
ENDBRANCH  12  19
ENDBRANCH   6   8
ENDBRANCH   5   6
ENDBRANCH   4   5
ENDBRANCH   3   4
ENDBRANCH   2   3
ENDBRANCH   1   2
BRANCH   1  28
ATOM     28  C   UNL A   1      31.606  31.025  26.006  1.00  0.00     0.261 C 
BRANCH  28  29
ATOM     29  O   UNL A   1      32.337  31.030  27.247  1.00  0.00    -0.460 OA
BRANCH  29  30
ATOM     30  C   UNL A   1      33.153  32.097  27.418  1.00  0.00     0.338 C 
ATOM     31  O   UNL A   1      32.833  33.278  27.389  1.00  0.00    -0.246 OA
BRANCH  30  32
ATOM     32  C   UNL A   1      34.487  31.647  27.858  1.00  0.00     0.060 A 
ATOM     33  C   UNL A   1      34.647  30.278  28.110  1.00  0.00     0.016 A 
ATOM     34  C   UNL A   1      35.547  32.532  28.065  1.00  0.00     0.016 A 
ATOM     35  C   UNL A   1      35.847  29.796  28.622  1.00  0.00     0.010 A 
ATOM     36  C   UNL A   1      36.752  32.046  28.590  1.00  0.00     0.010 A 
ATOM     37  C   UNL A   1      36.891  30.682  28.909  1.00  0.00    -0.014 A 
BRANCH  37  38
ATOM     38  C   UNL A   1      38.066  30.186  29.666  1.00  0.00     0.031 A 
ATOM     39  C   UNL A   1      38.290  30.670  31.074  1.00  0.00     0.074 A 
ATOM     40  C   UNL A   1      38.901  29.282  29.124  1.00  0.00     0.049 A 
ATOM     41  N   UNL A   1      39.231  30.346  31.921  1.00  0.00    -0.248 NA
ATOM     42  C   UNL A   1      37.322  31.649  31.598  1.00  0.00     0.031 C 
ATOM     43  C   UNL A   1      38.788  28.733  27.774  1.00  0.00     0.029 A 
ATOM     44  N   UNL A   1      40.021  28.680  29.642  1.00  0.00    -0.354 N 
ATOM     45  C   UNL A   1      38.989  31.097  33.065  1.00  0.00     0.074 A 
ATOM     46  C   UNL A   1      37.819  31.905  32.800  1.00  0.00     0.031 C 
ATOM     47  C   UNL A   1      39.813  27.889  27.561  1.00  0.00     0.029 A 
ATOM     48  C   UNL A   1      40.664  27.857  28.748  1.00  0.00     0.049 A 
ATOM     49  H   UNL A   1      40.333  28.824  30.564  1.00  0.00     0.167 HD
ATOM     50  C   UNL A   1      39.670  31.103  34.236  1.00  0.00     0.034 A 
ATOM     51  C   UNL A   1      41.819  27.172  28.868  1.00  0.00     0.034 A 
ATOM     52  C   UNL A   1      40.821  30.284  34.506  1.00  0.00     0.049 A 
ATOM     53  C   UNL A   1      42.568  27.214  30.175  1.00  0.00     0.074 A 
ATOM     54  C   UNL A   1      41.546  30.181  35.681  1.00  0.00     0.029 A 
ATOM     55  N   UNL A   1      41.428  29.442  33.588  1.00  0.00    -0.354 N 
ATOM     56  N   UNL A   1      42.258  27.834  31.287  1.00  0.00    -0.248 NA
ATOM     57  C   UNL A   1      43.812  26.433  30.252  1.00  0.00     0.031 C 
ATOM     58  C   UNL A   1      42.613  29.303  35.461  1.00  0.00     0.029 A 
ATOM     59  C   UNL A   1      42.530  28.830  34.162  1.00  0.00     0.049 A 
ATOM     60  H   UNL A   1      41.121  29.299  32.664  1.00  0.00     0.167 HD
ATOM     61  C   UNL A   1      43.247  27.492  32.205  1.00  0.00     0.074 A 
ATOM     62  C   UNL A   1      44.152  26.589  31.525  1.00  0.00     0.031 C 
ATOM     63  C   UNL A   1      43.400  27.899  33.489  1.00  0.00     0.034 A 
BRANCH  50  64
ATOM     64  C   UNL A   1      39.176  32.016  35.328  1.00  0.00     0.023 A 
ATOM     65  C   UNL A   1      38.205  31.558  36.240  1.00  0.00     0.012 A 
ATOM     66  C   UNL A   1      39.721  33.305  35.489  1.00  0.00     0.148 A 
ATOM     67  C   UNL A   1      37.761  32.378  37.278  1.00  0.00     0.002 A 
ATOM     68  C   UNL A   1      39.308  34.100  36.551  1.00  0.00     0.091 A 
ATOM     69  F   UNL A   1      40.627  33.732  34.597  1.00  0.00    -0.205 F 
ATOM     70  C   UNL A   1      38.320  33.643  37.439  1.00  0.00     0.022 A 
BRANCH  68  71
ATOM     71  S   UNL A   1      40.023  35.712  36.892  1.00  0.00     0.127 S 
ATOM     72  O   UNL A   1      39.658  36.457  35.688  1.00  0.00    -0.237 OA
ATOM     73  O   UNL A   1      39.305  36.117  38.100  1.00  0.00    -0.237 OA
ATOM     74  O   UNL A   1      41.450  35.488  37.078  1.00  0.00    -0.744 OA
ENDBRANCH  68  71
ENDBRANCH  50  64
BRANCH  51  75
ATOM     75  C   UNL A   1      42.330  26.368  27.722  1.00  0.00     0.023 A 
ATOM     76  C   UNL A   1      43.077  26.994  26.705  1.00  0.00     0.012 A 
ATOM     77  C   UNL A   1      42.086  24.984  27.643  1.00  0.00     0.148 A 
ATOM     78  C   UNL A   1      43.542  26.261  25.613  1.00  0.00     0.002 A 
ATOM     79  C   UNL A   1      42.603  24.249  26.583  1.00  0.00     0.091 A 
ATOM     80  F   UNL A   1      41.357  24.410  28.611  1.00  0.00    -0.205 F 
ATOM     81  C   UNL A   1      43.315  24.888  25.556  1.00  0.00     0.022 A 
BRANCH  79  82
ATOM     82  S   UNL A   1      42.470  22.460  26.497  1.00  0.00     0.127 S 
ATOM     83  O   UNL A   1      43.597  22.117  25.634  1.00  0.00    -0.237 OA
ATOM     84  O   UNL A   1      42.630  22.080  27.901  1.00  0.00    -0.237 OA
ATOM     85  O   UNL A   1      41.148  22.188  25.950  1.00  0.00    -0.744 OA
ENDBRANCH  79  82
ENDBRANCH  51  75
BRANCH  63  86
ATOM     86  C   UNL A   1      44.573  27.349  34.261  1.00  0.00     0.023 A 
ATOM     87  C   UNL A   1      45.808  28.029  34.245  1.00  0.00     0.012 A 
ATOM     88  C   UNL A   1      44.436  26.188  35.050  1.00  0.00     0.148 A 
ATOM     89  C   UNL A   1      46.898  27.540  34.965  1.00  0.00     0.002 A 
ATOM     90  C   UNL A   1      45.512  25.738  35.807  1.00  0.00     0.091 A 
ATOM     91  F   UNL A   1      43.261  25.545  35.042  1.00  0.00    -0.205 F 
ATOM     92  C   UNL A   1      46.747  26.402  35.753  1.00  0.00     0.022 A 
BRANCH  90  93
ATOM     93  S   UNL A   1      45.382  24.337  36.926  1.00  0.00     0.127 S 
ATOM     94  O   UNL A   1      45.181  23.230  35.993  1.00  0.00    -0.237 OA
ATOM     95  O   UNL A   1      46.688  24.347  37.588  1.00  0.00    -0.237 OA
ATOM     96  O   UNL A   1      44.258  24.628  37.804  1.00  0.00    -0.744 OA
ENDBRANCH  90  93
ENDBRANCH  63  86
ENDBRANCH  37  38
ENDBRANCH  30  32
ENDBRANCH  29  30
ENDBRANCH  28  29
ENDBRANCH   1  28
TORSDOF 20
ENDMDL
MODEL 2
REMARK VINA RESULT:     -11.2      4.655     10.330
REMARK SMILES CC(C)[NH2+][C@]1(C(=O)OCCOCCOC(=O)c2ccc(-c3c4nc(c(-c5cccc(S(=O)(=O)[O-])c5F)c5ccc([nH]5)c(-c5cccc(S(=O)(=O)[O-])c5F)c5nc(c(-c6cccc(S(=O)(=O)[O-])c6F)c6ccc3[nH]6)C=C5)C=C4)cc2)CC[C@H]([NH+]2CCC(C)(C)CC2)C1
REMARK SMILES IDX 12 1 11 2 10 3 9 4 8 5 6 6 7 7 5 8 80 9 91 10 81 11 82 12
REMARK SMILES IDX 4 13 2 16 1 17 3 18 83 19 84 20 90 21 85 23 89 24 86 25
REMARK SMILES IDX 87 26 88 27 13 28 14 29 15 30 16 31 17 32 18 33 79 34 19 35
REMARK SMILES IDX 78 36 20 37 21 38 22 39 72 40 23 41 77 42 71 43 73 44 24 45
REMARK SMILES IDX 76 46 70 47 69 48 25 50 57 51 37 52 56 53 38 54 41 55 55 56
REMARK SMILES IDX 74 57 39 58 40 59 54 61 75 62 42 63 26 64 27 65 35 66 28 67
REMARK SMILES IDX 30 68 36 69 29 70 31 71 32 72 33 73 34 74 58 75 59 76 67 77
REMARK SMILES IDX 60 78 62 79 68 80 61 81 63 82 64 83 65 84 66 85 43 86 44 87
REMARK SMILES IDX 52 88 45 89 47 90 53 91 46 92 48 93 49 94 50 95 51 96
REMARK H PARENT 4 14 4 15 83 22 73 49 41 60
REMARK Flexibility Score: inf
ROOT
ATOM      1  C   UNL A   1      36.611  19.275  24.993  1.00  0.00     0.202 C 
ENDROOT
BRANCH   1   2
ATOM      2  O   UNL A   1      35.481  20.135  25.142  1.00  0.00    -0.374 OA
BRANCH   2   3
ATOM      3  C   UNL A   1      34.255  19.627  24.608  1.00  0.00     0.202 C 
BRANCH   3   4
ATOM      4  C   UNL A   1      32.993  20.065  25.352  1.00  0.00     0.261 C 
BRANCH   4   5
ATOM      5  O   UNL A   1      32.777  21.476  25.200  1.00  0.00    -0.459 OA
BRANCH   5   6
ATOM      6  C   UNL A   1      32.562  21.903  23.931  1.00  0.00     0.368 C 
ATOM      7  O   UNL A   1      32.193  21.168  23.016  1.00  0.00    -0.245 OA
BRANCH   6   8
ATOM      8  C   UNL A   1      32.886  23.396  23.716  1.00  0.00     0.200 C 
ATOM      9  C   UNL A   1      32.104  23.739  22.423  1.00  0.00     0.087 C 
ATOM     10  C   UNL A   1      32.175  24.282  24.765  1.00  0.00     0.146 C 
ATOM     11  C   UNL A   1      31.678  25.189  22.536  1.00  0.00     0.072 C 
ATOM     12  C   UNL A   1      31.577  25.504  24.038  1.00  0.00     0.191 C 
BRANCH   8  13
ATOM     13  N   UNL A   1      34.308  23.736  23.490  1.00  0.00    -0.330 N 
ATOM     14  H   UNL A   1      34.510  23.459  22.529  1.00  0.00     0.347 HD
ATOM     15  H   UNL A   1      34.319  24.718  23.765  1.00  0.00     0.347 HD
BRANCH  13  16
ATOM     16  C   UNL A   1      35.416  23.211  24.294  1.00  0.00     0.176 C 
ATOM     17  C   UNL A   1      36.629  23.093  23.351  1.00  0.00     0.075 C 
ATOM     18  C   UNL A   1      35.880  24.018  25.509  1.00  0.00     0.075 C 
ENDBRANCH  13  16
ENDBRANCH   8  13
BRANCH  12  19
ATOM     19  N   UNL A   1      32.116  26.830  24.436  1.00  0.00    -0.332 N 
ATOM     20  C   UNL A   1      33.122  26.683  25.501  1.00  0.00     0.263 C 
ATOM     21  C   UNL A   1      31.060  27.802  24.741  1.00  0.00     0.263 C 
ATOM     22  H   UNL A   1      32.600  27.230  23.632  1.00  0.00     0.348 HD
ATOM     23  C   UNL A   1      33.582  28.002  26.135  1.00  0.00     0.068 C 
ATOM     24  C   UNL A   1      31.537  29.117  25.343  1.00  0.00     0.068 C 
ATOM     25  C   UNL A   1      32.403  28.883  26.587  1.00  0.00    -0.025 C 
ATOM     26  C   UNL A   1      32.911  30.234  27.107  1.00  0.00     0.011 C 
ATOM     27  C   UNL A   1      31.595  28.213  27.718  1.00  0.00     0.011 C 
ENDBRANCH  12  19
ENDBRANCH   6   8
ENDBRANCH   5   6
ENDBRANCH   4   5
ENDBRANCH   3   4
ENDBRANCH   2   3
ENDBRANCH   1   2
BRANCH   1  28
ATOM     28  C   UNL A   1      37.923  19.991  24.657  1.00  0.00     0.261 C 
BRANCH  28  29
ATOM     29  O   UNL A   1      38.226  20.998  25.642  1.00  0.00    -0.460 OA
BRANCH  29  30
ATOM     30  C   UNL A   1      39.449  20.880  26.211  1.00  0.00     0.338 C 
ATOM     31  O   UNL A   1      40.208  19.924  26.129  1.00  0.00    -0.246 OA
BRANCH  30  32
ATOM     32  C   UNL A   1      39.858  22.170  26.799  1.00  0.00     0.060 A 
ATOM     33  C   UNL A   1      39.302  23.329  26.244  1.00  0.00     0.016 A 
ATOM     34  C   UNL A   1      40.791  22.260  27.836  1.00  0.00     0.016 A 
ATOM     35  C   UNL A   1      39.716  24.583  26.681  1.00  0.00     0.010 A 
ATOM     36  C   UNL A   1      41.213  23.524  28.268  1.00  0.00     0.010 A 
ATOM     37  C   UNL A   1      40.707  24.689  27.663  1.00  0.00    -0.014 A 
BRANCH  37  38
ATOM     38  C   UNL A   1      41.298  26.020  27.946  1.00  0.00     0.031 A 
ATOM     39  C   UNL A   1      42.678  26.335  27.434  1.00  0.00     0.074 A 
ATOM     40  C   UNL A   1      40.598  26.954  28.614  1.00  0.00     0.049 A 
ATOM     41  N   UNL A   1      43.369  27.439  27.542  1.00  0.00    -0.248 NA
ATOM     42  C   UNL A   1      43.371  25.262  26.701  1.00  0.00     0.031 C 
ATOM     43  C   UNL A   1      39.252  26.773  29.155  1.00  0.00     0.029 A 
ATOM     44  N   UNL A   1      40.933  28.239  28.964  1.00  0.00    -0.354 N 
ATOM     45  C   UNL A   1      44.585  27.189  26.918  1.00  0.00     0.074 A 
ATOM     46  C   UNL A   1      44.545  25.823  26.445  1.00  0.00     0.031 C 
ATOM     47  C   UNL A   1      38.883  27.900  29.789  1.00  0.00     0.029 A 
ATOM     48  C   UNL A   1      39.973  28.870  29.719  1.00  0.00     0.049 A 
ATOM     49  H   UNL A   1      41.779  28.666  28.699  1.00  0.00     0.167 HD
ATOM     50  C   UNL A   1      45.636  28.026  26.741  1.00  0.00     0.034 A 
ATOM     51  C   UNL A   1      39.983  30.084  30.304  1.00  0.00     0.034 A 
ATOM     52  C   UNL A   1      45.668  29.391  27.194  1.00  0.00     0.049 A 
ATOM     53  C   UNL A   1      41.174  30.986  30.110  1.00  0.00     0.074 A 
ATOM     54  C   UNL A   1      46.666  30.333  27.015  1.00  0.00     0.029 A 
ATOM     55  N   UNL A   1      44.668  30.005  27.931  1.00  0.00    -0.354 N 
ATOM     56  N   UNL A   1      42.265  30.779  29.413  1.00  0.00    -0.248 NA
ATOM     57  C   UNL A   1      41.120  32.306  30.757  1.00  0.00     0.031 C 
ATOM     58  C   UNL A   1      46.284  31.506  27.675  1.00  0.00     0.029 A 
ATOM     59  C   UNL A   1      45.032  31.308  28.231  1.00  0.00     0.049 A 
ATOM     60  H   UNL A   1      43.822  29.579  28.201  1.00  0.00     0.167 HD
ATOM     61  C   UNL A   1      43.010  31.950  29.509  1.00  0.00     0.074 A 
ATOM     62  C   UNL A   1      42.233  32.873  30.311  1.00  0.00     0.031 C 
ATOM     63  C   UNL A   1      44.232  32.233  28.994  1.00  0.00     0.034 A 
BRANCH  50  64
ATOM     64  C   UNL A   1      46.840  27.493  26.009  1.00  0.00     0.023 A 
ATOM     65  C   UNL A   1      46.970  27.708  24.622  1.00  0.00     0.012 A 
ATOM     66  C   UNL A   1      47.872  26.835  26.706  1.00  0.00     0.148 A 
ATOM     67  C   UNL A   1      48.094  27.250  23.934  1.00  0.00     0.002 A 
ATOM     68  C   UNL A   1      49.011  26.423  26.023  1.00  0.00     0.091 A 
ATOM     69  F   UNL A   1      47.720  26.621  28.021  1.00  0.00    -0.205 F 
ATOM     70  C   UNL A   1      49.118  26.618  24.636  1.00  0.00     0.022 A 
BRANCH  68  71
ATOM     71  S   UNL A   1      50.418  25.672  26.848  1.00  0.00     0.127 S 
ATOM     72  O   UNL A   1      49.822  24.456  27.399  1.00  0.00    -0.237 OA
ATOM     73  O   UNL A   1      51.342  25.448  25.736  1.00  0.00    -0.237 OA
ATOM     74  O   UNL A   1      50.873  26.644  27.832  1.00  0.00    -0.744 OA
ENDBRANCH  68  71
ENDBRANCH  50  64
BRANCH  51  75
ATOM     75  C   UNL A   1      38.814  30.529  31.114  1.00  0.00     0.023 A 
ATOM     76  C   UNL A   1      38.802  30.310  32.506  1.00  0.00     0.012 A 
ATOM     77  C   UNL A   1      37.719  31.177  30.511  1.00  0.00     0.148 A 
ATOM     78  C   UNL A   1      37.705  30.699  33.276  1.00  0.00     0.002 A 
ATOM     79  C   UNL A   1      36.657  31.614  31.293  1.00  0.00     0.091 A 
ATOM     80  F   UNL A   1      37.742  31.360  29.183  1.00  0.00    -0.205 F 
ATOM     81  C   UNL A   1      36.639  31.360  32.673  1.00  0.00     0.022 A 
BRANCH  79  82
ATOM     82  S   UNL A   1      35.304  32.587  30.621  1.00  0.00     0.127 S 
ATOM     83  O   UNL A   1      34.330  32.538  31.709  1.00  0.00    -0.237 OA
ATOM     84  O   UNL A   1      35.941  33.889  30.422  1.00  0.00    -0.237 OA
ATOM     85  O   UNL A   1      34.911  31.917  29.388  1.00  0.00    -0.744 OA
ENDBRANCH  79  82
ENDBRANCH  51  75
BRANCH  63  86
ATOM     86  C   UNL A   1      44.798  33.606  29.250  1.00  0.00     0.023 A 
ATOM     87  C   UNL A   1      45.644  33.823  30.356  1.00  0.00     0.012 A 
ATOM     88  C   UNL A   1      44.539  34.670  28.362  1.00  0.00     0.148 A 
ATOM     89  C   UNL A   1      46.188  35.085  30.599  1.00  0.00     0.002 A 
ATOM     90  C   UNL A   1      45.126  35.911  28.582  1.00  0.00     0.091 A 
ATOM     91  F   UNL A   1      43.719  34.451  27.324  1.00  0.00    -0.205 F 
ATOM     92  C   UNL A   1      45.937  36.125  29.707  1.00  0.00     0.022 A 
BRANCH  90  93
ATOM     93  S   UNL A   1      44.938  37.281  27.434  1.00  0.00     0.127 S 
ATOM     94  O   UNL A   1      45.151  38.433  28.308  1.00  0.00    -0.237 OA
ATOM     95  O   UNL A   1      46.019  37.035  26.477  1.00  0.00    -0.237 OA
ATOM     96  O   UNL A   1      43.599  37.157  26.877  1.00  0.00    -0.744 OA
ENDBRANCH  90  93
ENDBRANCH  63  86
ENDBRANCH  37  38
ENDBRANCH  30  32
ENDBRANCH  29  30
ENDBRANCH  28  29
ENDBRANCH   1  28
TORSDOF 20
ENDMDL
MODEL 3
REMARK VINA RESULT:     -11.2      5.081      8.280
REMARK SMILES CC(C)[NH2+][C@]1(C(=O)OCCOCCOC(=O)c2ccc(-c3c4nc(c(-c5cccc(S(=O)(=O)[O-])c5F)c5ccc([nH]5)c(-c5cccc(S(=O)(=O)[O-])c5F)c5nc(c(-c6cccc(S(=O)(=O)[O-])c6F)c6ccc3[nH]6)C=C5)C=C4)cc2)CC[C@H]([NH+]2CCC(C)(C)CC2)C1
REMARK SMILES IDX 12 1 11 2 10 3 9 4 8 5 6 6 7 7 5 8 80 9 91 10 81 11 82 12
REMARK SMILES IDX 4 13 2 16 1 17 3 18 83 19 84 20 90 21 85 23 89 24 86 25
REMARK SMILES IDX 87 26 88 27 13 28 14 29 15 30 16 31 17 32 18 33 79 34 19 35
REMARK SMILES IDX 78 36 20 37 21 38 22 39 72 40 23 41 77 42 71 43 73 44 24 45
REMARK SMILES IDX 76 46 70 47 69 48 25 50 57 51 37 52 56 53 38 54 41 55 55 56
REMARK SMILES IDX 74 57 39 58 40 59 54 61 75 62 42 63 26 64 27 65 35 66 28 67
REMARK SMILES IDX 30 68 36 69 29 70 31 71 32 72 33 73 34 74 58 75 59 76 67 77
REMARK SMILES IDX 60 78 62 79 68 80 61 81 63 82 64 83 65 84 66 85 43 86 44 87
REMARK SMILES IDX 52 88 45 89 47 90 53 91 46 92 48 93 49 94 50 95 51 96
REMARK H PARENT 4 14 4 15 83 22 73 49 41 60
REMARK Flexibility Score: inf
ROOT
ATOM      1  C   UNL A   1      36.214  19.420  24.997  1.00  0.00     0.202 C 
ENDROOT
BRANCH   1   2
ATOM      2  O   UNL A   1      34.959  20.098  24.917  1.00  0.00    -0.374 OA
BRANCH   2   3
ATOM      3  C   UNL A   1      33.840  19.270  24.590  1.00  0.00     0.202 C 
BRANCH   3   4
ATOM      4  C   UNL A   1      32.482  19.973  24.617  1.00  0.00     0.261 C 
BRANCH   4   5
ATOM      5  O   UNL A   1      32.600  21.285  25.186  1.00  0.00    -0.459 OA
BRANCH   5   6
ATOM      6  C   UNL A   1      32.570  22.313  24.302  1.00  0.00     0.368 C 
ATOM      7  O   UNL A   1      32.459  22.164  23.086  1.00  0.00    -0.245 OA
BRANCH   6   8
ATOM      8  C   UNL A   1      32.753  23.699  24.955  1.00  0.00     0.200 C 
ATOM      9  C   UNL A   1      34.200  23.635  25.506  1.00  0.00     0.087 C 
ATOM     10  C   UNL A   1      32.865  24.811  23.887  1.00  0.00     0.146 C 
ATOM     11  C   UNL A   1      34.763  25.040  25.432  1.00  0.00     0.072 C 
ATOM     12  C   UNL A   1      34.014  25.757  24.295  1.00  0.00     0.191 C 
BRANCH   8  13
ATOM     13  N   UNL A   1      31.851  24.021  26.083  1.00  0.00    -0.330 N 
ATOM     14  H   UNL A   1      32.093  23.366  26.827  1.00  0.00     0.347 HD
ATOM     15  H   UNL A   1      32.022  25.021  26.188  1.00  0.00     0.347 HD
BRANCH  13  16
ATOM     16  C   UNL A   1      30.388  23.998  25.997  1.00  0.00     0.176 C 
ATOM     17  C   UNL A   1      29.899  22.984  27.048  1.00  0.00     0.075 C 
ATOM     18  C   UNL A   1      29.624  25.299  26.252  1.00  0.00     0.075 C 
ENDBRANCH  13  16
ENDBRANCH   8  13
BRANCH  12  19
ATOM     19  N   UNL A   1      33.631  27.162  24.587  1.00  0.00    -0.332 N 
ATOM     20  C   UNL A   1      34.275  27.628  25.827  1.00  0.00     0.263 C 
ATOM     21  C   UNL A   1      32.180  27.373  24.553  1.00  0.00     0.263 C 
ATOM     22  H   UNL A   1      33.988  27.751  23.834  1.00  0.00     0.348 HD
ATOM     23  C   UNL A   1      33.778  28.987  26.336  1.00  0.00     0.068 C 
ATOM     24  C   UNL A   1      31.706  28.737  25.033  1.00  0.00     0.068 C 
ATOM     25  C   UNL A   1      32.243  29.056  26.434  1.00  0.00    -0.025 C 
ATOM     26  C   UNL A   1      31.794  30.466  26.836  1.00  0.00     0.011 C 
ATOM     27  C   UNL A   1      31.698  28.066  27.485  1.00  0.00     0.011 C 
ENDBRANCH  12  19
ENDBRANCH   6   8
ENDBRANCH   5   6
ENDBRANCH   4   5
ENDBRANCH   3   4
ENDBRANCH   2   3
ENDBRANCH   1   2
BRANCH   1  28
ATOM     28  C   UNL A   1      37.421  20.248  24.540  1.00  0.00     0.261 C 
BRANCH  28  29
ATOM     29  O   UNL A   1      37.833  21.167  25.570  1.00  0.00    -0.460 OA
BRANCH  29  30
ATOM     30  C   UNL A   1      39.077  20.948  26.056  1.00  0.00     0.338 C 
ATOM     31  O   UNL A   1      39.757  19.941  25.908  1.00  0.00    -0.246 OA
BRANCH  30  32
ATOM     32  C   UNL A   1      39.617  22.191  26.639  1.00  0.00     0.060 A 
ATOM     33  C   UNL A   1      39.070  23.397  26.185  1.00  0.00     0.016 A 
ATOM     34  C   UNL A   1      40.659  22.192  27.570  1.00  0.00     0.016 A 
ATOM     35  C   UNL A   1      39.597  24.611  26.616  1.00  0.00     0.010 A 
ATOM     36  C   UNL A   1      41.194  23.416  27.995  1.00  0.00     0.010 A 
ATOM     37  C   UNL A   1      40.691  24.628  27.488  1.00  0.00    -0.014 A 
BRANCH  37  38
ATOM     38  C   UNL A   1      41.382  25.915  27.749  1.00  0.00     0.031 A 
ATOM     39  C   UNL A   1      40.650  27.004  28.487  1.00  0.00     0.074 A 
ATOM     40  C   UNL A   1      42.659  26.097  27.371  1.00  0.00     0.049 A 
ATOM     41  N   UNL A   1      41.072  28.189  28.844  1.00  0.00    -0.248 NA
ATOM     42  C   UNL A   1      39.259  26.719  28.878  1.00  0.00     0.031 C 
ATOM     43  C   UNL A   1      43.475  25.118  26.655  1.00  0.00     0.029 A 
ATOM     44  N   UNL A   1      43.488  27.181  27.524  1.00  0.00    -0.354 N 
ATOM     45  C   UNL A   1      39.996  28.802  29.474  1.00  0.00     0.074 A 
ATOM     46  C   UNL A   1      38.896  27.863  29.440  1.00  0.00     0.031 C 
ATOM     47  C   UNL A   1      44.684  25.654  26.411  1.00  0.00     0.029 A 
ATOM     48  C   UNL A   1      44.718  27.019  26.932  1.00  0.00     0.049 A 
ATOM     49  H   UNL A   1      43.226  27.995  28.012  1.00  0.00     0.167 HD
ATOM     50  C   UNL A   1      39.932  30.029  30.044  1.00  0.00     0.034 A 
ATOM     51  C   UNL A   1      45.746  27.882  26.806  1.00  0.00     0.034 A 
ATOM     52  C   UNL A   1      41.033  30.954  30.095  1.00  0.00     0.049 A 
ATOM     53  C   UNL A   1      45.640  29.250  27.430  1.00  0.00     0.074 A 
ATOM     54  C   UNL A   1      41.081  32.200  30.698  1.00  0.00     0.029 A 
ATOM     55  N   UNL A   1      42.271  30.747  29.510  1.00  0.00    -0.354 N 
ATOM     56  N   UNL A   1      44.660  29.767  28.129  1.00  0.00    -0.248 NA
ATOM     57  C   UNL A   1      46.800  30.141  27.276  1.00  0.00     0.031 C 
ATOM     58  C   UNL A   1      42.338  32.759  30.445  1.00  0.00     0.029 A 
ATOM     59  C   UNL A   1      43.085  31.847  29.719  1.00  0.00     0.049 A 
ATOM     60  H   UNL A   1      42.534  29.935  29.018  1.00  0.00     0.167 HD
ATOM     61  C   UNL A   1      45.095  31.028  28.526  1.00  0.00     0.074 A 
ATOM     62  C   UNL A   1      46.440  31.185  28.011  1.00  0.00     0.031 C 
ATOM     63  C   UNL A   1      44.438  31.976  29.239  1.00  0.00     0.034 A 
BRANCH  50  64
ATOM     64  C   UNL A   1      38.628  30.441  30.676  1.00  0.00     0.023 A 
ATOM     65  C   UNL A   1      38.407  30.202  32.047  1.00  0.00     0.012 A 
ATOM     66  C   UNL A   1      37.649  31.122  29.927  1.00  0.00     0.148 A 
ATOM     67  C   UNL A   1      37.219  30.606  32.656  1.00  0.00     0.002 A 
ATOM     68  C   UNL A   1      36.488  31.564  30.549  1.00  0.00     0.091 A 
ATOM     69  F   UNL A   1      37.869  31.321  28.618  1.00  0.00    -0.205 F 
ATOM     70  C   UNL A   1      36.265  31.296  31.911  1.00  0.00     0.022 A 
BRANCH  68  71
ATOM     71  S   UNL A   1      35.237  32.529  29.697  1.00  0.00     0.127 S 
ATOM     72  O   UNL A   1      34.761  31.576  28.695  1.00  0.00    -0.237 OA
ATOM     73  O   UNL A   1      34.284  32.812  30.770  1.00  0.00    -0.237 OA
ATOM     74  O   UNL A   1      35.923  33.700  29.167  1.00  0.00    -0.744 OA
ENDBRANCH  68  71
ENDBRANCH  50  64
BRANCH  51  75
ATOM     75  C   UNL A   1      46.977  27.471  26.075  1.00  0.00     0.023 A 
ATOM     76  C   UNL A   1      47.991  26.765  26.752  1.00  0.00     0.012 A 
ATOM     77  C   UNL A   1      47.143  27.770  24.709  1.00  0.00     0.148 A 
ATOM     78  C   UNL A   1      49.161  26.394  26.089  1.00  0.00     0.002 A 
ATOM     79  C   UNL A   1      48.285  27.345  24.041  1.00  0.00     0.091 A 
ATOM     80  F   UNL A   1      46.176  28.459  24.087  1.00  0.00    -0.205 F 
ATOM     81  C   UNL A   1      49.304  26.673  24.733  1.00  0.00     0.022 A 
BRANCH  79  82
ATOM     82  S   UNL A   1      48.493  27.548  22.268  1.00  0.00     0.127 S 
ATOM     83  O   UNL A   1      49.717  28.343  22.199  1.00  0.00    -0.237 OA
ATOM     84  O   UNL A   1      48.634  26.161  21.822  1.00  0.00    -0.237 OA
ATOM     85  O   UNL A   1      47.282  28.208  21.801  1.00  0.00    -0.744 OA
ENDBRANCH  79  82
ENDBRANCH  51  75
BRANCH  63  86
ATOM     86  C   UNL A   1      45.171  33.260  29.536  1.00  0.00     0.023 A 
ATOM     87  C   UNL A   1      46.025  33.341  30.654  1.00  0.00     0.012 A 
ATOM     88  C   UNL A   1      45.056  34.371  28.674  1.00  0.00     0.148 A 
ATOM     89  C   UNL A   1      46.720  34.518  30.934  1.00  0.00     0.002 A 
ATOM     90  C   UNL A   1      45.793  35.522  28.931  1.00  0.00     0.091 A 
ATOM     91  F   UNL A   1      44.227  34.283  27.625  1.00  0.00    -0.205 F 
ATOM     92  C   UNL A   1      46.612  35.603  30.068  1.00  0.00     0.022 A 
BRANCH  90  93
ATOM     93  S   UNL A   1      45.791  36.933  27.819  1.00  0.00     0.127 S 
ATOM     94  O   UNL A   1      44.377  37.302  27.808  1.00  0.00    -0.237 OA
ATOM     95  O   UNL A   1      46.662  37.880  28.517  1.00  0.00    -0.237 OA
ATOM     96  O   UNL A   1      46.320  36.446  26.553  1.00  0.00    -0.744 OA
ENDBRANCH  90  93
ENDBRANCH  63  86
ENDBRANCH  37  38
ENDBRANCH  30  32
ENDBRANCH  29  30
ENDBRANCH  28  29
ENDBRANCH   1  28
TORSDOF 20
ENDMDL
