MODEL 1
REMARK VINA RESULT:     -12.9      0.000      0.000
REMARK SMILES Cc1cc(/C=C2/C(=O)NC(=S)N=C2OCCOCCOC(=O)c2ccc(-c3c4nc(c(-c5cccc(S(=O)(=O)[O-])c5F)c5ccc([nH]5)c(-c5cccc(S(=O)(=O)[O-])c5F)c5nc(c(-c6cccc(S(=O)(=O)[O-])c6F)c6ccc3[nH]6)C=C5)C=C4)cc2)c(C)n1-c1cccc(C(=O)[O-])c1
REMARK SMILES IDX 18 1 17 2 16 3 15 4 14 5 13 6 5 7 6 8 7 9 8 10 9 11 12 12
REMARK SMILES IDX 10 13 11 15 4 16 1 17 2 18 3 19 88 20 86 21 87 22 89 23
REMARK SMILES IDX 90 24 97 25 91 26 93 27 92 28 94 29 95 30 96 31 19 32 20 33
REMARK SMILES IDX 21 34 22 35 23 36 24 37 85 38 25 39 84 40 26 41 27 42 28 43
REMARK SMILES IDX 78 44 29 45 83 46 77 47 79 48 30 49 82 50 76 51 75 52 31 54
REMARK SMILES IDX 63 55 43 56 62 57 44 58 47 59 61 60 80 61 45 62 46 63 60 65
REMARK SMILES IDX 81 66 48 67 32 68 33 69 41 70 34 71 36 72 42 73 35 74 37 75
REMARK SMILES IDX 38 76 39 77 40 78 64 79 65 80 73 81 66 82 68 83 74 84 67 85
REMARK SMILES IDX 69 86 70 87 71 88 72 89 49 90 50 91 58 92 51 93 53 94 59 95
REMARK SMILES IDX 52 96 54 97 55 98 56 99 57 100
REMARK H PARENT 9 14 79 53 47 64
REMARK Flexibility Score: inf
ROOT
ATOM      1  C   UNL A   1      37.837  21.023  25.276  1.00  0.00     0.202 C 
ENDROOT
BRANCH   1   2
ATOM      2  O   UNL A   1      37.308  21.989  24.379  1.00  0.00    -0.374 OA
BRANCH   2   3
ATOM      3  C   UNL A   1      35.943  22.187  24.654  1.00  0.00     0.202 C 
BRANCH   3   4
ATOM      4  C   UNL A   1      35.356  21.518  25.876  1.00  0.00     0.260 C 
BRANCH   4   5
ATOM      5  O   UNL A   1      34.524  20.197  25.568  1.00  0.00    -0.475 OA
BRANCH   5   6
ATOM      6  C   UNL A   1      34.292  19.324  24.622  1.00  0.00     0.229 C 
ATOM      7  C   UNL A   1      32.210  20.550  23.469  1.00  0.00     0.029 C 
ATOM      8  C   UNL A   1      33.072  19.499  23.721  1.00  0.00     0.103 C 
ATOM      9  C   UNL A   1      32.856  18.189  22.983  1.00  0.00     0.262 C 
ATOM     10  O   UNL A   1      32.142  18.063  21.996  1.00  0.00    -0.269 OA
ATOM     11  N   UNL A   1      33.584  17.113  23.495  1.00  0.00    -0.297 N 
ATOM     12  N   UNL A   1      35.038  18.320  24.811  1.00  0.00    -0.184 NA
ATOM     13  C   UNL A   1      34.589  17.129  24.425  1.00  0.00     0.203 C 
ATOM     14  H   UNL A   1      33.342  16.227  23.140  1.00  0.00     0.172 HD
ATOM     15  S   UNL A   1      35.207  15.746  25.138  1.00  0.00    -0.038 S 
BRANCH   7  16
ATOM     16  C   UNL A   1      32.066  21.882  24.082  1.00  0.00    -0.003 A 
ATOM     17  C   UNL A   1      31.297  24.677  26.417  1.00  0.00     0.065 C 
ATOM     18  C   UNL A   1      31.739  23.720  25.433  1.00  0.00     0.020 A 
ATOM     19  C   UNL A   1      31.734  22.314  25.384  1.00  0.00     0.031 A 
ATOM     20  N   UNL A   1      32.051  24.225  24.235  1.00  0.00    -0.318 N 
ATOM     21  C   UNL A   1      32.268  23.109  23.543  1.00  0.00     0.027 A 
ATOM     22  C   UNL A   1      32.749  23.500  22.337  1.00  0.00     0.065 C 
BRANCH  20  23
ATOM     23  C   UNL A   1      32.210  25.603  23.737  1.00  0.00     0.046 A 
ATOM     24  C   UNL A   1      33.454  26.294  23.813  1.00  0.00     0.026 A 
ATOM     25  C   UNL A   1      31.062  26.346  23.463  1.00  0.00     0.036 A 
ATOM     26  C   UNL A   1      33.508  27.687  23.705  1.00  0.00     0.003 A 
ATOM     27  C   UNL A   1      31.165  27.708  23.105  1.00  0.00    -0.001 A 
ATOM     28  C   UNL A   1      32.376  28.375  23.293  1.00  0.00     0.010 A 
BRANCH  27  29
ATOM     29  C   UNL A   1      30.016  28.583  22.729  1.00  0.00     0.072 C 
ATOM     30  O   UNL A   1      28.990  28.701  23.373  1.00  0.00    -0.545 OA
ATOM     31  O   UNL A   1      30.152  29.090  21.504  1.00  0.00    -0.545 OA
ENDBRANCH  27  29
ENDBRANCH  20  23
ENDBRANCH   7  16
ENDBRANCH   5   6
ENDBRANCH   4   5
ENDBRANCH   3   4
ENDBRANCH   2   3
ENDBRANCH   1   2
BRANCH   1  32
ATOM     32  C   UNL A   1      38.459  19.649  24.947  1.00  0.00     0.261 C 
BRANCH  32  33
ATOM     33  O   UNL A   1      39.698  18.982  25.704  1.00  0.00    -0.460 OA
BRANCH  33  34
ATOM     34  C   UNL A   1      40.977  19.603  26.032  1.00  0.00     0.338 C 
ATOM     35  O   UNL A   1      41.929  18.966  25.568  1.00  0.00    -0.246 OA
BRANCH  34  36
ATOM     36  C   UNL A   1      41.086  21.118  27.114  1.00  0.00     0.060 A 
ATOM     37  C   UNL A   1      40.899  22.163  28.041  1.00  0.00     0.016 A 
ATOM     38  C   UNL A   1      42.042  22.058  26.902  1.00  0.00     0.016 A 
ATOM     39  C   UNL A   1      41.696  23.917  28.343  1.00  0.00     0.010 A 
ATOM     40  C   UNL A   1      42.797  23.758  27.311  1.00  0.00     0.010 A 
ATOM     41  C   UNL A   1      42.954  25.377  28.065  1.00  0.00    -0.014 A 
BRANCH  41  42
ATOM     42  C   UNL A   1      43.850  27.289  28.657  1.00  0.00     0.031 A 
ATOM     43  C   UNL A   1      42.147  26.926  27.668  1.00  0.00     0.074 A 
ATOM     44  C   UNL A   1      45.187  28.486  29.500  1.00  0.00     0.049 A 
ATOM     45  N   UNL A   1      42.090  26.393  26.354  1.00  0.00    -0.248 NA
ATOM     46  C   UNL A   1      40.565  26.972  27.518  1.00  0.00     0.031 C 
ATOM     47  C   UNL A   1      46.550  29.737  30.361  1.00  0.00     0.029 A 
ATOM     48  N   UNL A   1      45.629  30.419  29.510  1.00  0.00    -0.354 N 
ATOM     49  C   UNL A   1      41.862  27.488  25.710  1.00  0.00     0.074 A 
ATOM     50  C   UNL A   1      40.618  27.812  26.469  1.00  0.00     0.031 C 
ATOM     51  C   UNL A   1      47.293  31.134  30.898  1.00  0.00     0.029 A 
ATOM     52  C   UNL A   1      46.422  31.965  30.309  1.00  0.00     0.049 A 
ATOM     53  H   UNL A   1      45.238  30.758  28.673  1.00  0.00     0.167 HD
ATOM     54  C   UNL A   1      43.174  27.837  25.629  1.00  0.00     0.034 A 
ATOM     55  C   UNL A   1      46.766  33.654  30.332  1.00  0.00     0.034 A 
ATOM     56  C   UNL A   1      43.280  28.904  26.506  1.00  0.00     0.049 A 
ATOM     57  C   UNL A   1      45.735  33.784  29.391  1.00  0.00     0.074 A 
ATOM     58  C   UNL A   1      42.480  29.484  27.481  1.00  0.00     0.029 A 
ATOM     59  N   UNL A   1      44.535  29.203  26.769  1.00  0.00    -0.354 N 
ATOM     60  N   UNL A   1      45.989  33.393  28.192  1.00  0.00    -0.248 NA
ATOM     61  C   UNL A   1      44.532  33.569  30.143  1.00  0.00     0.031 C 
ATOM     62  C   UNL A   1      43.238  30.346  28.138  1.00  0.00     0.029 A 
ATOM     63  C   UNL A   1      44.415  30.341  27.440  1.00  0.00     0.049 A 
ATOM     64  H   UNL A   1      45.353  28.708  26.532  1.00  0.00     0.167 HD
ATOM     65  C   UNL A   1      45.171  32.319  28.063  1.00  0.00     0.074 A 
ATOM     66  C   UNL A   1      44.180  32.554  29.368  1.00  0.00     0.031 C 
ATOM     67  C   UNL A   1      45.594  31.082  27.448  1.00  0.00     0.034 A 
BRANCH  54  68
ATOM     68  C   UNL A   1      44.306  26.496  25.585  1.00  0.00     0.023 A 
ATOM     69  C   UNL A   1      45.546  27.001  25.933  1.00  0.00     0.012 A 
ATOM     70  C   UNL A   1      44.352  25.092  25.088  1.00  0.00     0.148 A 
ATOM     71  C   UNL A   1      46.663  26.175  26.036  1.00  0.00     0.002 A 
ATOM     72  C   UNL A   1      45.459  24.260  25.215  1.00  0.00     0.091 A 
ATOM     73  F   UNL A   1      43.396  24.488  24.388  1.00  0.00    -0.205 F 
ATOM     74  C   UNL A   1      46.588  24.795  25.804  1.00  0.00     0.022 A 
BRANCH  72  75
ATOM     75  S   UNL A   1      45.404  22.494  24.711  1.00  0.00     0.127 S 
ATOM     76  O   UNL A   1      45.302  21.785  25.988  1.00  0.00    -0.237 OA
ATOM     77  O   UNL A   1      44.200  22.447  23.891  1.00  0.00    -0.237 OA
ATOM     78  O   UNL A   1      46.639  22.200  23.986  1.00  0.00    -0.744 OA
ENDBRANCH  72  75
ENDBRANCH  54  68
BRANCH  55  79
ATOM     79  C   UNL A   1      46.696  35.318  31.240  1.00  0.00     0.023 A 
ATOM     80  C   UNL A   1      46.118  35.855  32.554  1.00  0.00     0.012 A 
ATOM     81  C   UNL A   1      47.604  36.323  30.790  1.00  0.00     0.148 A 
ATOM     82  C   UNL A   1      46.444  37.188  33.187  1.00  0.00     0.002 A 
ATOM     83  C   UNL A   1      47.994  37.580  31.443  1.00  0.00     0.091 A 
ATOM     84  F   UNL A   1      48.186  36.011  29.642  1.00  0.00    -0.205 F 
ATOM     85  C   UNL A   1      47.450  38.001  32.663  1.00  0.00     0.022 A 
BRANCH  83  86
ATOM     86  S   UNL A   1      49.237  38.684  30.634  1.00  0.00     0.127 S 
ATOM     87  O   UNL A   1      50.407  37.815  30.500  1.00  0.00    -0.237 OA
ATOM     88  O   UNL A   1      48.594  39.036  29.369  1.00  0.00    -0.237 OA
ATOM     89  O   UNL A   1      49.409  39.794  31.559  1.00  0.00    -0.744 OA
ENDBRANCH  83  86
ENDBRANCH  55  79
BRANCH  67  90
ATOM     90  C   UNL A   1      47.134  30.006  27.442  1.00  0.00     0.023 A 
ATOM     91  C   UNL A   1      47.607  28.503  27.728  1.00  0.00     0.012 A 
ATOM     92  C   UNL A   1      48.167  30.767  27.168  1.00  0.00     0.148 A 
ATOM     93  C   UNL A   1      48.748  28.100  28.372  1.00  0.00     0.002 A 
ATOM     94  C   UNL A   1      49.416  30.252  27.455  1.00  0.00     0.091 A 
ATOM     95  F   UNL A   1      47.869  31.922  26.583  1.00  0.00    -0.205 F 
ATOM     96  C   UNL A   1      49.721  28.980  28.085  1.00  0.00     0.022 A 
BRANCH  94  97
ATOM     97  S   UNL A   1      50.699  31.398  27.152  1.00  0.00     0.127 S 
ATOM     98  O   UNL A   1      50.270  32.506  27.999  1.00  0.00    -0.237 OA
ATOM     99  O   UNL A   1      51.868  30.651  27.588  1.00  0.00    -0.237 OA
ATOM    100  O   UNL A   1      50.642  31.675  25.721  1.00  0.00    -0.744 OA
ENDBRANCH  94  97
ENDBRANCH  67  90
ENDBRANCH  41  42
ENDBRANCH  34  36
ENDBRANCH  33  34
ENDBRANCH  32  33
ENDBRANCH   1  32
TORSDOF 19
ENDMDL
MODEL 2
REMARK VINA RESULT:     -12.8      1.928      2.345
REMARK SMILES Cc1cc(/C=C2/C(=O)NC(=S)N=C2OCCOCCOC(=O)c2ccc(-c3c4nc(c(-c5cccc(S(=O)(=O)[O-])c5F)c5ccc([nH]5)c(-c5cccc(S(=O)(=O)[O-])c5F)c5nc(c(-c6cccc(S(=O)(=O)[O-])c6F)c6ccc3[nH]6)C=C5)C=C4)cc2)c(C)n1-c1cccc(C(=O)[O-])c1
REMARK SMILES IDX 18 1 17 2 16 3 15 4 14 5 13 6 5 7 6 8 7 9 8 10 9 11 12 12
REMARK SMILES IDX 10 13 11 15 4 16 1 17 2 18 3 19 88 20 86 21 87 22 89 23
REMARK SMILES IDX 90 24 97 25 91 26 93 27 92 28 94 29 95 30 96 31 19 32 20 33
REMARK SMILES IDX 21 34 22 35 23 36 24 37 85 38 25 39 84 40 26 41 27 42 28 43
REMARK SMILES IDX 78 44 29 45 83 46 77 47 79 48 30 49 82 50 76 51 75 52 31 54
REMARK SMILES IDX 63 55 43 56 62 57 44 58 47 59 61 60 80 61 45 62 46 63 60 65
REMARK SMILES IDX 81 66 48 67 32 68 33 69 41 70 34 71 36 72 42 73 35 74 37 75
REMARK SMILES IDX 38 76 39 77 40 78 64 79 65 80 73 81 66 82 68 83 74 84 67 85
REMARK SMILES IDX 69 86 70 87 71 88 72 89 49 90 50 91 58 92 51 93 53 94 59 95
REMARK SMILES IDX 52 96 54 97 55 98 56 99 57 100
REMARK H PARENT 9 14 79 53 47 64
REMARK Flexibility Score: inf
ROOT
ATOM      1  C   UNL A   1      37.796  21.086  25.232  1.00  0.00     0.202 C 
ENDROOT
BRANCH   1   2
ATOM      2  O   UNL A   1      37.164  21.893  24.250  1.00  0.00    -0.374 OA
BRANCH   2   3
ATOM      3  C   UNL A   1      35.882  22.258  24.697  1.00  0.00     0.202 C 
BRANCH   3   4
ATOM      4  C   UNL A   1      35.310  21.535  25.896  1.00  0.00     0.260 C 
BRANCH   4   5
ATOM      5  O   UNL A   1      34.426  20.263  25.538  1.00  0.00    -0.475 OA
BRANCH   5   6
ATOM      6  C   UNL A   1      34.235  19.374  24.598  1.00  0.00     0.229 C 
ATOM      7  C   UNL A   1      32.181  20.562  23.357  1.00  0.00     0.029 C 
ATOM      8  C   UNL A   1      33.044  19.524  23.654  1.00  0.00     0.103 C 
ATOM      9  C   UNL A   1      32.865  18.201  22.929  1.00  0.00     0.262 C 
ATOM     10  O   UNL A   1      32.186  18.054  21.920  1.00  0.00    -0.269 OA
ATOM     11  N   UNL A   1      33.585  17.140  23.481  1.00  0.00    -0.297 N 
ATOM     12  N   UNL A   1      34.983  18.379  24.827  1.00  0.00    -0.184 NA
ATOM     13  C   UNL A   1      34.558  17.179  24.444  1.00  0.00     0.203 C 
ATOM     14  H   UNL A   1      33.363  16.246  23.131  1.00  0.00     0.172 HD
ATOM     15  S   UNL A   1      35.163  15.812  25.198  1.00  0.00    -0.038 S 
BRANCH   7  16
ATOM     16  C   UNL A   1      32.005  21.901  23.946  1.00  0.00    -0.003 A 
ATOM     17  C   UNL A   1      31.140  24.722  26.215  1.00  0.00     0.065 C 
ATOM     18  C   UNL A   1      31.620  23.756  25.259  1.00  0.00     0.020 A 
ATOM     19  C   UNL A   1      31.634  22.350  25.232  1.00  0.00     0.031 A 
ATOM     20  N   UNL A   1      31.955  24.247  24.061  1.00  0.00    -0.318 N 
ATOM     21  C   UNL A   1      32.204  23.123  23.392  1.00  0.00     0.027 A 
ATOM     22  C   UNL A   1      32.710  23.501  22.193  1.00  0.00     0.065 C 
BRANCH  20  23
ATOM     23  C   UNL A   1      32.108  25.619  23.545  1.00  0.00     0.046 A 
ATOM     24  C   UNL A   1      33.353  26.311  23.599  1.00  0.00     0.026 A 
ATOM     25  C   UNL A   1      30.957  26.358  23.275  1.00  0.00     0.036 A 
ATOM     26  C   UNL A   1      33.406  27.702  23.474  1.00  0.00     0.003 A 
ATOM     27  C   UNL A   1      31.056  27.716  22.900  1.00  0.00    -0.001 A 
ATOM     28  C   UNL A   1      32.269  28.385  23.066  1.00  0.00     0.010 A 
BRANCH  27  29
ATOM     29  C   UNL A   1      29.903  28.587  22.526  1.00  0.00     0.072 C 
ATOM     30  O   UNL A   1      28.745  28.381  22.839  1.00  0.00    -0.545 OA
ATOM     31  O   UNL A   1      30.249  29.527  21.647  1.00  0.00    -0.545 OA
ENDBRANCH  27  29
ENDBRANCH  20  23
ENDBRANCH   7  16
ENDBRANCH   5   6
ENDBRANCH   4   5
ENDBRANCH   3   4
ENDBRANCH   2   3
ENDBRANCH   1   2
BRANCH   1  32
ATOM     32  C   UNL A   1      38.745  19.886  25.020  1.00  0.00     0.261 C 
BRANCH  32  33
ATOM     33  O   UNL A   1      39.811  19.343  26.079  1.00  0.00    -0.460 OA
BRANCH  33  34
ATOM     34  C   UNL A   1      41.242  19.629  26.126  1.00  0.00     0.338 C 
ATOM     35  O   UNL A   1      41.877  18.925  25.335  1.00  0.00    -0.246 OA
BRANCH  34  36
ATOM     36  C   UNL A   1      41.961  20.852  27.337  1.00  0.00     0.060 A 
ATOM     37  C   UNL A   1      42.568  21.525  28.416  1.00  0.00     0.016 A 
ATOM     38  C   UNL A   1      41.768  22.186  27.175  1.00  0.00     0.016 A 
ATOM     39  C   UNL A   1      42.649  23.371  29.038  1.00  0.00     0.010 A 
ATOM     40  C   UNL A   1      41.954  23.966  27.827  1.00  0.00     0.010 A 
ATOM     41  C   UNL A   1      42.349  25.294  28.965  1.00  0.00    -0.014 A 
BRANCH  41  42
ATOM     42  C   UNL A   1      42.694  27.329  29.707  1.00  0.00     0.031 A 
ATOM     43  C   UNL A   1      41.164  26.597  28.640  1.00  0.00     0.074 A 
ATOM     44  C   UNL A   1      43.650  28.776  30.668  1.00  0.00     0.049 A 
ATOM     45  N   UNL A   1      41.271  26.162  27.294  1.00  0.00    -0.248 NA
ATOM     46  C   UNL A   1      39.630  26.233  28.441  1.00  0.00     0.031 C 
ATOM     47  C   UNL A   1      44.616  30.279  31.652  1.00  0.00     0.029 A 
ATOM     48  N   UNL A   1      43.559  30.751  30.816  1.00  0.00    -0.354 N 
ATOM     49  C   UNL A   1      40.770  27.199  26.713  1.00  0.00     0.074 A 
ATOM     50  C   UNL A   1      39.474  27.128  27.450  1.00  0.00     0.031 C 
ATOM     51  C   UNL A   1      44.952  31.783  32.300  1.00  0.00     0.029 A 
ATOM     52  C   UNL A   1      43.899  32.392  31.736  1.00  0.00     0.049 A 
ATOM     53  H   UNL A   1      43.106  31.031  29.989  1.00  0.00     0.167 HD
ATOM     54  C   UNL A   1      41.943  27.888  26.698  1.00  0.00     0.034 A 
ATOM     55  C   UNL A   1      43.780  34.106  31.877  1.00  0.00     0.034 A 
ATOM     56  C   UNL A   1      41.747  28.882  27.644  1.00  0.00     0.049 A 
ATOM     57  C   UNL A   1      42.766  34.023  30.912  1.00  0.00     0.074 A 
ATOM     58  C   UNL A   1      40.806  29.159  28.626  1.00  0.00     0.029 A 
ATOM     59  N   UNL A   1      42.873  29.483  27.968  1.00  0.00    -0.354 N 
ATOM     60  N   UNL A   1      43.134  33.798  29.701  1.00  0.00    -0.248 NA
ATOM     61  C   UNL A   1      41.653  33.445  31.608  1.00  0.00     0.031 C 
ATOM     62  C   UNL A   1      41.296  30.142  29.361  1.00  0.00     0.029 A 
ATOM     63  C   UNL A   1      42.443  30.499  28.704  1.00  0.00     0.049 A 
ATOM     64  H   UNL A   1      43.796  29.240  27.727  1.00  0.00     0.167 HD
ATOM     65  C   UNL A   1      42.634  32.558  29.476  1.00  0.00     0.074 A 
ATOM     66  C   UNL A   1      41.596  32.430  30.759  1.00  0.00     0.031 C 
ATOM     67  C   UNL A   1      43.381  31.523  28.799  1.00  0.00     0.034 A 
BRANCH  54  68
ATOM     68  C   UNL A   1      43.391  26.902  26.607  1.00  0.00     0.023 A 
ATOM     69  C   UNL A   1      44.419  27.639  27.169  1.00  0.00     0.012 A 
ATOM     70  C   UNL A   1      43.851  25.656  25.932  1.00  0.00     0.148 A 
ATOM     71  C   UNL A   1      45.704  27.116  27.291  1.00  0.00     0.002 A 
ATOM     72  C   UNL A   1      45.127  25.120  26.077  1.00  0.00     0.091 A 
ATOM     73  F   UNL A   1      43.151  24.953  25.046  1.00  0.00    -0.205 F 
ATOM     74  C   UNL A   1      46.020  25.818  26.865  1.00  0.00     0.022 A 
BRANCH  72  75
ATOM     75  S   UNL A   1      45.587  23.504  25.333  1.00  0.00     0.127 S 
ATOM     76  O   UNL A   1      45.357  23.717  23.903  1.00  0.00    -0.237 OA
ATOM     77  O   UNL A   1      46.989  23.381  25.712  1.00  0.00    -0.237 OA
ATOM     78  O   UNL A   1      44.714  22.484  25.911  1.00  0.00    -0.744 OA
ENDBRANCH  72  75
ENDBRANCH  54  68
BRANCH  55  79
ATOM     79  C   UNL A   1      43.255  35.624  32.886  1.00  0.00     0.023 A 
ATOM     80  C   UNL A   1      42.679  35.901  34.279  1.00  0.00     0.012 A 
ATOM     81  C   UNL A   1      43.717  36.889  32.412  1.00  0.00     0.148 A 
ATOM     82  C   UNL A   1      42.604  37.250  34.957  1.00  0.00     0.002 A 
ATOM     83  C   UNL A   1      43.730  38.187  33.100  1.00  0.00     0.091 A 
ATOM     84  F   UNL A   1      44.240  36.822  31.197  1.00  0.00    -0.205 F 
ATOM     85  C   UNL A   1      43.214  38.369  34.388  1.00  0.00     0.022 A 
BRANCH  83  86
ATOM     86  S   UNL A   1      44.433  39.668  32.243  1.00  0.00     0.127 S 
ATOM     87  O   UNL A   1      45.718  39.178  31.745  1.00  0.00    -0.237 OA
ATOM     88  O   UNL A   1      43.445  39.948  31.201  1.00  0.00    -0.237 OA
ATOM     89  O   UNL A   1      44.531  40.687  33.278  1.00  0.00    -0.744 OA
ENDBRANCH  83  86
ENDBRANCH  55  79
BRANCH  67  90
ATOM     90  C   UNL A   1      45.153  30.897  28.777  1.00  0.00     0.023 A 
ATOM     91  C   UNL A   1      46.055  29.688  29.314  1.00  0.00     0.012 A 
ATOM     92  C   UNL A   1      45.896  31.788  28.164  1.00  0.00     0.148 A 
ATOM     93  C   UNL A   1      47.324  29.765  29.829  1.00  0.00     0.002 A 
ATOM     94  C   UNL A   1      47.262  31.691  28.344  1.00  0.00     0.091 A 
ATOM     95  F   UNL A   1      45.227  32.635  27.390  1.00  0.00    -0.205 F 
ATOM     96  C   UNL A   1      47.975  30.747  29.186  1.00  0.00     0.022 A 
BRANCH  94  97
ATOM     97  S   UNL A   1      48.134  32.993  27.572  1.00  0.00     0.127 S 
ATOM     98  O   UNL A   1      49.489  32.715  28.035  1.00  0.00    -0.237 OA
ATOM     99  O   UNL A   1      47.853  32.741  26.168  1.00  0.00    -0.237 OA
ATOM    100  O   UNL A   1      47.553  34.220  28.108  1.00  0.00    -0.744 OA
ENDBRANCH  94  97
ENDBRANCH  67  90
ENDBRANCH  41  42
ENDBRANCH  34  36
ENDBRANCH  33  34
ENDBRANCH  32  33
ENDBRANCH   1  32
TORSDOF 19
ENDMDL
MODEL 3
REMARK VINA RESULT:     -12.7      2.442      2.942
REMARK SMILES Cc1cc(/C=C2/C(=O)NC(=S)N=C2OCCOCCOC(=O)c2ccc(-c3c4nc(c(-c5cccc(S(=O)(=O)[O-])c5F)c5ccc([nH]5)c(-c5cccc(S(=O)(=O)[O-])c5F)c5nc(c(-c6cccc(S(=O)(=O)[O-])c6F)c6ccc3[nH]6)C=C5)C=C4)cc2)c(C)n1-c1cccc(C(=O)[O-])c1
REMARK SMILES IDX 18 1 17 2 16 3 15 4 14 5 13 6 5 7 6 8 7 9 8 10 9 11 12 12
REMARK SMILES IDX 10 13 11 15 4 16 1 17 2 18 3 19 88 20 86 21 87 22 89 23
REMARK SMILES IDX 90 24 97 25 91 26 93 27 92 28 94 29 95 30 96 31 19 32 20 33
REMARK SMILES IDX 21 34 22 35 23 36 24 37 85 38 25 39 84 40 26 41 27 42 28 43
REMARK SMILES IDX 78 44 29 45 83 46 77 47 79 48 30 49 82 50 76 51 75 52 31 54
REMARK SMILES IDX 63 55 43 56 62 57 44 58 47 59 61 60 80 61 45 62 46 63 60 65
REMARK SMILES IDX 81 66 48 67 32 68 33 69 41 70 34 71 36 72 42 73 35 74 37 75
REMARK SMILES IDX 38 76 39 77 40 78 64 79 65 80 73 81 66 82 68 83 74 84 67 85
REMARK SMILES IDX 69 86 70 87 71 88 72 89 49 90 50 91 58 92 51 93 53 94 59 95
REMARK SMILES IDX 52 96 54 97 55 98 56 99 57 100
REMARK H PARENT 9 14 79 53 47 64
REMARK Flexibility Score: inf
ROOT
ATOM      1  C   UNL A   1      35.338  23.111  25.048  1.00  0.00     0.202 C 
ENDROOT
BRANCH   1   2
ATOM      2  O   UNL A   1      35.285  23.089  26.466  1.00  0.00    -0.374 OA
BRANCH   2   3
ATOM      3  C   UNL A   1      34.045  22.572  26.881  1.00  0.00     0.202 C 
BRANCH   3   4
ATOM      4  C   UNL A   1      33.906  21.073  27.020  1.00  0.00     0.260 C 
BRANCH   4   5
ATOM      5  O   UNL A   1      33.017  20.386  25.893  1.00  0.00    -0.475 OA
BRANCH   5   6
ATOM      6  C   UNL A   1      33.100  19.582  24.865  1.00  0.00     0.229 C 
ATOM      7  C   UNL A   1      32.001  21.191  23.029  1.00  0.00     0.029 C 
ATOM      8  C   UNL A   1      32.468  19.993  23.537  1.00  0.00     0.103 C 
ATOM      9  C   UNL A   1      32.398  18.755  22.661  1.00  0.00     0.262 C 
ATOM     10  O   UNL A   1      32.199  18.776  21.452  1.00  0.00    -0.269 OA
ATOM     11  N   UNL A   1      32.626  17.556  23.338  1.00  0.00    -0.297 N 
ATOM     12  N   UNL A   1      33.501  18.452  25.270  1.00  0.00    -0.184 NA
ATOM     13  C   UNL A   1      33.087  17.372  24.615  1.00  0.00     0.203 C 
ATOM     14  H   UNL A   1      32.428  16.735  22.831  1.00  0.00     0.172 HD
ATOM     15  S   UNL A   1      33.076  15.890  25.394  1.00  0.00    -0.038 S 
BRANCH   7  16
ATOM     16  C   UNL A   1      31.817  22.520  23.637  1.00  0.00    -0.003 A 
ATOM     17  C   UNL A   1      30.799  25.318  25.871  1.00  0.00     0.065 C 
ATOM     18  C   UNL A   1      31.354  24.355  24.954  1.00  0.00     0.020 A 
ATOM     19  C   UNL A   1      31.296  22.951  24.876  1.00  0.00     0.031 A 
ATOM     20  N   UNL A   1      31.877  24.860  23.832  1.00  0.00    -0.318 N 
ATOM     21  C   UNL A   1      32.155  23.743  23.162  1.00  0.00     0.027 A 
ATOM     22  C   UNL A   1      32.842  24.127  22.057  1.00  0.00     0.065 C 
BRANCH  20  23
ATOM     23  C   UNL A   1      32.172  26.235  23.393  1.00  0.00     0.046 A 
ATOM     24  C   UNL A   1      33.475  26.802  23.513  1.00  0.00     0.026 A 
ATOM     25  C   UNL A   1      31.104  27.093  23.134  1.00  0.00     0.036 A 
ATOM     26  C   UNL A   1      33.662  28.187  23.463  1.00  0.00     0.003 A 
ATOM     27  C   UNL A   1      31.340  28.453  22.834  1.00  0.00    -0.001 A 
ATOM     28  C   UNL A   1      32.606  28.995  23.065  1.00  0.00     0.010 A 
BRANCH  27  29
ATOM     29  C   UNL A   1      30.286  29.447  22.479  1.00  0.00     0.072 C 
ATOM     30  O   UNL A   1      29.992  29.776  21.345  1.00  0.00    -0.545 OA
ATOM     31  O   UNL A   1      29.816  30.084  23.551  1.00  0.00    -0.545 OA
ENDBRANCH  27  29
ENDBRANCH  20  23
ENDBRANCH   7  16
ENDBRANCH   5   6
ENDBRANCH   4   5
ENDBRANCH   3   4
ENDBRANCH   2   3
ENDBRANCH   1   2
BRANCH   1  32
ATOM     32  C   UNL A   1      36.340  22.395  24.115  1.00  0.00     0.261 C 
BRANCH  32  33
ATOM     33  O   UNL A   1      37.217  21.115  24.497  1.00  0.00    -0.460 OA
BRANCH  33  34
ATOM     34  C   UNL A   1      38.372  21.064  25.389  1.00  0.00     0.338 C 
ATOM     35  O   UNL A   1      38.865  19.932  25.435  1.00  0.00    -0.246 OA
BRANCH  34  36
ATOM     36  C   UNL A   1      38.913  22.545  26.384  1.00  0.00     0.060 A 
ATOM     37  C   UNL A   1      39.022  23.729  27.140  1.00  0.00     0.016 A 
ATOM     38  C   UNL A   1      40.229  22.855  26.512  1.00  0.00     0.016 A 
ATOM     39  C   UNL A   1      40.475  24.922  27.659  1.00  0.00     0.010 A 
ATOM     40  C   UNL A   1      41.588  24.045  27.117  1.00  0.00     0.010 A 
ATOM     41  C   UNL A   1      42.320  25.521  27.821  1.00  0.00    -0.014 A 
BRANCH  41  42
ATOM     42  C   UNL A   1      43.846  26.866  28.642  1.00  0.00     0.031 A 
ATOM     43  C   UNL A   1      42.490  27.194  27.205  1.00  0.00     0.074 A 
ATOM     44  C   UNL A   1      45.334  27.417  29.831  1.00  0.00     0.049 A 
ATOM     45  N   UNL A   1      42.516  26.568  25.932  1.00  0.00    -0.248 NA
ATOM     46  C   UNL A   1      41.223  27.943  26.605  1.00  0.00     0.031 C 
ATOM     47  C   UNL A   1      46.864  28.006  31.046  1.00  0.00     0.029 A 
ATOM     48  N   UNL A   1      46.635  28.908  29.964  1.00  0.00    -0.354 N 
ATOM     49  C   UNL A   1      43.015  27.541  25.246  1.00  0.00     0.074 A 
ATOM     50  C   UNL A   1      41.937  28.506  25.614  1.00  0.00     0.031 C 
ATOM     51  C   UNL A   1      48.027  28.962  31.770  1.00  0.00     0.029 A 
ATOM     52  C   UNL A   1      47.845  30.009  30.953  1.00  0.00     0.049 A 
ATOM     53  H   UNL A   1      46.680  29.266  29.048  1.00  0.00     0.167 HD
ATOM     54  C   UNL A   1      44.305  27.229  25.546  1.00  0.00     0.034 A 
ATOM     55  C   UNL A   1      48.943  31.333  31.069  1.00  0.00     0.034 A 
ATOM     56  C   UNL A   1      44.688  28.240  26.413  1.00  0.00     0.049 A 
ATOM     57  C   UNL A   1      48.377  31.789  29.870  1.00  0.00     0.074 A 
ATOM     58  C   UNL A   1      44.051  29.255  27.115  1.00  0.00     0.029 A 
ATOM     59  N   UNL A   1      45.819  27.959  27.027  1.00  0.00    -0.354 N 
ATOM     60  N   UNL A   1      48.703  31.160  28.797  1.00  0.00    -0.248 NA
ATOM     61  C   UNL A   1      47.075  32.262  30.244  1.00  0.00     0.031 C 
ATOM     62  C   UNL A   1      44.938  29.752  27.960  1.00  0.00     0.029 A 
ATOM     63  C   UNL A   1      46.099  29.107  27.631  1.00  0.00     0.049 A 
ATOM     64  H   UNL A   1      46.326  27.116  27.037  1.00  0.00     0.167 HD
ATOM     65  C   UNL A   1      47.531  30.579  28.440  1.00  0.00     0.074 A 
ATOM     66  C   UNL A   1      46.485  31.426  29.403  1.00  0.00     0.031 C 
ATOM     67  C   UNL A   1      47.444  29.213  27.977  1.00  0.00     0.034 A 
BRANCH  54  68
ATOM     68  C   UNL A   1      44.618  25.527  25.833  1.00  0.00     0.023 A 
ATOM     69  C   UNL A   1      45.619  25.455  26.786  1.00  0.00     0.012 A 
ATOM     70  C   UNL A   1      44.289  24.213  25.214  1.00  0.00     0.148 A 
ATOM     71  C   UNL A   1      46.072  24.230  27.271  1.00  0.00     0.002 A 
ATOM     72  C   UNL A   1      44.720  22.989  25.715  1.00  0.00     0.091 A 
ATOM     73  F   UNL A   1      43.632  24.040  24.070  1.00  0.00    -0.205 F 
ATOM     74  C   UNL A   1      45.534  23.013  26.831  1.00  0.00     0.022 A 
BRANCH  72  75
ATOM     75  S   UNL A   1      44.162  21.396  24.989  1.00  0.00     0.127 S 
ATOM     76  O   UNL A   1      45.022  20.410  25.645  1.00  0.00    -0.237 OA
ATOM     77  O   UNL A   1      42.762  21.349  25.395  1.00  0.00    -0.237 OA
ATOM     78  O   UNL A   1      44.368  21.470  23.543  1.00  0.00    -0.744 OA
ENDBRANCH  72  75
ENDBRANCH  54  68
BRANCH  55  79
ATOM     79  C   UNL A   1      49.459  32.951  31.914  1.00  0.00     0.023 A 
ATOM     80  C   UNL A   1      49.998  34.320  31.482  1.00  0.00     0.012 A 
ATOM     81  C   UNL A   1      49.030  33.125  33.264  1.00  0.00     0.148 A 
ATOM     82  C   UNL A   1      50.072  35.557  32.346  1.00  0.00     0.002 A 
ATOM     83  C   UNL A   1      49.015  34.345  34.082  1.00  0.00     0.091 A 
ATOM     84  F   UNL A   1      48.543  32.013  33.794  1.00  0.00    -0.205 F 
ATOM     85  C   UNL A   1      49.495  35.576  33.617  1.00  0.00     0.022 A 
BRANCH  83  86
ATOM     86  S   UNL A   1      48.360  34.279  35.810  1.00  0.00     0.127 S 
ATOM     87  O   UNL A   1      49.348  33.452  36.502  1.00  0.00    -0.237 OA
ATOM     88  O   UNL A   1      48.353  35.685  36.215  1.00  0.00    -0.237 OA
ATOM     89  O   UNL A   1      47.042  33.674  35.688  1.00  0.00    -0.744 OA
ENDBRANCH  83  86
ENDBRANCH  55  79
BRANCH  67  90
ATOM     90  C   UNL A   1      48.218  27.559  28.418  1.00  0.00     0.023 A 
ATOM     91  C   UNL A   1      48.105  26.375  29.490  1.00  0.00     0.012 A 
ATOM     92  C   UNL A   1      49.224  27.346  27.603  1.00  0.00     0.148 A 
ATOM     93  C   UNL A   1      49.136  25.694  30.086  1.00  0.00     0.002 A 
ATOM     94  C   UNL A   1      50.132  26.372  27.973  1.00  0.00     0.091 A 
ATOM     95  F   UNL A   1      49.197  28.061  26.485  1.00  0.00    -0.205 F 
ATOM     96  C   UNL A   1      50.136  25.591  29.197  1.00  0.00     0.022 A 
BRANCH  94  97
ATOM     97  S   UNL A   1      51.480  26.259  26.868  1.00  0.00     0.127 S 
ATOM     98  O   UNL A   1      52.505  26.965  27.629  1.00  0.00    -0.237 OA
ATOM     99  O   UNL A   1      51.632  24.818  26.739  1.00  0.00    -0.237 OA
ATOM    100  O   UNL A   1      51.047  26.946  25.656  1.00  0.00    -0.744 OA
ENDBRANCH  94  97
ENDBRANCH  67  90
ENDBRANCH  41  42
ENDBRANCH  34  36
ENDBRANCH  33  34
ENDBRANCH  32  33
ENDBRANCH   1  32
TORSDOF 19
ENDMDL
