MODEL 1
REMARK VINA RESULT:     -12.8      0.000      0.000
REMARK SMILES O=C(OCCOCCOC(=O)c1ccc(-c2c3nc(c(-c4cccc(S(=O)(=O)[O-])c4F)c4ccc([nH]4)c(-c4cccc(S(=O)(=O)[O-])c4F)c4nc(c(-c5cccc(S(=O)(=O)[O-])c5F)c5ccc2[nH]5)C=C4)C=C3)cc1)C1=Cc2cc(Cl)c(Cl)c(Cl)c2O[C@@H]1C(F)(F)F
REMARK SMILES IDX 7 1 6 2 5 3 4 4 3 5 2 6 1 7 75 8 76 9 87 10 77 11 86 12
REMARK SMILES IDX 78 13 85 14 79 15 83 16 80 17 81 18 84 19 82 20 88 21 89 22
REMARK SMILES IDX 90 23 91 24 8 25 9 26 10 27 11 28 12 29 13 30 74 31 14 32
REMARK SMILES IDX 73 33 15 34 16 35 17 36 67 37 18 38 72 39 66 40 68 41 19 42
REMARK SMILES IDX 71 43 65 44 64 45 20 47 52 48 32 49 51 50 33 51 36 52 50 53
REMARK SMILES IDX 69 54 34 55 35 56 49 58 70 59 37 60 21 61 22 62 30 63 23 64
REMARK SMILES IDX 25 65 31 66 24 67 26 68 27 69 28 70 29 71 53 72 54 73 62 74
REMARK SMILES IDX 55 75 57 76 63 77 56 78 58 79 59 80 60 81 61 82 38 83 39 84
REMARK SMILES IDX 47 85 40 86 42 87 48 88 41 89 43 90 44 91 45 92 46 93
REMARK H PARENT 68 46 36 57
REMARK Flexibility Score: inf
ROOT
ATOM      1  C   UNL A   1      32.000  29.829  25.190  1.00  0.00     0.202 C 
ENDROOT
BRANCH   1   2
ATOM      2  O   UNL A   1      30.977  29.657  24.198  1.00  0.00    -0.374 OA
BRANCH   2   3
ATOM      3  C   UNL A   1      30.481  28.443  23.292  1.00  0.00     0.202 C 
BRANCH   3   4
ATOM      4  C   UNL A   1      30.719  26.278  23.454  1.00  0.00     0.261 C 
BRANCH   4   5
ATOM      5  O   UNL A   1      31.394  25.351  22.429  1.00  0.00    -0.460 OA
BRANCH   5   6
ATOM      6  C   UNL A   1      32.665  25.078  22.732  1.00  0.00     0.338 C 
ATOM      7  O   UNL A   1      33.624  24.964  22.013  1.00  0.00    -0.246 OA
BRANCH   6   8
ATOM      8  C   UNL A   1      32.396  24.619  24.077  1.00  0.00     0.087 C 
ATOM      9  C   UNL A   1      31.816  23.254  24.080  1.00  0.00     0.027 C 
ATOM     10  C   UNL A   1      34.126  25.087  24.808  1.00  0.00     0.316 C 
ATOM     11  C   UNL A   1      32.739  21.779  24.588  1.00  0.00     0.020 A 
ATOM     12  O   UNL A   1      35.149  23.516  25.282  1.00  0.00    -0.474 OA
ATOM     13  C   UNL A   1      32.162  20.556  24.400  1.00  0.00     0.034 A 
ATOM     14  C   UNL A   1      34.407  21.858  25.059  1.00  0.00     0.148 A 
ATOM     15  C   UNL A   1      33.027  19.455  24.525  1.00  0.00     0.062 A 
ATOM     16  C   UNL A   1      35.210  20.748  24.958  1.00  0.00     0.103 A 
ATOM     17  Cl  UNL A   1      32.225  17.911  24.353  1.00  0.00    -0.083 Cl
ATOM     18  C   UNL A   1      34.480  19.539  24.715  1.00  0.00     0.082 A 
ATOM     19  Cl  UNL A   1      36.900  20.899  24.745  1.00  0.00    -0.079 Cl
ATOM     20  Cl  UNL A   1      35.353  18.043  24.519  1.00  0.00    -0.081 Cl
BRANCH  10  21
ATOM     21  C   UNL A   1      33.644  26.343  25.656  1.00  0.00     0.430 C 
ATOM     22  F   UNL A   1      32.634  26.125  26.516  1.00  0.00    -0.167 F 
ATOM     23  F   UNL A   1      34.696  26.712  26.453  1.00  0.00    -0.167 F 
ATOM     24  F   UNL A   1      33.373  27.451  24.929  1.00  0.00    -0.167 F 
ENDBRANCH  10  21
ENDBRANCH   6   8
ENDBRANCH   5   6
ENDBRANCH   4   5
ENDBRANCH   3   4
ENDBRANCH   2   3
ENDBRANCH   1   2
BRANCH   1  25
ATOM     25  C   UNL A   1      31.824  30.924  26.228  1.00  0.00     0.261 C 
BRANCH  25  26
ATOM     26  O   UNL A   1      32.708  30.771  27.318  1.00  0.00    -0.460 OA
BRANCH  26  27
ATOM     27  C   UNL A   1      33.446  31.870  27.573  1.00  0.00     0.338 C 
ATOM     28  O   UNL A   1      33.106  33.036  27.490  1.00  0.00    -0.246 OA
BRANCH  27  29
ATOM     29  C   UNL A   1      34.779  31.423  27.999  1.00  0.00     0.060 A 
ATOM     30  C   UNL A   1      34.969  30.053  28.188  1.00  0.00     0.016 A 
ATOM     31  C   UNL A   1      35.830  32.338  28.176  1.00  0.00     0.016 A 
ATOM     32  C   UNL A   1      36.225  29.592  28.553  1.00  0.00     0.010 A 
ATOM     33  C   UNL A   1      37.090  31.873  28.523  1.00  0.00     0.010 A 
ATOM     34  C   UNL A   1      37.277  30.502  28.734  1.00  0.00    -0.014 A 
BRANCH  34  35
ATOM     35  C   UNL A   1      38.486  30.038  29.424  1.00  0.00     0.031 A 
ATOM     36  C   UNL A   1      38.663  30.498  30.835  1.00  0.00     0.074 A 
ATOM     37  C   UNL A   1      39.365  29.218  28.830  1.00  0.00     0.049 A 
ATOM     38  N   UNL A   1      39.569  30.154  31.705  1.00  0.00    -0.248 NA
ATOM     39  C   UNL A   1      37.685  31.484  31.331  1.00  0.00     0.031 C 
ATOM     40  C   UNL A   1      39.284  28.748  27.453  1.00  0.00     0.029 A 
ATOM     41  N   UNL A   1      40.498  28.631  29.322  1.00  0.00    -0.354 N 
ATOM     42  C   UNL A   1      39.284  30.894  32.842  1.00  0.00     0.074 A 
ATOM     43  C   UNL A   1      38.137  31.721  32.549  1.00  0.00     0.031 C 
ATOM     44  C   UNL A   1      40.301  27.902  27.217  1.00  0.00     0.029 A 
ATOM     45  C   UNL A   1      41.137  27.826  28.410  1.00  0.00     0.049 A 
ATOM     46  H   UNL A   1      40.825  28.771  30.239  1.00  0.00     0.167 HD
ATOM     47  C   UNL A   1      39.923  30.879  34.030  1.00  0.00     0.034 A 
ATOM     48  C   UNL A   1      42.279  27.124  28.535  1.00  0.00     0.034 A 
ATOM     49  C   UNL A   1      41.088  30.085  34.286  1.00  0.00     0.049 A 
ATOM     50  C   UNL A   1      43.001  27.165  29.856  1.00  0.00     0.074 A 
ATOM     51  C   UNL A   1      41.816  29.979  35.454  1.00  0.00     0.029 A 
ATOM     52  N   UNL A   1      41.723  29.294  33.339  1.00  0.00    -0.354 N 
ATOM     53  N   UNL A   1      42.665  27.782  30.965  1.00  0.00    -0.248 NA
ATOM     54  C   UNL A   1      44.243  26.387  29.954  1.00  0.00     0.031 C 
ATOM     55  C   UNL A   1      42.928  29.173  35.194  1.00  0.00     0.029 A 
ATOM     56  C   UNL A   1      42.848  28.712  33.889  1.00  0.00     0.049 A 
ATOM     57  H   UNL A   1      41.416  29.167  32.412  1.00  0.00     0.167 HD
ATOM     58  C   UNL A   1      43.624  27.427  31.907  1.00  0.00     0.074 A 
ATOM     59  C   UNL A   1      44.550  26.535  31.236  1.00  0.00     0.031 C 
ATOM     60  C   UNL A   1      43.730  27.798  33.207  1.00  0.00     0.034 A 
BRANCH  47  61
ATOM     61  C   UNL A   1      39.393  31.793  35.097  1.00  0.00     0.023 A 
ATOM     62  C   UNL A   1      38.328  31.382  35.926  1.00  0.00     0.012 A 
ATOM     63  C   UNL A   1      39.934  33.082  35.253  1.00  0.00     0.148 A 
ATOM     64  C   UNL A   1      37.777  32.259  36.859  1.00  0.00     0.002 A 
ATOM     65  C   UNL A   1      39.420  33.929  36.223  1.00  0.00     0.091 A 
ATOM     66  F   UNL A   1      40.919  33.465  34.429  1.00  0.00    -0.205 F 
ATOM     67  C   UNL A   1      38.329  33.529  37.013  1.00  0.00     0.022 A 
BRANCH  65  68
ATOM     68  S   UNL A   1      40.114  35.550  36.549  1.00  0.00     0.127 S 
ATOM     69  O   UNL A   1      39.559  36.335  35.448  1.00  0.00    -0.237 OA
ATOM     70  O   UNL A   1      39.553  35.860  37.864  1.00  0.00    -0.237 OA
ATOM     71  O   UNL A   1      41.561  35.383  36.528  1.00  0.00    -0.744 OA
ENDBRANCH  65  68
ENDBRANCH  47  61
BRANCH  48  72
ATOM     72  C   UNL A   1      42.792  26.304  27.402  1.00  0.00     0.023 A 
ATOM     73  C   UNL A   1      43.665  26.884  26.461  1.00  0.00     0.012 A 
ATOM     74  C   UNL A   1      42.418  24.955  27.251  1.00  0.00     0.148 A 
ATOM     75  C   UNL A   1      44.123  26.148  25.366  1.00  0.00     0.002 A 
ATOM     76  C   UNL A   1      42.919  24.212  26.189  1.00  0.00     0.091 A 
ATOM     77  F   UNL A   1      41.585  24.423  28.156  1.00  0.00    -0.205 F 
ATOM     78  C   UNL A   1      43.755  24.812  25.234  1.00  0.00     0.022 A 
BRANCH  76  79
ATOM     79  S   UNL A   1      42.586  22.459  25.991  1.00  0.00     0.127 S 
ATOM     80  O   UNL A   1      41.126  22.437  25.930  1.00  0.00    -0.237 OA
ATOM     81  O   UNL A   1      43.260  22.170  24.725  1.00  0.00    -0.237 OA
ATOM     82  O   UNL A   1      43.172  21.807  27.153  1.00  0.00    -0.744 OA
ENDBRANCH  76  79
ENDBRANCH  48  72
BRANCH  60  83
ATOM     83  C   UNL A   1      44.836  27.178  34.021  1.00  0.00     0.023 A 
ATOM     84  C   UNL A   1      46.129  27.736  34.024  1.00  0.00     0.012 A 
ATOM     85  C   UNL A   1      44.557  26.069  34.844  1.00  0.00     0.148 A 
ATOM     86  C   UNL A   1      47.139  27.167  34.801  1.00  0.00     0.002 A 
ATOM     87  C   UNL A   1      45.549  25.550  35.663  1.00  0.00     0.091 A 
ATOM     88  F   UNL A   1      43.322  25.546  34.815  1.00  0.00    -0.205 F 
ATOM     89  C   UNL A   1      46.847  26.085  35.629  1.00  0.00     0.022 A 
BRANCH  87  90
ATOM     90  S   UNL A   1      45.230  24.233  36.840  1.00  0.00     0.127 S 
ATOM     91  O   UNL A   1      44.797  23.148  35.961  1.00  0.00    -0.237 OA
ATOM     92  O   UNL A   1      46.545  24.038  37.448  1.00  0.00    -0.237 OA
ATOM     93  O   UNL A   1      44.212  24.741  37.750  1.00  0.00    -0.744 OA
ENDBRANCH  87  90
ENDBRANCH  60  83
ENDBRANCH  34  35
ENDBRANCH  27  29
ENDBRANCH  26  27
ENDBRANCH  25  26
ENDBRANCH   1  25
TORSDOF 18
ENDMDL
MODEL 2
REMARK VINA RESULT:     -12.5      1.664      2.490
REMARK SMILES O=C(OCCOCCOC(=O)c1ccc(-c2c3nc(c(-c4cccc(S(=O)(=O)[O-])c4F)c4ccc([nH]4)c(-c4cccc(S(=O)(=O)[O-])c4F)c4nc(c(-c5cccc(S(=O)(=O)[O-])c5F)c5ccc2[nH]5)C=C4)C=C3)cc1)C1=Cc2cc(Cl)c(Cl)c(Cl)c2O[C@@H]1C(F)(F)F
REMARK SMILES IDX 7 1 6 2 5 3 4 4 3 5 2 6 1 7 75 8 76 9 87 10 77 11 86 12
REMARK SMILES IDX 78 13 85 14 79 15 83 16 80 17 81 18 84 19 82 20 88 21 89 22
REMARK SMILES IDX 90 23 91 24 8 25 9 26 10 27 11 28 12 29 13 30 74 31 14 32
REMARK SMILES IDX 73 33 15 34 16 35 17 36 67 37 18 38 72 39 66 40 68 41 19 42
REMARK SMILES IDX 71 43 65 44 64 45 20 47 52 48 32 49 51 50 33 51 36 52 50 53
REMARK SMILES IDX 69 54 34 55 35 56 49 58 70 59 37 60 21 61 22 62 30 63 23 64
REMARK SMILES IDX 25 65 31 66 24 67 26 68 27 69 28 70 29 71 53 72 54 73 62 74
REMARK SMILES IDX 55 75 57 76 63 77 56 78 58 79 59 80 60 81 61 82 38 83 39 84
REMARK SMILES IDX 47 85 40 86 42 87 48 88 41 89 43 90 44 91 45 92 46 93
REMARK H PARENT 68 46 36 57
REMARK Flexibility Score: inf
ROOT
ATOM      1  C   UNL A   1      31.482  29.992  25.517  1.00  0.00     0.202 C 
ENDROOT
BRANCH   1   2
ATOM      2  O   UNL A   1      31.420  28.686  26.107  1.00  0.00    -0.374 OA
BRANCH   2   3
ATOM      3  C   UNL A   1      31.463  27.194  25.545  1.00  0.00     0.202 C 
BRANCH   3   4
ATOM      4  C   UNL A   1      31.170  25.245  26.487  1.00  0.00     0.261 C 
BRANCH   4   5
ATOM      5  O   UNL A   1      31.213  23.875  25.790  1.00  0.00    -0.460 OA
BRANCH   5   6
ATOM      6  C   UNL A   1      32.293  23.160  26.112  1.00  0.00     0.338 C 
ATOM      7  O   UNL A   1      32.587  22.628  27.151  1.00  0.00    -0.246 OA
BRANCH   6   8
ATOM      8  C   UNL A   1      33.082  23.573  24.972  1.00  0.00     0.087 C 
ATOM      9  C   UNL A   1      34.333  24.250  25.392  1.00  0.00     0.027 C 
ATOM     10  C   UNL A   1      33.001  21.880  24.037  1.00  0.00     0.316 C 
ATOM     11  C   UNL A   1      35.971  23.483  25.272  1.00  0.00     0.020 A 
ATOM     12  O   UNL A   1      34.730  21.019  23.970  1.00  0.00    -0.474 OA
ATOM     13  C   UNL A   1      37.033  24.130  25.834  1.00  0.00     0.034 A 
ATOM     14  C   UNL A   1      36.183  21.859  24.700  1.00  0.00     0.148 A 
ATOM     15  C   UNL A   1      38.201  23.362  25.977  1.00  0.00     0.062 A 
ATOM     16  C   UNL A   1      37.291  21.134  25.065  1.00  0.00     0.103 A 
ATOM     17  Cl  UNL A   1      39.554  24.257  26.629  1.00  0.00    -0.083 Cl
ATOM     18  C   UNL A   1      38.310  21.927  25.685  1.00  0.00     0.082 A 
ATOM     19  Cl  UNL A   1      37.245  19.425  25.125  1.00  0.00    -0.079 Cl
ATOM     20  Cl  UNL A   1      39.767  21.153  26.247  1.00  0.00    -0.081 Cl
BRANCH  10  21
ATOM     21  C   UNL A   1      31.991  22.338  22.896  1.00  0.00     0.430 C 
ATOM     22  F   UNL A   1      30.883  22.978  23.307  1.00  0.00    -0.167 F 
ATOM     23  F   UNL A   1      32.651  23.261  22.128  1.00  0.00    -0.167 F 
ATOM     24  F   UNL A   1      31.641  21.367  22.022  1.00  0.00    -0.167 F 
ENDBRANCH  10  21
ENDBRANCH   6   8
ENDBRANCH   5   6
ENDBRANCH   4   5
ENDBRANCH   3   4
ENDBRANCH   2   3
ENDBRANCH   1   2
BRANCH   1  25
ATOM     25  C   UNL A   1      31.913  31.159  26.388  1.00  0.00     0.261 C 
BRANCH  25  26
ATOM     26  O   UNL A   1      33.019  30.835  27.203  1.00  0.00    -0.460 OA
BRANCH  26  27
ATOM     27  C   UNL A   1      33.687  31.913  27.661  1.00  0.00     0.338 C 
ATOM     28  O   UNL A   1      33.296  33.064  27.725  1.00  0.00    -0.246 OA
BRANCH  27  29
ATOM     29  C   UNL A   1      35.014  31.461  28.102  1.00  0.00     0.060 A 
ATOM     30  C   UNL A   1      35.195  30.092  28.300  1.00  0.00     0.016 A 
ATOM     31  C   UNL A   1      36.066  32.373  28.286  1.00  0.00     0.016 A 
ATOM     32  C   UNL A   1      36.445  29.626  28.680  1.00  0.00     0.010 A 
ATOM     33  C   UNL A   1      37.321  31.904  28.648  1.00  0.00     0.010 A 
ATOM     34  C   UNL A   1      37.499  30.533  28.867  1.00  0.00    -0.014 A 
BRANCH  34  35
ATOM     35  C   UNL A   1      38.700  30.067  29.572  1.00  0.00     0.031 A 
ATOM     36  C   UNL A   1      38.835  30.484  31.001  1.00  0.00     0.074 A 
ATOM     37  C   UNL A   1      39.605  29.279  28.974  1.00  0.00     0.049 A 
ATOM     38  N   UNL A   1      39.725  30.128  31.881  1.00  0.00    -0.248 NA
ATOM     39  C   UNL A   1      37.829  31.439  31.502  1.00  0.00     0.031 C 
ATOM     40  C   UNL A   1      39.565  28.852  27.582  1.00  0.00     0.029 A 
ATOM     41  N   UNL A   1      40.736  28.695  29.475  1.00  0.00    -0.354 N 
ATOM     42  C   UNL A   1      39.401  30.827  33.033  1.00  0.00     0.074 A 
ATOM     43  C   UNL A   1      38.248  31.644  32.738  1.00  0.00     0.031 C 
ATOM     44  C   UNL A   1      40.602  28.030  27.344  1.00  0.00     0.029 A 
ATOM     45  C   UNL A   1      41.410  27.930  28.554  1.00  0.00     0.049 A 
ATOM     46  H   UNL A   1      41.039  28.812  30.404  1.00  0.00     0.167 HD
ATOM     47  C   UNL A   1      40.012  30.785  34.235  1.00  0.00     0.034 A 
ATOM     48  C   UNL A   1      42.560  27.242  28.685  1.00  0.00     0.034 A 
ATOM     49  C   UNL A   1      41.184  30.002  34.495  1.00  0.00     0.049 A 
ATOM     50  C   UNL A   1      43.250  27.253  30.024  1.00  0.00     0.074 A 
ATOM     51  C   UNL A   1      41.884  29.870  35.677  1.00  0.00     0.029 A 
ATOM     52  N   UNL A   1      41.854  29.251  33.539  1.00  0.00    -0.354 N 
ATOM     53  N   UNL A   1      42.878  27.829  31.143  1.00  0.00    -0.248 NA
ATOM     54  C   UNL A   1      44.501  26.493  30.128  1.00  0.00     0.031 C 
ATOM     55  C   UNL A   1      43.016  29.091  35.419  1.00  0.00     0.029 A 
ATOM     56  C   UNL A   1      42.975  28.670  34.098  1.00  0.00     0.049 A 
ATOM     57  H   UNL A   1      41.571  29.148  32.602  1.00  0.00     0.167 HD
ATOM     58  C   UNL A   1      43.819  27.460  32.097  1.00  0.00     0.074 A 
ATOM     59  C   UNL A   1      44.775  26.605  31.421  1.00  0.00     0.031 C 
ATOM     60  C   UNL A   1      43.888  27.792  33.410  1.00  0.00     0.034 A 
BRANCH  47  61
ATOM     61  C   UNL A   1      39.441  31.656  35.317  1.00  0.00     0.023 A 
ATOM     62  C   UNL A   1      38.425  31.169  36.166  1.00  0.00     0.012 A 
ATOM     63  C   UNL A   1      39.894  32.979  35.468  1.00  0.00     0.148 A 
ATOM     64  C   UNL A   1      37.833  32.003  37.113  1.00  0.00     0.002 A 
ATOM     65  C   UNL A   1      39.342  33.785  36.452  1.00  0.00     0.091 A 
ATOM     66  F   UNL A   1      40.833  33.432  34.626  1.00  0.00    -0.205 F 
ATOM     67  C   UNL A   1      38.298  33.307  37.262  1.00  0.00     0.022 A 
BRANCH  65  68
ATOM     68  S   UNL A   1      39.928  35.449  36.771  1.00  0.00     0.127 S 
ATOM     69  O   UNL A   1      41.371  35.242  36.865  1.00  0.00    -0.237 OA
ATOM     70  O   UNL A   1      39.489  36.159  35.570  1.00  0.00    -0.237 OA
ATOM     71  O   UNL A   1      39.279  35.878  38.003  1.00  0.00    -0.744 OA
ENDBRANCH  65  68
ENDBRANCH  47  61
BRANCH  48  72
ATOM     72  C   UNL A   1      43.114  26.467  27.540  1.00  0.00     0.023 A 
ATOM     73  C   UNL A   1      43.808  27.138  26.515  1.00  0.00     0.012 A 
ATOM     74  C   UNL A   1      42.954  25.070  27.460  1.00  0.00     0.148 A 
ATOM     75  C   UNL A   1      44.297  26.438  25.410  1.00  0.00     0.002 A 
ATOM     76  C   UNL A   1      43.489  24.372  26.385  1.00  0.00     0.091 A 
ATOM     77  F   UNL A   1      42.287  24.452  28.445  1.00  0.00    -0.205 F 
ATOM     78  C   UNL A   1      44.143  25.055  25.348  1.00  0.00     0.022 A 
BRANCH  76  79
ATOM     79  S   UNL A   1      43.430  22.581  26.268  1.00  0.00     0.127 S 
ATOM     80  O   UNL A   1      42.705  22.386  25.014  1.00  0.00    -0.237 OA
ATOM     81  O   UNL A   1      44.852  22.241  26.217  1.00  0.00    -0.237 OA
ATOM     82  O   UNL A   1      42.739  22.125  27.466  1.00  0.00    -0.744 OA
ENDBRANCH  76  79
ENDBRANCH  48  72
BRANCH  60  83
ATOM     83  C   UNL A   1      44.984  27.164  34.231  1.00  0.00     0.023 A 
ATOM     84  C   UNL A   1      46.239  27.791  34.359  1.00  0.00     0.012 A 
ATOM     85  C   UNL A   1      44.729  25.972  34.937  1.00  0.00     0.148 A 
ATOM     86  C   UNL A   1      47.239  27.212  35.141  1.00  0.00     0.002 A 
ATOM     87  C   UNL A   1      45.706  25.438  35.765  1.00  0.00     0.091 A 
ATOM     88  F   UNL A   1      43.532  25.385  34.791  1.00  0.00    -0.205 F 
ATOM     89  C   UNL A   1      46.968  26.045  35.854  1.00  0.00     0.022 A 
BRANCH  87  90
ATOM     90  S   UNL A   1      45.405  24.005  36.803  1.00  0.00     0.127 S 
ATOM     91  O   UNL A   1      44.599  24.581  37.878  1.00  0.00    -0.237 OA
ATOM     92  O   UNL A   1      44.673  23.118  35.899  1.00  0.00    -0.237 OA
ATOM     93  O   UNL A   1      46.716  23.512  37.203  1.00  0.00    -0.744 OA
ENDBRANCH  87  90
ENDBRANCH  60  83
ENDBRANCH  34  35
ENDBRANCH  27  29
ENDBRANCH  26  27
ENDBRANCH  25  26
ENDBRANCH   1  25
TORSDOF 18
ENDMDL
MODEL 3
REMARK VINA RESULT:     -12.5      5.227     10.294
REMARK SMILES O=C(OCCOCCOC(=O)c1ccc(-c2c3nc(c(-c4cccc(S(=O)(=O)[O-])c4F)c4ccc([nH]4)c(-c4cccc(S(=O)(=O)[O-])c4F)c4nc(c(-c5cccc(S(=O)(=O)[O-])c5F)c5ccc2[nH]5)C=C4)C=C3)cc1)C1=Cc2cc(Cl)c(Cl)c(Cl)c2O[C@@H]1C(F)(F)F
REMARK SMILES IDX 7 1 6 2 5 3 4 4 3 5 2 6 1 7 75 8 76 9 87 10 77 11 86 12
REMARK SMILES IDX 78 13 85 14 79 15 83 16 80 17 81 18 84 19 82 20 88 21 89 22
REMARK SMILES IDX 90 23 91 24 8 25 9 26 10 27 11 28 12 29 13 30 74 31 14 32
REMARK SMILES IDX 73 33 15 34 16 35 17 36 67 37 18 38 72 39 66 40 68 41 19 42
REMARK SMILES IDX 71 43 65 44 64 45 20 47 52 48 32 49 51 50 33 51 36 52 50 53
REMARK SMILES IDX 69 54 34 55 35 56 49 58 70 59 37 60 21 61 22 62 30 63 23 64
REMARK SMILES IDX 25 65 31 66 24 67 26 68 27 69 28 70 29 71 53 72 54 73 62 74
REMARK SMILES IDX 55 75 57 76 63 77 56 78 58 79 59 80 60 81 61 82 38 83 39 84
REMARK SMILES IDX 47 85 40 86 42 87 48 88 41 89 43 90 44 91 45 92 46 93
REMARK H PARENT 68 46 36 57
REMARK Flexibility Score: inf
ROOT
ATOM      1  C   UNL A   1      36.966  20.554  24.789  1.00  0.00     0.202 C 
ENDROOT
BRANCH   1   2
ATOM      2  O   UNL A   1      35.783  19.769  24.993  1.00  0.00    -0.374 OA
BRANCH   2   3
ATOM      3  C   UNL A   1      34.216  20.044  24.876  1.00  0.00     0.202 C 
BRANCH   3   4
ATOM      4  C   UNL A   1      32.800  21.119  26.145  1.00  0.00     0.261 C 
BRANCH   4   5
ATOM      5  O   UNL A   1      31.791  22.187  25.691  1.00  0.00    -0.460 OA
BRANCH   5   6
ATOM      6  C   UNL A   1      32.042  23.393  26.206  1.00  0.00     0.338 C 
ATOM      7  O   UNL A   1      31.617  23.908  27.208  1.00  0.00    -0.246 OA
BRANCH   6   8
ATOM      8  C   UNL A   1      32.642  23.938  25.009  1.00  0.00     0.087 C 
ATOM      9  C   UNL A   1      31.630  24.586  24.140  1.00  0.00     0.027 C 
ATOM     10  C   UNL A   1      34.088  24.863  25.902  1.00  0.00     0.316 C 
ATOM     11  C   UNL A   1      31.478  26.383  23.954  1.00  0.00     0.020 A 
ATOM     12  O   UNL A   1      33.894  26.783  25.773  1.00  0.00    -0.474 OA
ATOM     13  C   UNL A   1      30.413  26.875  23.257  1.00  0.00     0.034 A 
ATOM     14  C   UNL A   1      32.487  27.484  24.836  1.00  0.00     0.148 A 
ATOM     15  C   UNL A   1      30.183  28.254  23.401  1.00  0.00     0.062 A 
ATOM     16  C   UNL A   1      32.066  28.769  25.078  1.00  0.00     0.103 A 
ATOM     17  Cl  UNL A   1      28.857  28.850  22.429  1.00  0.00    -0.083 Cl
ATOM     18  C   UNL A   1      30.912  29.142  24.315  1.00  0.00     0.082 A 
ATOM     19  Cl  UNL A   1      32.633  29.641  26.436  1.00  0.00    -0.079 Cl
ATOM     20  Cl  UNL A   1      30.223  30.728  24.534  1.00  0.00    -0.081 Cl
BRANCH  10  21
ATOM     21  C   UNL A   1      35.253  23.876  25.457  1.00  0.00     0.430 C 
ATOM     22  F   UNL A   1      36.486  24.407  25.386  1.00  0.00    -0.167 F 
ATOM     23  F   UNL A   1      35.352  22.915  26.428  1.00  0.00    -0.167 F 
ATOM     24  F   UNL A   1      35.007  23.179  24.323  1.00  0.00    -0.167 F 
ENDBRANCH  10  21
ENDBRANCH   6   8
ENDBRANCH   5   6
ENDBRANCH   4   5
ENDBRANCH   3   4
ENDBRANCH   2   3
ENDBRANCH   1   2
BRANCH   1  25
ATOM     25  C   UNL A   1      38.305  19.962  25.195  1.00  0.00     0.261 C 
BRANCH  25  26
ATOM     26  O   UNL A   1      39.315  20.945  25.291  1.00  0.00    -0.460 OA
BRANCH  26  27
ATOM     27  C   UNL A   1      40.162  20.750  26.321  1.00  0.00     0.338 C 
ATOM     28  O   UNL A   1      40.615  19.695  26.728  1.00  0.00    -0.246 OA
BRANCH  27  29
ATOM     29  C   UNL A   1      40.480  22.065  26.892  1.00  0.00     0.060 A 
ATOM     30  C   UNL A   1      39.903  23.184  26.292  1.00  0.00     0.016 A 
ATOM     31  C   UNL A   1      41.307  22.185  28.021  1.00  0.00     0.016 A 
ATOM     32  C   UNL A   1      40.151  24.439  26.828  1.00  0.00     0.010 A 
ATOM     33  C   UNL A   1      41.539  23.438  28.569  1.00  0.00     0.010 A 
ATOM     34  C   UNL A   1      40.979  24.564  27.954  1.00  0.00    -0.014 A 
BRANCH  34  35
ATOM     35  C   UNL A   1      41.482  25.899  28.301  1.00  0.00     0.031 A 
ATOM     36  C   UNL A   1      42.878  26.215  27.870  1.00  0.00     0.074 A 
ATOM     37  C   UNL A   1      40.717  26.796  28.938  1.00  0.00     0.049 A 
ATOM     38  N   UNL A   1      43.527  27.341  27.944  1.00  0.00    -0.248 NA
ATOM     39  C   UNL A   1      43.648  25.105  27.277  1.00  0.00     0.031 C 
ATOM     40  C   UNL A   1      39.361  26.561  29.419  1.00  0.00     0.029 A 
ATOM     41  N   UNL A   1      40.977  28.094  29.284  1.00  0.00    -0.354 N 
ATOM     42  C   UNL A   1      44.784  27.073  27.427  1.00  0.00     0.074 A 
ATOM     43  C   UNL A   1      44.819  25.676  27.064  1.00  0.00     0.031 C 
ATOM     44  C   UNL A   1      38.883  27.695  29.959  1.00  0.00     0.029 A 
ATOM     45  C   UNL A   1      39.927  28.713  29.919  1.00  0.00     0.049 A 
ATOM     46  H   UNL A   1      41.834  28.541  29.097  1.00  0.00     0.167 HD
ATOM     47  C   UNL A   1      45.820  27.923  27.267  1.00  0.00     0.034 A 
ATOM     48  C   UNL A   1      39.839  29.959  30.418  1.00  0.00     0.034 A 
ATOM     49  C   UNL A   1      45.781  29.295  27.678  1.00  0.00     0.049 A 
ATOM     50  C   UNL A   1      41.028  30.873  30.271  1.00  0.00     0.074 A 
ATOM     51  C   UNL A   1      46.765  30.257  27.556  1.00  0.00     0.029 A 
ATOM     52  N   UNL A   1      44.712  29.889  28.333  1.00  0.00    -0.354 N 
ATOM     53  N   UNL A   1      42.179  30.646  29.683  1.00  0.00    -0.248 NA
ATOM     54  C   UNL A   1      40.895  32.224  30.829  1.00  0.00     0.031 C 
ATOM     55  C   UNL A   1      46.314  31.414  28.197  1.00  0.00     0.029 A 
ATOM     56  C   UNL A   1      45.019  31.199  28.644  1.00  0.00     0.049 A 
ATOM     57  H   UNL A   1      43.861  29.442  28.545  1.00  0.00     0.167 HD
ATOM     58  C   UNL A   1      42.888  31.840  29.753  1.00  0.00     0.074 A 
ATOM     59  C   UNL A   1      42.030  32.788  30.437  1.00  0.00     0.031 C 
ATOM     60  C   UNL A   1      44.130  32.130  29.292  1.00  0.00     0.034 A 
BRANCH  47  61
ATOM     61  C   UNL A   1      47.079  27.356  26.675  1.00  0.00     0.023 A 
ATOM     62  C   UNL A   1      48.017  26.693  27.494  1.00  0.00     0.012 A 
ATOM     63  C   UNL A   1      47.345  27.513  25.303  1.00  0.00     0.148 A 
ATOM     64  C   UNL A   1      49.226  26.243  26.964  1.00  0.00     0.002 A 
ATOM     65  C   UNL A   1      48.523  27.010  24.771  1.00  0.00     0.091 A 
ATOM     66  F   UNL A   1      46.457  28.179  24.553  1.00  0.00    -0.205 F 
ATOM     67  C   UNL A   1      49.473  26.393  25.602  1.00  0.00     0.022 A 
BRANCH  65  68
ATOM     68  S   UNL A   1      48.895  27.086  23.019  1.00  0.00     0.127 S 
ATOM     69  O   UNL A   1      48.178  28.294  22.617  1.00  0.00    -0.237 OA
ATOM     70  O   UNL A   1      50.352  27.214  23.026  1.00  0.00    -0.237 OA
ATOM     71  O   UNL A   1      48.395  25.845  22.444  1.00  0.00    -0.744 OA
ENDBRANCH  65  68
ENDBRANCH  47  61
BRANCH  48  72
ATOM     72  C   UNL A   1      38.585  30.428  31.070  1.00  0.00     0.023 A 
ATOM     73  C   UNL A   1      38.362  30.151  32.433  1.00  0.00     0.012 A 
ATOM     74  C   UNL A   1      37.610  31.143  30.347  1.00  0.00     0.148 A 
ATOM     75  C   UNL A   1      37.173  30.541  33.053  1.00  0.00     0.002 A 
ATOM     76  C   UNL A   1      36.454  31.575  30.983  1.00  0.00     0.091 A 
ATOM     77  F   UNL A   1      37.841  31.393  29.050  1.00  0.00    -0.205 F 
ATOM     78  C   UNL A   1      36.223  31.258  32.331  1.00  0.00     0.022 A 
BRANCH  76  79
ATOM     79  S   UNL A   1      35.219  32.590  30.164  1.00  0.00     0.127 S 
ATOM     80  O   UNL A   1      34.280  32.855  31.252  1.00  0.00    -0.237 OA
ATOM     81  O   UNL A   1      36.016  33.742  29.742  1.00  0.00    -0.237 OA
ATOM     82  O   UNL A   1      34.697  31.781  29.073  1.00  0.00    -0.744 OA
ENDBRANCH  76  79
ENDBRANCH  48  72
BRANCH  60  83
ATOM     83  C   UNL A   1      44.611  33.551  29.433  1.00  0.00     0.023 A 
ATOM     84  C   UNL A   1      45.326  33.962  30.575  1.00  0.00     0.012 A 
ATOM     85  C   UNL A   1      44.404  34.464  28.379  1.00  0.00     0.148 A 
ATOM     86  C   UNL A   1      45.788  35.274  30.683  1.00  0.00     0.002 A 
ATOM     87  C   UNL A   1      44.923  35.748  28.466  1.00  0.00     0.091 A 
ATOM     88  F   UNL A   1      43.709  34.057  27.307  1.00  0.00    -0.205 F 
ATOM     89  C   UNL A   1      45.598  36.161  29.625  1.00  0.00     0.022 A 
BRANCH  87  90
ATOM     90  S   UNL A   1      44.823  36.916  27.108  1.00  0.00     0.127 S 
ATOM     91  O   UNL A   1      45.334  38.138  27.729  1.00  0.00    -0.237 OA
ATOM     92  O   UNL A   1      45.716  36.315  26.118  1.00  0.00    -0.237 OA
ATOM     93  O   UNL A   1      43.422  36.959  26.711  1.00  0.00    -0.744 OA
ENDBRANCH  87  90
ENDBRANCH  60  83
ENDBRANCH  34  35
ENDBRANCH  27  29
ENDBRANCH  26  27
ENDBRANCH  25  26
ENDBRANCH   1  25
TORSDOF 18
ENDMDL
