MODEL 1
REMARK VINA RESULT:     -11.8      0.000      0.000
REMARK SMILES COc1ccc2c(c1)c(CC(=O)OCCOCCOC(=O)c1ccc(-c3c4nc(c(-c5cccc(S(=O)(=O)[O-])c5F)c5ccc([nH]5)c(-c5cccc(S(=O)(=O)[O-])c5F)c5nc(c(-c6cccc(S(=O)(=O)[O-])c6F)c6ccc3[nH]6)C=C5)C=C4)cc1)c(C)n2C(=O)c1ccc(Cl)cc1
REMARK SMILES IDX 16 1 15 2 14 3 13 4 11 5 12 6 10 7 9 8 3 9 4 10 8 11 5 12
REMARK SMILES IDX 7 13 6 14 87 15 85 16 86 17 2 18 1 19 88 20 89 21 90 22
REMARK SMILES IDX 91 23 96 24 92 25 95 26 93 27 94 28 17 29 18 30 19 31 20 32
REMARK SMILES IDX 21 33 22 34 23 35 84 36 24 37 83 38 25 39 26 40 27 41 77 42
REMARK SMILES IDX 28 43 82 44 76 45 78 46 29 47 81 48 75 49 74 50 30 52 62 53
REMARK SMILES IDX 42 54 61 55 43 56 46 57 60 58 79 59 44 60 45 61 59 63 80 64
REMARK SMILES IDX 47 65 31 66 32 67 40 68 33 69 35 70 41 71 34 72 36 73 37 74
REMARK SMILES IDX 38 75 39 76 63 77 64 78 72 79 65 80 67 81 73 82 66 83 68 84
REMARK SMILES IDX 69 85 70 86 71 87 48 88 49 89 57 90 50 91 52 92 58 93 51 94
REMARK SMILES IDX 53 95 54 96 55 97 56 98
REMARK H PARENT 78 51 46 62
REMARK Flexibility Score: inf
ROOT
ATOM      1  O   UNL A   1      32.370  28.111  27.525  1.00  0.00    -0.374 OA
ENDROOT
BRANCH   1   2
ATOM      2  C   UNL A   1      31.367  27.406  26.804  1.00  0.00     0.202 C 
BRANCH   2   3
ATOM      3  C   UNL A   1      31.706  26.073  26.117  1.00  0.00     0.261 C 
BRANCH   3   4
ATOM      4  O   UNL A   1      31.822  24.942  27.003  1.00  0.00    -0.463 OA
BRANCH   4   5
ATOM      5  C   UNL A   1      31.153  23.833  26.594  1.00  0.00     0.310 C 
ATOM      6  O   UNL A   1      30.407  23.170  27.313  1.00  0.00    -0.252 OA
BRANCH   5   7
ATOM      7  C   UNL A   1      31.389  23.408  25.164  1.00  0.00     0.160 C 
BRANCH   7   8
ATOM      8  C   UNL A   1      32.691  22.762  24.764  1.00  0.00    -0.008 A 
ATOM      9  C   UNL A   1      32.851  18.968  25.294  1.00  0.00     0.119 A 
ATOM     10  C   UNL A   1      34.171  18.819  24.914  1.00  0.00     0.048 A 
ATOM     11  C   UNL A   1      32.308  20.254  25.361  1.00  0.00     0.057 A 
ATOM     12  C   UNL A   1      34.942  19.933  24.561  1.00  0.00     0.031 A 
ATOM     13  C   UNL A   1      33.032  21.386  24.911  1.00  0.00     0.008 A 
ATOM     14  C   UNL A   1      34.365  21.221  24.518  1.00  0.00     0.057 A 
ATOM     15  N   UNL A   1      34.884  22.492  24.191  1.00  0.00    -0.280 N 
ATOM     16  C   UNL A   1      33.834  23.418  24.314  1.00  0.00     0.028 A 
ATOM     17  C   UNL A   1      33.932  24.891  24.047  1.00  0.00     0.065 C 
BRANCH   9  18
ATOM     18  O   UNL A   1      31.981  17.957  25.588  1.00  0.00    -0.497 OA
ATOM     19  C   UNL A   1      32.508  16.636  25.648  1.00  0.00     0.278 C 
ENDBRANCH   9  18
BRANCH  15  20
ATOM     20  C   UNL A   1      36.245  22.783  23.870  1.00  0.00     0.262 C 
ATOM     21  O   UNL A   1      36.541  23.126  22.727  1.00  0.00    -0.268 OA
BRANCH  20  22
ATOM     22  C   UNL A   1      37.367  22.799  24.823  1.00  0.00     0.040 A 
ATOM     23  C   UNL A   1      38.138  21.654  25.044  1.00  0.00     0.015 A 
ATOM     24  C   UNL A   1      37.632  23.988  25.516  1.00  0.00     0.015 A 
ATOM     25  C   UNL A   1      39.128  21.679  26.031  1.00  0.00     0.021 A 
ATOM     26  C   UNL A   1      38.628  24.009  26.492  1.00  0.00     0.021 A 
ATOM     27  C   UNL A   1      39.359  22.850  26.758  1.00  0.00     0.041 A 
ATOM     28  Cl  UNL A   1      40.539  22.860  28.010  1.00  0.00    -0.084 Cl
ENDBRANCH  20  22
ENDBRANCH  15  20
ENDBRANCH   7   8
ENDBRANCH   5   7
ENDBRANCH   4   5
ENDBRANCH   3   4
ENDBRANCH   2   3
ENDBRANCH   1   2
BRANCH   1  29
ATOM     29  C   UNL A   1      32.450  29.520  27.325  1.00  0.00     0.202 C 
BRANCH  29  30
ATOM     30  C   UNL A   1      33.773  30.140  26.844  1.00  0.00     0.261 C 
BRANCH  30  31
ATOM     31  O   UNL A   1      34.803  30.004  27.823  1.00  0.00    -0.460 OA
BRANCH  31  32
ATOM     32  C   UNL A   1      35.638  31.080  27.893  1.00  0.00     0.338 C 
ATOM     33  O   UNL A   1      35.339  32.250  27.903  1.00  0.00    -0.246 OA
BRANCH  32  34
ATOM     34  C   UNL A   1      36.908  30.502  28.365  1.00  0.00     0.060 A 
ATOM     35  C   UNL A   1      37.834  31.313  29.026  1.00  0.00     0.016 A 
ATOM     36  C   UNL A   1      37.271  29.269  27.801  1.00  0.00     0.016 A 
ATOM     37  C   UNL A   1      39.160  30.914  29.052  1.00  0.00     0.010 A 
ATOM     38  C   UNL A   1      38.606  28.890  27.804  1.00  0.00     0.010 A 
ATOM     39  C   UNL A   1      39.549  29.728  28.405  1.00  0.00    -0.014 A 
BRANCH  39  40
ATOM     40  C   UNL A   1      40.921  29.283  28.614  1.00  0.00     0.031 A 
ATOM     41  C   UNL A   1      41.208  29.014  30.048  1.00  0.00     0.074 A 
ATOM     42  C   UNL A   1      41.822  28.979  27.660  1.00  0.00     0.049 A 
ATOM     43  N   UNL A   1      42.053  29.614  30.822  1.00  0.00    -0.248 NA
ATOM     44  C   UNL A   1      40.325  28.055  30.732  1.00  0.00     0.031 C 
ATOM     45  C   UNL A   1      41.613  28.877  26.218  1.00  0.00     0.029 A 
ATOM     46  N   UNL A   1      43.112  28.558  27.821  1.00  0.00    -0.354 N 
ATOM     47  C   UNL A   1      41.944  28.961  32.046  1.00  0.00     0.074 A 
ATOM     48  C   UNL A   1      40.759  28.145  31.986  1.00  0.00     0.031 C 
ATOM     49  C   UNL A   1      42.651  28.203  25.669  1.00  0.00     0.029 A 
ATOM     50  C   UNL A   1      43.635  27.920  26.700  1.00  0.00     0.049 A 
ATOM     51  H   UNL A   1      43.623  28.693  28.652  1.00  0.00     0.167 HD
ATOM     52  C   UNL A   1      42.950  28.937  32.956  1.00  0.00     0.034 A 
ATOM     53  C   UNL A   1      44.740  27.135  26.669  1.00  0.00     0.034 A 
ATOM     54  C   UNL A   1      43.943  29.941  32.722  1.00  0.00     0.049 A 
ATOM     55  C   UNL A   1      45.552  27.473  27.863  1.00  0.00     0.074 A 
ATOM     56  C   UNL A   1      43.944  31.318  32.653  1.00  0.00     0.029 A 
ATOM     57  N   UNL A   1      45.128  29.530  32.166  1.00  0.00    -0.354 N 
ATOM     58  N   UNL A   1      46.156  28.615  28.043  1.00  0.00    -0.248 NA
ATOM     59  C   UNL A   1      45.420  26.642  29.050  1.00  0.00     0.031 C 
ATOM     60  C   UNL A   1      44.911  31.638  31.658  1.00  0.00     0.029 A 
ATOM     61  C   UNL A   1      45.451  30.436  31.193  1.00  0.00     0.049 A 
ATOM     62  H   UNL A   1      45.647  28.732  32.418  1.00  0.00     0.167 HD
ATOM     63  C   UNL A   1      46.103  28.826  29.413  1.00  0.00     0.074 A 
ATOM     64  C   UNL A   1      45.758  27.531  29.986  1.00  0.00     0.031 C 
ATOM     65  C   UNL A   1      46.063  30.088  29.930  1.00  0.00     0.034 A 
BRANCH  52  66
ATOM     66  C   UNL A   1      43.191  27.766  33.864  1.00  0.00     0.023 A 
ATOM     67  C   UNL A   1      44.092  26.767  33.451  1.00  0.00     0.012 A 
ATOM     68  C   UNL A   1      42.389  27.495  34.997  1.00  0.00     0.148 A 
ATOM     69  C   UNL A   1      44.196  25.556  34.145  1.00  0.00     0.002 A 
ATOM     70  C   UNL A   1      42.565  26.335  35.736  1.00  0.00     0.091 A 
ATOM     71  F   UNL A   1      41.358  28.299  35.290  1.00  0.00    -0.205 F 
ATOM     72  C   UNL A   1      43.450  25.350  35.302  1.00  0.00     0.022 A 
BRANCH  70  73
ATOM     73  S   UNL A   1      41.675  26.084  37.274  1.00  0.00     0.127 S 
ATOM     74  O   UNL A   1      41.162  24.729  37.100  1.00  0.00    -0.237 OA
ATOM     75  O   UNL A   1      42.741  26.223  38.268  1.00  0.00    -0.237 OA
ATOM     76  O   UNL A   1      40.686  27.154  37.314  1.00  0.00    -0.744 OA
ENDBRANCH  70  73
ENDBRANCH  52  66
BRANCH  53  77
ATOM     77  C   UNL A   1      45.056  25.949  25.829  1.00  0.00     0.023 A 
ATOM     78  C   UNL A   1      46.325  25.857  25.217  1.00  0.00     0.012 A 
ATOM     79  C   UNL A   1      44.249  24.789  25.838  1.00  0.00     0.148 A 
ATOM     80  C   UNL A   1      46.790  24.650  24.678  1.00  0.00     0.002 A 
ATOM     81  C   UNL A   1      44.706  23.596  25.280  1.00  0.00     0.091 A 
ATOM     82  F   UNL A   1      43.074  24.816  26.478  1.00  0.00    -0.205 F 
ATOM     83  C   UNL A   1      45.983  23.518  24.716  1.00  0.00     0.022 A 
BRANCH  81  84
ATOM     84  S   UNL A   1      43.703  22.103  25.292  1.00  0.00     0.127 S 
ATOM     85  O   UNL A   1      42.393  22.606  24.875  1.00  0.00    -0.237 OA
ATOM     86  O   UNL A   1      44.382  21.272  24.303  1.00  0.00    -0.237 OA
ATOM     87  O   UNL A   1      43.741  21.619  26.667  1.00  0.00    -0.744 OA
ENDBRANCH  81  84
ENDBRANCH  53  77
BRANCH  65  88
ATOM     88  C   UNL A   1      46.369  31.247  29.017  1.00  0.00     0.023 A 
ATOM     89  C   UNL A   1      47.694  31.676  28.791  1.00  0.00     0.012 A 
ATOM     90  C   UNL A   1      45.338  31.742  28.202  1.00  0.00     0.148 A 
ATOM     91  C   UNL A   1      47.983  32.584  27.770  1.00  0.00     0.002 A 
ATOM     92  C   UNL A   1      45.636  32.610  27.159  1.00  0.00     0.091 A 
ATOM     93  F   UNL A   1      44.090  31.304  28.426  1.00  0.00    -0.205 F 
ATOM     94  C   UNL A   1      46.957  33.037  26.943  1.00  0.00     0.022 A 
BRANCH  92  95
ATOM     95  S   UNL A   1      44.396  33.133  25.971  1.00  0.00     0.127 S 
ATOM     96  O   UNL A   1      43.711  31.878  25.669  1.00  0.00    -0.237 OA
ATOM     97  O   UNL A   1      43.608  34.088  26.750  1.00  0.00    -0.237 OA
ATOM     98  O   UNL A   1      45.124  33.723  24.854  1.00  0.00    -0.744 OA
ENDBRANCH  92  95
ENDBRANCH  65  88
ENDBRANCH  39  40
ENDBRANCH  32  34
ENDBRANCH  31  32
ENDBRANCH  30  31
ENDBRANCH  29  30
ENDBRANCH   1  29
TORSDOF 21
ENDMDL
MODEL 2
REMARK VINA RESULT:     -11.2      3.521      9.841
REMARK SMILES COc1ccc2c(c1)c(CC(=O)OCCOCCOC(=O)c1ccc(-c3c4nc(c(-c5cccc(S(=O)(=O)[O-])c5F)c5ccc([nH]5)c(-c5cccc(S(=O)(=O)[O-])c5F)c5nc(c(-c6cccc(S(=O)(=O)[O-])c6F)c6ccc3[nH]6)C=C5)C=C4)cc1)c(C)n2C(=O)c1ccc(Cl)cc1
REMARK SMILES IDX 16 1 15 2 14 3 13 4 11 5 12 6 10 7 9 8 3 9 4 10 8 11 5 12
REMARK SMILES IDX 7 13 6 14 87 15 85 16 86 17 2 18 1 19 88 20 89 21 90 22
REMARK SMILES IDX 91 23 96 24 92 25 95 26 93 27 94 28 17 29 18 30 19 31 20 32
REMARK SMILES IDX 21 33 22 34 23 35 84 36 24 37 83 38 25 39 26 40 27 41 77 42
REMARK SMILES IDX 28 43 82 44 76 45 78 46 29 47 81 48 75 49 74 50 30 52 62 53
REMARK SMILES IDX 42 54 61 55 43 56 46 57 60 58 79 59 44 60 45 61 59 63 80 64
REMARK SMILES IDX 47 65 31 66 32 67 40 68 33 69 35 70 41 71 34 72 36 73 37 74
REMARK SMILES IDX 38 75 39 76 63 77 64 78 72 79 65 80 67 81 73 82 66 83 68 84
REMARK SMILES IDX 69 85 70 86 71 87 48 88 49 89 57 90 50 91 52 92 58 93 51 94
REMARK SMILES IDX 53 95 54 96 55 97 56 98
REMARK H PARENT 78 51 46 62
REMARK Flexibility Score: inf
ROOT
ATOM      1  O   UNL A   1      46.301  21.038  24.951  1.00  0.00    -0.374 OA
ENDROOT
BRANCH   1   2
ATOM      2  C   UNL A   1      45.199  20.140  24.993  1.00  0.00     0.202 C 
BRANCH   2   3
ATOM      3  C   UNL A   1      43.987  20.448  25.887  1.00  0.00     0.261 C 
BRANCH   3   4
ATOM      4  O   UNL A   1      42.704  20.147  25.305  1.00  0.00    -0.463 OA
BRANCH   4   5
ATOM      5  C   UNL A   1      42.080  19.067  25.843  1.00  0.00     0.310 C 
ATOM      6  O   UNL A   1      42.493  17.912  25.751  1.00  0.00    -0.252 OA
BRANCH   5   7
ATOM      7  C   UNL A   1      40.785  19.345  26.568  1.00  0.00     0.160 C 
BRANCH   7   8
ATOM      8  C   UNL A   1      40.119  20.693  26.454  1.00  0.00    -0.008 A 
ATOM      9  C   UNL A   1      41.799  23.508  28.442  1.00  0.00     0.119 A 
ATOM     10  C   UNL A   1      40.860  24.480  28.149  1.00  0.00     0.048 A 
ATOM     11  C   UNL A   1      41.582  22.202  27.996  1.00  0.00     0.057 A 
ATOM     12  C   UNL A   1      39.731  24.171  27.382  1.00  0.00     0.031 A 
ATOM     13  C   UNL A   1      40.503  21.886  27.133  1.00  0.00     0.008 A 
ATOM     14  C   UNL A   1      39.565  22.880  26.834  1.00  0.00     0.057 A 
ATOM     15  N   UNL A   1      38.559  22.303  26.030  1.00  0.00    -0.280 N 
ATOM     16  C   UNL A   1      38.934  20.972  25.779  1.00  0.00     0.028 A 
ATOM     17  C   UNL A   1      38.163  19.989  24.950  1.00  0.00     0.065 C 
BRANCH   9  18
ATOM     18  O   UNL A   1      42.972  23.702  29.114  1.00  0.00    -0.497 OA
ATOM     19  C   UNL A   1      44.108  22.963  28.675  1.00  0.00     0.278 C 
ENDBRANCH   9  18
BRANCH  15  20
ATOM     20  C   UNL A   1      37.349  22.941  25.617  1.00  0.00     0.262 C 
ATOM     21  O   UNL A   1      37.375  24.113  25.246  1.00  0.00    -0.268 OA
BRANCH  20  22
ATOM     22  C   UNL A   1      36.033  22.292  25.501  1.00  0.00     0.040 A 
ATOM     23  C   UNL A   1      35.362  21.822  26.634  1.00  0.00     0.015 A 
ATOM     24  C   UNL A   1      35.477  22.142  24.224  1.00  0.00     0.015 A 
ATOM     25  C   UNL A   1      34.164  21.120  26.476  1.00  0.00     0.021 A 
ATOM     26  C   UNL A   1      34.276  21.449  24.073  1.00  0.00     0.021 A 
ATOM     27  C   UNL A   1      33.634  20.927  25.197  1.00  0.00     0.041 A 
ATOM     28  Cl  UNL A   1      32.189  20.014  24.999  1.00  0.00    -0.084 Cl
ENDBRANCH  20  22
ENDBRANCH  15  20
ENDBRANCH   7   8
ENDBRANCH   5   7
ENDBRANCH   4   5
ENDBRANCH   3   4
ENDBRANCH   2   3
ENDBRANCH   1   2
BRANCH   1  29
ATOM     29  C   UNL A   1      46.031  22.416  25.196  1.00  0.00     0.202 C 
BRANCH  29  30
ATOM     30  C   UNL A   1      45.316  23.248  24.119  1.00  0.00     0.261 C 
BRANCH  30  31
ATOM     31  O   UNL A   1      44.866  24.501  24.636  1.00  0.00    -0.460 OA
BRANCH  31  32
ATOM     32  C   UNL A   1      43.549  24.508  24.990  1.00  0.00     0.338 C 
ATOM     33  O   UNL A   1      42.789  23.570  25.033  1.00  0.00    -0.246 OA
BRANCH  32  34
ATOM     34  C   UNL A   1      43.386  25.794  25.689  1.00  0.00     0.060 A 
ATOM     35  C   UNL A   1      44.191  26.088  26.793  1.00  0.00     0.016 A 
ATOM     36  C   UNL A   1      42.190  26.485  25.438  1.00  0.00     0.016 A 
ATOM     37  C   UNL A   1      43.747  27.037  27.698  1.00  0.00     0.010 A 
ATOM     38  C   UNL A   1      41.737  27.413  26.364  1.00  0.00     0.010 A 
ATOM     39  C   UNL A   1      42.503  27.664  27.504  1.00  0.00    -0.014 A 
BRANCH  39  40
ATOM     40  C   UNL A   1      42.177  28.769  28.398  1.00  0.00     0.031 A 
ATOM     41  C   UNL A   1      43.035  29.958  28.152  1.00  0.00     0.074 A 
ATOM     42  C   UNL A   1      41.138  28.831  29.253  1.00  0.00     0.049 A 
ATOM     43  N   UNL A   1      43.882  30.514  28.956  1.00  0.00    -0.248 NA
ATOM     44  C   UNL A   1      43.050  30.492  26.780  1.00  0.00     0.031 C 
ATOM     45  C   UNL A   1      40.022  27.898  29.391  1.00  0.00     0.029 A 
ATOM     46  N   UNL A   1      40.803  29.849  30.101  1.00  0.00    -0.354 N 
ATOM     47  C   UNL A   1      44.391  31.597  28.246  1.00  0.00     0.074 A 
ATOM     48  C   UNL A   1      43.986  31.433  26.874  1.00  0.00     0.031 C 
ATOM     49  C   UNL A   1      39.028  28.500  30.084  1.00  0.00     0.029 A 
ATOM     50  C   UNL A   1      39.476  29.812  30.520  1.00  0.00     0.049 A 
ATOM     51  H   UNL A   1      41.439  30.544  30.387  1.00  0.00     0.167 HD
ATOM     52  C   UNL A   1      44.914  32.692  28.854  1.00  0.00     0.034 A 
ATOM     53  C   UNL A   1      38.787  30.833  31.087  1.00  0.00     0.034 A 
ATOM     54  C   UNL A   1      45.248  32.465  30.228  1.00  0.00     0.049 A 
ATOM     55  C   UNL A   1      39.784  31.786  31.633  1.00  0.00     0.074 A 
ATOM     56  C   UNL A   1      46.089  31.603  30.900  1.00  0.00     0.029 A 
ATOM     57  N   UNL A   1      44.397  32.982  31.171  1.00  0.00    -0.354 N 
ATOM     58  N   UNL A   1      40.572  31.529  32.639  1.00  0.00    -0.248 NA
ATOM     59  C   UNL A   1      40.153  32.941  30.829  1.00  0.00     0.031 C 
ATOM     60  C   UNL A   1      45.414  31.303  32.117  1.00  0.00     0.029 A 
ATOM     61  C   UNL A   1      44.210  32.013  32.119  1.00  0.00     0.049 A 
ATOM     62  H   UNL A   1      43.995  33.882  31.167  1.00  0.00     0.167 HD
ATOM     63  C   UNL A   1      41.743  32.217  32.351  1.00  0.00     0.074 A 
ATOM     64  C   UNL A   1      41.381  33.161  31.301  1.00  0.00     0.031 C 
ATOM     65  C   UNL A   1      42.953  31.762  32.787  1.00  0.00     0.034 A 
BRANCH  52  66
ATOM     66  C   UNL A   1      44.800  34.071  28.273  1.00  0.00     0.023 A 
ATOM     67  C   UNL A   1      43.521  34.645  28.143  1.00  0.00     0.012 A 
ATOM     68  C   UNL A   1      45.879  34.727  27.636  1.00  0.00     0.148 A 
ATOM     69  C   UNL A   1      43.330  35.826  27.417  1.00  0.00     0.002 A 
ATOM     70  C   UNL A   1      45.698  35.947  27.001  1.00  0.00     0.091 A 
ATOM     71  F   UNL A   1      47.062  34.109  27.524  1.00  0.00    -0.205 F 
ATOM     72  C   UNL A   1      44.422  36.491  26.867  1.00  0.00     0.022 A 
BRANCH  70  73
ATOM     73  S   UNL A   1      47.102  36.861  26.355  1.00  0.00     0.127 S 
ATOM     74  O   UNL A   1      47.909  37.048  27.556  1.00  0.00    -0.237 OA
ATOM     75  O   UNL A   1      47.651  35.923  25.375  1.00  0.00    -0.237 OA
ATOM     76  O   UNL A   1      46.525  38.063  25.765  1.00  0.00    -0.744 OA
ENDBRANCH  70  73
ENDBRANCH  52  66
BRANCH  53  77
ATOM     77  C   UNL A   1      37.345  31.187  31.001  1.00  0.00     0.023 A 
ATOM     78  C   UNL A   1      36.620  31.417  32.191  1.00  0.00     0.012 A 
ATOM     79  C   UNL A   1      36.739  31.568  29.782  1.00  0.00     0.148 A 
ATOM     80  C   UNL A   1      35.366  32.043  32.173  1.00  0.00     0.002 A 
ATOM     81  C   UNL A   1      35.482  32.169  29.767  1.00  0.00     0.091 A 
ATOM     82  F   UNL A   1      37.428  31.438  28.642  1.00  0.00    -0.205 F 
ATOM     83  C   UNL A   1      34.800  32.424  30.961  1.00  0.00     0.022 A 
BRANCH  81  84
ATOM     84  S   UNL A   1      34.696  32.674  28.231  1.00  0.00     0.127 S 
ATOM     85  O   UNL A   1      35.722  33.522  27.622  1.00  0.00    -0.237 OA
ATOM     86  O   UNL A   1      34.482  31.396  27.561  1.00  0.00    -0.237 OA
ATOM     87  O   UNL A   1      33.492  33.396  28.628  1.00  0.00    -0.744 OA
ENDBRANCH  81  84
ENDBRANCH  53  77
BRANCH  65  88
ATOM     88  C   UNL A   1      42.977  30.671  33.825  1.00  0.00     0.023 A 
ATOM     89  C   UNL A   1      42.894  29.309  33.464  1.00  0.00     0.012 A 
ATOM     90  C   UNL A   1      43.328  31.012  35.142  1.00  0.00     0.148 A 
ATOM     91  C   UNL A   1      43.157  28.307  34.401  1.00  0.00     0.002 A 
ATOM     92  C   UNL A   1      43.632  30.014  36.058  1.00  0.00     0.091 A 
ATOM     93  F   UNL A   1      43.417  32.314  35.455  1.00  0.00    -0.205 F 
ATOM     94  C   UNL A   1      43.543  28.660  35.693  1.00  0.00     0.022 A 
BRANCH  92  95
ATOM     95  S   UNL A   1      44.264  30.384  37.697  1.00  0.00     0.127 S 
ATOM     96  O   UNL A   1      43.139  31.090  38.307  1.00  0.00    -0.237 OA
ATOM     97  O   UNL A   1      44.513  29.048  38.239  1.00  0.00    -0.237 OA
ATOM     98  O   UNL A   1      45.463  31.188  37.500  1.00  0.00    -0.744 OA
ENDBRANCH  92  95
ENDBRANCH  65  88
ENDBRANCH  39  40
ENDBRANCH  32  34
ENDBRANCH  31  32
ENDBRANCH  30  31
ENDBRANCH  29  30
ENDBRANCH   1  29
TORSDOF 21
ENDMDL
MODEL 3
REMARK VINA RESULT:     -11.1      3.466      9.905
REMARK SMILES COc1ccc2c(c1)c(CC(=O)OCCOCCOC(=O)c1ccc(-c3c4nc(c(-c5cccc(S(=O)(=O)[O-])c5F)c5ccc([nH]5)c(-c5cccc(S(=O)(=O)[O-])c5F)c5nc(c(-c6cccc(S(=O)(=O)[O-])c6F)c6ccc3[nH]6)C=C5)C=C4)cc1)c(C)n2C(=O)c1ccc(Cl)cc1
REMARK SMILES IDX 16 1 15 2 14 3 13 4 11 5 12 6 10 7 9 8 3 9 4 10 8 11 5 12
REMARK SMILES IDX 7 13 6 14 87 15 85 16 86 17 2 18 1 19 88 20 89 21 90 22
REMARK SMILES IDX 91 23 96 24 92 25 95 26 93 27 94 28 17 29 18 30 19 31 20 32
REMARK SMILES IDX 21 33 22 34 23 35 84 36 24 37 83 38 25 39 26 40 27 41 77 42
REMARK SMILES IDX 28 43 82 44 76 45 78 46 29 47 81 48 75 49 74 50 30 52 62 53
REMARK SMILES IDX 42 54 61 55 43 56 46 57 60 58 79 59 44 60 45 61 59 63 80 64
REMARK SMILES IDX 47 65 31 66 32 67 40 68 33 69 35 70 41 71 34 72 36 73 37 74
REMARK SMILES IDX 38 75 39 76 63 77 64 78 72 79 65 80 67 81 73 82 66 83 68 84
REMARK SMILES IDX 69 85 70 86 71 87 48 88 49 89 57 90 50 91 52 92 58 93 51 94
REMARK SMILES IDX 53 95 54 96 55 97 56 98
REMARK H PARENT 78 51 46 62
REMARK Flexibility Score: inf
ROOT
ATOM      1  O   UNL A   1      46.128  21.600  24.342  1.00  0.00    -0.374 OA
ENDROOT
BRANCH   1   2
ATOM      2  C   UNL A   1      44.938  20.833  24.208  1.00  0.00     0.202 C 
BRANCH   2   3
ATOM      3  C   UNL A   1      44.209  20.318  25.459  1.00  0.00     0.261 C 
BRANCH   3   4
ATOM      4  O   UNL A   1      42.770  20.364  25.391  1.00  0.00    -0.463 OA
BRANCH   4   5
ATOM      5  C   UNL A   1      42.145  19.276  25.909  1.00  0.00     0.310 C 
ATOM      6  O   UNL A   1      42.575  18.126  25.826  1.00  0.00    -0.252 OA
BRANCH   5   7
ATOM      7  C   UNL A   1      40.827  19.536  26.599  1.00  0.00     0.160 C 
BRANCH   7   8
ATOM      8  C   UNL A   1      40.150  20.877  26.472  1.00  0.00    -0.008 A 
ATOM      9  C   UNL A   1      41.758  23.707  28.498  1.00  0.00     0.119 A 
ATOM     10  C   UNL A   1      40.816  24.669  28.186  1.00  0.00     0.048 A 
ATOM     11  C   UNL A   1      41.564  22.399  28.046  1.00  0.00     0.057 A 
ATOM     12  C   UNL A   1      39.706  24.349  27.396  1.00  0.00     0.031 A 
ATOM     13  C   UNL A   1      40.507  22.073  27.160  1.00  0.00     0.008 A 
ATOM     14  C   UNL A   1      39.565  23.057  26.843  1.00  0.00     0.057 A 
ATOM     15  N   UNL A   1      38.582  22.471  26.018  1.00  0.00    -0.280 N 
ATOM     16  C   UNL A   1      38.976  21.145  25.773  1.00  0.00     0.028 A 
ATOM     17  C   UNL A   1      38.232  20.154  24.928  1.00  0.00     0.065 C 
BRANCH   9  18
ATOM     18  O   UNL A   1      42.915  23.912  29.194  1.00  0.00    -0.497 OA
ATOM     19  C   UNL A   1      44.077  23.217  28.752  1.00  0.00     0.278 C 
ENDBRANCH   9  18
BRANCH  15  20
ATOM     20  C   UNL A   1      37.374  23.097  25.580  1.00  0.00     0.262 C 
ATOM     21  O   UNL A   1      37.404  24.254  25.164  1.00  0.00    -0.268 OA
BRANCH  20  22
ATOM     22  C   UNL A   1      36.056  22.449  25.490  1.00  0.00     0.040 A 
ATOM     23  C   UNL A   1      35.416  21.960  26.633  1.00  0.00     0.015 A 
ATOM     24  C   UNL A   1      35.465  22.319  24.226  1.00  0.00     0.015 A 
ATOM     25  C   UNL A   1      34.214  21.259  26.495  1.00  0.00     0.021 A 
ATOM     26  C   UNL A   1      34.261  21.628  24.096  1.00  0.00     0.021 A 
ATOM     27  C   UNL A   1      33.650  21.086  25.228  1.00  0.00     0.041 A 
ATOM     28  Cl  UNL A   1      32.200  20.175  25.055  1.00  0.00    -0.084 Cl
ENDBRANCH  20  22
ENDBRANCH  15  20
ENDBRANCH   7   8
ENDBRANCH   5   7
ENDBRANCH   4   5
ENDBRANCH   3   4
ENDBRANCH   2   3
ENDBRANCH   1   2
BRANCH   1  29
ATOM     29  C   UNL A   1      46.108  22.681  25.271  1.00  0.00     0.202 C 
BRANCH  29  30
ATOM     30  C   UNL A   1      45.437  24.006  24.873  1.00  0.00     0.261 C 
BRANCH  30  31
ATOM     31  O   UNL A   1      44.570  24.486  25.901  1.00  0.00    -0.460 OA
BRANCH  31  32
ATOM     32  C   UNL A   1      43.393  24.992  25.435  1.00  0.00     0.338 C 
ATOM     33  O   UNL A   1      42.468  24.387  24.948  1.00  0.00    -0.246 OA
BRANCH  32  34
ATOM     34  C   UNL A   1      43.337  26.339  26.028  1.00  0.00     0.060 A 
ATOM     35  C   UNL A   1      44.145  26.645  27.126  1.00  0.00     0.016 A 
ATOM     36  C   UNL A   1      42.215  27.113  25.694  1.00  0.00     0.016 A 
ATOM     37  C   UNL A   1      43.775  27.700  27.944  1.00  0.00     0.010 A 
ATOM     38  C   UNL A   1      41.832  28.150  26.534  1.00  0.00     0.010 A 
ATOM     39  C   UNL A   1      42.599  28.420  27.671  1.00  0.00    -0.014 A 
BRANCH  39  40
ATOM     40  C   UNL A   1      42.360  29.617  28.468  1.00  0.00     0.031 A 
ATOM     41  C   UNL A   1      43.414  30.645  28.261  1.00  0.00     0.074 A 
ATOM     42  C   UNL A   1      41.262  29.890  29.198  1.00  0.00     0.049 A 
ATOM     43  N   UNL A   1      44.251  31.118  29.125  1.00  0.00    -0.248 NA
ATOM     44  C   UNL A   1      43.652  31.079  26.874  1.00  0.00     0.031 C 
ATOM     45  C   UNL A   1      40.005  29.146  29.257  1.00  0.00     0.029 A 
ATOM     46  N   UNL A   1      41.005  31.000  29.953  1.00  0.00    -0.354 N 
ATOM     47  C   UNL A   1      44.993  32.064  28.424  1.00  0.00     0.074 A 
ATOM     48  C   UNL A   1      44.709  31.873  27.026  1.00  0.00     0.031 C 
ATOM     49  C   UNL A   1      39.052  29.936  29.806  1.00  0.00     0.029 A 
ATOM     50  C   UNL A   1      39.653  31.191  30.224  1.00  0.00     0.049 A 
ATOM     51  H   UNL A   1      41.710  31.608  30.274  1.00  0.00     0.167 HD
ATOM     52  C   UNL A   1      45.616  33.105  29.033  1.00  0.00     0.034 A 
ATOM     53  C   UNL A   1      39.078  32.338  30.661  1.00  0.00     0.034 A 
ATOM     54  C   UNL A   1      45.769  32.920  30.444  1.00  0.00     0.049 A 
ATOM     55  C   UNL A   1      40.152  33.164  31.267  1.00  0.00     0.074 A 
ATOM     56  C   UNL A   1      46.391  31.987  31.246  1.00  0.00     0.029 A 
ATOM     57  N   UNL A   1      44.917  33.620  31.261  1.00  0.00    -0.354 N 
ATOM     58  N   UNL A   1      40.783  32.857  32.365  1.00  0.00    -0.248 NA
ATOM     59  C   UNL A   1      40.776  34.196  30.453  1.00  0.00     0.031 C 
ATOM     60  C   UNL A   1      45.557  31.872  32.395  1.00  0.00     0.029 A 
ATOM     61  C   UNL A   1      44.486  32.753  32.228  1.00  0.00     0.049 A 
ATOM     62  H   UNL A   1      44.664  34.567  31.169  1.00  0.00     0.167 HD
ATOM     63  C   UNL A   1      42.070  33.341  32.176  1.00  0.00     0.074 A 
ATOM     64  C   UNL A   1      41.969  34.259  31.047  1.00  0.00     0.031 C 
ATOM     65  C   UNL A   1      43.143  32.739  32.765  1.00  0.00     0.034 A 
BRANCH  52  66
ATOM     66  C   UNL A   1      45.780  34.445  28.376  1.00  0.00     0.023 A 
ATOM     67  C   UNL A   1      47.082  34.934  28.158  1.00  0.00     0.012 A 
ATOM     68  C   UNL A   1      44.704  35.341  28.180  1.00  0.00     0.148 A 
ATOM     69  C   UNL A   1      47.298  36.256  27.753  1.00  0.00     0.002 A 
ATOM     70  C   UNL A   1      44.919  36.619  27.686  1.00  0.00     0.091 A 
ATOM     71  F   UNL A   1      43.476  35.008  28.598  1.00  0.00    -0.205 F 
ATOM     72  C   UNL A   1      46.216  37.091  27.493  1.00  0.00     0.022 A 
BRANCH  70  73
ATOM     73  S   UNL A   1      43.537  37.685  27.267  1.00  0.00     0.127 S 
ATOM     74  O   UNL A   1      42.752  36.819  26.392  1.00  0.00    -0.237 OA
ATOM     75  O   UNL A   1      42.944  37.945  28.579  1.00  0.00    -0.237 OA
ATOM     76  O   UNL A   1      44.143  38.857  26.648  1.00  0.00    -0.744 OA
ENDBRANCH  70  73
ENDBRANCH  52  66
BRANCH  53  77
ATOM     77  C   UNL A   1      37.726  32.899  30.399  1.00  0.00     0.023 A 
ATOM     78  C   UNL A   1      37.094  32.625  29.166  1.00  0.00     0.012 A 
ATOM     79  C   UNL A   1      36.937  33.464  31.426  1.00  0.00     0.148 A 
ATOM     80  C   UNL A   1      35.725  32.859  28.979  1.00  0.00     0.002 A 
ATOM     81  C   UNL A   1      35.581  33.717  31.229  1.00  0.00     0.091 A 
ATOM     82  F   UNL A   1      37.482  33.664  32.632  1.00  0.00    -0.205 F 
ATOM     83  C   UNL A   1      34.967  33.399  30.013  1.00  0.00     0.022 A 
BRANCH  81  84
ATOM     84  S   UNL A   1      34.554  34.421  32.525  1.00  0.00     0.127 S 
ATOM     85  O   UNL A   1      35.369  35.543  32.992  1.00  0.00    -0.237 OA
ATOM     86  O   UNL A   1      33.352  34.802  31.790  1.00  0.00    -0.237 OA
ATOM     87  O   UNL A   1      34.388  33.359  33.512  1.00  0.00    -0.744 OA
ENDBRANCH  81  84
ENDBRANCH  53  77
BRANCH  65  88
ATOM     88  C   UNL A   1      42.890  31.726  33.851  1.00  0.00     0.023 A 
ATOM     89  C   UNL A   1      42.709  32.116  35.194  1.00  0.00     0.012 A 
ATOM     90  C   UNL A   1      42.594  30.405  33.473  1.00  0.00     0.148 A 
ATOM     91  C   UNL A   1      42.241  31.205  36.143  1.00  0.00     0.002 A 
ATOM     92  C   UNL A   1      42.087  29.514  34.410  1.00  0.00     0.091 A 
ATOM     93  F   UNL A   1      42.758  30.065  32.186  1.00  0.00    -0.205 F 
ATOM     94  C   UNL A   1      41.914  29.909  35.747  1.00  0.00     0.022 A 
BRANCH  92  95
ATOM     95  S   UNL A   1      41.517  27.874  33.955  1.00  0.00     0.127 S 
ATOM     96  O   UNL A   1      42.693  27.315  33.291  1.00  0.00    -0.237 OA
ATOM     97  O   UNL A   1      41.212  27.283  35.258  1.00  0.00    -0.237 OA
ATOM     98  O   UNL A   1      40.357  28.069  33.096  1.00  0.00    -0.744 OA
ENDBRANCH  92  95
ENDBRANCH  65  88
ENDBRANCH  39  40
ENDBRANCH  32  34
ENDBRANCH  31  32
ENDBRANCH  30  31
ENDBRANCH  29  30
ENDBRANCH   1  29
TORSDOF 21
ENDMDL
