MODEL 1
REMARK VINA RESULT:     -10.4      0.000      0.000
REMARK SMILES CCC([NH3+])(CC)C(=O)N1CCC(CC(=O)OCCOCCOC(=O)c2ccc(-c3c4nc(c(-c5cccc(S(=O)(=O)[O-])c5F)c5ccc([nH]5)c(-c5cccc(S(=O)(=O)[O-])c5F)c5nc(c(-c6cccc(S(=O)(=O)[O-])c6F)c6ccc3[nH]6)C=C5)C=C4)cc2)CC1
REMARK SMILES IDX 19 1 18 2 17 3 16 4 14 5 15 6 13 7 12 8 7 9 8 10 9 11 10 12
REMARK SMILES IDX 89 13 11 14 88 15 3 16 2 17 1 18 4 19 5 23 6 24 20 25 21 26
REMARK SMILES IDX 22 27 23 28 24 29 25 30 26 31 87 32 27 33 86 34 28 35 29 36
REMARK SMILES IDX 30 37 80 38 31 39 85 40 79 41 81 42 32 43 84 44 78 45 77 46
REMARK SMILES IDX 33 48 65 49 45 50 64 51 46 52 49 53 63 54 82 55 47 56 48 57
REMARK SMILES IDX 62 59 83 60 50 61 34 62 35 63 43 64 36 65 38 66 44 67 37 68
REMARK SMILES IDX 39 69 40 70 41 71 42 72 66 73 67 74 75 75 68 76 70 77 76 78
REMARK SMILES IDX 69 79 71 80 72 81 73 82 74 83 51 84 52 85 60 86 53 87 55 88
REMARK SMILES IDX 61 89 54 90 56 91 57 92 58 93 59 94
REMARK H PARENT 4 20 4 21 4 22 81 47 49 58
REMARK Flexibility Score: inf
ROOT
ATOM      1  O   UNL A   1      32.904  30.480  26.481  1.00  0.00    -0.374 OA
ENDROOT
BRANCH   1   2
ATOM      2  C   UNL A   1      32.995  29.284  27.256  1.00  0.00     0.202 C 
BRANCH   2   3
ATOM      3  C   UNL A   1      31.834  28.295  27.121  1.00  0.00     0.261 C 
BRANCH   3   4
ATOM      4  O   UNL A   1      32.120  27.292  26.130  1.00  0.00    -0.463 OA
BRANCH   4   5
ATOM      5  C   UNL A   1      31.725  26.028  26.414  1.00  0.00     0.306 C 
ATOM      6  O   UNL A   1      30.599  25.709  26.777  1.00  0.00    -0.252 OA
BRANCH   5   7
ATOM      7  C   UNL A   1      32.842  25.016  26.263  1.00  0.00     0.126 C 
BRANCH   7   8
ATOM      8  C   UNL A   1      32.762  24.005  25.098  1.00  0.00     0.003 C 
ATOM      9  C   UNL A   1      34.002  20.282  24.877  1.00  0.00     0.283 C 
ATOM     10  O   UNL A   1      35.061  20.556  25.446  1.00  0.00    -0.268 OA
ATOM     11  N   UNL A   1      33.298  21.277  24.189  1.00  0.00    -0.337 N 
ATOM     12  C   UNL A   1      34.074  22.380  23.633  1.00  0.00     0.120 C 
ATOM     13  C   UNL A   1      31.934  21.651  24.526  1.00  0.00     0.120 C 
ATOM     14  C   UNL A   1      34.153  23.561  24.602  1.00  0.00     0.026 C 
ATOM     15  C   UNL A   1      31.942  22.779  25.561  1.00  0.00     0.026 C 
BRANCH   9  16
ATOM     16  C   UNL A   1      33.471  18.794  24.808  1.00  0.00     0.173 C 
BRANCH  16  17
ATOM     17  C   UNL A   1      32.302  18.688  23.778  1.00  0.00     0.075 C 
ATOM     18  C   UNL A   1      32.603  17.986  22.456  1.00  0.00     0.011 C 
ENDBRANCH  16  17
BRANCH  16  19
ATOM     19  N   UNL A   1      32.972  18.410  26.160  1.00  0.00    -0.345 N 
ATOM     20  H   UNL A   1      33.762  18.314  26.799  1.00  0.00     0.345 HD
ATOM     21  H   UNL A   1      32.473  17.522  26.100  1.00  0.00     0.345 HD
ATOM     22  H   UNL A   1      32.341  19.132  26.507  1.00  0.00     0.345 HD
ENDBRANCH  16  19
BRANCH  16  23
ATOM     23  C   UNL A   1      34.539  17.744  24.413  1.00  0.00     0.075 C 
ATOM     24  C   UNL A   1      34.398  16.398  25.112  1.00  0.00     0.011 C 
ENDBRANCH  16  23
ENDBRANCH   9  16
ENDBRANCH   7   8
ENDBRANCH   5   7
ENDBRANCH   4   5
ENDBRANCH   3   4
ENDBRANCH   2   3
ENDBRANCH   1   2
BRANCH   1  25
ATOM     25  C   UNL A   1      31.669  31.190  26.523  1.00  0.00     0.202 C 
BRANCH  25  26
ATOM     26  C   UNL A   1      31.728  32.650  26.990  1.00  0.00     0.261 C 
BRANCH  26  27
ATOM     27  O   UNL A   1      33.057  33.198  26.927  1.00  0.00    -0.460 OA
BRANCH  27  28
ATOM     28  C   UNL A   1      33.501  33.736  28.089  1.00  0.00     0.338 C 
ATOM     29  O   UNL A   1      32.924  34.560  28.788  1.00  0.00    -0.246 OA
BRANCH  28  30
ATOM     30  C   UNL A   1      34.733  33.054  28.525  1.00  0.00     0.060 A 
ATOM     31  C   UNL A   1      34.594  31.866  29.256  1.00  0.00     0.016 A 
ATOM     32  C   UNL A   1      35.997  33.593  28.281  1.00  0.00     0.016 A 
ATOM     33  C   UNL A   1      35.718  31.236  29.789  1.00  0.00     0.010 A 
ATOM     34  C   UNL A   1      37.122  32.962  28.821  1.00  0.00     0.010 A 
ATOM     35  C   UNL A   1      36.984  31.804  29.608  1.00  0.00    -0.014 A 
BRANCH  35  36
ATOM     36  C   UNL A   1      38.152  31.272  30.350  1.00  0.00     0.031 A 
ATOM     37  C   UNL A   1      39.031  30.247  29.689  1.00  0.00     0.074 A 
ATOM     38  C   UNL A   1      38.413  31.676  31.606  1.00  0.00     0.049 A 
ATOM     39  N   UNL A   1      40.055  29.594  30.172  1.00  0.00    -0.248 NA
ATOM     40  C   UNL A   1      38.704  29.905  28.295  1.00  0.00     0.031 C 
ATOM     41  C   UNL A   1      37.648  32.677  32.346  1.00  0.00     0.029 A 
ATOM     42  N   UNL A   1      39.383  31.270  32.487  1.00  0.00    -0.354 N 
ATOM     43  C   UNL A   1      40.469  28.735  29.162  1.00  0.00     0.074 A 
ATOM     44  C   UNL A   1      39.579  28.944  28.040  1.00  0.00     0.031 C 
ATOM     45  C   UNL A   1      38.166  32.792  33.580  1.00  0.00     0.029 A 
ATOM     46  C   UNL A   1      39.274  31.851  33.727  1.00  0.00     0.049 A 
ATOM     47  H   UNL A   1      40.089  30.624  32.252  1.00  0.00     0.167 HD
ATOM     48  C   UNL A   1      41.501  27.857  29.162  1.00  0.00     0.034 A 
ATOM     49  C   UNL A   1      39.974  31.629  34.857  1.00  0.00     0.034 A 
ATOM     50  C   UNL A   1      42.393  27.665  30.275  1.00  0.00     0.049 A 
ATOM     51  C   UNL A   1      41.089  30.618  34.848  1.00  0.00     0.074 A 
ATOM     52  C   UNL A   1      43.503  26.843  30.355  1.00  0.00     0.029 A 
ATOM     53  N   UNL A   1      42.265  28.286  31.508  1.00  0.00    -0.354 N 
ATOM     54  N   UNL A   1      41.540  29.892  33.854  1.00  0.00    -0.248 NA
ATOM     55  C   UNL A   1      41.812  30.416  36.113  1.00  0.00     0.031 C 
ATOM     56  C   UNL A   1      44.023  26.939  31.651  1.00  0.00     0.029 A 
ATOM     57  C   UNL A   1      43.262  27.851  32.365  1.00  0.00     0.049 A 
ATOM     58  H   UNL A   1      41.568  28.942  31.740  1.00  0.00     0.167 HD
ATOM     59  C   UNL A   1      42.624  29.180  34.359  1.00  0.00     0.074 A 
ATOM     60  C   UNL A   1      42.766  29.570  35.747  1.00  0.00     0.031 C 
ATOM     61  C   UNL A   1      43.424  28.282  33.731  1.00  0.00     0.034 A 
BRANCH  48  62
ATOM     62  C   UNL A   1      41.715  27.038  27.915  1.00  0.00     0.023 A 
ATOM     63  C   UNL A   1      42.289  27.632  26.771  1.00  0.00     0.012 A 
ATOM     64  C   UNL A   1      41.360  25.676  27.878  1.00  0.00     0.148 A 
ATOM     65  C   UNL A   1      42.459  26.898  25.598  1.00  0.00     0.002 A 
ATOM     66  C   UNL A   1      41.578  24.937  26.721  1.00  0.00     0.091 A 
ATOM     67  F   UNL A   1      40.793  25.131  28.965  1.00  0.00    -0.205 F 
ATOM     68  C   UNL A   1      42.112  25.550  25.575  1.00  0.00     0.022 A 
BRANCH  66  69
ATOM     69  S   UNL A   1      41.237  23.177  26.625  1.00  0.00     0.127 S 
ATOM     70  O   UNL A   1      39.775  23.159  26.612  1.00  0.00    -0.237 OA
ATOM     71  O   UNL A   1      41.863  22.808  25.355  1.00  0.00    -0.237 OA
ATOM     72  O   UNL A   1      41.864  22.585  27.799  1.00  0.00    -0.744 OA
ENDBRANCH  66  69
ENDBRANCH  48  62
BRANCH  49  73
ATOM     73  C   UNL A   1      39.673  32.425  36.080  1.00  0.00     0.023 A 
ATOM     74  C   UNL A   1      40.360  33.636  36.297  1.00  0.00     0.012 A 
ATOM     75  C   UNL A   1      38.691  32.017  37.004  1.00  0.00     0.148 A 
ATOM     76  C   UNL A   1      40.091  34.415  37.421  1.00  0.00     0.002 A 
ATOM     77  C   UNL A   1      38.391  32.823  38.095  1.00  0.00     0.091 A 
ATOM     78  F   UNL A   1      38.056  30.858  36.781  1.00  0.00    -0.205 F 
ATOM     79  C   UNL A   1      39.100  34.016  38.314  1.00  0.00     0.022 A 
BRANCH  77  80
ATOM     80  S   UNL A   1      37.054  32.457  39.236  1.00  0.00     0.127 S 
ATOM     81  O   UNL A   1      37.312  33.407  40.316  1.00  0.00    -0.237 OA
ATOM     82  O   UNL A   1      35.877  32.756  38.420  1.00  0.00    -0.237 OA
ATOM     83  O   UNL A   1      37.207  31.052  39.589  1.00  0.00    -0.744 OA
ENDBRANCH  77  80
ENDBRANCH  49  73
BRANCH  61  84
ATOM     84  C   UNL A   1      44.567  27.688  34.518  1.00  0.00     0.023 A 
ATOM     85  C   UNL A   1      45.793  28.373  34.611  1.00  0.00     0.012 A 
ATOM     86  C   UNL A   1      44.393  26.484  35.230  1.00  0.00     0.148 A 
ATOM     87  C   UNL A   1      46.840  27.854  35.374  1.00  0.00     0.002 A 
ATOM     88  C   UNL A   1      45.421  25.999  36.029  1.00  0.00     0.091 A 
ATOM     89  F   UNL A   1      43.224  25.835  35.114  1.00  0.00    -0.205 F 
ATOM     90  C   UNL A   1      46.650  26.675  36.093  1.00  0.00     0.022 A 
BRANCH  88  91
ATOM     91  S   UNL A   1      45.232  24.544  37.067  1.00  0.00     0.127 S 
ATOM     92  O   UNL A   1      46.587  24.372  37.589  1.00  0.00    -0.237 OA
ATOM     93  O   UNL A   1      44.251  24.994  38.055  1.00  0.00    -0.237 OA
ATOM     94  O   UNL A   1      44.761  23.482  36.189  1.00  0.00    -0.744 OA
ENDBRANCH  88  91
ENDBRANCH  61  84
ENDBRANCH  35  36
ENDBRANCH  28  30
ENDBRANCH  27  28
ENDBRANCH  26  27
ENDBRANCH  25  26
ENDBRANCH   1  25
TORSDOF 22
ENDMDL
MODEL 2
REMARK VINA RESULT:      -9.9      0.970      7.635
REMARK SMILES CCC([NH3+])(CC)C(=O)N1CCC(CC(=O)OCCOCCOC(=O)c2ccc(-c3c4nc(c(-c5cccc(S(=O)(=O)[O-])c5F)c5ccc([nH]5)c(-c5cccc(S(=O)(=O)[O-])c5F)c5nc(c(-c6cccc(S(=O)(=O)[O-])c6F)c6ccc3[nH]6)C=C5)C=C4)cc2)CC1
REMARK SMILES IDX 19 1 18 2 17 3 16 4 14 5 15 6 13 7 12 8 7 9 8 10 9 11 10 12
REMARK SMILES IDX 89 13 11 14 88 15 3 16 2 17 1 18 4 19 5 23 6 24 20 25 21 26
REMARK SMILES IDX 22 27 23 28 24 29 25 30 26 31 87 32 27 33 86 34 28 35 29 36
REMARK SMILES IDX 30 37 80 38 31 39 85 40 79 41 81 42 32 43 84 44 78 45 77 46
REMARK SMILES IDX 33 48 65 49 45 50 64 51 46 52 49 53 63 54 82 55 47 56 48 57
REMARK SMILES IDX 62 59 83 60 50 61 34 62 35 63 43 64 36 65 38 66 44 67 37 68
REMARK SMILES IDX 39 69 40 70 41 71 42 72 66 73 67 74 75 75 68 76 70 77 76 78
REMARK SMILES IDX 69 79 71 80 72 81 73 82 74 83 51 84 52 85 60 86 53 87 55 88
REMARK SMILES IDX 61 89 54 90 56 91 57 92 58 93 59 94
REMARK H PARENT 4 20 4 21 4 22 81 47 49 58
REMARK Flexibility Score: inf
ROOT
ATOM      1  O   UNL A   1      32.494  30.597  27.159  1.00  0.00    -0.374 OA
ENDROOT
BRANCH   1   2
ATOM      2  C   UNL A   1      31.775  29.363  27.128  1.00  0.00     0.202 C 
BRANCH   2   3
ATOM      3  C   UNL A   1      32.609  28.085  27.248  1.00  0.00     0.261 C 
BRANCH   3   4
ATOM      4  O   UNL A   1      33.433  27.893  26.084  1.00  0.00    -0.463 OA
BRANCH   4   5
ATOM      5  C   UNL A   1      33.020  26.956  25.196  1.00  0.00     0.306 C 
ATOM      6  O   UNL A   1      33.679  26.549  24.248  1.00  0.00    -0.252 OA
BRANCH   5   7
ATOM      7  C   UNL A   1      31.615  26.464  25.475  1.00  0.00     0.126 C 
BRANCH   7   8
ATOM      8  C   UNL A   1      31.442  25.084  26.149  1.00  0.00     0.003 C 
ATOM      9  C   UNL A   1      32.684  21.531  25.018  1.00  0.00     0.283 C 
ATOM     10  O   UNL A   1      32.358  21.743  23.848  1.00  0.00    -0.268 OA
ATOM     11  N   UNL A   1      32.054  22.226  26.058  1.00  0.00    -0.337 N 
ATOM     12  C   UNL A   1      30.684  22.670  25.829  1.00  0.00     0.120 C 
ATOM     13  C   UNL A   1      32.780  23.071  26.992  1.00  0.00     0.120 C 
ATOM     14  C   UNL A   1      30.636  24.097  25.281  1.00  0.00     0.026 C 
ATOM     15  C   UNL A   1      32.842  24.505  26.459  1.00  0.00     0.026 C 
BRANCH   9  16
ATOM     16  C   UNL A   1      33.726  20.400  25.386  1.00  0.00     0.173 C 
BRANCH  16  17
ATOM     17  C   UNL A   1      33.789  19.334  24.247  1.00  0.00     0.075 C 
ATOM     18  C   UNL A   1      32.505  18.564  23.945  1.00  0.00     0.011 C 
ENDBRANCH  16  17
BRANCH  16  19
ATOM     19  N   UNL A   1      33.281  19.746  26.650  1.00  0.00    -0.345 N 
ATOM     20  H   UNL A   1      32.357  20.092  26.905  1.00  0.00     0.345 HD
ATOM     21  H   UNL A   1      33.943  19.961  27.396  1.00  0.00     0.345 HD
ATOM     22  H   UNL A   1      33.240  18.736  26.514  1.00  0.00     0.345 HD
ENDBRANCH  16  19
BRANCH  16  23
ATOM     23  C   UNL A   1      35.169  20.907  25.632  1.00  0.00     0.075 C 
ATOM     24  C   UNL A   1      35.737  21.777  24.518  1.00  0.00     0.011 C 
ENDBRANCH  16  23
ENDBRANCH   9  16
ENDBRANCH   7   8
ENDBRANCH   5   7
ENDBRANCH   4   5
ENDBRANCH   3   4
ENDBRANCH   2   3
ENDBRANCH   1   2
BRANCH   1  25
ATOM     25  C   UNL A   1      31.923  31.701  26.461  1.00  0.00     0.202 C 
BRANCH  25  26
ATOM     26  C   UNL A   1      31.785  33.014  27.243  1.00  0.00     0.261 C 
BRANCH  26  27
ATOM     27  O   UNL A   1      32.967  33.831  27.164  1.00  0.00    -0.460 OA
BRANCH  27  28
ATOM     28  C   UNL A   1      33.481  34.196  28.364  1.00  0.00     0.338 C 
ATOM     29  O   UNL A   1      33.004  34.998  29.157  1.00  0.00    -0.246 OA
BRANCH  28  30
ATOM     30  C   UNL A   1      34.639  33.347  28.698  1.00  0.00     0.060 A 
ATOM     31  C   UNL A   1      34.386  32.114  29.315  1.00  0.00     0.016 A 
ATOM     32  C   UNL A   1      35.950  33.771  28.472  1.00  0.00     0.016 A 
ATOM     33  C   UNL A   1      35.443  31.320  29.754  1.00  0.00     0.010 A 
ATOM     34  C   UNL A   1      37.009  32.974  28.917  1.00  0.00     0.010 A 
ATOM     35  C   UNL A   1      36.761  31.765  29.593  1.00  0.00    -0.014 A 
BRANCH  35  36
ATOM     36  C   UNL A   1      37.877  31.042  30.247  1.00  0.00     0.031 A 
ATOM     37  C   UNL A   1      38.241  31.390  31.664  1.00  0.00     0.074 A 
ATOM     38  C   UNL A   1      38.576  30.105  29.582  1.00  0.00     0.049 A 
ATOM     39  N   UNL A   1      39.220  30.943  32.404  1.00  0.00    -0.248 NA
ATOM     40  C   UNL A   1      37.388  32.387  32.332  1.00  0.00     0.031 C 
ATOM     41  C   UNL A   1      38.307  29.664  28.214  1.00  0.00     0.029 A 
ATOM     42  N   UNL A   1      39.672  29.374  29.965  1.00  0.00    -0.354 N 
ATOM     43  C   UNL A   1      39.130  31.631  33.608  1.00  0.00     0.074 A 
ATOM     44  C   UNL A   1      38.004  32.533  33.496  1.00  0.00     0.031 C 
ATOM     45  C   UNL A   1      39.230  28.753  27.864  1.00  0.00     0.029 A 
ATOM     46  C   UNL A   1      40.171  28.572  28.967  1.00  0.00     0.049 A 
ATOM     47  H   UNL A   1      40.063  29.420  30.867  1.00  0.00     0.167 HD
ATOM     48  C   UNL A   1      39.909  31.517  34.712  1.00  0.00     0.034 A 
ATOM     49  C   UNL A   1      41.275  27.799  28.941  1.00  0.00     0.034 A 
ATOM     50  C   UNL A   1      41.017  30.608  34.824  1.00  0.00     0.049 A 
ATOM     51  C   UNL A   1      42.150  27.721  30.164  1.00  0.00     0.074 A 
ATOM     52  C   UNL A   1      41.832  30.375  35.918  1.00  0.00     0.029 A 
ATOM     53  N   UNL A   1      41.481  29.795  33.800  1.00  0.00    -0.354 N 
ATOM     54  N   UNL A   1      41.991  28.293  31.332  1.00  0.00    -0.248 NA
ATOM     55  C   UNL A   1      43.343  26.866  30.071  1.00  0.00     0.031 C 
ATOM     56  C   UNL A   1      42.813  29.450  35.543  1.00  0.00     0.029 A 
ATOM     57  C   UNL A   1      42.584  29.075  34.228  1.00  0.00     0.049 A 
ATOM     58  H   UNL A   1      41.084  29.738  32.901  1.00  0.00     0.167 HD
ATOM     59  C   UNL A   1      43.037  27.836  32.129  1.00  0.00     0.074 A 
ATOM     60  C   UNL A   1      43.818  26.932  31.308  1.00  0.00     0.031 C 
ATOM     61  C   UNL A   1      43.326  28.141  33.419  1.00  0.00     0.034 A 
BRANCH  48  62
ATOM     62  C   UNL A   1      39.581  32.406  35.885  1.00  0.00     0.023 A 
ATOM     63  C   UNL A   1      40.200  33.668  36.008  1.00  0.00     0.012 A 
ATOM     64  C   UNL A   1      38.648  31.998  36.858  1.00  0.00     0.148 A 
ATOM     65  C   UNL A   1      39.936  34.485  37.106  1.00  0.00     0.002 A 
ATOM     66  C   UNL A   1      38.352  32.840  37.924  1.00  0.00     0.091 A 
ATOM     67  F   UNL A   1      38.086  30.786  36.740  1.00  0.00    -0.205 F 
ATOM     68  C   UNL A   1      39.006  34.076  38.059  1.00  0.00     0.022 A 
BRANCH  66  69
ATOM     69  S   UNL A   1      37.110  32.432  39.155  1.00  0.00     0.127 S 
ATOM     70  O   UNL A   1      35.872  32.655  38.411  1.00  0.00    -0.237 OA
ATOM     71  O   UNL A   1      37.405  31.027  39.441  1.00  0.00    -0.237 OA
ATOM     72  O   UNL A   1      37.346  33.335  40.273  1.00  0.00    -0.744 OA
ENDBRANCH  66  69
ENDBRANCH  48  62
BRANCH  49  73
ATOM     73  C   UNL A   1      41.582  26.992  27.727  1.00  0.00     0.023 A 
ATOM     74  C   UNL A   1      42.126  27.634  26.596  1.00  0.00     0.012 A 
ATOM     75  C   UNL A   1      41.378  25.599  27.695  1.00  0.00     0.148 A 
ATOM     76  C   UNL A   1      42.443  26.907  25.449  1.00  0.00     0.002 A 
ATOM     77  C   UNL A   1      41.744  24.873  26.568  1.00  0.00     0.091 A 
ATOM     78  F   UNL A   1      40.852  25.012  28.779  1.00  0.00    -0.205 F 
ATOM     79  C   UNL A   1      42.262  25.527  25.438  1.00  0.00     0.022 A 
BRANCH  77  80
ATOM     80  S   UNL A   1      41.661  23.080  26.497  1.00  0.00     0.127 S 
ATOM     81  O   UNL A   1      42.381  22.698  27.710  1.00  0.00    -0.237 OA
ATOM     82  O   UNL A   1      40.216  22.849  26.539  1.00  0.00    -0.237 OA
ATOM     83  O   UNL A   1      42.300  22.703  25.245  1.00  0.00    -0.744 OA
ENDBRANCH  77  80
ENDBRANCH  49  73
BRANCH  61  84
ATOM     84  C   UNL A   1      44.511  27.457  34.055  1.00  0.00     0.023 A 
ATOM     85  C   UNL A   1      45.757  28.110  34.114  1.00  0.00     0.012 A 
ATOM     86  C   UNL A   1      44.364  26.194  34.663  1.00  0.00     0.148 A 
ATOM     87  C   UNL A   1      46.847  27.505  34.741  1.00  0.00     0.002 A 
ATOM     88  C   UNL A   1      45.440  25.619  35.331  1.00  0.00     0.091 A 
ATOM     89  F   UNL A   1      43.175  25.578  34.581  1.00  0.00    -0.205 F 
ATOM     90  C   UNL A   1      46.685  26.267  35.360  1.00  0.00     0.022 A 
BRANCH  88  91
ATOM     91  S   UNL A   1      45.296  24.077  36.242  1.00  0.00     0.127 S 
ATOM     92  O   UNL A   1      45.179  23.101  35.159  1.00  0.00    -0.237 OA
ATOM     93  O   UNL A   1      46.564  24.029  36.971  1.00  0.00    -0.237 OA
ATOM     94  O   UNL A   1      44.118  24.216  37.087  1.00  0.00    -0.744 OA
ENDBRANCH  88  91
ENDBRANCH  61  84
ENDBRANCH  35  36
ENDBRANCH  28  30
ENDBRANCH  27  28
ENDBRANCH  26  27
ENDBRANCH  25  26
ENDBRANCH   1  25
TORSDOF 22
ENDMDL
MODEL 3
REMARK VINA RESULT:      -9.8      1.343      2.031
REMARK SMILES CCC([NH3+])(CC)C(=O)N1CCC(CC(=O)OCCOCCOC(=O)c2ccc(-c3c4nc(c(-c5cccc(S(=O)(=O)[O-])c5F)c5ccc([nH]5)c(-c5cccc(S(=O)(=O)[O-])c5F)c5nc(c(-c6cccc(S(=O)(=O)[O-])c6F)c6ccc3[nH]6)C=C5)C=C4)cc2)CC1
REMARK SMILES IDX 19 1 18 2 17 3 16 4 14 5 15 6 13 7 12 8 7 9 8 10 9 11 10 12
REMARK SMILES IDX 89 13 11 14 88 15 3 16 2 17 1 18 4 19 5 23 6 24 20 25 21 26
REMARK SMILES IDX 22 27 23 28 24 29 25 30 26 31 87 32 27 33 86 34 28 35 29 36
REMARK SMILES IDX 30 37 80 38 31 39 85 40 79 41 81 42 32 43 84 44 78 45 77 46
REMARK SMILES IDX 33 48 65 49 45 50 64 51 46 52 49 53 63 54 82 55 47 56 48 57
REMARK SMILES IDX 62 59 83 60 50 61 34 62 35 63 43 64 36 65 38 66 44 67 37 68
REMARK SMILES IDX 39 69 40 70 41 71 42 72 66 73 67 74 75 75 68 76 70 77 76 78
REMARK SMILES IDX 69 79 71 80 72 81 73 82 74 83 51 84 52 85 60 86 53 87 55 88
REMARK SMILES IDX 61 89 54 90 56 91 57 92 58 93 59 94
REMARK H PARENT 4 20 4 21 4 22 81 47 49 58
REMARK Flexibility Score: inf
ROOT
ATOM      1  O   UNL A   1      32.972  30.451  26.657  1.00  0.00    -0.374 OA
ENDROOT
BRANCH   1   2
ATOM      2  C   UNL A   1      32.950  29.032  26.821  1.00  0.00     0.202 C 
BRANCH   2   3
ATOM      3  C   UNL A   1      32.107  28.243  25.816  1.00  0.00     0.261 C 
BRANCH   3   4
ATOM      4  O   UNL A   1      32.332  28.708  24.473  1.00  0.00    -0.463 OA
BRANCH   4   5
ATOM      5  C   UNL A   1      31.245  28.786  23.667  1.00  0.00     0.306 C 
ATOM      6  O   UNL A   1      30.175  29.295  23.979  1.00  0.00    -0.252 OA
BRANCH   5   7
ATOM      7  C   UNL A   1      31.471  28.142  22.315  1.00  0.00     0.126 C 
BRANCH   7   8
ATOM      8  C   UNL A   1      31.409  26.602  22.218  1.00  0.00     0.003 C 
ATOM      9  C   UNL A   1      32.463  23.848  24.817  1.00  0.00     0.283 C 
ATOM     10  O   UNL A   1      33.498  24.453  25.103  1.00  0.00    -0.268 OA
ATOM     11  N   UNL A   1      31.855  24.048  23.571  1.00  0.00    -0.337 N 
ATOM     12  C   UNL A   1      32.721  24.427  22.460  1.00  0.00     0.120 C 
ATOM     13  C   UNL A   1      30.494  24.540  23.430  1.00  0.00     0.120 C 
ATOM     14  C   UNL A   1      32.803  25.946  22.300  1.00  0.00     0.026 C 
ATOM     15  C   UNL A   1      30.499  26.069  23.348  1.00  0.00     0.026 C 
BRANCH   9  16
ATOM     16  C   UNL A   1      31.858  22.754  25.786  1.00  0.00     0.173 C 
BRANCH  16  17
ATOM     17  C   UNL A   1      32.209  21.323  25.267  1.00  0.00     0.075 C 
ATOM     18  C   UNL A   1      33.387  21.203  24.303  1.00  0.00     0.011 C 
ENDBRANCH  16  17
BRANCH  16  19
ATOM     19  N   UNL A   1      30.377  22.919  25.814  1.00  0.00    -0.345 N 
ATOM     20  H   UNL A   1      29.947  22.231  25.196  1.00  0.00     0.345 HD
ATOM     21  H   UNL A   1      30.133  23.858  25.500  1.00  0.00     0.345 HD
ATOM     22  H   UNL A   1      30.037  22.780  26.765  1.00  0.00     0.345 HD
ENDBRANCH  16  19
BRANCH  16  23
ATOM     23  C   UNL A   1      32.345  22.852  27.253  1.00  0.00     0.075 C 
ATOM     24  C   UNL A   1      33.596  22.041  27.565  1.00  0.00     0.011 C 
ENDBRANCH  16  23
ENDBRANCH   9  16
ENDBRANCH   7   8
ENDBRANCH   5   7
ENDBRANCH   4   5
ENDBRANCH   3   4
ENDBRANCH   2   3
ENDBRANCH   1   2
BRANCH   1  25
ATOM     25  C   UNL A   1      31.714  31.111  26.537  1.00  0.00     0.202 C 
BRANCH  25  26
ATOM     26  C   UNL A   1      31.646  32.561  27.035  1.00  0.00     0.261 C 
BRANCH  26  27
ATOM     27  O   UNL A   1      32.898  33.254  26.894  1.00  0.00    -0.460 OA
BRANCH  27  28
ATOM     28  C   UNL A   1      33.361  33.822  28.035  1.00  0.00     0.338 C 
ATOM     29  O   UNL A   1      32.796  34.667  28.719  1.00  0.00    -0.246 OA
BRANCH  28  30
ATOM     30  C   UNL A   1      34.595  33.146  28.473  1.00  0.00     0.060 A 
ATOM     31  C   UNL A   1      34.462  31.949  29.191  1.00  0.00     0.016 A 
ATOM     32  C   UNL A   1      35.856  33.699  28.245  1.00  0.00     0.016 A 
ATOM     33  C   UNL A   1      35.587  31.324  29.726  1.00  0.00     0.010 A 
ATOM     34  C   UNL A   1      36.982  33.073  28.787  1.00  0.00     0.010 A 
ATOM     35  C   UNL A   1      36.849  31.904  29.560  1.00  0.00    -0.014 A 
BRANCH  35  36
ATOM     36  C   UNL A   1      38.016  31.375  30.306  1.00  0.00     0.031 A 
ATOM     37  C   UNL A   1      38.889  30.339  29.654  1.00  0.00     0.074 A 
ATOM     38  C   UNL A   1      38.281  31.792  31.557  1.00  0.00     0.049 A 
ATOM     39  N   UNL A   1      39.911  29.687  30.143  1.00  0.00    -0.248 NA
ATOM     40  C   UNL A   1      38.557  29.984  28.265  1.00  0.00     0.031 C 
ATOM     41  C   UNL A   1      37.523  32.805  32.288  1.00  0.00     0.029 A 
ATOM     42  N   UNL A   1      39.252  31.391  32.441  1.00  0.00    -0.354 N 
ATOM     43  C   UNL A   1      40.319  28.815  29.141  1.00  0.00     0.074 A 
ATOM     44  C   UNL A   1      39.428  29.015  28.018  1.00  0.00     0.031 C 
ATOM     45  C   UNL A   1      38.044  32.931  33.520  1.00  0.00     0.029 A 
ATOM     46  C   UNL A   1      39.148  31.985  33.674  1.00  0.00     0.049 A 
ATOM     47  H   UNL A   1      39.954  30.739  32.212  1.00  0.00     0.167 HD
ATOM     48  C   UNL A   1      41.347  27.932  29.149  1.00  0.00     0.034 A 
ATOM     49  C   UNL A   1      39.849  31.773  34.806  1.00  0.00     0.034 A 
ATOM     50  C   UNL A   1      42.240  27.748  30.262  1.00  0.00     0.049 A 
ATOM     51  C   UNL A   1      40.959  30.756  34.806  1.00  0.00     0.074 A 
ATOM     52  C   UNL A   1      43.347  26.922  30.349  1.00  0.00     0.029 A 
ATOM     53  N   UNL A   1      42.117  28.383  31.489  1.00  0.00    -0.354 N 
ATOM     54  N   UNL A   1      41.404  30.017  33.818  1.00  0.00    -0.248 NA
ATOM     55  C   UNL A   1      41.683  30.565  36.071  1.00  0.00     0.031 C 
ATOM     56  C   UNL A   1      43.870  27.029  31.643  1.00  0.00     0.029 A 
ATOM     57  C   UNL A   1      43.114  27.953  32.348  1.00  0.00     0.049 A 
ATOM     58  H   UNL A   1      41.424  29.044  31.715  1.00  0.00     0.167 HD
ATOM     59  C   UNL A   1      42.486  29.305  34.329  1.00  0.00     0.074 A 
ATOM     60  C   UNL A   1      42.633  29.710  35.712  1.00  0.00     0.031 C 
ATOM     61  C   UNL A   1      43.281  28.397  33.709  1.00  0.00     0.034 A 
BRANCH  48  62
ATOM     62  C   UNL A   1      41.554  27.099  27.910  1.00  0.00     0.023 A 
ATOM     63  C   UNL A   1      42.092  27.687  26.746  1.00  0.00     0.012 A 
ATOM     64  C   UNL A   1      41.229  25.728  27.901  1.00  0.00     0.148 A 
ATOM     65  C   UNL A   1      42.255  26.939  25.581  1.00  0.00     0.002 A 
ATOM     66  C   UNL A   1      41.441  24.977  26.751  1.00  0.00     0.091 A 
ATOM     67  F   UNL A   1      40.696  25.189  29.007  1.00  0.00    -0.205 F 
ATOM     68  C   UNL A   1      41.938  25.583  25.586  1.00  0.00     0.022 A 
BRANCH  66  69
ATOM     69  S   UNL A   1      41.138  23.208  26.689  1.00  0.00     0.127 S 
ATOM     70  O   UNL A   1      42.037  22.791  25.615  1.00  0.00    -0.237 OA
ATOM     71  O   UNL A   1      41.545  22.776  28.027  1.00  0.00    -0.237 OA
ATOM     72  O   UNL A   1      39.715  23.057  26.414  1.00  0.00    -0.744 OA
ENDBRANCH  66  69
ENDBRANCH  48  62
BRANCH  49  73
ATOM     73  C   UNL A   1      39.554  32.584  36.021  1.00  0.00     0.023 A 
ATOM     74  C   UNL A   1      40.159  33.848  36.165  1.00  0.00     0.012 A 
ATOM     75  C   UNL A   1      38.656  32.134  37.008  1.00  0.00     0.148 A 
ATOM     76  C   UNL A   1      39.891  34.641  37.280  1.00  0.00     0.002 A 
ATOM     77  C   UNL A   1      38.355  32.950  38.091  1.00  0.00     0.091 A 
ATOM     78  F   UNL A   1      38.100  30.924  36.854  1.00  0.00    -0.205 F 
ATOM     79  C   UNL A   1      38.983  34.199  38.237  1.00  0.00     0.022 A 
BRANCH  77  80
ATOM     80  S   UNL A   1      37.112  32.523  39.315  1.00  0.00     0.127 S 
ATOM     81  O   UNL A   1      37.481  31.150  39.651  1.00  0.00    -0.237 OA
ATOM     82  O   UNL A   1      37.379  33.508  40.364  1.00  0.00    -0.237 OA
ATOM     83  O   UNL A   1      35.827  32.681  38.647  1.00  0.00    -0.744 OA
ENDBRANCH  77  80
ENDBRANCH  49  73
BRANCH  61  84
ATOM     84  C   UNL A   1      44.422  27.806  34.500  1.00  0.00     0.023 A 
ATOM     85  C   UNL A   1      45.641  28.503  34.613  1.00  0.00     0.012 A 
ATOM     86  C   UNL A   1      44.254  26.592  35.196  1.00  0.00     0.148 A 
ATOM     87  C   UNL A   1      46.685  27.987  35.380  1.00  0.00     0.002 A 
ATOM     88  C   UNL A   1      45.281  26.109  36.001  1.00  0.00     0.091 A 
ATOM     89  F   UNL A   1      43.094  25.933  35.063  1.00  0.00    -0.205 F 
ATOM     90  C   UNL A   1      46.501  26.798  36.083  1.00  0.00     0.022 A 
BRANCH  88  91
ATOM     91  S   UNL A   1      45.097  24.641  37.020  1.00  0.00     0.127 S 
ATOM     92  O   UNL A   1      46.433  24.512  37.600  1.00  0.00    -0.237 OA
ATOM     93  O   UNL A   1      44.058  25.049  37.966  1.00  0.00    -0.237 OA
ATOM     94  O   UNL A   1      44.703  23.570  36.116  1.00  0.00    -0.744 OA
ENDBRANCH  88  91
ENDBRANCH  61  84
ENDBRANCH  35  36
ENDBRANCH  28  30
ENDBRANCH  27  28
ENDBRANCH  26  27
ENDBRANCH  25  26
ENDBRANCH   1  25
TORSDOF 22
ENDMDL
