MODEL 1
REMARK VINA RESULT:      -9.9      0.000      0.000
REMARK SMILES COc1ccc(F)cc1[C@@H](C(=O)OCCOCCOC(=O)c1ccc(-c2c3nc(c(-c4cccc(S(=O)(=O)[O-])c4F)c4ccc([nH]4)c(-c4cccc(S(=O)(=O)[O-])c4F)c4nc(c(-c5cccc(S(=O)(=O)[O-])c5F)c5ccc2[nH]5)C=C4)C=C3)cc1)[N@H+](C)CCn1ccnc1C
REMARK SMILES IDX 15 1 14 2 13 3 11 4 12 5 10 6 9 7 3 8 4 9 5 10 8 11 6 12
REMARK SMILES IDX 7 13 2 14 1 15 85 16 86 17 87 19 88 20 89 21 90 22 93 23
REMARK SMILES IDX 91 24 92 25 94 26 16 27 17 28 18 29 19 30 20 31 21 32 22 33
REMARK SMILES IDX 23 34 84 35 24 36 83 37 25 38 26 39 27 40 77 41 28 42 82 43
REMARK SMILES IDX 76 44 78 45 29 46 81 47 75 48 74 49 30 51 62 52 42 53 61 54
REMARK SMILES IDX 43 55 46 56 60 57 79 58 44 59 45 60 59 62 80 63 47 64 31 65
REMARK SMILES IDX 32 66 40 67 33 68 35 69 41 70 34 71 36 72 37 73 38 74 39 75
REMARK SMILES IDX 63 76 64 77 72 78 65 79 67 80 73 81 66 82 68 83 69 84 70 85
REMARK SMILES IDX 71 86 48 87 49 88 57 89 50 90 52 91 58 92 51 93 53 94 54 95
REMARK SMILES IDX 55 96 56 97
REMARK H PARENT 85 18 78 50 46 61
REMARK Flexibility Score: inf
ROOT
ATOM      1  C   UNL A   1      39.379  21.475  25.930  1.00  0.00     0.202 C 
ENDROOT
BRANCH   1   2
ATOM      2  C   UNL A   1      37.766  21.446  25.707  1.00  0.00     0.261 C 
BRANCH   2   3
ATOM      3  O   UNL A   1      36.841  22.181  24.618  1.00  0.00    -0.459 OA
BRANCH   3   4
ATOM      4  C   UNL A   1      36.007  22.733  23.715  1.00  0.00     0.370 C 
ATOM      5  O   UNL A   1      36.527  22.967  22.606  1.00  0.00    -0.245 OA
BRANCH   4   6
ATOM      6  C   UNL A   1      34.379  23.009  23.799  1.00  0.00     0.330 C 
BRANCH   6   7
ATOM      7  C   UNL A   1      33.886  24.380  24.366  1.00  0.00     0.066 A 
ATOM      8  C   UNL A   1      33.408  24.488  25.692  1.00  0.00     0.128 A 
ATOM      9  C   UNL A   1      32.813  25.682  26.161  1.00  0.00     0.050 A 
ATOM     10  C   UNL A   1      32.688  26.794  25.335  1.00  0.00     0.043 A 
ATOM     11  C   UNL A   1      33.908  25.586  23.647  1.00  0.00     0.053 A 
ATOM     12  C   UNL A   1      33.265  26.742  24.089  1.00  0.00     0.124 A 
ATOM     13  F   UNL A   1      33.169  27.794  23.263  1.00  0.00    -0.207 F 
BRANCH   8  14
ATOM     14  O   UNL A   1      33.652  23.415  26.506  1.00  0.00    -0.496 OA
ATOM     15  C   UNL A   1      32.536  22.833  27.168  1.00  0.00     0.278 C 
ENDBRANCH   8  14
ENDBRANCH   6   7
BRANCH   6  16
ATOM     16  N   UNL A   1      33.498  21.745  23.766  1.00  0.00    -0.320 N 
ATOM     17  C   UNL A   1      32.163  21.935  23.215  1.00  0.00     0.333 C 
ATOM     18  H   UNL A   1      34.343  21.434  23.287  1.00  0.00     0.348 HD
BRANCH  16  19
ATOM     19  C   UNL A   1      33.676  20.467  24.480  1.00  0.00     0.285 C 
BRANCH  19  20
ATOM     20  C   UNL A   1      32.494  19.475  24.690  1.00  0.00     0.184 C 
BRANCH  20  21
ATOM     21  N   UNL A   1      32.864  18.139  24.335  1.00  0.00    -0.330 N 
ATOM     22  C   UNL A   1      33.586  17.261  25.099  1.00  0.00     0.107 A 
ATOM     23  C   UNL A   1      32.937  17.767  23.028  1.00  0.00     0.105 A 
ATOM     24  C   UNL A   1      34.318  16.541  24.193  1.00  0.00     0.131 A 
ATOM     25  N   UNL A   1      33.957  16.931  22.950  1.00  0.00    -0.242 NA
ATOM     26  C   UNL A   1      32.136  18.399  21.899  1.00  0.00     0.087 C 
ENDBRANCH  20  21
ENDBRANCH  19  20
ENDBRANCH  16  19
ENDBRANCH   6  16
ENDBRANCH   4   6
ENDBRANCH   3   4
ENDBRANCH   2   3
ENDBRANCH   1   2
BRANCH   1  27
ATOM     27  O   UNL A   1      40.057  20.199  25.911  1.00  0.00    -0.374 OA
BRANCH  27  28
ATOM     28  C   UNL A   1      41.240  19.930  26.682  1.00  0.00     0.202 C 
BRANCH  28  29
ATOM     29  C   UNL A   1      42.652  20.349  26.203  1.00  0.00     0.261 C 
BRANCH  29  30
ATOM     30  O   UNL A   1      43.093  21.556  26.818  1.00  0.00    -0.460 OA
BRANCH  30  31
ATOM     31  C   UNL A   1      42.853  22.627  26.044  1.00  0.00     0.338 C 
ATOM     32  O   UNL A   1      42.671  22.629  24.837  1.00  0.00    -0.246 OA
BRANCH  31  33
ATOM     33  C   UNL A   1      42.499  23.756  26.907  1.00  0.00     0.060 A 
ATOM     34  C   UNL A   1      42.149  24.918  26.220  1.00  0.00     0.016 A 
ATOM     35  C   UNL A   1      42.552  23.724  28.303  1.00  0.00     0.016 A 
ATOM     36  C   UNL A   1      42.005  26.099  26.917  1.00  0.00     0.010 A 
ATOM     37  C   UNL A   1      42.382  24.921  29.009  1.00  0.00     0.010 A 
ATOM     38  C   UNL A   1      42.193  26.124  28.307  1.00  0.00    -0.014 A 
BRANCH  38  39
ATOM     39  C   UNL A   1      42.400  27.461  28.913  1.00  0.00     0.031 A 
ATOM     40  C   UNL A   1      43.767  28.088  28.843  1.00  0.00     0.074 A 
ATOM     41  C   UNL A   1      41.337  28.189  29.303  1.00  0.00     0.049 A 
ATOM     42  N   UNL A   1      44.110  29.332  29.060  1.00  0.00    -0.248 NA
ATOM     43  C   UNL A   1      44.893  27.218  28.458  1.00  0.00     0.031 C 
ATOM     44  C   UNL A   1      39.960  27.698  29.371  1.00  0.00     0.029 A 
ATOM     45  N   UNL A   1      41.243  29.508  29.667  1.00  0.00    -0.354 N 
ATOM     46  C   UNL A   1      45.481  29.391  28.839  1.00  0.00     0.074 A 
ATOM     47  C   UNL A   1      45.919  28.056  28.504  1.00  0.00     0.031 C 
ATOM     48  C   UNL A   1      39.153  28.713  29.722  1.00  0.00     0.029 A 
ATOM     49  C   UNL A   1      39.957  29.917  29.927  1.00  0.00     0.049 A 
ATOM     50  H   UNL A   1      42.023  30.106  29.734  1.00  0.00     0.167 HD
ATOM     51  C   UNL A   1      46.298  30.468  28.877  1.00  0.00     0.034 A 
ATOM     52  C   UNL A   1      39.478  31.127  30.283  1.00  0.00     0.034 A 
ATOM     53  C   UNL A   1      45.860  31.802  29.175  1.00  0.00     0.049 A 
ATOM     54  C   UNL A   1      40.424  32.296  30.373  1.00  0.00     0.074 A 
ATOM     55  C   UNL A   1      46.617  32.958  29.217  1.00  0.00     0.029 A 
ATOM     56  N   UNL A   1      44.559  32.159  29.485  1.00  0.00    -0.354 N 
ATOM     57  N   UNL A   1      41.698  32.350  30.068  1.00  0.00    -0.248 NA
ATOM     58  C   UNL A   1      39.864  33.578  30.825  1.00  0.00     0.031 C 
ATOM     59  C   UNL A   1      45.781  34.011  29.589  1.00  0.00     0.029 A 
ATOM     60  C   UNL A   1      44.495  33.518  29.737  1.00  0.00     0.049 A 
ATOM     61  H   UNL A   1      43.794  31.540  29.520  1.00  0.00     0.167 HD
ATOM     62  C   UNL A   1      42.080  33.674  30.258  1.00  0.00     0.074 A 
ATOM     63  C   UNL A   1      40.901  34.394  30.687  1.00  0.00     0.031 C 
ATOM     64  C   UNL A   1      43.303  34.237  30.102  1.00  0.00     0.034 A 
BRANCH  51  65
ATOM     65  C   UNL A   1      47.753  30.272  28.549  1.00  0.00     0.023 A 
ATOM     66  C   UNL A   1      48.204  30.487  27.233  1.00  0.00     0.012 A 
ATOM     67  C   UNL A   1      48.687  30.007  29.570  1.00  0.00     0.148 A 
ATOM     68  C   UNL A   1      49.565  30.434  26.933  1.00  0.00     0.002 A 
ATOM     69  C   UNL A   1      50.044  30.001  29.273  1.00  0.00     0.091 A 
ATOM     70  F   UNL A   1      48.231  29.788  30.811  1.00  0.00    -0.205 F 
ATOM     71  C   UNL A   1      50.484  30.208  27.955  1.00  0.00     0.022 A 
BRANCH  69  72
ATOM     72  S   UNL A   1      51.312  29.806  30.530  1.00  0.00     0.127 S 
ATOM     73  O   UNL A   1      52.531  29.807  29.721  1.00  0.00    -0.237 OA
ATOM     74  O   UNL A   1      51.120  31.004  31.346  1.00  0.00    -0.237 OA
ATOM     75  O   UNL A   1      51.022  28.550  31.207  1.00  0.00    -0.744 OA
ENDBRANCH  69  72
ENDBRANCH  51  65
BRANCH  52  76
ATOM     76  C   UNL A   1      38.022  31.301  30.548  1.00  0.00     0.023 A 
ATOM     77  C   UNL A   1      37.507  31.073  31.838  1.00  0.00     0.012 A 
ATOM     78  C   UNL A   1      37.146  31.703  29.521  1.00  0.00     0.148 A 
ATOM     79  C   UNL A   1      36.142  31.213  32.092  1.00  0.00     0.002 A 
ATOM     80  C   UNL A   1      35.798  31.900  29.795  1.00  0.00     0.091 A 
ATOM     81  F   UNL A   1      37.652  31.896  28.294  1.00  0.00    -0.205 F 
ATOM     82  C   UNL A   1      35.290  31.637  31.075  1.00  0.00     0.022 A 
BRANCH  80  83
ATOM     83  S   UNL A   1      34.657  32.566  28.578  1.00  0.00     0.127 S 
ATOM     84  O   UNL A   1      33.997  31.357  28.096  1.00  0.00    -0.237 OA
ATOM     85  O   UNL A   1      33.821  33.441  29.401  1.00  0.00    -0.237 OA
ATOM     86  O   UNL A   1      35.484  33.266  27.604  1.00  0.00    -0.744 OA
ENDBRANCH  80  83
ENDBRANCH  52  76
BRANCH  64  87
ATOM     87  C   UNL A   1      43.457  35.714  30.358  1.00  0.00     0.023 A 
ATOM     88  C   UNL A   1      43.968  36.159  31.592  1.00  0.00     0.012 A 
ATOM     89  C   UNL A   1      43.251  36.643  29.317  1.00  0.00     0.148 A 
ATOM     90  C   UNL A   1      44.264  37.507  31.790  1.00  0.00     0.002 A 
ATOM     91  C   UNL A   1      43.598  37.975  29.504  1.00  0.00     0.091 A 
ATOM     92  F   UNL A   1      42.756  36.198  28.153  1.00  0.00    -0.205 F 
ATOM     93  C   UNL A   1      44.095  38.410  30.744  1.00  0.00     0.022 A 
BRANCH  91  94
ATOM     94  S   UNL A   1      43.523  39.192  28.184  1.00  0.00     0.127 S 
ATOM     95  O   UNL A   1      42.101  39.531  28.172  1.00  0.00    -0.237 OA
ATOM     96  O   UNL A   1      44.397  40.249  28.692  1.00  0.00    -0.237 OA
ATOM     97  O   UNL A   1      44.008  38.522  26.985  1.00  0.00    -0.744 OA
ENDBRANCH  91  94
ENDBRANCH  64  87
ENDBRANCH  38  39
ENDBRANCH  31  33
ENDBRANCH  30  31
ENDBRANCH  29  30
ENDBRANCH  28  29
ENDBRANCH  27  28
ENDBRANCH   1  27
TORSDOF 23
ENDMDL
MODEL 2
REMARK VINA RESULT:      -9.5      3.365      8.282
REMARK SMILES COc1ccc(F)cc1[C@@H](C(=O)OCCOCCOC(=O)c1ccc(-c2c3nc(c(-c4cccc(S(=O)(=O)[O-])c4F)c4ccc([nH]4)c(-c4cccc(S(=O)(=O)[O-])c4F)c4nc(c(-c5cccc(S(=O)(=O)[O-])c5F)c5ccc2[nH]5)C=C4)C=C3)cc1)[N@H+](C)CCn1ccnc1C
REMARK SMILES IDX 15 1 14 2 13 3 11 4 12 5 10 6 9 7 3 8 4 9 5 10 8 11 6 12
REMARK SMILES IDX 7 13 2 14 1 15 85 16 86 17 87 19 88 20 89 21 90 22 93 23
REMARK SMILES IDX 91 24 92 25 94 26 16 27 17 28 18 29 19 30 20 31 21 32 22 33
REMARK SMILES IDX 23 34 84 35 24 36 83 37 25 38 26 39 27 40 77 41 28 42 82 43
REMARK SMILES IDX 76 44 78 45 29 46 81 47 75 48 74 49 30 51 62 52 42 53 61 54
REMARK SMILES IDX 43 55 46 56 60 57 79 58 44 59 45 60 59 62 80 63 47 64 31 65
REMARK SMILES IDX 32 66 40 67 33 68 35 69 41 70 34 71 36 72 37 73 38 74 39 75
REMARK SMILES IDX 63 76 64 77 72 78 65 79 67 80 73 81 66 82 68 83 69 84 70 85
REMARK SMILES IDX 71 86 48 87 49 88 57 89 50 90 52 91 58 92 51 93 53 94 54 95
REMARK SMILES IDX 55 96 56 97
REMARK H PARENT 85 18 78 50 46 61
REMARK Flexibility Score: inf
ROOT
ATOM      1  C   UNL A   1      40.326  20.472  26.167  1.00  0.00     0.202 C 
ENDROOT
BRANCH   1   2
ATOM      2  C   UNL A   1      38.785  20.506  25.640  1.00  0.00     0.261 C 
BRANCH   2   3
ATOM      3  O   UNL A   1      37.730  21.714  25.551  1.00  0.00    -0.459 OA
BRANCH   3   4
ATOM      4  C   UNL A   1      36.832  22.719  25.562  1.00  0.00     0.370 C 
ATOM      5  O   UNL A   1      37.312  23.839  25.826  1.00  0.00    -0.245 OA
BRANCH   4   6
ATOM      6  C   UNL A   1      35.234  22.722  25.138  1.00  0.00     0.330 C 
BRANCH   6   7
ATOM      7  C   UNL A   1      34.563  24.088  24.781  1.00  0.00     0.066 A 
ATOM      8  C   UNL A   1      34.185  24.386  23.451  1.00  0.00     0.128 A 
ATOM      9  C   UNL A   1      33.727  25.675  23.091  1.00  0.00     0.050 A 
ATOM     10  C   UNL A   1      33.623  26.689  24.036  1.00  0.00     0.043 A 
ATOM     11  C   UNL A   1      34.255  25.087  25.718  1.00  0.00     0.053 A 
ATOM     12  C   UNL A   1      33.864  26.374  25.351  1.00  0.00     0.124 A 
ATOM     13  F   UNL A   1      33.772  27.324  26.295  1.00  0.00    -0.207 F 
BRANCH   8  14
ATOM     14  O   UNL A   1      34.193  23.333  22.576  1.00  0.00    -0.496 OA
ATOM     15  C   UNL A   1      32.932  22.815  22.170  1.00  0.00     0.278 C 
ENDBRANCH   8  14
ENDBRANCH   6   7
BRANCH   6  16
ATOM     16  N   UNL A   1      34.435  21.482  25.585  1.00  0.00    -0.320 N 
ATOM     17  C   UNL A   1      34.009  21.488  26.978  1.00  0.00     0.333 C 
ATOM     18  H   UNL A   1      33.917  21.791  24.763  1.00  0.00     0.348 HD
BRANCH  16  19
ATOM     19  C   UNL A   1      34.304  20.171  24.924  1.00  0.00     0.285 C 
BRANCH  19  20
ATOM     20  C   UNL A   1      32.917  19.591  24.520  1.00  0.00     0.184 C 
BRANCH  20  21
ATOM     21  N   UNL A   1      33.004  18.196  24.212  1.00  0.00    -0.330 N 
ATOM     22  C   UNL A   1      33.566  17.220  24.992  1.00  0.00     0.107 A 
ATOM     23  C   UNL A   1      32.953  17.770  22.921  1.00  0.00     0.105 A 
ATOM     24  C   UNL A   1      34.107  16.337  24.097  1.00  0.00     0.131 A 
ATOM     25  N   UNL A   1      33.785  16.745  22.850  1.00  0.00    -0.242 NA
ATOM     26  C   UNL A   1      32.251  18.506  21.789  1.00  0.00     0.087 C 
ENDBRANCH  20  21
ENDBRANCH  19  20
ENDBRANCH  16  19
ENDBRANCH   6  16
ENDBRANCH   4   6
ENDBRANCH   3   4
ENDBRANCH   2   3
ENDBRANCH   1   2
BRANCH   1  27
ATOM     27  O   UNL A   1      41.152  19.391  25.681  1.00  0.00    -0.374 OA
BRANCH  27  28
ATOM     28  C   UNL A   1      42.211  18.805  26.457  1.00  0.00     0.202 C 
BRANCH  28  29
ATOM     29  C   UNL A   1      43.426  18.105  25.801  1.00  0.00     0.261 C 
BRANCH  29  30
ATOM     30  O   UNL A   1      44.572  18.951  25.751  1.00  0.00    -0.460 OA
BRANCH  30  31
ATOM     31  C   UNL A   1      44.565  19.735  24.661  1.00  0.00     0.338 C 
ATOM     32  O   UNL A   1      44.477  19.370  23.500  1.00  0.00    -0.246 OA
BRANCH  31  33
ATOM     33  C   UNL A   1      44.334  21.118  25.084  1.00  0.00     0.060 A 
ATOM     34  C   UNL A   1      44.242  22.033  24.036  1.00  0.00     0.016 A 
ATOM     35  C   UNL A   1      44.263  21.530  26.417  1.00  0.00     0.016 A 
ATOM     36  C   UNL A   1      44.240  23.384  24.314  1.00  0.00     0.010 A 
ATOM     37  C   UNL A   1      44.237  22.902  26.697  1.00  0.00     0.010 A 
ATOM     38  C   UNL A   1      44.311  23.829  25.642  1.00  0.00    -0.014 A 
BRANCH  38  39
ATOM     39  C   UNL A   1      44.687  25.250  25.834  1.00  0.00     0.031 A 
ATOM     40  C   UNL A   1      43.669  26.201  26.406  1.00  0.00     0.074 A 
ATOM     41  C   UNL A   1      45.976  25.621  25.722  1.00  0.00     0.049 A 
ATOM     42  N   UNL A   1      43.853  27.398  26.902  1.00  0.00    -0.248 NA
ATOM     43  C   UNL A   1      42.267  25.747  26.452  1.00  0.00     0.031 C 
ATOM     44  C   UNL A   1      47.056  24.771  25.220  1.00  0.00     0.029 A 
ATOM     45  N   UNL A   1      46.602  26.791  26.069  1.00  0.00    -0.354 N 
ATOM     46  C   UNL A   1      42.600  27.834  27.314  1.00  0.00     0.074 A 
ATOM     47  C   UNL A   1      41.653  26.794  26.984  1.00  0.00     0.031 C 
ATOM     48  C   UNL A   1      48.218  25.436  25.322  1.00  0.00     0.029 A 
ATOM     49  C   UNL A   1      47.962  26.766  25.873  1.00  0.00     0.049 A 
ATOM     50  H   UNL A   1      46.123  27.574  26.426  1.00  0.00     0.167 HD
ATOM     51  C   UNL A   1      42.270  28.984  27.944  1.00  0.00     0.034 A 
ATOM     52  C   UNL A   1      48.899  27.706  26.116  1.00  0.00     0.034 A 
ATOM     53  C   UNL A   1      43.213  30.004  28.306  1.00  0.00     0.049 A 
ATOM     54  C   UNL A   1      48.490  29.002  26.767  1.00  0.00     0.074 A 
ATOM     55  C   UNL A   1      42.969  31.196  28.964  1.00  0.00     0.029 A 
ATOM     56  N   UNL A   1      44.571  29.961  28.039  1.00  0.00    -0.354 N 
ATOM     57  N   UNL A   1      47.318  29.355  27.234  1.00  0.00    -0.248 NA
ATOM     58  C   UNL A   1      49.538  30.017  26.954  1.00  0.00     0.031 C 
ATOM     59  C   UNL A   1      44.174  31.892  29.064  1.00  0.00     0.029 A 
ATOM     60  C   UNL A   1      45.176  31.114  28.505  1.00  0.00     0.049 A 
ATOM     61  H   UNL A   1      45.036  29.220  27.586  1.00  0.00     0.167 HD
ATOM     62  C   UNL A   1      47.495  30.614  27.799  1.00  0.00     0.074 A 
ATOM     63  C   UNL A   1      48.890  30.956  27.632  1.00  0.00     0.031 C 
ATOM     64  C   UNL A   1      46.578  31.417  28.391  1.00  0.00     0.034 A 
BRANCH  51  65
ATOM     65  C   UNL A   1      40.832  29.201  28.330  1.00  0.00     0.023 A 
ATOM     66  C   UNL A   1      39.877  29.464  27.329  1.00  0.00     0.012 A 
ATOM     67  C   UNL A   1      40.412  29.013  29.661  1.00  0.00     0.148 A 
ATOM     68  C   UNL A   1      38.522  29.545  27.649  1.00  0.00     0.002 A 
ATOM     69  C   UNL A   1      39.057  29.048  29.963  1.00  0.00     0.091 A 
ATOM     70  F   UNL A   1      41.342  28.781  30.597  1.00  0.00    -0.205 F 
ATOM     71  C   UNL A   1      38.111  29.320  28.960  1.00  0.00     0.022 A 
BRANCH  69  72
ATOM     72  S   UNL A   1      38.418  28.688  31.603  1.00  0.00     0.127 S 
ATOM     73  O   UNL A   1      36.993  28.973  31.434  1.00  0.00    -0.237 OA
ATOM     74  O   UNL A   1      38.744  27.270  31.752  1.00  0.00    -0.237 OA
ATOM     75  O   UNL A   1      39.120  29.578  32.517  1.00  0.00    -0.744 OA
ENDBRANCH  69  72
ENDBRANCH  51  65
BRANCH  52  76
ATOM     76  C   UNL A   1      50.324  27.441  25.773  1.00  0.00     0.023 A 
ATOM     77  C   UNL A   1      51.231  27.051  26.778  1.00  0.00     0.012 A 
ATOM     78  C   UNL A   1      50.783  27.567  24.447  1.00  0.00     0.148 A 
ATOM     79  C   UNL A   1      52.573  26.820  26.472  1.00  0.00     0.002 A 
ATOM     80  C   UNL A   1      52.106  27.276  24.139  1.00  0.00     0.091 A 
ATOM     81  F   UNL A   1      49.909  27.959  23.508  1.00  0.00    -0.205 F 
ATOM     82  C   UNL A   1      53.008  26.921  25.153  1.00  0.00     0.022 A 
BRANCH  80  83
ATOM     83  S   UNL A   1      52.718  27.257  22.450  1.00  0.00     0.127 S 
ATOM     84  O   UNL A   1      51.574  26.711  21.726  1.00  0.00    -0.237 OA
ATOM     85  O   UNL A   1      52.981  28.677  22.212  1.00  0.00    -0.237 OA
ATOM     86  O   UNL A   1      53.910  26.420  22.473  1.00  0.00    -0.744 OA
ENDBRANCH  80  83
ENDBRANCH  52  76
BRANCH  64  87
ATOM     87  C   UNL A   1      47.029  32.744  28.945  1.00  0.00     0.023 A 
ATOM     88  C   UNL A   1      47.518  32.820  30.263  1.00  0.00     0.012 A 
ATOM     89  C   UNL A   1      47.123  33.872  28.104  1.00  0.00     0.148 A 
ATOM     90  C   UNL A   1      48.084  34.002  30.740  1.00  0.00     0.002 A 
ATOM     91  C   UNL A   1      47.737  35.029  28.569  1.00  0.00     0.091 A 
ATOM     92  F   UNL A   1      46.645  33.779  26.855  1.00  0.00    -0.205 F 
ATOM     93  C   UNL A   1      48.209  35.098  29.890  1.00  0.00     0.022 A 
BRANCH  91  94
ATOM     94  S   UNL A   1      48.044  36.454  27.518  1.00  0.00     0.127 S 
ATOM     95  O   UNL A   1      47.630  35.953  26.209  1.00  0.00    -0.237 OA
ATOM     96  O   UNL A   1      47.153  37.459  28.096  1.00  0.00    -0.237 OA
ATOM     97  O   UNL A   1      49.465  36.753  27.645  1.00  0.00    -0.744 OA
ENDBRANCH  91  94
ENDBRANCH  64  87
ENDBRANCH  38  39
ENDBRANCH  31  33
ENDBRANCH  30  31
ENDBRANCH  29  30
ENDBRANCH  28  29
ENDBRANCH  27  28
ENDBRANCH   1  27
TORSDOF 23
ENDMDL
MODEL 3
REMARK VINA RESULT:      -8.8      4.502      6.870
REMARK SMILES COc1ccc(F)cc1[C@@H](C(=O)OCCOCCOC(=O)c1ccc(-c2c3nc(c(-c4cccc(S(=O)(=O)[O-])c4F)c4ccc([nH]4)c(-c4cccc(S(=O)(=O)[O-])c4F)c4nc(c(-c5cccc(S(=O)(=O)[O-])c5F)c5ccc2[nH]5)C=C4)C=C3)cc1)[N@H+](C)CCn1ccnc1C
REMARK SMILES IDX 15 1 14 2 13 3 11 4 12 5 10 6 9 7 3 8 4 9 5 10 8 11 6 12
REMARK SMILES IDX 7 13 2 14 1 15 85 16 86 17 87 19 88 20 89 21 90 22 93 23
REMARK SMILES IDX 91 24 92 25 94 26 16 27 17 28 18 29 19 30 20 31 21 32 22 33
REMARK SMILES IDX 23 34 84 35 24 36 83 37 25 38 26 39 27 40 77 41 28 42 82 43
REMARK SMILES IDX 76 44 78 45 29 46 81 47 75 48 74 49 30 51 62 52 42 53 61 54
REMARK SMILES IDX 43 55 46 56 60 57 79 58 44 59 45 60 59 62 80 63 47 64 31 65
REMARK SMILES IDX 32 66 40 67 33 68 35 69 41 70 34 71 36 72 37 73 38 74 39 75
REMARK SMILES IDX 63 76 64 77 72 78 65 79 67 80 73 81 66 82 68 83 69 84 70 85
REMARK SMILES IDX 71 86 48 87 49 88 57 89 50 90 52 91 58 92 51 93 53 94 54 95
REMARK SMILES IDX 55 96 56 97
REMARK H PARENT 85 18 78 50 46 61
REMARK Flexibility Score: inf
ROOT
ATOM      1  C   UNL A   1      40.691  21.408  25.928  1.00  0.00     0.202 C 
ENDROOT
BRANCH   1   2
ATOM      2  C   UNL A   1      39.077  21.194  25.965  1.00  0.00     0.261 C 
BRANCH   2   3
ATOM      3  O   UNL A   1      37.873  22.254  25.871  1.00  0.00    -0.459 OA
BRANCH   3   4
ATOM      4  C   UNL A   1      36.837  23.115  25.870  1.00  0.00     0.370 C 
ATOM      5  O   UNL A   1      37.098  24.240  26.344  1.00  0.00    -0.245 OA
BRANCH   4   6
ATOM      6  C   UNL A   1      35.329  22.966  25.210  1.00  0.00     0.330 C 
BRANCH   6   7
ATOM      7  C   UNL A   1      34.584  24.263  24.757  1.00  0.00     0.066 A 
ATOM      8  C   UNL A   1      34.235  24.465  23.401  1.00  0.00     0.128 A 
ATOM      9  C   UNL A   1      33.707  25.699  22.957  1.00  0.00     0.050 A 
ATOM     10  C   UNL A   1      33.504  26.753  23.841  1.00  0.00     0.043 A 
ATOM     11  C   UNL A   1      34.179  25.288  25.628  1.00  0.00     0.053 A 
ATOM     12  C   UNL A   1      33.719  26.525  25.178  1.00  0.00     0.124 A 
ATOM     13  F   UNL A   1      33.532  27.515  26.065  1.00  0.00    -0.207 F 
BRANCH   8  14
ATOM     14  O   UNL A   1      34.341  23.370  22.586  1.00  0.00    -0.496 OA
ATOM     15  C   UNL A   1      33.184  22.989  21.853  1.00  0.00     0.278 C 
ENDBRANCH   8  14
ENDBRANCH   6   7
BRANCH   6  16
ATOM     16  N   UNL A   1      34.601  21.645  25.529  1.00  0.00    -0.320 N 
ATOM     17  C   UNL A   1      34.348  21.404  26.944  1.00  0.00     0.333 C 
ATOM     18  H   UNL A   1      33.985  22.072  24.839  1.00  0.00     0.348 HD
BRANCH  16  19
ATOM     19  C   UNL A   1      34.405  20.460  24.675  1.00  0.00     0.285 C 
BRANCH  19  20
ATOM     20  C   UNL A   1      32.984  19.929  24.325  1.00  0.00     0.184 C 
BRANCH  20  21
ATOM     21  N   UNL A   1      32.970  18.501  24.229  1.00  0.00    -0.330 N 
ATOM     22  C   UNL A   1      33.480  17.615  25.142  1.00  0.00     0.107 A 
ATOM     23  C   UNL A   1      32.865  17.891  23.018  1.00  0.00     0.105 A 
ATOM     24  C   UNL A   1      33.942  16.573  24.385  1.00  0.00     0.131 A 
ATOM     25  N   UNL A   1      33.623  16.811  23.094  1.00  0.00    -0.242 NA
ATOM     26  C   UNL A   1      32.192  18.496  21.795  1.00  0.00     0.087 C 
ENDBRANCH  20  21
ENDBRANCH  19  20
ENDBRANCH  16  19
ENDBRANCH   6  16
ENDBRANCH   4   6
ENDBRANCH   3   4
ENDBRANCH   2   3
ENDBRANCH   1   2
BRANCH   1  27
ATOM     27  O   UNL A   1      41.492  20.236  25.662  1.00  0.00    -0.374 OA
BRANCH  27  28
ATOM     28  C   UNL A   1      42.864  20.115  26.075  1.00  0.00     0.202 C 
BRANCH  28  29
ATOM     29  C   UNL A   1      44.029  20.040  25.057  1.00  0.00     0.261 C 
BRANCH  29  30
ATOM     30  O   UNL A   1      44.956  21.111  25.219  1.00  0.00    -0.460 OA
BRANCH  30  31
ATOM     31  C   UNL A   1      44.755  22.084  24.316  1.00  0.00     0.338 C 
ATOM     32  O   UNL A   1      44.315  21.951  23.185  1.00  0.00    -0.246 OA
BRANCH  31  33
ATOM     33  C   UNL A   1      44.816  23.376  25.003  1.00  0.00     0.060 A 
ATOM     34  C   UNL A   1      46.105  23.793  25.332  1.00  0.00     0.016 A 
ATOM     35  C   UNL A   1      43.694  24.127  25.365  1.00  0.00     0.016 A 
ATOM     36  C   UNL A   1      46.274  24.880  26.164  1.00  0.00     0.010 A 
ATOM     37  C   UNL A   1      43.870  25.244  26.189  1.00  0.00     0.010 A 
ATOM     38  C   UNL A   1      45.156  25.569  26.657  1.00  0.00    -0.014 A 
BRANCH  38  39
ATOM     39  C   UNL A   1      45.398  26.456  27.820  1.00  0.00     0.031 A 
ATOM     40  C   UNL A   1      45.552  27.936  27.587  1.00  0.00     0.074 A 
ATOM     41  C   UNL A   1      45.246  25.977  29.069  1.00  0.00     0.049 A 
ATOM     42  N   UNL A   1      45.502  28.912  28.457  1.00  0.00    -0.248 NA
ATOM     43  C   UNL A   1      45.766  28.385  26.200  1.00  0.00     0.031 C 
ATOM     44  C   UNL A   1      45.049  24.567  29.411  1.00  0.00     0.029 A 
ATOM     45  N   UNL A   1      45.183  26.628  30.274  1.00  0.00    -0.354 N 
ATOM     46  C   UNL A   1      45.677  30.080  27.726  1.00  0.00     0.074 A 
ATOM     47  C   UNL A   1      45.869  29.698  26.346  1.00  0.00     0.031 C 
ATOM     48  C   UNL A   1      44.855  24.464  30.736  1.00  0.00     0.029 A 
ATOM     49  C   UNL A   1      44.938  25.793  31.338  1.00  0.00     0.049 A 
ATOM     50  H   UNL A   1      45.302  27.601  30.368  1.00  0.00     0.167 HD
ATOM     51  C   UNL A   1      45.646  31.361  28.158  1.00  0.00     0.034 A 
ATOM     52  C   UNL A   1      44.789  26.069  32.651  1.00  0.00     0.034 A 
ATOM     53  C   UNL A   1      45.421  31.746  29.523  1.00  0.00     0.049 A 
ATOM     54  C   UNL A   1      44.816  27.504  33.109  1.00  0.00     0.074 A 
ATOM     55  C   UNL A   1      45.354  33.023  30.048  1.00  0.00     0.029 A 
ATOM     56  N   UNL A   1      45.230  30.866  30.574  1.00  0.00    -0.354 N 
ATOM     57  N   UNL A   1      44.888  28.598  32.390  1.00  0.00    -0.248 NA
ATOM     58  C   UNL A   1      44.711  27.747  34.556  1.00  0.00     0.031 C 
ATOM     59  C   UNL A   1      45.160  32.917  31.425  1.00  0.00     0.029 A 
ATOM     60  C   UNL A   1      45.064  31.574  31.751  1.00  0.00     0.049 A 
ATOM     61  H   UNL A   1      45.216  29.884  30.497  1.00  0.00     0.167 HD
ATOM     62  C   UNL A   1      44.802  29.654  33.291  1.00  0.00     0.074 A 
ATOM     63  C   UNL A   1      44.656  29.072  34.607  1.00  0.00     0.031 C 
ATOM     64  C   UNL A   1      44.854  30.986  33.048  1.00  0.00     0.034 A 
BRANCH  51  65
ATOM     65  C   UNL A   1      45.820  32.461  27.147  1.00  0.00     0.023 A 
ATOM     66  C   UNL A   1      44.692  32.969  26.473  1.00  0.00     0.012 A 
ATOM     67  C   UNL A   1      47.074  33.076  26.965  1.00  0.00     0.148 A 
ATOM     68  C   UNL A   1      44.811  34.070  25.625  1.00  0.00     0.002 A 
ATOM     69  C   UNL A   1      47.176  34.200  26.156  1.00  0.00     0.091 A 
ATOM     70  F   UNL A   1      48.134  32.562  27.604  1.00  0.00    -0.205 F 
ATOM     71  C   UNL A   1      46.048  34.694  25.481  1.00  0.00     0.022 A 
BRANCH  69  72
ATOM     72  S   UNL A   1      48.703  35.128  25.972  1.00  0.00     0.127 S 
ATOM     73  O   UNL A   1      49.113  35.300  27.365  1.00  0.00    -0.237 OA
ATOM     74  O   UNL A   1      49.532  34.201  25.202  1.00  0.00    -0.237 OA
ATOM     75  O   UNL A   1      48.349  36.357  25.276  1.00  0.00    -0.744 OA
ENDBRANCH  69  72
ENDBRANCH  51  65
BRANCH  52  76
ATOM     76  C   UNL A   1      44.563  24.962  33.621  1.00  0.00     0.023 A 
ATOM     77  C   UNL A   1      43.252  24.603  33.990  1.00  0.00     0.012 A 
ATOM     78  C   UNL A   1      45.649  24.256  34.176  1.00  0.00     0.148 A 
ATOM     79  C   UNL A   1      43.031  23.581  34.915  1.00  0.00     0.002 A 
ATOM     80  C   UNL A   1      45.419  23.201  35.049  1.00  0.00     0.091 A 
ATOM     81  F   UNL A   1      46.890  24.627  33.828  1.00  0.00    -0.205 F 
ATOM     82  C   UNL A   1      44.111  22.873  35.435  1.00  0.00     0.022 A 
BRANCH  80  83
ATOM     83  S   UNL A   1      46.744  22.156  35.665  1.00  0.00     0.127 S 
ATOM     84  O   UNL A   1      46.029  21.284  36.592  1.00  0.00    -0.237 OA
ATOM     85  O   UNL A   1      47.207  21.507  34.438  1.00  0.00    -0.237 OA
ATOM     86  O   UNL A   1      47.712  23.062  36.268  1.00  0.00    -0.744 OA
ENDBRANCH  80  83
ENDBRANCH  52  76
BRANCH  64  87
ATOM     87  C   UNL A   1      44.720  31.938  34.208  1.00  0.00     0.023 A 
ATOM     88  C   UNL A   1      43.442  32.364  34.618  1.00  0.00     0.012 A 
ATOM     89  C   UNL A   1      45.846  32.274  34.988  1.00  0.00     0.148 A 
ATOM     90  C   UNL A   1      43.287  33.117  35.781  1.00  0.00     0.002 A 
ATOM     91  C   UNL A   1      45.678  32.979  36.173  1.00  0.00     0.091 A 
ATOM     92  F   UNL A   1      47.054  31.864  34.574  1.00  0.00    -0.205 F 
ATOM     93  C   UNL A   1      44.400  33.410  36.566  1.00  0.00     0.022 A 
BRANCH  91  94
ATOM     94  S   UNL A   1      47.033  33.308  37.307  1.00  0.00     0.127 S 
ATOM     95  O   UNL A   1      46.401  34.206  38.272  1.00  0.00    -0.237 OA
ATOM     96  O   UNL A   1      47.332  31.973  37.823  1.00  0.00    -0.237 OA
ATOM     97  O   UNL A   1      48.095  33.907  36.509  1.00  0.00    -0.744 OA
ENDBRANCH  91  94
ENDBRANCH  64  87
ENDBRANCH  38  39
ENDBRANCH  31  33
ENDBRANCH  30  31
ENDBRANCH  29  30
ENDBRANCH  28  29
ENDBRANCH  27  28
ENDBRANCH   1  27
TORSDOF 23
ENDMDL
