MODEL 1
REMARK VINA RESULT:     -10.7      0.000      0.000
REMARK SMILES Cn1cc(/C=C/C(=O)N(CC(=O)OCCOCCOC(=O)c2ccc(-c3c4nc(c(-c5cccc(S(=O)(=O)[O-])c5F)c5ccc([nH]5)c(-c5cccc(S(=O)(=O)[O-])c5F)c5nc(c(-c6cccc(S(=O)(=O)[O-])c6F)c6ccc3[nH]6)C=C5)C=C4)cc2)C(C)(C)C)cn1
REMARK SMILES IDX 15 1 14 2 13 3 11 4 12 5 10 6 9 7 7 8 8 9 6 10 5 11 4 12
REMARK SMILES IDX 1 13 2 14 3 15 90 16 89 17 85 18 86 19 87 20 88 21 16 22
REMARK SMILES IDX 17 23 18 24 19 25 20 26 21 27 22 28 23 29 84 30 24 31 83 32
REMARK SMILES IDX 25 33 26 34 27 35 77 36 28 37 82 38 76 39 78 40 29 41 81 42
REMARK SMILES IDX 75 43 74 44 30 46 62 47 42 48 61 49 43 50 46 51 60 52 79 53
REMARK SMILES IDX 44 54 45 55 59 57 80 58 47 59 31 60 32 61 40 62 33 63 35 64
REMARK SMILES IDX 41 65 34 66 36 67 37 68 38 69 39 70 63 71 64 72 72 73 65 74
REMARK SMILES IDX 67 75 73 76 66 77 68 78 69 79 70 80 71 81 48 82 49 83 57 84
REMARK SMILES IDX 50 85 52 86 58 87 51 88 53 89 54 90 55 91 56 92
REMARK H PARENT 78 45 46 56
REMARK Flexibility Score: inf
ROOT
ATOM      1  C   UNL A   1      32.861  27.548  24.473  1.00  0.00     0.202 C 
ENDROOT
BRANCH   1   2
ATOM      2  C   UNL A   1      32.018  26.342  24.916  1.00  0.00     0.261 C 
BRANCH   2   3
ATOM      3  O   UNL A   1      32.392  25.804  26.208  1.00  0.00    -0.462 OA
BRANCH   3   4
ATOM      4  C   UNL A   1      31.883  24.578  26.511  1.00  0.00     0.325 C 
ATOM      5  O   UNL A   1      30.701  24.362  26.765  1.00  0.00    -0.250 OA
BRANCH   4   6
ATOM      6  C   UNL A   1      32.915  23.439  26.527  1.00  0.00     0.243 C 
BRANCH   6   7
ATOM      7  N   UNL A   1      33.427  22.878  25.257  1.00  0.00    -0.323 N 
BRANCH   7   8
ATOM      8  C   UNL A   1      32.596  22.196  24.359  1.00  0.00     0.247 C 
ATOM      9  O   UNL A   1      31.622  22.707  23.810  1.00  0.00    -0.270 OA
BRANCH   8  10
ATOM     10  C   UNL A   1      32.734  20.728  24.184  1.00  0.00     0.072 C 
ATOM     11  C   UNL A   1      33.137  19.841  25.103  1.00  0.00     0.017 C 
BRANCH  11  12
ATOM     12  C   UNL A   1      33.226  18.441  24.865  1.00  0.00     0.013 A 
ATOM     13  C   UNL A   1      32.531  14.963  25.446  1.00  0.00     0.173 C 
ATOM     14  N   UNL A   1      32.923  16.282  25.015  1.00  0.00    -0.275 N 
ATOM     15  C   UNL A   1      32.535  17.474  25.557  1.00  0.00     0.116 A 
ATOM     16  N   UNL A   1      33.763  16.413  23.974  1.00  0.00    -0.181 NA
ATOM     17  C   UNL A   1      33.991  17.728  23.918  1.00  0.00     0.143 A 
ENDBRANCH  11  12
ENDBRANCH   8  10
ENDBRANCH   7   8
BRANCH   7  18
ATOM     18  C   UNL A   1      34.857  23.144  24.837  1.00  0.00     0.035 C 
ATOM     19  C   UNL A   1      35.805  22.065  25.403  1.00  0.00     0.034 C 
ATOM     20  C   UNL A   1      34.956  23.163  23.291  1.00  0.00     0.034 C 
ATOM     21  C   UNL A   1      35.409  24.520  25.281  1.00  0.00     0.034 C 
ENDBRANCH   7  18
ENDBRANCH   6   7
ENDBRANCH   4   6
ENDBRANCH   3   4
ENDBRANCH   2   3
ENDBRANCH   1   2
BRANCH   1  22
ATOM     22  O   UNL A   1      32.871  28.683  25.342  1.00  0.00    -0.374 OA
BRANCH  22  23
ATOM     23  C   UNL A   1      31.768  29.576  25.228  1.00  0.00     0.202 C 
BRANCH  23  24
ATOM     24  C   UNL A   1      31.769  30.792  26.162  1.00  0.00     0.261 C 
BRANCH  24  25
ATOM     25  O   UNL A   1      32.684  30.639  27.257  1.00  0.00    -0.460 OA
BRANCH  25  26
ATOM     26  C   UNL A   1      33.469  31.715  27.491  1.00  0.00     0.338 C 
ATOM     27  O   UNL A   1      33.105  32.883  27.586  1.00  0.00    -0.246 OA
BRANCH  26  28
ATOM     28  C   UNL A   1      34.846  31.296  27.803  1.00  0.00     0.060 A 
ATOM     29  C   UNL A   1      35.065  29.926  27.989  1.00  0.00     0.016 A 
ATOM     30  C   UNL A   1      35.881  32.214  28.001  1.00  0.00     0.016 A 
ATOM     31  C   UNL A   1      36.299  29.472  28.448  1.00  0.00     0.010 A 
ATOM     32  C   UNL A   1      37.120  31.755  28.466  1.00  0.00     0.010 A 
ATOM     33  C   UNL A   1      37.318  30.388  28.737  1.00  0.00    -0.014 A 
BRANCH  33  34
ATOM     34  C   UNL A   1      38.519  29.920  29.471  1.00  0.00     0.031 A 
ATOM     35  C   UNL A   1      38.784  30.454  30.853  1.00  0.00     0.074 A 
ATOM     36  C   UNL A   1      39.340  29.002  28.931  1.00  0.00     0.049 A 
ATOM     37  N   UNL A   1      39.744  30.153  31.688  1.00  0.00    -0.248 NA
ATOM     38  C   UNL A   1      37.837  31.460  31.365  1.00  0.00     0.031 C 
ATOM     39  C   UNL A   1      39.184  28.409  27.603  1.00  0.00     0.029 A 
ATOM     40  N   UNL A   1      40.478  28.419  29.429  1.00  0.00    -0.354 N 
ATOM     41  C   UNL A   1      39.532  30.943  32.812  1.00  0.00     0.074 A 
ATOM     42  C   UNL A   1      38.360  31.749  32.548  1.00  0.00     0.031 C 
ATOM     43  C   UNL A   1      40.204  27.560  27.383  1.00  0.00     0.029 A 
ATOM     44  C   UNL A   1      41.090  27.561  28.545  1.00  0.00     0.049 A 
ATOM     45  H   UNL A   1      40.823  28.597  30.334  1.00  0.00     0.167 HD
ATOM     46  C   UNL A   1      40.237  30.981  33.967  1.00  0.00     0.034 A 
ATOM     47  C   UNL A   1      42.240  26.866  28.660  1.00  0.00     0.034 A 
ATOM     48  C   UNL A   1      41.388  30.164  34.233  1.00  0.00     0.049 A 
ATOM     49  C   UNL A   1      43.016  26.938  29.950  1.00  0.00     0.074 A 
ATOM     50  C   UNL A   1      42.148  30.098  35.388  1.00  0.00     0.029 A 
ATOM     51  N   UNL A   1      41.954  29.278  33.329  1.00  0.00    -0.354 N 
ATOM     52  N   UNL A   1      42.730  27.594  31.049  1.00  0.00    -0.248 NA
ATOM     53  C   UNL A   1      44.253  26.146  30.030  1.00  0.00     0.031 C 
ATOM     54  C   UNL A   1      43.186  29.185  35.174  1.00  0.00     0.029 A 
ATOM     55  C   UNL A   1      43.058  28.667  33.895  1.00  0.00     0.049 A 
ATOM     56  H   UNL A   1      41.620  29.109  32.418  1.00  0.00     0.167 HD
ATOM     57  C   UNL A   1      43.726  27.264  31.962  1.00  0.00     0.074 A 
ATOM     58  C   UNL A   1      44.616  26.338  31.292  1.00  0.00     0.031 C 
ATOM     59  C   UNL A   1      43.895  27.697  33.235  1.00  0.00     0.034 A 
BRANCH  46  60
ATOM     60  C   UNL A   1      39.760  31.914  35.048  1.00  0.00     0.023 A 
ATOM     61  C   UNL A   1      38.792  31.470  35.971  1.00  0.00     0.012 A 
ATOM     62  C   UNL A   1      40.306  33.205  35.186  1.00  0.00     0.148 A 
ATOM     63  C   UNL A   1      38.354  32.305  36.998  1.00  0.00     0.002 A 
ATOM     64  C   UNL A   1      39.894  34.018  36.236  1.00  0.00     0.091 A 
ATOM     65  F   UNL A   1      41.208  33.618  34.284  1.00  0.00    -0.205 F 
ATOM     66  C   UNL A   1      38.912  33.573  37.137  1.00  0.00     0.022 A 
BRANCH  64  67
ATOM     67  S   UNL A   1      40.604  35.639  36.540  1.00  0.00     0.127 S 
ATOM     68  O   UNL A   1      40.848  35.589  37.982  1.00  0.00    -0.237 OA
ATOM     69  O   UNL A   1      41.814  35.608  35.717  1.00  0.00    -0.237 OA
ATOM     70  O   UNL A   1      39.602  36.604  36.107  1.00  0.00    -0.744 OA
ENDBRANCH  64  67
ENDBRANCH  46  60
BRANCH  47  71
ATOM     71  C   UNL A   1      42.699  26.002  27.536  1.00  0.00     0.023 A 
ATOM     72  C   UNL A   1      43.646  26.496  26.618  1.00  0.00     0.012 A 
ATOM     73  C   UNL A   1      42.224  24.684  27.387  1.00  0.00     0.148 A 
ATOM     74  C   UNL A   1      44.092  25.704  25.560  1.00  0.00     0.002 A 
ATOM     75  C   UNL A   1      42.715  23.882  26.364  1.00  0.00     0.091 A 
ATOM     76  F   UNL A   1      41.306  24.237  28.256  1.00  0.00    -0.205 F 
ATOM     77  C   UNL A   1      43.636  24.394  25.439  1.00  0.00     0.022 A 
BRANCH  75  78
ATOM     78  S   UNL A   1      42.283  22.144  26.214  1.00  0.00     0.127 S 
ATOM     79  O   UNL A   1      43.112  21.725  25.087  1.00  0.00    -0.237 OA
ATOM     80  O   UNL A   1      42.697  21.617  27.515  1.00  0.00    -0.237 OA
ATOM     81  O   UNL A   1      40.843  22.120  25.989  1.00  0.00    -0.744 OA
ENDBRANCH  75  78
ENDBRANCH  47  71
BRANCH  59  82
ATOM     82  C   UNL A   1      45.060  27.150  34.018  1.00  0.00     0.023 A 
ATOM     83  C   UNL A   1      46.295  27.826  34.001  1.00  0.00     0.012 A 
ATOM     84  C   UNL A   1      44.898  26.024  34.851  1.00  0.00     0.148 A 
ATOM     85  C   UNL A   1      47.358  27.379  34.784  1.00  0.00     0.002 A 
ATOM     86  C   UNL A   1      45.947  25.611  35.663  1.00  0.00     0.091 A 
ATOM     87  F   UNL A   1      43.719  25.385  34.839  1.00  0.00    -0.205 F 
ATOM     88  C   UNL A   1      47.180  26.281  35.624  1.00  0.00     0.022 A 
BRANCH  86  89
ATOM     89  S   UNL A   1      45.778  24.269  36.845  1.00  0.00     0.127 S 
ATOM     90  O   UNL A   1      44.702  24.762  37.704  1.00  0.00    -0.237 OA
ATOM     91  O   UNL A   1      45.406  23.143  35.987  1.00  0.00    -0.237 OA
ATOM     92  O   UNL A   1      47.078  24.135  37.488  1.00  0.00    -0.744 OA
ENDBRANCH  86  89
ENDBRANCH  59  82
ENDBRANCH  33  34
ENDBRANCH  26  28
ENDBRANCH  25  26
ENDBRANCH  24  25
ENDBRANCH  23  24
ENDBRANCH  22  23
ENDBRANCH   1  22
TORSDOF 22
ENDMDL
MODEL 2
REMARK VINA RESULT:     -10.6      5.121      8.438
REMARK SMILES Cn1cc(/C=C/C(=O)N(CC(=O)OCCOCCOC(=O)c2ccc(-c3c4nc(c(-c5cccc(S(=O)(=O)[O-])c5F)c5ccc([nH]5)c(-c5cccc(S(=O)(=O)[O-])c5F)c5nc(c(-c6cccc(S(=O)(=O)[O-])c6F)c6ccc3[nH]6)C=C5)C=C4)cc2)C(C)(C)C)cn1
REMARK SMILES IDX 15 1 14 2 13 3 11 4 12 5 10 6 9 7 7 8 8 9 6 10 5 11 4 12
REMARK SMILES IDX 1 13 2 14 3 15 90 16 89 17 85 18 86 19 87 20 88 21 16 22
REMARK SMILES IDX 17 23 18 24 19 25 20 26 21 27 22 28 23 29 84 30 24 31 83 32
REMARK SMILES IDX 25 33 26 34 27 35 77 36 28 37 82 38 76 39 78 40 29 41 81 42
REMARK SMILES IDX 75 43 74 44 30 46 62 47 42 48 61 49 43 50 46 51 60 52 79 53
REMARK SMILES IDX 44 54 45 55 59 57 80 58 47 59 31 60 32 61 40 62 33 63 35 64
REMARK SMILES IDX 41 65 34 66 36 67 37 68 38 69 39 70 63 71 64 72 72 73 65 74
REMARK SMILES IDX 67 75 73 76 66 77 68 78 69 79 70 80 71 81 48 82 49 83 57 84
REMARK SMILES IDX 50 85 52 86 58 87 51 88 53 89 54 90 55 91 56 92
REMARK H PARENT 78 45 46 56
REMARK Flexibility Score: inf
ROOT
ATOM      1  C   UNL A   1      33.300  22.011  23.873  1.00  0.00     0.202 C 
ENDROOT
BRANCH   1   2
ATOM      2  C   UNL A   1      33.849  23.137  22.984  1.00  0.00     0.261 C 
BRANCH   2   3
ATOM      3  O   UNL A   1      32.833  23.831  22.218  1.00  0.00    -0.462 OA
BRANCH   3   4
ATOM      4  C   UNL A   1      32.787  25.182  22.379  1.00  0.00     0.325 C 
ATOM      5  O   UNL A   1      32.495  25.977  21.489  1.00  0.00    -0.250 OA
BRANCH   4   6
ATOM      6  C   UNL A   1      33.145  25.675  23.790  1.00  0.00     0.243 C 
BRANCH   6   7
ATOM      7  N   UNL A   1      32.175  26.477  24.569  1.00  0.00    -0.323 N 
BRANCH   7   8
ATOM      8  C   UNL A   1      30.795  26.249  24.496  1.00  0.00     0.247 C 
ATOM      9  O   UNL A   1      30.279  25.141  24.638  1.00  0.00    -0.270 OA
BRANCH   8  10
ATOM     10  C   UNL A   1      29.887  27.324  24.023  1.00  0.00     0.072 C 
ATOM     11  C   UNL A   1      30.108  28.182  23.018  1.00  0.00     0.017 C 
BRANCH  11  12
ATOM     12  C   UNL A   1      29.177  29.177  22.610  1.00  0.00     0.013 A 
ATOM     13  C   UNL A   1      28.027  32.028  20.746  1.00  0.00     0.173 C 
ATOM     14  N   UNL A   1      28.261  30.869  21.571  1.00  0.00    -0.275 N 
ATOM     15  C   UNL A   1      29.399  30.116  21.630  1.00  0.00     0.116 A 
ATOM     16  N   UNL A   1      27.290  30.438  22.396  1.00  0.00    -0.181 NA
ATOM     17  C   UNL A   1      27.869  29.440  23.069  1.00  0.00     0.143 A 
ENDBRANCH  11  12
ENDBRANCH   8  10
ENDBRANCH   7   8
BRANCH   7  18
ATOM     18  C   UNL A   1      32.672  27.493  25.575  1.00  0.00     0.035 C 
ATOM     19  C   UNL A   1      31.669  27.651  26.738  1.00  0.00     0.034 C 
ATOM     20  C   UNL A   1      34.048  27.052  26.133  1.00  0.00     0.034 C 
ATOM     21  C   UNL A   1      32.922  28.904  24.989  1.00  0.00     0.034 C 
ENDBRANCH   7  18
ENDBRANCH   6   7
ENDBRANCH   4   6
ENDBRANCH   3   4
ENDBRANCH   2   3
ENDBRANCH   1   2
BRANCH   1  22
ATOM     22  O   UNL A   1      34.257  21.247  24.613  1.00  0.00    -0.374 OA
BRANCH  22  23
ATOM     23  C   UNL A   1      35.569  21.794  24.700  1.00  0.00     0.202 C 
BRANCH  23  24
ATOM     24  C   UNL A   1      36.664  20.867  25.244  1.00  0.00     0.261 C 
BRANCH  24  25
ATOM     25  O   UNL A   1      37.983  21.338  24.929  1.00  0.00    -0.460 OA
BRANCH  25  26
ATOM     26  C   UNL A   1      38.920  21.056  25.861  1.00  0.00     0.338 C 
ATOM     27  O   UNL A   1      39.430  19.962  26.083  1.00  0.00    -0.246 OA
BRANCH  26  28
ATOM     28  C   UNL A   1      39.411  22.291  26.496  1.00  0.00     0.060 A 
ATOM     29  C   UNL A   1      38.835  23.494  26.071  1.00  0.00     0.016 A 
ATOM     30  C   UNL A   1      40.465  22.293  27.413  1.00  0.00     0.016 A 
ATOM     31  C   UNL A   1      39.360  24.710  26.501  1.00  0.00     0.010 A 
ATOM     32  C   UNL A   1      40.994  23.517  27.841  1.00  0.00     0.010 A 
ATOM     33  C   UNL A   1      40.474  24.729  27.350  1.00  0.00    -0.014 A 
BRANCH  33  34
ATOM     34  C   UNL A   1      41.178  26.014  27.581  1.00  0.00     0.031 A 
ATOM     35  C   UNL A   1      40.481  27.100  28.355  1.00  0.00     0.074 A 
ATOM     36  C   UNL A   1      42.437  26.197  27.142  1.00  0.00     0.049 A 
ATOM     37  N   UNL A   1      40.921  28.279  28.710  1.00  0.00    -0.248 NA
ATOM     38  C   UNL A   1      39.102  26.817  28.794  1.00  0.00     0.031 C 
ATOM     39  C   UNL A   1      43.216  25.218  26.386  1.00  0.00     0.029 A 
ATOM     40  N   UNL A   1      43.275  27.278  27.259  1.00  0.00    -0.354 N 
ATOM     41  C   UNL A   1      39.873  28.887  29.391  1.00  0.00     0.074 A 
ATOM     42  C   UNL A   1      38.768  27.953  29.389  1.00  0.00     0.031 C 
ATOM     43  C   UNL A   1      44.414  25.752  26.087  1.00  0.00     0.029 A 
ATOM     44  C   UNL A   1      44.479  27.113  26.616  1.00  0.00     0.049 A 
ATOM     45  H   UNL A   1      43.037  28.093  27.757  1.00  0.00     0.167 HD
ATOM     46  C   UNL A   1      39.838  30.104  29.982  1.00  0.00     0.034 A 
ATOM     47  C   UNL A   1      45.510  27.968  26.465  1.00  0.00     0.034 A 
ATOM     48  C   UNL A   1      40.945  31.021  30.000  1.00  0.00     0.049 A 
ATOM     49  C   UNL A   1      45.442  29.324  27.119  1.00  0.00     0.074 A 
ATOM     50  C   UNL A   1      41.025  32.261  30.608  1.00  0.00     0.029 A 
ATOM     51  N   UNL A   1      42.162  30.801  29.373  1.00  0.00    -0.354 N 
ATOM     52  N   UNL A   1      44.492  29.832  27.867  1.00  0.00    -0.248 NA
ATOM     53  C   UNL A   1      46.601  30.212  26.939  1.00  0.00     0.031 C 
ATOM     54  C   UNL A   1      42.285  32.801  30.331  1.00  0.00     0.029 A 
ATOM     55  C   UNL A   1      42.997  31.887  29.570  1.00  0.00     0.049 A 
ATOM     56  H   UNL A   1      42.397  29.993  28.862  1.00  0.00     0.167 HD
ATOM     57  C   UNL A   1      44.954  31.077  28.279  1.00  0.00     0.074 A 
ATOM     58  C   UNL A   1      46.275  31.242  27.709  1.00  0.00     0.031 C 
ATOM     59  C   UNL A   1      44.335  32.006  29.050  1.00  0.00     0.034 A 
BRANCH  46  60
ATOM     60  C   UNL A   1      38.572  30.503  30.693  1.00  0.00     0.023 A 
ATOM     61  C   UNL A   1      38.413  30.187  32.057  1.00  0.00     0.012 A 
ATOM     62  C   UNL A   1      37.568  31.235  30.030  1.00  0.00     0.148 A 
ATOM     63  C   UNL A   1      37.261  30.569  32.745  1.00  0.00     0.002 A 
ATOM     64  C   UNL A   1      36.440  31.647  30.732  1.00  0.00     0.091 A 
ATOM     65  F   UNL A   1      37.727  31.504  28.727  1.00  0.00    -0.205 F 
ATOM     66  C   UNL A   1      36.281  31.307  32.085  1.00  0.00     0.022 A 
BRANCH  64  67
ATOM     67  S   UNL A   1      35.157  32.661  29.990  1.00  0.00     0.127 S 
ATOM     68  O   UNL A   1      35.920  33.829  29.551  1.00  0.00    -0.237 OA
ATOM     69  O   UNL A   1      34.674  31.805  28.905  1.00  0.00    -0.237 OA
ATOM     70  O   UNL A   1      34.183  32.909  31.044  1.00  0.00    -0.744 OA
ENDBRANCH  64  67
ENDBRANCH  46  60
BRANCH  47  71
ATOM     71  C   UNL A   1      46.719  27.545  25.701  1.00  0.00     0.023 A 
ATOM     72  C   UNL A   1      46.812  27.836  24.327  1.00  0.00     0.012 A 
ATOM     73  C   UNL A   1      47.788  26.880  26.335  1.00  0.00     0.148 A 
ATOM     74  C   UNL A   1      47.934  27.453  23.592  1.00  0.00     0.002 A 
ATOM     75  C   UNL A   1      48.926  26.551  25.610  1.00  0.00     0.091 A 
ATOM     76  F   UNL A   1      47.672  26.591  27.639  1.00  0.00    -0.205 F 
ATOM     77  C   UNL A   1      48.996  26.821  24.235  1.00  0.00     0.022 A 
BRANCH  75  78
ATOM     78  S   UNL A   1      50.391  25.857  26.384  1.00  0.00     0.127 S 
ATOM     79  O   UNL A   1      50.707  26.868  27.390  1.00  0.00    -0.237 OA
ATOM     80  O   UNL A   1      49.881  24.593  26.918  1.00  0.00    -0.237 OA
ATOM     81  O   UNL A   1      51.363  25.703  25.309  1.00  0.00    -0.744 OA
ENDBRANCH  75  78
ENDBRANCH  47  71
BRANCH  59  82
ATOM     82  C   UNL A   1      45.086  33.272  29.368  1.00  0.00     0.023 A 
ATOM     83  C   UNL A   1      46.040  33.279  30.404  1.00  0.00     0.012 A 
ATOM     84  C   UNL A   1      44.918  34.424  28.573  1.00  0.00     0.148 A 
ATOM     85  C   UNL A   1      46.801  34.419  30.658  1.00  0.00     0.002 A 
ATOM     86  C   UNL A   1      45.711  35.541  28.803  1.00  0.00     0.091 A 
ATOM     87  F   UNL A   1      43.991  34.401  27.604  1.00  0.00    -0.205 F 
ATOM     88  C   UNL A   1      46.647  35.544  29.850  1.00  0.00     0.022 A 
BRANCH  86  89
ATOM     89  S   UNL A   1      45.649  36.998  27.753  1.00  0.00     0.127 S 
ATOM     90  O   UNL A   1      46.647  37.862  28.383  1.00  0.00    -0.237 OA
ATOM     91  O   UNL A   1      46.044  36.460  26.450  1.00  0.00    -0.237 OA
ATOM     92  O   UNL A   1      44.276  37.479  27.816  1.00  0.00    -0.744 OA
ENDBRANCH  86  89
ENDBRANCH  59  82
ENDBRANCH  33  34
ENDBRANCH  26  28
ENDBRANCH  25  26
ENDBRANCH  24  25
ENDBRANCH  23  24
ENDBRANCH  22  23
ENDBRANCH   1  22
TORSDOF 22
ENDMDL
MODEL 3
REMARK VINA RESULT:     -10.4      5.303     10.645
REMARK SMILES Cn1cc(/C=C/C(=O)N(CC(=O)OCCOCCOC(=O)c2ccc(-c3c4nc(c(-c5cccc(S(=O)(=O)[O-])c5F)c5ccc([nH]5)c(-c5cccc(S(=O)(=O)[O-])c5F)c5nc(c(-c6cccc(S(=O)(=O)[O-])c6F)c6ccc3[nH]6)C=C5)C=C4)cc2)C(C)(C)C)cn1
REMARK SMILES IDX 15 1 14 2 13 3 11 4 12 5 10 6 9 7 7 8 8 9 6 10 5 11 4 12
REMARK SMILES IDX 1 13 2 14 3 15 90 16 89 17 85 18 86 19 87 20 88 21 16 22
REMARK SMILES IDX 17 23 18 24 19 25 20 26 21 27 22 28 23 29 84 30 24 31 83 32
REMARK SMILES IDX 25 33 26 34 27 35 77 36 28 37 82 38 76 39 78 40 29 41 81 42
REMARK SMILES IDX 75 43 74 44 30 46 62 47 42 48 61 49 43 50 46 51 60 52 79 53
REMARK SMILES IDX 44 54 45 55 59 57 80 58 47 59 31 60 32 61 40 62 33 63 35 64
REMARK SMILES IDX 41 65 34 66 36 67 37 68 38 69 39 70 63 71 64 72 72 73 65 74
REMARK SMILES IDX 67 75 73 76 66 77 68 78 69 79 70 80 71 81 48 82 49 83 57 84
REMARK SMILES IDX 50 85 52 86 58 87 51 88 53 89 54 90 55 91 56 92
REMARK H PARENT 78 45 46 56
REMARK Flexibility Score: inf
ROOT
ATOM      1  C   UNL A   1      35.829  22.175  24.066  1.00  0.00     0.202 C 
ENDROOT
BRANCH   1   2
ATOM      2  C   UNL A   1      34.587  22.856  23.471  1.00  0.00     0.261 C 
BRANCH   2   3
ATOM      3  O   UNL A   1      34.837  24.182  22.945  1.00  0.00    -0.462 OA
BRANCH   3   4
ATOM      4  C   UNL A   1      33.750  24.845  22.462  1.00  0.00     0.325 C 
ATOM      5  O   UNL A   1      33.103  24.492  21.479  1.00  0.00    -0.250 OA
BRANCH   4   6
ATOM      6  C   UNL A   1      33.371  26.114  23.242  1.00  0.00     0.243 C 
BRANCH   6   7
ATOM      7  N   UNL A   1      32.333  26.061  24.294  1.00  0.00    -0.323 N 
BRANCH   7   8
ATOM      8  C   UNL A   1      30.967  26.136  23.994  1.00  0.00     0.247 C 
ATOM      9  O   UNL A   1      30.294  25.170  23.637  1.00  0.00    -0.270 OA
BRANCH   8  10
ATOM     10  C   UNL A   1      30.299  27.457  23.888  1.00  0.00     0.072 C 
ATOM     11  C   UNL A   1      29.437  27.851  22.940  1.00  0.00     0.017 C 
BRANCH  11  12
ATOM     12  C   UNL A   1      28.821  29.133  22.916  1.00  0.00     0.013 A 
ATOM     13  C   UNL A   1      28.715  32.721  22.706  1.00  0.00     0.173 C 
ATOM     14  N   UNL A   1      28.517  31.294  22.783  1.00  0.00    -0.275 N 
ATOM     15  C   UNL A   1      29.478  30.326  22.720  1.00  0.00     0.116 A 
ATOM     16  N   UNL A   1      27.273  30.807  22.936  1.00  0.00    -0.181 NA
ATOM     17  C   UNL A   1      27.465  29.492  23.073  1.00  0.00     0.143 A 
ENDBRANCH  11  12
ENDBRANCH   8  10
ENDBRANCH   7   8
BRANCH   7  18
ATOM     18  C   UNL A   1      32.728  25.792  25.731  1.00  0.00     0.035 C 
ATOM     19  C   UNL A   1      32.276  26.947  26.650  1.00  0.00     0.034 C 
ATOM     20  C   UNL A   1      32.091  24.465  26.212  1.00  0.00     0.034 C 
ATOM     21  C   UNL A   1      34.248  25.598  25.951  1.00  0.00     0.034 C 
ENDBRANCH   7  18
ENDBRANCH   6   7
ENDBRANCH   4   6
ENDBRANCH   3   4
ENDBRANCH   2   3
ENDBRANCH   1   2
BRANCH   1  22
ATOM     22  O   UNL A   1      35.612  20.974  24.812  1.00  0.00    -0.374 OA
BRANCH  22  23
ATOM     23  C   UNL A   1      36.748  20.140  25.011  1.00  0.00     0.202 C 
BRANCH  23  24
ATOM     24  C   UNL A   1      38.110  20.842  25.094  1.00  0.00     0.261 C 
BRANCH  24  25
ATOM     25  O   UNL A   1      38.801  20.548  26.317  1.00  0.00    -0.460 OA
BRANCH  25  26
ATOM     26  C   UNL A   1      40.118  20.853  26.308  1.00  0.00     0.338 C 
ATOM     27  O   UNL A   1      41.009  20.246  25.722  1.00  0.00    -0.246 OA
BRANCH  26  28
ATOM     28  C   UNL A   1      40.358  22.150  26.965  1.00  0.00     0.060 A 
ATOM     29  C   UNL A   1      39.748  23.273  26.391  1.00  0.00     0.016 A 
ATOM     30  C   UNL A   1      41.223  22.289  28.053  1.00  0.00     0.016 A 
ATOM     31  C   UNL A   1      40.060  24.548  26.854  1.00  0.00     0.010 A 
ATOM     32  C   UNL A   1      41.538  23.574  28.514  1.00  0.00     0.010 A 
ATOM     33  C   UNL A   1      40.994  24.710  27.885  1.00  0.00    -0.014 A 
BRANCH  33  34
ATOM     34  C   UNL A   1      41.510  26.068  28.181  1.00  0.00     0.031 A 
ATOM     35  C   UNL A   1      42.901  26.433  27.734  1.00  0.00     0.074 A 
ATOM     36  C   UNL A   1      40.738  26.977  28.802  1.00  0.00     0.049 A 
ATOM     37  N   UNL A   1      43.536  27.571  27.848  1.00  0.00    -0.248 NA
ATOM     38  C   UNL A   1      43.679  25.376  27.065  1.00  0.00     0.031 C 
ATOM     39  C   UNL A   1      39.375  26.742  29.277  1.00  0.00     0.029 A 
ATOM     40  N   UNL A   1      40.997  28.279  29.153  1.00  0.00    -0.354 N 
ATOM     41  C   UNL A   1      44.791  27.363  27.287  1.00  0.00     0.074 A 
ATOM     42  C   UNL A   1      44.834  25.986  26.846  1.00  0.00     0.031 C 
ATOM     43  C   UNL A   1      38.925  27.858  29.878  1.00  0.00     0.029 A 
ATOM     44  C   UNL A   1      39.970  28.878  29.843  1.00  0.00     0.049 A 
ATOM     45  H   UNL A   1      41.838  28.740  28.930  1.00  0.00     0.167 HD
ATOM     46  C   UNL A   1      45.808  28.243  27.135  1.00  0.00     0.034 A 
ATOM     47  C   UNL A   1      39.890  30.107  30.393  1.00  0.00     0.034 A 
ATOM     48  C   UNL A   1      45.753  29.616  27.556  1.00  0.00     0.049 A 
ATOM     49  C   UNL A   1      41.042  31.063  30.225  1.00  0.00     0.074 A 
ATOM     50  C   UNL A   1      46.714  30.600  27.410  1.00  0.00     0.029 A 
ATOM     51  N   UNL A   1      44.680  30.198  28.215  1.00  0.00    -0.354 N 
ATOM     52  N   UNL A   1      42.172  30.889  29.580  1.00  0.00    -0.248 NA
ATOM     53  C   UNL A   1      40.897  32.398  30.827  1.00  0.00     0.031 C 
ATOM     54  C   UNL A   1      46.231  31.773  27.999  1.00  0.00     0.029 A 
ATOM     55  C   UNL A   1      44.959  31.524  28.492  1.00  0.00     0.049 A 
ATOM     56  H   UNL A   1      43.844  29.735  28.452  1.00  0.00     0.167 HD
ATOM     57  C   UNL A   1      42.851  32.100  29.664  1.00  0.00     0.074 A 
ATOM     58  C   UNL A   1      42.001  33.004  30.411  1.00  0.00     0.031 C 
ATOM     59  C   UNL A   1      44.073  32.429  29.179  1.00  0.00     0.034 A 
BRANCH  46  60
ATOM     60  C   UNL A   1      47.059  27.757  26.452  1.00  0.00     0.023 A 
ATOM     61  C   UNL A   1      48.049  27.097  27.206  1.00  0.00     0.012 A 
ATOM     62  C   UNL A   1      47.230  27.904  25.062  1.00  0.00     0.148 A 
ATOM     63  C   UNL A   1      49.204  26.613  26.592  1.00  0.00     0.002 A 
ATOM     64  C   UNL A   1      48.366  27.384  24.450  1.00  0.00     0.091 A 
ATOM     65  F   UNL A   1      46.288  28.556  24.366  1.00  0.00    -0.205 F 
ATOM     66  C   UNL A   1      49.357  26.747  25.214  1.00  0.00     0.022 A 
BRANCH  64  67
ATOM     67  S   UNL A   1      48.620  27.444  22.673  1.00  0.00     0.127 S 
ATOM     68  O   UNL A   1      48.601  26.024  22.324  1.00  0.00    -0.237 OA
ATOM     69  O   UNL A   1      47.451  28.199  22.218  1.00  0.00    -0.237 OA
ATOM     70  O   UNL A   1      49.893  28.122  22.473  1.00  0.00    -0.744 OA
ENDBRANCH  64  67
ENDBRANCH  46  60
BRANCH  47  71
ATOM     71  C   UNL A   1      38.650  30.519  31.111  1.00  0.00     0.023 A 
ATOM     72  C   UNL A   1      38.520  30.250  32.487  1.00  0.00     0.012 A 
ATOM     73  C   UNL A   1      37.612  31.199  30.445  1.00  0.00     0.148 A 
ATOM     74  C   UNL A   1      37.370  30.628  33.181  1.00  0.00     0.002 A 
ATOM     75  C   UNL A   1      36.494  31.623  31.153  1.00  0.00     0.091 A 
ATOM     76  F   UNL A   1      37.743  31.427  29.130  1.00  0.00    -0.205 F 
ATOM     77  C   UNL A   1      36.363  31.325  32.518  1.00  0.00     0.022 A 
BRANCH  75  78
ATOM     78  S   UNL A   1      35.213  32.639  30.409  1.00  0.00     0.127 S 
ATOM     79  O   UNL A   1      34.759  31.792  29.310  1.00  0.00    -0.237 OA
ATOM     80  O   UNL A   1      34.261  32.781  31.512  1.00  0.00    -0.237 OA
ATOM     81  O   UNL A   1      35.875  33.879  30.027  1.00  0.00    -0.744 OA
ENDBRANCH  75  78
ENDBRANCH  47  71
BRANCH  59  82
ATOM     82  C   UNL A   1      44.562  33.838  29.392  1.00  0.00     0.023 A 
ATOM     83  C   UNL A   1      45.275  34.162  30.563  1.00  0.00     0.012 A 
ATOM     84  C   UNL A   1      44.403  34.812  28.386  1.00  0.00     0.148 A 
ATOM     85  C   UNL A   1      45.804  35.439  30.738  1.00  0.00     0.002 A 
ATOM     86  C   UNL A   1      44.972  36.068  28.548  1.00  0.00     0.091 A 
ATOM     87  F   UNL A   1      43.706  34.487  27.287  1.00  0.00    -0.205 F 
ATOM     88  C   UNL A   1      45.665  36.387  29.727  1.00  0.00     0.022 A 
BRANCH  86  89
ATOM     89  S   UNL A   1      44.926  37.319  27.259  1.00  0.00     0.127 S 
ATOM     90  O   UNL A   1      45.803  36.735  26.245  1.00  0.00    -0.237 OA
ATOM     91  O   UNL A   1      43.508  37.343  26.898  1.00  0.00    -0.237 OA
ATOM     92  O   UNL A   1      45.413  38.546  27.873  1.00  0.00    -0.744 OA
ENDBRANCH  86  89
ENDBRANCH  59  82
ENDBRANCH  33  34
ENDBRANCH  26  28
ENDBRANCH  25  26
ENDBRANCH  24  25
ENDBRANCH  23  24
ENDBRANCH  22  23
ENDBRANCH   1  22
TORSDOF 22
ENDMDL
