MODEL 1
REMARK VINA RESULT:     -10.9      0.000      0.000
REMARK SMILES CCOc1cc(OCC)cc(-c2ccc([C@@H](C)C(=O)OCCOCCOC(=O)c3ccc(-c4c5nc(c(-c6cccc(S(=O)(=O)[O-])c6F)c6ccc([nH]6)c(-c6cccc(S(=O)(=O)[O-])c6F)c6nc(c(-c7cccc(S(=O)(=O)[O-])c7F)c7ccc4[nH]7)C=C6)C=C5)cc3)cc2F)c1
REMARK SMILES IDX 22 1 21 2 20 3 18 4 19 5 16 6 17 7 15 8 12 9 13 10 93 11
REMARK SMILES IDX 14 12 92 13 94 14 11 15 4 16 5 17 95 18 6 19 10 20 3 21 2 22
REMARK SMILES IDX 1 23 7 24 8 25 9 26 23 27 24 28 25 29 26 30 27 31 28 32
REMARK SMILES IDX 29 33 30 34 91 35 31 36 90 37 32 38 33 39 34 40 84 41 35 42
REMARK SMILES IDX 89 43 83 44 85 45 36 46 88 47 82 48 81 49 37 51 69 52 49 53
REMARK SMILES IDX 68 54 50 55 53 56 67 57 86 58 51 59 52 60 66 62 87 63 54 64
REMARK SMILES IDX 38 65 39 66 47 67 40 68 42 69 48 70 41 71 43 72 44 73 45 74
REMARK SMILES IDX 46 75 70 76 71 77 79 78 72 79 74 80 80 81 73 82 75 83 76 84
REMARK SMILES IDX 77 85 78 86 55 87 56 88 64 89 57 90 59 91 65 92 58 93 60 94
REMARK SMILES IDX 61 95 62 96 63 97
REMARK H PARENT 85 50 53 61
REMARK Flexibility Score: inf
ROOT
ATOM      1  C   UNL A   1      33.330  29.204  26.506  1.00  0.00     0.202 C 
ENDROOT
BRANCH   1   2
ATOM      2  C   UNL A   1      33.150  29.205  24.985  1.00  0.00     0.261 C 
BRANCH   2   3
ATOM      3  O   UNL A   1      32.006  28.420  24.603  1.00  0.00    -0.463 OA
BRANCH   3   4
ATOM      4  C   UNL A   1      31.709  28.391  23.278  1.00  0.00     0.313 C 
ATOM      5  O   UNL A   1      32.100  29.217  22.458  1.00  0.00    -0.252 OA
BRANCH   4   6
ATOM      6  C   UNL A   1      30.803  27.234  22.883  1.00  0.00     0.126 C 
ATOM      7  C   UNL A   1      29.414  27.449  23.475  1.00  0.00     0.025 C 
BRANCH   6   8
ATOM      8  C   UNL A   1      31.315  25.821  23.137  1.00  0.00    -0.031 A 
ATOM      9  C   UNL A   1      32.395  23.268  23.811  1.00  0.00     0.018 A 
ATOM     10  C   UNL A   1      32.827  23.967  22.671  1.00  0.00     0.012 A 
ATOM     11  C   UNL A   1      31.375  23.852  24.570  1.00  0.00     0.131 A 
ATOM     12  C   UNL A   1      32.301  25.223  22.341  1.00  0.00     0.005 A 
ATOM     13  C   UNL A   1      30.841  25.102  24.246  1.00  0.00     0.044 A 
ATOM     14  F   UNL A   1      30.909  23.237  25.668  1.00  0.00    -0.206 F 
BRANCH   9  15
ATOM     15  C   UNL A   1      33.040  22.006  24.208  1.00  0.00    -0.008 A 
ATOM     16  C   UNL A   1      34.999  20.717  24.839  1.00  0.00     0.123 A 
ATOM     17  C   UNL A   1      34.223  19.566  24.958  1.00  0.00     0.092 A 
ATOM     18  C   UNL A   1      34.418  21.922  24.444  1.00  0.00     0.055 A 
ATOM     19  C   UNL A   1      32.854  19.614  24.695  1.00  0.00     0.123 A 
ATOM     20  C   UNL A   1      32.274  20.832  24.333  1.00  0.00     0.055 A 
BRANCH  16  21
ATOM     21  O   UNL A   1      36.354  20.601  24.990  1.00  0.00    -0.494 OA
BRANCH  21  22
ATOM     22  C   UNL A   1      37.064  21.818  24.728  1.00  0.00     0.226 C 
ATOM     23  C   UNL A   1      38.230  21.998  25.686  1.00  0.00     0.049 C 
ENDBRANCH  21  22
ENDBRANCH  16  21
BRANCH  19  24
ATOM     24  O   UNL A   1      32.184  18.429  24.836  1.00  0.00    -0.494 OA
BRANCH  24  25
ATOM     25  C   UNL A   1      32.894  17.219  24.562  1.00  0.00     0.226 C 
ATOM     26  C   UNL A   1      33.262  17.109  23.091  1.00  0.00     0.049 C 
ENDBRANCH  24  25
ENDBRANCH  19  24
ENDBRANCH   9  15
ENDBRANCH   6   8
ENDBRANCH   4   6
ENDBRANCH   3   4
ENDBRANCH   2   3
ENDBRANCH   1   2
BRANCH   1  27
ATOM     27  O   UNL A   1      33.140  30.463  27.156  1.00  0.00    -0.374 OA
BRANCH  27  28
ATOM     28  C   UNL A   1      31.962  31.196  26.821  1.00  0.00     0.202 C 
BRANCH  28  29
ATOM     29  C   UNL A   1      32.011  32.712  27.051  1.00  0.00     0.261 C 
BRANCH  29  30
ATOM     30  O   UNL A   1      33.321  33.163  27.434  1.00  0.00    -0.460 OA
BRANCH  30  31
ATOM     31  C   UNL A   1      33.325  34.176  28.329  1.00  0.00     0.338 C 
ATOM     32  O   UNL A   1      32.535  35.116  28.380  1.00  0.00    -0.246 OA
BRANCH  31  33
ATOM     33  C   UNL A   1      34.323  33.943  29.387  1.00  0.00     0.060 A 
ATOM     34  C   UNL A   1      35.664  34.180  29.058  1.00  0.00     0.016 A 
ATOM     35  C   UNL A   1      33.983  33.406  30.633  1.00  0.00     0.016 A 
ATOM     36  C   UNL A   1      36.675  33.799  29.934  1.00  0.00     0.010 A 
ATOM     37  C   UNL A   1      35.005  33.025  31.514  1.00  0.00     0.010 A 
ATOM     38  C   UNL A   1      36.355  33.166  31.141  1.00  0.00    -0.014 A 
BRANCH  38  39
ATOM     39  C   UNL A   1      37.443  32.494  31.898  1.00  0.00     0.031 A 
ATOM     40  C   UNL A   1      38.183  31.352  31.251  1.00  0.00     0.074 A 
ATOM     41  C   UNL A   1      37.819  32.938  33.110  1.00  0.00     0.049 A 
ATOM     42  N   UNL A   1      39.223  30.689  31.685  1.00  0.00    -0.248 NA
ATOM     43  C   UNL A   1      37.686  30.897  29.942  1.00  0.00     0.031 C 
ATOM     44  C   UNL A   1      37.185  34.032  33.844  1.00  0.00     0.029 A 
ATOM     45  N   UNL A   1      38.829  32.517  33.939  1.00  0.00    -0.354 N 
ATOM     46  C   UNL A   1      39.495  29.730  30.715  1.00  0.00     0.074 A 
ATOM     47  C   UNL A   1      38.495  29.881  29.680  1.00  0.00     0.031 C 
ATOM     48  C   UNL A   1      37.814  34.188  35.021  1.00  0.00     0.029 A 
ATOM     49  C   UNL A   1      38.888  33.203  35.128  1.00  0.00     0.049 A 
ATOM     50  H   UNL A   1      39.451  31.791  33.703  1.00  0.00     0.167 HD
ATOM     51  C   UNL A   1      40.500  28.823  30.672  1.00  0.00     0.034 A 
ATOM     52  C   UNL A   1      39.718  33.053  36.181  1.00  0.00     0.034 A 
ATOM     53  C   UNL A   1      41.511  28.689  31.684  1.00  0.00     0.049 A 
ATOM     54  C   UNL A   1      40.829  32.038  36.107  1.00  0.00     0.074 A 
ATOM     55  C   UNL A   1      42.594  27.829  31.709  1.00  0.00     0.029 A 
ATOM     56  N   UNL A   1      41.563  29.430  32.854  1.00  0.00    -0.354 N 
ATOM     57  N   UNL A   1      41.149  31.231  35.125  1.00  0.00    -0.248 NA
ATOM     58  C   UNL A   1      41.721  31.943  37.273  1.00  0.00     0.031 C 
ATOM     59  C   UNL A   1      43.292  28.038  32.905  1.00  0.00     0.029 A 
ATOM     60  C   UNL A   1      42.654  29.045  33.612  1.00  0.00     0.049 A 
ATOM     61  H   UNL A   1      40.917  30.129  33.108  1.00  0.00     0.167 HD
ATOM     62  C   UNL A   1      42.299  30.565  35.535  1.00  0.00     0.074 A 
ATOM     63  C   UNL A   1      42.631  31.077  36.848  1.00  0.00     0.031 C 
ATOM     64  C   UNL A   1      43.008  29.604  34.892  1.00  0.00     0.034 A 
BRANCH  51  65
ATOM     65  C   UNL A   1      40.574  27.926  29.465  1.00  0.00     0.023 A 
ATOM     66  C   UNL A   1      39.763  26.775  29.404  1.00  0.00     0.012 A 
ATOM     67  C   UNL A   1      41.406  28.245  28.374  1.00  0.00     0.148 A 
ATOM     68  C   UNL A   1      39.800  25.937  28.290  1.00  0.00     0.002 A 
ATOM     69  C   UNL A   1      41.407  27.428  27.250  1.00  0.00     0.091 A 
ATOM     70  F   UNL A   1      42.190  29.329  28.462  1.00  0.00    -0.205 F 
ATOM     71  C   UNL A   1      40.614  26.269  27.209  1.00  0.00     0.022 A 
BRANCH  69  72
ATOM     72  S   UNL A   1      42.366  27.810  25.779  1.00  0.00     0.127 S 
ATOM     73  O   UNL A   1      41.818  29.111  25.400  1.00  0.00    -0.237 OA
ATOM     74  O   UNL A   1      43.732  27.854  26.303  1.00  0.00    -0.237 OA
ATOM     75  O   UNL A   1      42.111  26.725  24.843  1.00  0.00    -0.744 OA
ENDBRANCH  69  72
ENDBRANCH  51  65
BRANCH  52  76
ATOM     76  C   UNL A   1      39.564  33.929  37.377  1.00  0.00     0.023 A 
ATOM     77  C   UNL A   1      40.058  35.248  37.343  1.00  0.00     0.012 A 
ATOM     78  C   UNL A   1      38.919  33.468  38.539  1.00  0.00     0.148 A 
ATOM     79  C   UNL A   1      39.939  36.081  38.457  1.00  0.00     0.002 A 
ATOM     80  C   UNL A   1      38.754  34.320  39.626  1.00  0.00     0.091 A 
ATOM     81  F   UNL A   1      38.474  32.203  38.560  1.00  0.00    -0.205 F 
ATOM     82  C   UNL A   1      39.278  35.622  39.593  1.00  0.00     0.022 A 
BRANCH  80  83
ATOM     83  S   UNL A   1      37.802  33.853  41.075  1.00  0.00     0.127 S 
ATOM     84  O   UNL A   1      38.765  33.046  41.820  1.00  0.00    -0.237 OA
ATOM     85  O   UNL A   1      37.496  35.154  41.669  1.00  0.00    -0.237 OA
ATOM     86  O   UNL A   1      36.638  33.141  40.564  1.00  0.00    -0.744 OA
ENDBRANCH  80  83
ENDBRANCH  52  76
BRANCH  64  87
ATOM     87  C   UNL A   1      44.237  29.063  35.576  1.00  0.00     0.023 A 
ATOM     88  C   UNL A   1      45.485  29.686  35.371  1.00  0.00     0.012 A 
ATOM     89  C   UNL A   1      44.146  27.980  36.473  1.00  0.00     0.148 A 
ATOM     90  C   UNL A   1      46.627  29.216  36.017  1.00  0.00     0.002 A 
ATOM     91  C   UNL A   1      45.280  27.547  37.150  1.00  0.00     0.091 A 
ATOM     92  F   UNL A   1      42.955  27.386  36.642  1.00  0.00    -0.205 F 
ATOM     93  C   UNL A   1      46.523  28.155  36.915  1.00  0.00     0.022 A 
BRANCH  91  94
ATOM     94  S   UNL A   1      45.213  26.250  38.392  1.00  0.00     0.127 S 
ATOM     95  O   UNL A   1      46.496  26.419  39.071  1.00  0.00    -0.237 OA
ATOM     96  O   UNL A   1      44.046  26.635  39.188  1.00  0.00    -0.237 OA
ATOM     97  O   UNL A   1      45.049  25.006  37.652  1.00  0.00    -0.744 OA
ENDBRANCH  91  94
ENDBRANCH  64  87
ENDBRANCH  38  39
ENDBRANCH  31  33
ENDBRANCH  30  31
ENDBRANCH  29  30
ENDBRANCH  28  29
ENDBRANCH  27  28
ENDBRANCH   1  27
TORSDOF 23
ENDMDL
MODEL 2
REMARK VINA RESULT:     -10.6      5.539     11.648
REMARK SMILES CCOc1cc(OCC)cc(-c2ccc([C@@H](C)C(=O)OCCOCCOC(=O)c3ccc(-c4c5nc(c(-c6cccc(S(=O)(=O)[O-])c6F)c6ccc([nH]6)c(-c6cccc(S(=O)(=O)[O-])c6F)c6nc(c(-c7cccc(S(=O)(=O)[O-])c7F)c7ccc4[nH]7)C=C6)C=C5)cc3)cc2F)c1
REMARK SMILES IDX 22 1 21 2 20 3 18 4 19 5 16 6 17 7 15 8 12 9 13 10 93 11
REMARK SMILES IDX 14 12 92 13 94 14 11 15 4 16 5 17 95 18 6 19 10 20 3 21 2 22
REMARK SMILES IDX 1 23 7 24 8 25 9 26 23 27 24 28 25 29 26 30 27 31 28 32
REMARK SMILES IDX 29 33 30 34 91 35 31 36 90 37 32 38 33 39 34 40 84 41 35 42
REMARK SMILES IDX 89 43 83 44 85 45 36 46 88 47 82 48 81 49 37 51 69 52 49 53
REMARK SMILES IDX 68 54 50 55 53 56 67 57 86 58 51 59 52 60 66 62 87 63 54 64
REMARK SMILES IDX 38 65 39 66 47 67 40 68 42 69 48 70 41 71 43 72 44 73 45 74
REMARK SMILES IDX 46 75 70 76 71 77 79 78 72 79 74 80 80 81 73 82 75 83 76 84
REMARK SMILES IDX 77 85 78 86 55 87 56 88 64 89 57 90 59 91 65 92 58 93 60 94
REMARK SMILES IDX 61 95 62 96 63 97
REMARK H PARENT 85 50 53 61
REMARK Flexibility Score: inf
ROOT
ATOM      1  C   UNL A   1      36.602  21.757  24.754  1.00  0.00     0.202 C 
ENDROOT
BRANCH   1   2
ATOM      2  C   UNL A   1      35.442  20.818  25.096  1.00  0.00     0.261 C 
BRANCH   2   3
ATOM      3  O   UNL A   1      34.199  21.328  24.579  1.00  0.00    -0.463 OA
BRANCH   3   4
ATOM      4  C   UNL A   1      33.228  21.591  25.491  1.00  0.00     0.313 C 
ATOM      5  O   UNL A   1      32.142  21.021  25.537  1.00  0.00    -0.252 OA
BRANCH   4   6
ATOM      6  C   UNL A   1      33.592  22.703  26.463  1.00  0.00     0.126 C 
ATOM      7  C   UNL A   1      33.251  22.268  27.885  1.00  0.00     0.025 C 
BRANCH   6   8
ATOM      8  C   UNL A   1      33.072  24.103  26.159  1.00  0.00    -0.031 A 
ATOM      9  C   UNL A   1      32.251  26.807  25.771  1.00  0.00     0.018 A 
ATOM     10  C   UNL A   1      31.391  25.858  26.349  1.00  0.00     0.012 A 
ATOM     11  C   UNL A   1      33.506  26.358  25.346  1.00  0.00     0.131 A 
ATOM     12  C   UNL A   1      31.794  24.531  26.544  1.00  0.00     0.005 A 
ATOM     13  C   UNL A   1      33.915  25.035  25.532  1.00  0.00     0.044 A 
ATOM     14  F   UNL A   1      34.376  27.208  24.780  1.00  0.00    -0.206 F 
BRANCH   9  15
ATOM     15  C   UNL A   1      31.856  28.223  25.680  1.00  0.00    -0.008 A 
ATOM     16  C   UNL A   1      31.885  30.504  26.512  1.00  0.00     0.123 A 
ATOM     17  C   UNL A   1      31.067  30.914  25.461  1.00  0.00     0.092 A 
ATOM     18  C   UNL A   1      32.257  29.165  26.635  1.00  0.00     0.055 A 
ATOM     19  C   UNL A   1      30.624  29.989  24.515  1.00  0.00     0.123 A 
ATOM     20  C   UNL A   1      31.029  28.657  24.626  1.00  0.00     0.055 A 
BRANCH  16  21
ATOM     21  O   UNL A   1      32.198  31.417  27.481  1.00  0.00    -0.494 OA
BRANCH  21  22
ATOM     22  C   UNL A   1      32.952  32.533  26.991  1.00  0.00     0.226 C 
ATOM     23  C   UNL A   1      32.877  33.715  27.945  1.00  0.00     0.049 C 
ENDBRANCH  21  22
ENDBRANCH  16  21
BRANCH  19  24
ATOM     24  O   UNL A   1      29.822  30.492  23.528  1.00  0.00    -0.494 OA
BRANCH  24  25
ATOM     25  C   UNL A   1      28.734  29.686  23.071  1.00  0.00     0.226 C 
ATOM     26  C   UNL A   1      28.276  30.100  21.682  1.00  0.00     0.049 C 
ENDBRANCH  24  25
ENDBRANCH  19  24
ENDBRANCH   9  15
ENDBRANCH   6   8
ENDBRANCH   4   6
ENDBRANCH   3   4
ENDBRANCH   2   3
ENDBRANCH   1   2
BRANCH   1  27
ATOM     27  O   UNL A   1      37.913  21.215  24.928  1.00  0.00    -0.374 OA
BRANCH  27  28
ATOM     28  C   UNL A   1      38.011  19.807  25.140  1.00  0.00     0.202 C 
BRANCH  28  29
ATOM     29  C   UNL A   1      39.380  19.276  25.582  1.00  0.00     0.261 C 
BRANCH  29  30
ATOM     30  O   UNL A   1      40.342  20.329  25.762  1.00  0.00    -0.460 OA
BRANCH  30  31
ATOM     31  C   UNL A   1      40.869  20.399  27.004  1.00  0.00     0.338 C 
ATOM     32  O   UNL A   1      41.284  19.462  27.681  1.00  0.00    -0.246 OA
BRANCH  31  33
ATOM     33  C   UNL A   1      41.053  21.800  27.422  1.00  0.00     0.060 A 
ATOM     34  C   UNL A   1      40.547  22.788  26.568  1.00  0.00     0.016 A 
ATOM     35  C   UNL A   1      41.789  22.154  28.557  1.00  0.00     0.016 A 
ATOM     36  C   UNL A   1      40.850  24.127  26.793  1.00  0.00     0.010 A 
ATOM     37  C   UNL A   1      42.091  23.504  28.782  1.00  0.00     0.010 A 
ATOM     38  C   UNL A   1      41.672  24.488  27.868  1.00  0.00    -0.014 A 
BRANCH  38  39
ATOM     39  C   UNL A   1      42.231  25.864  27.899  1.00  0.00     0.031 A 
ATOM     40  C   UNL A   1      41.459  26.949  28.606  1.00  0.00     0.074 A 
ATOM     41  C   UNL A   1      43.439  26.133  27.373  1.00  0.00     0.049 A 
ATOM     42  N   UNL A   1      41.801  28.189  28.840  1.00  0.00    -0.248 NA
ATOM     43  C   UNL A   1      40.127  26.587  29.120  1.00  0.00     0.031 C 
ATOM     44  C   UNL A   1      44.284  25.174  26.663  1.00  0.00     0.029 A 
ATOM     45  N   UNL A   1      44.163  27.299  27.356  1.00  0.00    -0.354 N 
ATOM     46  C   UNL A   1      40.724  28.760  29.510  1.00  0.00     0.074 A 
ATOM     47  C   UNL A   1      39.707  27.738  29.624  1.00  0.00     0.031 C 
ATOM     48  C   UNL A   1      45.408  25.794  26.268  1.00  0.00     0.029 A 
ATOM     49  C   UNL A   1      45.360  27.194  26.689  1.00  0.00     0.049 A 
ATOM     50  H   UNL A   1      43.853  28.131  27.780  1.00  0.00     0.167 HD
ATOM     51  C   UNL A   1      40.600  30.013  30.009  1.00  0.00     0.034 A 
ATOM     52  C   UNL A   1      46.310  28.121  26.449  1.00  0.00     0.034 A 
ATOM     53  C   UNL A   1      41.619  31.023  29.922  1.00  0.00     0.049 A 
ATOM     54  C   UNL A   1      46.148  29.507  27.018  1.00  0.00     0.074 A 
ATOM     55  C   UNL A   1      41.603  32.307  30.435  1.00  0.00     0.029 A 
ATOM     56  N   UNL A   1      42.835  30.865  29.277  1.00  0.00    -0.354 N 
ATOM     57  N   UNL A   1      45.182  29.989  27.762  1.00  0.00    -0.248 NA
ATOM     58  C   UNL A   1      47.232  30.466  26.751  1.00  0.00     0.031 C 
ATOM     59  C   UNL A   1      42.805  32.934  30.083  1.00  0.00     0.029 A 
ATOM     60  C   UNL A   1      43.576  32.030  29.372  1.00  0.00     0.049 A 
ATOM     61  H   UNL A   1      43.129  30.045  28.818  1.00  0.00     0.167 HD
ATOM     62  C   UNL A   1      45.558  31.289  28.084  1.00  0.00     0.074 A 
ATOM     63  C   UNL A   1      46.851  31.513  27.471  1.00  0.00     0.031 C 
ATOM     64  C   UNL A   1      44.888  32.221  28.807  1.00  0.00     0.034 A 
BRANCH  51  65
ATOM     65  C   UNL A   1      39.322  30.349  30.731  1.00  0.00     0.023 A 
ATOM     66  C   UNL A   1      39.234  30.136  32.122  1.00  0.00     0.012 A 
ATOM     67  C   UNL A   1      38.231  30.919  30.048  1.00  0.00     0.148 A 
ATOM     68  C   UNL A   1      38.068  30.456  32.818  1.00  0.00     0.002 A 
ATOM     69  C   UNL A   1      37.087  31.274  30.755  1.00  0.00     0.091 A 
ATOM     70  F   UNL A   1      38.324  31.089  28.722  1.00  0.00    -0.205 F 
ATOM     71  C   UNL A   1      37.000  31.033  32.137  1.00  0.00     0.022 A 
BRANCH  69  72
ATOM     72  S   UNL A   1      35.687  32.090  29.979  1.00  0.00     0.127 S 
ATOM     73  O   UNL A   1      36.295  33.330  29.503  1.00  0.00    -0.237 OA
ATOM     74  O   UNL A   1      35.324  31.144  28.923  1.00  0.00    -0.237 OA
ATOM     75  O   UNL A   1      34.685  32.243  31.025  1.00  0.00    -0.744 OA
ENDBRANCH  69  72
ENDBRANCH  51  65
BRANCH  52  76
ATOM     76  C   UNL A   1      47.530  27.751  25.678  1.00  0.00     0.023 A 
ATOM     77  C   UNL A   1      48.681  27.312  26.362  1.00  0.00     0.012 A 
ATOM     78  C   UNL A   1      47.552  27.818  24.273  1.00  0.00     0.148 A 
ATOM     79  C   UNL A   1      49.839  26.975  25.661  1.00  0.00     0.002 A 
ATOM     80  C   UNL A   1      48.691  27.429  23.577  1.00  0.00     0.091 A 
ATOM     81  F   UNL A   1      46.454  28.258  23.641  1.00  0.00    -0.205 F 
ATOM     82  C   UNL A   1      49.842  27.023  24.270  1.00  0.00     0.022 A 
BRANCH  80  83
ATOM     83  S   UNL A   1      48.734  27.335  21.784  1.00  0.00     0.127 S 
ATOM     84  O   UNL A   1      50.015  27.968  21.481  1.00  0.00    -0.237 OA
ATOM     85  O   UNL A   1      48.689  25.891  21.555  1.00  0.00    -0.237 OA
ATOM     86  O   UNL A   1      47.548  28.049  21.327  1.00  0.00    -0.744 OA
ENDBRANCH  80  83
ENDBRANCH  52  76
BRANCH  64  87
ATOM     87  C   UNL A   1      45.551  33.559  29.012  1.00  0.00     0.023 A 
ATOM     88  C   UNL A   1      46.378  33.767  30.134  1.00  0.00     0.012 A 
ATOM     89  C   UNL A   1      45.407  34.588  28.061  1.00  0.00     0.148 A 
ATOM     90  C   UNL A   1      47.020  34.989  30.325  1.00  0.00     0.002 A 
ATOM     91  C   UNL A   1      46.089  35.787  28.233  1.00  0.00     0.091 A 
ATOM     92  F   UNL A   1      44.600  34.382  27.009  1.00  0.00    -0.205 F 
ATOM     93  C   UNL A   1      46.886  35.995  29.369  1.00  0.00     0.022 A 
BRANCH  91  94
ATOM     94  S   UNL A   1      46.042  37.097  27.002  1.00  0.00     0.127 S 
ATOM     95  O   UNL A   1      46.954  38.082  27.579  1.00  0.00    -0.237 OA
ATOM     96  O   UNL A   1      46.550  36.423  25.806  1.00  0.00    -0.237 OA
ATOM     97  O   UNL A   1      44.646  37.504  26.914  1.00  0.00    -0.744 OA
ENDBRANCH  91  94
ENDBRANCH  64  87
ENDBRANCH  38  39
ENDBRANCH  31  33
ENDBRANCH  30  31
ENDBRANCH  29  30
ENDBRANCH  28  29
ENDBRANCH  27  28
ENDBRANCH   1  27
TORSDOF 23
ENDMDL
MODEL 3
REMARK VINA RESULT:     -10.6      2.180      3.146
REMARK SMILES CCOc1cc(OCC)cc(-c2ccc([C@@H](C)C(=O)OCCOCCOC(=O)c3ccc(-c4c5nc(c(-c6cccc(S(=O)(=O)[O-])c6F)c6ccc([nH]6)c(-c6cccc(S(=O)(=O)[O-])c6F)c6nc(c(-c7cccc(S(=O)(=O)[O-])c7F)c7ccc4[nH]7)C=C6)C=C5)cc3)cc2F)c1
REMARK SMILES IDX 22 1 21 2 20 3 18 4 19 5 16 6 17 7 15 8 12 9 13 10 93 11
REMARK SMILES IDX 14 12 92 13 94 14 11 15 4 16 5 17 95 18 6 19 10 20 3 21 2 22
REMARK SMILES IDX 1 23 7 24 8 25 9 26 23 27 24 28 25 29 26 30 27 31 28 32
REMARK SMILES IDX 29 33 30 34 91 35 31 36 90 37 32 38 33 39 34 40 84 41 35 42
REMARK SMILES IDX 89 43 83 44 85 45 36 46 88 47 82 48 81 49 37 51 69 52 49 53
REMARK SMILES IDX 68 54 50 55 53 56 67 57 86 58 51 59 52 60 66 62 87 63 54 64
REMARK SMILES IDX 38 65 39 66 47 67 40 68 42 69 48 70 41 71 43 72 44 73 45 74
REMARK SMILES IDX 46 75 70 76 71 77 79 78 72 79 74 80 80 81 73 82 75 83 76 84
REMARK SMILES IDX 77 85 78 86 55 87 56 88 64 89 57 90 59 91 65 92 58 93 60 94
REMARK SMILES IDX 61 95 62 96 63 97
REMARK H PARENT 85 50 53 61
REMARK Flexibility Score: inf
ROOT
ATOM      1  C   UNL A   1      32.966  29.200  25.334  1.00  0.00     0.202 C 
ENDROOT
BRANCH   1   2
ATOM      2  C   UNL A   1      32.098  29.211  24.073  1.00  0.00     0.261 C 
BRANCH   2   3
ATOM      3  O   UNL A   1      30.991  28.300  24.203  1.00  0.00    -0.463 OA
BRANCH   3   4
ATOM      4  C   UNL A   1      30.341  27.973  23.057  1.00  0.00     0.313 C 
ATOM      5  O   UNL A   1      30.245  28.706  22.077  1.00  0.00    -0.252 OA
BRANCH   4   6
ATOM      6  C   UNL A   1      29.697  26.595  23.094  1.00  0.00     0.126 C 
ATOM      7  C   UNL A   1      28.422  26.652  23.931  1.00  0.00     0.025 C 
BRANCH   6   8
ATOM      8  C   UNL A   1      30.579  25.416  23.486  1.00  0.00    -0.031 A 
ATOM      9  C   UNL A   1      32.105  23.072  24.050  1.00  0.00     0.018 A 
ATOM     10  C   UNL A   1      31.174  23.578  24.973  1.00  0.00     0.012 A 
ATOM     11  C   UNL A   1      32.291  23.796  22.867  1.00  0.00     0.131 A 
ATOM     12  C   UNL A   1      30.421  24.726  24.696  1.00  0.00     0.005 A 
ATOM     13  C   UNL A   1      31.547  24.945  22.584  1.00  0.00     0.044 A 
ATOM     14  F   UNL A   1      33.169  23.376  21.944  1.00  0.00    -0.206 F 
BRANCH   9  15
ATOM     15  C   UNL A   1      32.803  21.801  24.305  1.00  0.00    -0.008 A 
ATOM     16  C   UNL A   1      32.847  19.376  24.412  1.00  0.00     0.123 A 
ATOM     17  C   UNL A   1      34.181  19.402  24.812  1.00  0.00     0.092 A 
ATOM     18  C   UNL A   1      32.155  20.565  24.183  1.00  0.00     0.055 A 
ATOM     19  C   UNL A   1      34.840  20.621  24.975  1.00  0.00     0.123 A 
ATOM     20  C   UNL A   1      34.150  21.807  24.712  1.00  0.00     0.055 A 
BRANCH  16  21
ATOM     21  O   UNL A   1      32.206  18.167  24.379  1.00  0.00    -0.494 OA
BRANCH  21  22
ATOM     22  C   UNL A   1      32.496  17.337  25.510  1.00  0.00     0.226 C 
ATOM     23  C   UNL A   1      32.882  15.930  25.081  1.00  0.00     0.049 C 
ENDBRANCH  21  22
ENDBRANCH  16  21
BRANCH  19  24
ATOM     24  O   UNL A   1      36.145  20.538  25.377  1.00  0.00    -0.494 OA
BRANCH  24  25
ATOM     25  C   UNL A   1      36.807  21.744  25.763  1.00  0.00     0.226 C 
ATOM     26  C   UNL A   1      37.783  22.212  24.695  1.00  0.00     0.049 C 
ENDBRANCH  24  25
ENDBRANCH  19  24
ENDBRANCH   9  15
ENDBRANCH   6   8
ENDBRANCH   4   6
ENDBRANCH   3   4
ENDBRANCH   2   3
ENDBRANCH   1   2
BRANCH   1  27
ATOM     27  O   UNL A   1      32.941  30.395  26.118  1.00  0.00    -0.374 OA
BRANCH  27  28
ATOM     28  C   UNL A   1      31.659  30.919  26.464  1.00  0.00     0.202 C 
BRANCH  28  29
ATOM     29  C   UNL A   1      31.624  32.365  26.971  1.00  0.00     0.261 C 
BRANCH  29  30
ATOM     30  O   UNL A   1      32.893  33.025  26.825  1.00  0.00    -0.460 OA
BRANCH  30  31
ATOM     31  C   UNL A   1      33.396  33.531  27.973  1.00  0.00     0.338 C 
ATOM     32  O   UNL A   1      32.854  34.342  28.719  1.00  0.00    -0.246 OA
BRANCH  31  33
ATOM     33  C   UNL A   1      34.655  32.857  28.341  1.00  0.00     0.060 A 
ATOM     34  C   UNL A   1      34.553  31.550  28.833  1.00  0.00     0.016 A 
ATOM     35  C   UNL A   1      35.891  33.510  28.311  1.00  0.00     0.016 A 
ATOM     36  C   UNL A   1      35.668  30.922  29.381  1.00  0.00     0.010 A 
ATOM     37  C   UNL A   1      37.012  32.874  28.862  1.00  0.00     0.010 A 
ATOM     38  C   UNL A   1      36.890  31.602  29.452  1.00  0.00    -0.014 A 
BRANCH  38  39
ATOM     39  C   UNL A   1      37.962  31.041  30.314  1.00  0.00     0.031 A 
ATOM     40  C   UNL A   1      38.903  30.016  29.733  1.00  0.00     0.074 A 
ATOM     41  C   UNL A   1      38.146  31.487  31.569  1.00  0.00     0.049 A 
ATOM     42  N   UNL A   1      39.963  29.469  30.268  1.00  0.00    -0.248 NA
ATOM     43  C   UNL A   1      38.612  29.549  28.367  1.00  0.00     0.031 C 
ATOM     44  C   UNL A   1      37.307  32.473  32.247  1.00  0.00     0.029 A 
ATOM     45  N   UNL A   1      39.104  31.162  32.498  1.00  0.00    -0.354 N 
ATOM     46  C   UNL A   1      40.455  28.582  29.316  1.00  0.00     0.074 A 
ATOM     47  C   UNL A   1      39.563  28.646  28.179  1.00  0.00     0.031 C 
ATOM     48  C   UNL A   1      37.779  32.664  33.491  1.00  0.00     0.029 A 
ATOM     49  C   UNL A   1      38.948  31.810  33.699  1.00  0.00     0.049 A 
ATOM     50  H   UNL A   1      39.832  30.524  32.320  1.00  0.00     0.167 HD
ATOM     51  C   UNL A   1      41.561  27.803  29.370  1.00  0.00     0.034 A 
ATOM     52  C   UNL A   1      39.669  31.727  34.836  1.00  0.00     0.034 A 
ATOM     53  C   UNL A   1      42.464  27.757  30.486  1.00  0.00     0.049 A 
ATOM     54  C   UNL A   1      40.898  30.854  34.868  1.00  0.00     0.074 A 
ATOM     55  C   UNL A   1      43.635  27.032  30.617  1.00  0.00     0.029 A 
ATOM     56  N   UNL A   1      42.297  28.461  31.668  1.00  0.00    -0.354 N 
ATOM     57  N   UNL A   1      41.420  30.124  33.913  1.00  0.00    -0.248 NA
ATOM     58  C   UNL A   1      41.661  30.828  36.125  1.00  0.00     0.031 C 
ATOM     59  C   UNL A   1      44.167  27.284  31.887  1.00  0.00     0.029 A 
ATOM     60  C   UNL A   1      43.338  28.184  32.537  1.00  0.00     0.049 A 
ATOM     61  H   UNL A   1      41.546  29.069  31.862  1.00  0.00     0.167 HD
ATOM     62  C   UNL A   1      42.590  29.587  34.437  1.00  0.00     0.074 A 
ATOM     63  C   UNL A   1      42.712  30.091  35.789  1.00  0.00     0.031 C 
ATOM     64  C   UNL A   1      43.478  28.739  33.859  1.00  0.00     0.034 A 
BRANCH  51  65
ATOM     65  C   UNL A   1      41.877  26.961  28.162  1.00  0.00     0.023 A 
ATOM     66  C   UNL A   1      42.645  27.509  27.114  1.00  0.00     0.012 A 
ATOM     67  C   UNL A   1      41.460  25.618  28.084  1.00  0.00     0.148 A 
ATOM     68  C   UNL A   1      42.966  26.745  25.993  1.00  0.00     0.002 A 
ATOM     69  C   UNL A   1      41.819  24.850  26.982  1.00  0.00     0.091 A 
ATOM     70  F   UNL A   1      40.708  25.123  29.077  1.00  0.00    -0.205 F 
ATOM     71  C   UNL A   1      42.562  25.414  25.932  1.00  0.00     0.022 A 
BRANCH  69  72
ATOM     72  S   UNL A   1      41.408  23.106  26.846  1.00  0.00     0.127 S 
ATOM     73  O   UNL A   1      42.162  22.538  27.962  1.00  0.00    -0.237 OA
ATOM     74  O   UNL A   1      39.957  23.115  27.032  1.00  0.00    -0.237 OA
ATOM     75  O   UNL A   1      41.846  22.696  25.519  1.00  0.00    -0.744 OA
ENDBRANCH  69  72
ENDBRANCH  51  65
BRANCH  52  76
ATOM     76  C   UNL A   1      39.279  32.539  36.023  1.00  0.00     0.023 A 
ATOM     77  C   UNL A   1      39.747  33.862  36.147  1.00  0.00     0.012 A 
ATOM     78  C   UNL A   1      38.438  32.012  37.021  1.00  0.00     0.148 A 
ATOM     79  C   UNL A   1      39.407  34.634  37.258  1.00  0.00     0.002 A 
ATOM     80  C   UNL A   1      38.057  32.806  38.097  1.00  0.00     0.091 A 
ATOM     81  F   UNL A   1      38.019  30.744  36.895  1.00  0.00    -0.205 F 
ATOM     82  C   UNL A   1      38.555  34.112  38.227  1.00  0.00     0.022 A 
BRANCH  80  83
ATOM     83  S   UNL A   1      36.860  32.256  39.318  1.00  0.00     0.127 S 
ATOM     84  O   UNL A   1      37.170  33.122  40.453  1.00  0.00    -0.237 OA
ATOM     85  O   UNL A   1      35.592  32.544  38.650  1.00  0.00    -0.237 OA
ATOM     86  O   UNL A   1      37.125  30.836  39.512  1.00  0.00    -0.744 OA
ENDBRANCH  80  83
ENDBRANCH  52  76
BRANCH  64  87
ATOM     87  C   UNL A   1      44.681  28.326  34.668  1.00  0.00     0.023 A 
ATOM     88  C   UNL A   1      44.626  27.163  35.462  1.00  0.00     0.012 A 
ATOM     89  C   UNL A   1      45.886  29.052  34.591  1.00  0.00     0.148 A 
ATOM     90  C   UNL A   1      45.738  26.752  36.195  1.00  0.00     0.002 A 
ATOM     91  C   UNL A   1      47.004  28.609  35.287  1.00  0.00     0.091 A 
ATOM     92  F   UNL A   1      45.916  30.168  33.846  1.00  0.00    -0.205 F 
ATOM     93  C   UNL A   1      46.930  27.467  36.099  1.00  0.00     0.022 A 
BRANCH  91  94
ATOM     94  S   UNL A   1      48.602  29.421  35.142  1.00  0.00     0.127 S 
ATOM     95  O   UNL A   1      48.722  29.590  33.696  1.00  0.00    -0.237 OA
ATOM     96  O   UNL A   1      48.392  30.665  35.886  1.00  0.00    -0.237 OA
ATOM     97  O   UNL A   1      49.561  28.512  35.754  1.00  0.00    -0.744 OA
ENDBRANCH  91  94
ENDBRANCH  64  87
ENDBRANCH  38  39
ENDBRANCH  31  33
ENDBRANCH  30  31
ENDBRANCH  29  30
ENDBRANCH  28  29
ENDBRANCH  27  28
ENDBRANCH   1  27
TORSDOF 23
ENDMDL
