MODEL 1
REMARK VINA RESULT:     -11.5      0.000      0.000
REMARK SMILES COc1ccccc1[C@@H]1C[N@@H+](Cc2cn3cc(C)ccc3n2)C[C@H]1C(=O)OCCOCCOC(=O)c1ccc(-c2c3nc(c(-c4cccc(S(=O)(=O)[O-])c4F)c4ccc([nH]4)c(-c4cccc(S(=O)(=O)[O-])c4F)c4nc(c(-c5cccc(S(=O)(=O)[O-])c5F)c5ccc2[nH]5)C=C4)C=C3)cc1
REMARK SMILES IDX 31 1 30 2 29 3 28 4 27 5 25 6 26 7 24 8 9 9 10 10 11 11
REMARK SMILES IDX 23 12 8 14 3 15 4 16 5 17 7 18 6 19 2 20 1 21 12 22 13 23
REMARK SMILES IDX 14 24 22 25 15 26 21 27 16 28 20 29 17 30 19 31 18 32 32 33
REMARK SMILES IDX 33 34 34 35 35 36 36 37 37 38 98 39 38 40 97 41 39 42 40 43
REMARK SMILES IDX 41 44 91 45 42 46 96 47 90 48 92 49 43 50 95 51 89 52 88 53
REMARK SMILES IDX 44 55 76 56 56 57 75 58 57 59 60 60 74 61 93 62 58 63 59 64
REMARK SMILES IDX 73 66 94 67 61 68 45 69 46 70 54 71 47 72 49 73 55 74 48 75
REMARK SMILES IDX 50 76 51 77 52 78 53 79 77 80 78 81 86 82 79 83 81 84 87 85
REMARK SMILES IDX 80 86 82 87 83 88 84 89 85 90 62 91 63 92 71 93 64 94 66 95
REMARK SMILES IDX 72 96 65 97 67 98 68 99 69 100 70 101
REMARK H PARENT 11 13 92 54 60 65
REMARK Flexibility Score: inf
ROOT
ATOM      1  C   UNL A   1      33.923  31.898  27.647  1.00  0.00     0.202 C 
ENDROOT
BRANCH   1   2
ATOM      2  O   UNL A   1      34.202  30.499  27.683  1.00  0.00    -0.374 OA
BRANCH   2   3
ATOM      3  C   UNL A   1      33.533  29.735  26.685  1.00  0.00     0.202 C 
BRANCH   3   4
ATOM      4  C   UNL A   1      33.395  28.249  27.031  1.00  0.00     0.261 C 
BRANCH   4   5
ATOM      5  O   UNL A   1      34.248  27.385  26.242  1.00  0.00    -0.463 OA
BRANCH   5   6
ATOM      6  C   UNL A   1      33.657  26.287  25.708  1.00  0.00     0.315 C 
ATOM      7  O   UNL A   1      34.226  25.503  24.952  1.00  0.00    -0.252 OA
BRANCH   6   8
ATOM      8  C   UNL A   1      32.170  26.152  25.989  1.00  0.00     0.167 C 
ATOM      9  C   UNL A   1      31.154  26.043  24.856  1.00  0.00     0.098 C 
ATOM     10  C   UNL A   1      29.987  25.248  25.477  1.00  0.00     0.272 C 
ATOM     11  N   UNL A   1      30.540  24.439  26.582  1.00  0.00    -0.329 N 
ATOM     12  C   UNL A   1      31.901  24.923  26.863  1.00  0.00     0.278 C 
ATOM     13  H   UNL A   1      29.939  24.578  27.394  1.00  0.00     0.348 HD
BRANCH   9  14
ATOM     14  C   UNL A   1      30.680  27.219  23.994  1.00  0.00     0.004 A 
ATOM     15  C   UNL A   1      31.347  28.326  23.453  1.00  0.00     0.122 A 
ATOM     16  C   UNL A   1      30.619  29.262  22.665  1.00  0.00     0.047 A 
ATOM     17  C   UNL A   1      29.248  29.181  22.448  1.00  0.00     0.004 A 
ATOM     18  C   UNL A   1      29.266  27.232  23.815  1.00  0.00     0.008 A 
ATOM     19  C   UNL A   1      28.556  28.166  23.060  1.00  0.00     0.001 A 
BRANCH  15  20
ATOM     20  O   UNL A   1      32.611  28.811  23.589  1.00  0.00    -0.496 OA
ATOM     21  C   UNL A   1      33.571  28.822  22.570  1.00  0.00     0.278 C 
ENDBRANCH  15  20
ENDBRANCH   9  14
BRANCH  11  22
ATOM     22  C   UNL A   1      30.458  22.962  26.410  1.00  0.00     0.321 C 
BRANCH  22  23
ATOM     23  C   UNL A   1      31.599  22.407  25.611  1.00  0.00     0.114 A 
ATOM     24  C   UNL A   1      32.578  21.517  26.028  1.00  0.00     0.122 A 
ATOM     25  N   UNL A   1      31.594  22.515  24.243  1.00  0.00    -0.228 NA
ATOM     26  N   UNL A   1      32.829  20.764  24.905  1.00  0.00    -0.306 N 
ATOM     27  C   UNL A   1      32.219  21.430  23.848  1.00  0.00     0.137 A 
ATOM     28  C   UNL A   1      33.322  19.462  24.819  1.00  0.00     0.096 A 
ATOM     29  C   UNL A   1      32.058  20.714  22.642  1.00  0.00     0.048 A 
ATOM     30  C   UNL A   1      33.071  18.751  23.705  1.00  0.00    -0.034 A 
ATOM     31  C   UNL A   1      32.374  19.410  22.612  1.00  0.00     0.009 A 
ATOM     32  C   UNL A   1      33.418  17.319  23.496  1.00  0.00     0.046 C 
ENDBRANCH  22  23
ENDBRANCH  11  22
ENDBRANCH   6   8
ENDBRANCH   5   6
ENDBRANCH   4   5
ENDBRANCH   3   4
ENDBRANCH   2   3
ENDBRANCH   1   2
BRANCH   1  33
ATOM     33  C   UNL A   1      34.802  32.717  28.601  1.00  0.00     0.261 C 
BRANCH  33  34
ATOM     34  O   UNL A   1      34.831  32.167  29.934  1.00  0.00    -0.460 OA
BRANCH  34  35
ATOM     35  C   UNL A   1      35.420  32.889  30.935  1.00  0.00     0.338 C 
ATOM     36  O   UNL A   1      35.202  34.037  31.227  1.00  0.00    -0.246 OA
BRANCH  35  37
ATOM     37  C   UNL A   1      36.601  32.088  31.369  1.00  0.00     0.060 A 
ATOM     38  C   UNL A   1      37.873  32.649  31.248  1.00  0.00     0.016 A 
ATOM     39  C   UNL A   1      36.486  30.725  31.574  1.00  0.00     0.016 A 
ATOM     40  C   UNL A   1      38.986  31.822  31.021  1.00  0.00     0.010 A 
ATOM     41  C   UNL A   1      37.579  29.914  31.285  1.00  0.00     0.010 A 
ATOM     42  C   UNL A   1      38.818  30.444  30.884  1.00  0.00    -0.014 A 
BRANCH  42  43
ATOM     43  C   UNL A   1      39.939  29.520  30.576  1.00  0.00     0.031 A 
ATOM     44  C   UNL A   1      40.666  29.150  31.813  1.00  0.00     0.074 A 
ATOM     45  C   UNL A   1      40.311  28.906  29.419  1.00  0.00     0.049 A 
ATOM     46  N   UNL A   1      41.550  29.886  32.407  1.00  0.00    -0.248 NA
ATOM     47  C   UNL A   1      40.184  28.019  32.627  1.00  0.00     0.031 C 
ATOM     48  C   UNL A   1      39.573  28.807  28.154  1.00  0.00     0.029 A 
ATOM     49  N   UNL A   1      41.419  28.121  29.161  1.00  0.00    -0.354 N 
ATOM     50  C   UNL A   1      41.949  29.114  33.486  1.00  0.00     0.074 A 
ATOM     51  C   UNL A   1      40.840  28.249  33.770  1.00  0.00     0.031 C 
ATOM     52  C   UNL A   1      40.120  27.837  27.374  1.00  0.00     0.029 A 
ATOM     53  C   UNL A   1      41.361  27.376  27.975  1.00  0.00     0.049 A 
ATOM     54  H   UNL A   1      42.193  28.087  29.767  1.00  0.00     0.167 HD
ATOM     55  C   UNL A   1      43.274  28.900  33.721  1.00  0.00     0.034 A 
ATOM     56  C   UNL A   1      42.267  26.468  27.512  1.00  0.00     0.034 A 
ATOM     57  C   UNL A   1      44.079  29.732  32.857  1.00  0.00     0.049 A 
ATOM     58  C   UNL A   1      43.569  26.806  28.120  1.00  0.00     0.074 A 
ATOM     59  C   UNL A   1      44.320  31.075  32.667  1.00  0.00     0.029 A 
ATOM     60  N   UNL A   1      44.469  29.084  31.715  1.00  0.00    -0.354 N 
ATOM     61  N   UNL A   1      44.249  27.869  27.801  1.00  0.00    -0.248 NA
ATOM     62  C   UNL A   1      44.043  26.079  29.290  1.00  0.00     0.031 C 
ATOM     63  C   UNL A   1      44.749  31.218  31.314  1.00  0.00     0.029 A 
ATOM     64  C   UNL A   1      44.814  29.958  30.725  1.00  0.00     0.049 A 
ATOM     65  H   UNL A   1      44.498  28.104  31.620  1.00  0.00     0.167 HD
ATOM     66  C   UNL A   1      44.876  28.208  28.980  1.00  0.00     0.074 A 
ATOM     67  C   UNL A   1      44.892  26.988  29.773  1.00  0.00     0.031 C 
ATOM     68  C   UNL A   1      44.951  29.514  29.355  1.00  0.00     0.034 A 
BRANCH  55  69
ATOM     69  C   UNL A   1      43.882  27.629  34.303  1.00  0.00     0.023 A 
ATOM     70  C   UNL A   1      44.764  27.798  35.394  1.00  0.00     0.012 A 
ATOM     71  C   UNL A   1      43.861  26.346  33.709  1.00  0.00     0.148 A 
ATOM     72  C   UNL A   1      45.598  26.764  35.839  1.00  0.00     0.002 A 
ATOM     73  C   UNL A   1      44.624  25.298  34.208  1.00  0.00     0.091 A 
ATOM     74  F   UNL A   1      43.222  26.139  32.558  1.00  0.00    -0.205 F 
ATOM     75  C   UNL A   1      45.520  25.508  35.255  1.00  0.00     0.022 A 
BRANCH  73  76
ATOM     76  S   UNL A   1      44.522  23.645  33.501  1.00  0.00     0.127 S 
ATOM     77  O   UNL A   1      45.670  22.992  34.120  1.00  0.00    -0.237 OA
ATOM     78  O   UNL A   1      43.214  23.201  33.983  1.00  0.00    -0.237 OA
ATOM     79  O   UNL A   1      44.595  23.827  32.056  1.00  0.00    -0.744 OA
ENDBRANCH  73  76
ENDBRANCH  55  69
BRANCH  56  80
ATOM     80  C   UNL A   1      42.208  25.284  26.607  1.00  0.00     0.023 A 
ATOM     81  C   UNL A   1      43.235  25.077  25.650  1.00  0.00     0.012 A 
ATOM     82  C   UNL A   1      41.373  24.194  26.915  1.00  0.00     0.148 A 
ATOM     83  C   UNL A   1      43.469  23.816  25.083  1.00  0.00     0.002 A 
ATOM     84  C   UNL A   1      41.614  22.939  26.351  1.00  0.00     0.091 A 
ATOM     85  F   UNL A   1      40.411  24.370  27.831  1.00  0.00    -0.205 F 
ATOM     86  C   UNL A   1      42.671  22.741  25.449  1.00  0.00     0.022 A 
BRANCH  84  87
ATOM     87  S   UNL A   1      40.663  21.482  26.808  1.00  0.00     0.127 S 
ATOM     88  O   UNL A   1      40.838  21.448  28.260  1.00  0.00    -0.237 OA
ATOM     89  O   UNL A   1      39.321  21.844  26.360  1.00  0.00    -0.237 OA
ATOM     90  O   UNL A   1      41.288  20.371  26.101  1.00  0.00    -0.744 OA
ENDBRANCH  84  87
ENDBRANCH  56  80
BRANCH  68  91
ATOM     91  C   UNL A   1      45.032  30.547  28.271  1.00  0.00     0.023 A 
ATOM     92  C   UNL A   1      43.918  31.052  27.574  1.00  0.00     0.012 A 
ATOM     93  C   UNL A   1      46.306  31.066  27.988  1.00  0.00     0.148 A 
ATOM     94  C   UNL A   1      44.081  32.039  26.597  1.00  0.00     0.002 A 
ATOM     95  C   UNL A   1      46.457  32.084  27.060  1.00  0.00     0.091 A 
ATOM     96  F   UNL A   1      47.361  30.548  28.637  1.00  0.00    -0.205 F 
ATOM     97  C   UNL A   1      45.348  32.567  26.352  1.00  0.00     0.022 A 
BRANCH  95  98
ATOM     98  S   UNL A   1      48.050  32.862  26.802  1.00  0.00     0.127 S 
ATOM     99  O   UNL A   1      47.764  33.792  25.712  1.00  0.00    -0.237 OA
ATOM    100  O   UNL A   1      48.306  33.492  28.097  1.00  0.00    -0.237 OA
ATOM    101  O   UNL A   1      48.972  31.777  26.481  1.00  0.00    -0.744 OA
ENDBRANCH  95  98
ENDBRANCH  68  91
ENDBRANCH  42  43
ENDBRANCH  35  37
ENDBRANCH  34  35
ENDBRANCH  33  34
ENDBRANCH   1  33
TORSDOF 21
ENDMDL
MODEL 2
REMARK VINA RESULT:     -11.4      1.998      2.600
REMARK SMILES COc1ccccc1[C@@H]1C[N@@H+](Cc2cn3cc(C)ccc3n2)C[C@H]1C(=O)OCCOCCOC(=O)c1ccc(-c2c3nc(c(-c4cccc(S(=O)(=O)[O-])c4F)c4ccc([nH]4)c(-c4cccc(S(=O)(=O)[O-])c4F)c4nc(c(-c5cccc(S(=O)(=O)[O-])c5F)c5ccc2[nH]5)C=C4)C=C3)cc1
REMARK SMILES IDX 31 1 30 2 29 3 28 4 27 5 25 6 26 7 24 8 9 9 10 10 11 11
REMARK SMILES IDX 23 12 8 14 3 15 4 16 5 17 7 18 6 19 2 20 1 21 12 22 13 23
REMARK SMILES IDX 14 24 22 25 15 26 21 27 16 28 20 29 17 30 19 31 18 32 32 33
REMARK SMILES IDX 33 34 34 35 35 36 36 37 37 38 98 39 38 40 97 41 39 42 40 43
REMARK SMILES IDX 41 44 91 45 42 46 96 47 90 48 92 49 43 50 95 51 89 52 88 53
REMARK SMILES IDX 44 55 76 56 56 57 75 58 57 59 60 60 74 61 93 62 58 63 59 64
REMARK SMILES IDX 73 66 94 67 61 68 45 69 46 70 54 71 47 72 49 73 55 74 48 75
REMARK SMILES IDX 50 76 51 77 52 78 53 79 77 80 78 81 86 82 79 83 81 84 87 85
REMARK SMILES IDX 80 86 82 87 83 88 84 89 85 90 62 91 63 92 71 93 64 94 66 95
REMARK SMILES IDX 72 96 65 97 67 98 68 99 69 100 70 101
REMARK H PARENT 11 13 92 54 60 65
REMARK Flexibility Score: inf
ROOT
ATOM      1  C   UNL A   1      33.718  30.023  27.238  1.00  0.00     0.202 C 
ENDROOT
BRANCH   1   2
ATOM      2  O   UNL A   1      33.461  28.619  27.263  1.00  0.00    -0.374 OA
BRANCH   2   3
ATOM      3  C   UNL A   1      32.132  28.253  26.904  1.00  0.00     0.202 C 
BRANCH   3   4
ATOM      4  C   UNL A   1      31.952  26.755  26.640  1.00  0.00     0.261 C 
BRANCH   4   5
ATOM      5  O   UNL A   1      30.569  26.326  26.632  1.00  0.00    -0.463 OA
BRANCH   5   6
ATOM      6  C   UNL A   1      30.328  25.095  26.115  1.00  0.00     0.315 C 
ATOM      7  O   UNL A   1      30.260  24.071  26.791  1.00  0.00    -0.252 OA
BRANCH   6   8
ATOM      8  C   UNL A   1      30.288  25.027  24.597  1.00  0.00     0.167 C 
ATOM      9  C   UNL A   1      30.891  26.132  23.736  1.00  0.00     0.098 C 
ATOM     10  C   UNL A   1      31.282  25.413  22.428  1.00  0.00     0.272 C 
ATOM     11  N   UNL A   1      31.495  23.988  22.752  1.00  0.00    -0.329 N 
ATOM     12  C   UNL A   1      30.963  23.744  24.102  1.00  0.00     0.278 C 
ATOM     13  H   UNL A   1      30.981  23.437  22.064  1.00  0.00     0.348 HD
BRANCH   9  14
ATOM     14  C   UNL A   1      30.242  27.500  23.491  1.00  0.00     0.004 A 
ATOM     15  C   UNL A   1      30.759  28.801  23.469  1.00  0.00     0.122 A 
ATOM     16  C   UNL A   1      29.886  29.892  23.195  1.00  0.00     0.047 A 
ATOM     17  C   UNL A   1      28.515  29.751  23.008  1.00  0.00     0.004 A 
ATOM     18  C   UNL A   1      28.823  27.421  23.382  1.00  0.00     0.008 A 
ATOM     19  C   UNL A   1      27.971  28.497  23.135  1.00  0.00     0.001 A 
BRANCH  15  20
ATOM     20  O   UNL A   1      31.979  29.326  23.763  1.00  0.00    -0.496 OA
ATOM     21  C   UNL A   1      33.177  28.946  23.145  1.00  0.00     0.278 C 
ENDBRANCH  15  20
ENDBRANCH   9  14
BRANCH  11  22
ATOM     22  C   UNL A   1      32.880  23.476  22.559  1.00  0.00     0.321 C 
BRANCH  22  23
ATOM     23  C   UNL A   1      33.545  23.102  23.849  1.00  0.00     0.114 A 
ATOM     24  C   UNL A   1      33.981  21.848  24.251  1.00  0.00     0.122 A 
ATOM     25  N   UNL A   1      34.070  24.078  24.658  1.00  0.00    -0.228 NA
ATOM     26  N   UNL A   1      35.109  22.119  24.989  1.00  0.00    -0.306 N 
ATOM     27  C   UNL A   1      35.101  23.490  25.219  1.00  0.00     0.137 A 
ATOM     28  C   UNL A   1      36.212  21.300  25.231  1.00  0.00     0.096 A 
ATOM     29  C   UNL A   1      36.300  24.074  25.683  1.00  0.00     0.048 A 
ATOM     30  C   UNL A   1      37.380  21.875  25.570  1.00  0.00    -0.034 A 
ATOM     31  C   UNL A   1      37.407  23.318  25.751  1.00  0.00     0.009 A 
ATOM     32  C   UNL A   1      38.675  21.164  25.747  1.00  0.00     0.046 C 
ENDBRANCH  22  23
ENDBRANCH  11  22
ENDBRANCH   6   8
ENDBRANCH   5   6
ENDBRANCH   4   5
ENDBRANCH   3   4
ENDBRANCH   2   3
ENDBRANCH   1   2
BRANCH   1  33
ATOM     33  C   UNL A   1      35.210  30.367  27.329  1.00  0.00     0.261 C 
BRANCH  33  34
ATOM     34  O   UNL A   1      35.438  31.696  27.843  1.00  0.00    -0.460 OA
BRANCH  34  35
ATOM     35  C   UNL A   1      35.177  31.950  29.161  1.00  0.00     0.338 C 
ATOM     36  O   UNL A   1      34.328  32.680  29.606  1.00  0.00    -0.246 OA
BRANCH  35  37
ATOM     37  C   UNL A   1      36.345  31.409  29.915  1.00  0.00     0.060 A 
ATOM     38  C   UNL A   1      37.594  32.005  29.734  1.00  0.00     0.016 A 
ATOM     39  C   UNL A   1      36.275  30.166  30.517  1.00  0.00     0.016 A 
ATOM     40  C   UNL A   1      38.763  31.237  29.863  1.00  0.00     0.010 A 
ATOM     41  C   UNL A   1      37.430  29.393  30.581  1.00  0.00     0.010 A 
ATOM     42  C   UNL A   1      38.676  29.873  30.141  1.00  0.00    -0.014 A 
BRANCH  42  43
ATOM     43  C   UNL A   1      39.867  28.988  30.224  1.00  0.00     0.031 A 
ATOM     44  C   UNL A   1      40.358  28.903  31.620  1.00  0.00     0.074 A 
ATOM     45  C   UNL A   1      40.472  28.199  29.294  1.00  0.00     0.049 A 
ATOM     46  N   UNL A   1      41.088  29.796  32.209  1.00  0.00    -0.248 NA
ATOM     47  C   UNL A   1      39.770  27.909  32.537  1.00  0.00     0.031 C 
ATOM     48  C   UNL A   1      39.991  27.818  27.960  1.00  0.00     0.029 A 
ATOM     49  N   UNL A   1      41.635  27.459  29.396  1.00  0.00    -0.354 N 
ATOM     50  C   UNL A   1      41.300  29.264  33.471  1.00  0.00     0.074 A 
ATOM     51  C   UNL A   1      40.188  28.391  33.713  1.00  0.00     0.031 C 
ATOM     52  C   UNL A   1      40.709  26.762  27.493  1.00  0.00     0.029 A 
ATOM     53  C   UNL A   1      41.828  26.507  28.386  1.00  0.00     0.049 A 
ATOM     54  H   UNL A   1      42.281  27.591  30.127  1.00  0.00     0.167 HD
ATOM     55  C   UNL A   1      42.563  29.190  33.977  1.00  0.00     0.034 A 
ATOM     56  C   UNL A   1      42.836  25.595  28.278  1.00  0.00     0.034 A 
ATOM     57  C   UNL A   1      43.489  29.903  33.127  1.00  0.00     0.049 A 
ATOM     58  C   UNL A   1      43.987  26.128  29.033  1.00  0.00     0.074 A 
ATOM     59  C   UNL A   1      43.715  31.201  32.728  1.00  0.00     0.029 A 
ATOM     60  N   UNL A   1      44.111  29.085  32.221  1.00  0.00    -0.354 N 
ATOM     61  N   UNL A   1      44.678  27.160  28.641  1.00  0.00    -0.248 NA
ATOM     62  C   UNL A   1      44.255  25.664  30.387  1.00  0.00     0.031 C 
ATOM     63  C   UNL A   1      44.389  31.124  31.472  1.00  0.00     0.029 A 
ATOM     64  C   UNL A   1      44.607  29.785  31.160  1.00  0.00     0.049 A 
ATOM     65  H   UNL A   1      44.191  28.109  32.324  1.00  0.00     0.167 HD
ATOM     66  C   UNL A   1      45.058  27.752  29.826  1.00  0.00     0.074 A 
ATOM     67  C   UNL A   1      44.965  26.703  30.830  1.00  0.00     0.031 C 
ATOM     68  C   UNL A   1      45.016  29.107  29.948  1.00  0.00     0.034 A 
BRANCH  55  69
ATOM     69  C   UNL A   1      43.093  28.093  34.893  1.00  0.00     0.023 A 
ATOM     70  C   UNL A   1      43.723  28.519  36.085  1.00  0.00     0.012 A 
ATOM     71  C   UNL A   1      43.252  26.728  34.557  1.00  0.00     0.148 A 
ATOM     72  C   UNL A   1      44.491  27.650  36.869  1.00  0.00     0.002 A 
ATOM     73  C   UNL A   1      43.940  25.848  35.382  1.00  0.00     0.091 A 
ATOM     74  F   UNL A   1      42.874  26.274  33.363  1.00  0.00    -0.205 F 
ATOM     75  C   UNL A   1      44.590  26.309  36.525  1.00  0.00     0.022 A 
BRANCH  73  76
ATOM     76  S   UNL A   1      44.059  24.095  34.990  1.00  0.00     0.127 S 
ATOM     77  O   UNL A   1      42.653  23.735  34.840  1.00  0.00    -0.237 OA
ATOM     78  O   UNL A   1      44.834  24.123  33.750  1.00  0.00    -0.237 OA
ATOM     79  O   UNL A   1      44.756  23.484  36.117  1.00  0.00    -0.744 OA
ENDBRANCH  73  76
ENDBRANCH  55  69
BRANCH  56  80
ATOM     80  C   UNL A   1      42.990  24.263  27.624  1.00  0.00     0.023 A 
ATOM     81  C   UNL A   1      41.895  23.362  27.596  1.00  0.00     0.012 A 
ATOM     82  C   UNL A   1      44.054  24.026  26.734  1.00  0.00     0.148 A 
ATOM     83  C   UNL A   1      41.827  22.314  26.667  1.00  0.00     0.002 A 
ATOM     84  C   UNL A   1      43.980  22.984  25.806  1.00  0.00     0.091 A 
ATOM     85  F   UNL A   1      45.086  24.880  26.737  1.00  0.00    -0.205 F 
ATOM     86  C   UNL A   1      42.861  22.137  25.757  1.00  0.00     0.022 A 
BRANCH  84  87
ATOM     87  S   UNL A   1      45.248  22.716  24.559  1.00  0.00     0.127 S 
ATOM     88  O   UNL A   1      46.185  21.840  25.262  1.00  0.00    -0.237 OA
ATOM     89  O   UNL A   1      44.489  22.071  23.491  1.00  0.00    -0.237 OA
ATOM     90  O   UNL A   1      45.776  24.039  24.250  1.00  0.00    -0.744 OA
ENDBRANCH  84  87
ENDBRANCH  56  80
BRANCH  68  91
ATOM     91  C   UNL A   1      45.266  29.926  28.717  1.00  0.00     0.023 A 
ATOM     92  C   UNL A   1      44.256  30.366  27.841  1.00  0.00     0.012 A 
ATOM     93  C   UNL A   1      46.595  30.311  28.474  1.00  0.00     0.148 A 
ATOM     94  C   UNL A   1      44.575  31.154  26.730  1.00  0.00     0.002 A 
ATOM     95  C   UNL A   1      46.900  31.139  27.407  1.00  0.00     0.091 A 
ATOM     96  F   UNL A   1      47.549  29.854  29.301  1.00  0.00    -0.205 F 
ATOM     97  C   UNL A   1      45.895  31.554  26.523  1.00  0.00     0.022 A 
BRANCH  95  98
ATOM     98  S   UNL A   1      48.563  31.764  27.174  1.00  0.00     0.127 S 
ATOM     99  O   UNL A   1      48.370  32.770  26.133  1.00  0.00    -0.237 OA
ATOM    100  O   UNL A   1      48.885  32.301  28.497  1.00  0.00    -0.237 OA
ATOM    101  O   UNL A   1      49.369  30.608  26.795  1.00  0.00    -0.744 OA
ENDBRANCH  95  98
ENDBRANCH  68  91
ENDBRANCH  42  43
ENDBRANCH  35  37
ENDBRANCH  34  35
ENDBRANCH  33  34
ENDBRANCH   1  33
TORSDOF 21
ENDMDL
MODEL 3
REMARK VINA RESULT:     -11.3      1.949      2.316
REMARK SMILES COc1ccccc1[C@@H]1C[N@@H+](Cc2cn3cc(C)ccc3n2)C[C@H]1C(=O)OCCOCCOC(=O)c1ccc(-c2c3nc(c(-c4cccc(S(=O)(=O)[O-])c4F)c4ccc([nH]4)c(-c4cccc(S(=O)(=O)[O-])c4F)c4nc(c(-c5cccc(S(=O)(=O)[O-])c5F)c5ccc2[nH]5)C=C4)C=C3)cc1
REMARK SMILES IDX 31 1 30 2 29 3 28 4 27 5 25 6 26 7 24 8 9 9 10 10 11 11
REMARK SMILES IDX 23 12 8 14 3 15 4 16 5 17 7 18 6 19 2 20 1 21 12 22 13 23
REMARK SMILES IDX 14 24 22 25 15 26 21 27 16 28 20 29 17 30 19 31 18 32 32 33
REMARK SMILES IDX 33 34 34 35 35 36 36 37 37 38 98 39 38 40 97 41 39 42 40 43
REMARK SMILES IDX 41 44 91 45 42 46 96 47 90 48 92 49 43 50 95 51 89 52 88 53
REMARK SMILES IDX 44 55 76 56 56 57 75 58 57 59 60 60 74 61 93 62 58 63 59 64
REMARK SMILES IDX 73 66 94 67 61 68 45 69 46 70 54 71 47 72 49 73 55 74 48 75
REMARK SMILES IDX 50 76 51 77 52 78 53 79 77 80 78 81 86 82 79 83 81 84 87 85
REMARK SMILES IDX 80 86 82 87 83 88 84 89 85 90 62 91 63 92 71 93 64 94 66 95
REMARK SMILES IDX 72 96 65 97 67 98 68 99 69 100 70 101
REMARK H PARENT 11 13 92 54 60 65
REMARK Flexibility Score: inf
ROOT
ATOM      1  C   UNL A   1      34.666  31.639  27.695  1.00  0.00     0.202 C 
ENDROOT
BRANCH   1   2
ATOM      2  O   UNL A   1      35.380  30.412  27.548  1.00  0.00    -0.374 OA
BRANCH   2   3
ATOM      3  C   UNL A   1      34.578  29.241  27.667  1.00  0.00     0.202 C 
BRANCH   3   4
ATOM      4  C   UNL A   1      33.581  29.053  26.520  1.00  0.00     0.261 C 
BRANCH   4   5
ATOM      5  O   UNL A   1      34.075  28.214  25.449  1.00  0.00    -0.463 OA
BRANCH   5   6
ATOM      6  C   UNL A   1      33.574  26.955  25.396  1.00  0.00     0.315 C 
ATOM      7  O   UNL A   1      34.219  25.978  25.020  1.00  0.00    -0.252 OA
BRANCH   6   8
ATOM      8  C   UNL A   1      32.090  26.834  25.700  1.00  0.00     0.167 C 
ATOM      9  C   UNL A   1      31.067  26.618  24.590  1.00  0.00     0.098 C 
ATOM     10  C   UNL A   1      29.911  25.873  25.289  1.00  0.00     0.272 C 
ATOM     11  N   UNL A   1      30.479  25.170  26.456  1.00  0.00    -0.329 N 
ATOM     12  C   UNL A   1      31.838  25.686  26.682  1.00  0.00     0.278 C 
ATOM     13  H   UNL A   1      29.883  25.376  27.258  1.00  0.00     0.348 HD
BRANCH   9  14
ATOM     14  C   UNL A   1      30.577  27.710  23.631  1.00  0.00     0.004 A 
ATOM     15  C   UNL A   1      31.253  28.643  22.835  1.00  0.00     0.122 A 
ATOM     16  C   UNL A   1      30.503  29.540  22.022  1.00  0.00     0.047 A 
ATOM     17  C   UNL A   1      29.113  29.591  22.017  1.00  0.00     0.004 A 
ATOM     18  C   UNL A   1      29.160  27.864  23.655  1.00  0.00     0.008 A 
ATOM     19  C   UNL A   1      28.432  28.760  22.871  1.00  0.00     0.001 A 
BRANCH  15  20
ATOM     20  O   UNL A   1      32.563  28.991  22.713  1.00  0.00    -0.496 OA
ATOM     21  C   UNL A   1      33.537  28.209  22.079  1.00  0.00     0.278 C 
ENDBRANCH  15  20
ENDBRANCH   9  14
BRANCH  11  22
ATOM     22  C   UNL A   1      30.407  23.682  26.417  1.00  0.00     0.321 C 
BRANCH  22  23
ATOM     23  C   UNL A   1      31.579  23.064  25.715  1.00  0.00     0.114 A 
ATOM     24  C   UNL A   1      32.615  22.329  26.271  1.00  0.00     0.122 A 
ATOM     25  N   UNL A   1      31.562  22.919  24.351  1.00  0.00    -0.228 NA
ATOM     26  N   UNL A   1      32.910  21.400  25.300  1.00  0.00    -0.306 N 
ATOM     27  C   UNL A   1      32.254  21.822  24.150  1.00  0.00     0.137 A 
ATOM     28  C   UNL A   1      33.485  20.138  25.445  1.00  0.00     0.096 A 
ATOM     29  C   UNL A   1      32.135  20.890  23.096  1.00  0.00     0.048 A 
ATOM     30  C   UNL A   1      33.277  19.221  24.483  1.00  0.00    -0.034 A 
ATOM     31  C   UNL A   1      32.535  19.625  23.299  1.00  0.00     0.009 A 
ATOM     32  C   UNL A   1      33.716  17.800  24.533  1.00  0.00     0.046 C 
ENDBRANCH  22  23
ENDBRANCH  11  22
ENDBRANCH   6   8
ENDBRANCH   5   6
ENDBRANCH   4   5
ENDBRANCH   3   4
ENDBRANCH   2   3
ENDBRANCH   1   2
BRANCH   1  33
ATOM     33  C   UNL A   1      34.910  32.323  29.046  1.00  0.00     0.261 C 
BRANCH  33  34
ATOM     34  O   UNL A   1      36.112  31.855  29.692  1.00  0.00    -0.460 OA
BRANCH  34  35
ATOM     35  C   UNL A   1      37.134  32.738  29.907  1.00  0.00     0.338 C 
ATOM     36  O   UNL A   1      37.288  33.813  29.383  1.00  0.00    -0.246 OA
BRANCH  35  37
ATOM     37  C   UNL A   1      38.174  31.977  30.657  1.00  0.00     0.060 A 
ATOM     38  C   UNL A   1      39.506  32.384  30.555  1.00  0.00     0.016 A 
ATOM     39  C   UNL A   1      37.892  30.724  31.169  1.00  0.00     0.016 A 
ATOM     40  C   UNL A   1      40.538  31.437  30.667  1.00  0.00     0.010 A 
ATOM     41  C   UNL A   1      38.913  29.779  31.214  1.00  0.00     0.010 A 
ATOM     42  C   UNL A   1      40.234  30.088  30.847  1.00  0.00    -0.014 A 
BRANCH  42  43
ATOM     43  C   UNL A   1      41.272  29.026  30.904  1.00  0.00     0.031 A 
ATOM     44  C   UNL A   1      41.733  28.821  32.297  1.00  0.00     0.074 A 
ATOM     45  C   UNL A   1      41.755  28.183  29.950  1.00  0.00     0.049 A 
ATOM     46  N   UNL A   1      42.587  29.570  32.918  1.00  0.00    -0.248 NA
ATOM     47  C   UNL A   1      40.990  27.902  33.179  1.00  0.00     0.031 C 
ATOM     48  C   UNL A   1      41.232  27.925  28.603  1.00  0.00     0.029 A 
ATOM     49  N   UNL A   1      42.788  27.269  30.031  1.00  0.00    -0.354 N 
ATOM     50  C   UNL A   1      42.704  28.972  34.163  1.00  0.00     0.074 A 
ATOM     51  C   UNL A   1      41.468  28.275  34.372  1.00  0.00     0.031 C 
ATOM     52  C   UNL A   1      41.781  26.786  28.104  1.00  0.00     0.029 A 
ATOM     53  C   UNL A   1      42.840  26.331  28.991  1.00  0.00     0.049 A 
ATOM     54  H   UNL A   1      43.441  27.275  30.768  1.00  0.00     0.167 HD
ATOM     55  C   UNL A   1      43.936  28.686  34.670  1.00  0.00     0.034 A 
ATOM     56  C   UNL A   1      43.695  25.277  28.855  1.00  0.00     0.034 A 
ATOM     57  C   UNL A   1      44.969  29.273  33.847  1.00  0.00     0.049 A 
ATOM     58  C   UNL A   1      44.908  25.601  29.631  1.00  0.00     0.074 A 
ATOM     59  C   UNL A   1      45.397  30.533  33.492  1.00  0.00     0.029 A 
ATOM     60  N   UNL A   1      45.463  28.398  32.917  1.00  0.00    -0.354 N 
ATOM     61  N   UNL A   1      45.754  26.524  29.276  1.00  0.00    -0.248 NA
ATOM     62  C   UNL A   1      45.089  25.057  30.970  1.00  0.00     0.031 C 
ATOM     63  C   UNL A   1      46.061  30.392  32.236  1.00  0.00     0.029 A 
ATOM     64  C   UNL A   1      46.071  29.046  31.880  1.00  0.00     0.049 A 
ATOM     65  H   UNL A   1      45.390  27.419  32.987  1.00  0.00     0.167 HD
ATOM     66  C   UNL A   1      46.212  27.012  30.481  1.00  0.00     0.074 A 
ATOM     67  C   UNL A   1      45.949  25.958  31.450  1.00  0.00     0.031 C 
ATOM     68  C   UNL A   1      46.380  28.352  30.648  1.00  0.00     0.034 A 
BRANCH  55  69
ATOM     69  C   UNL A   1      44.282  27.491  35.551  1.00  0.00     0.023 A 
ATOM     70  C   UNL A   1      44.966  27.775  36.755  1.00  0.00     0.012 A 
ATOM     71  C   UNL A   1      44.224  26.129  35.172  1.00  0.00     0.148 A 
ATOM     72  C   UNL A   1      45.583  26.771  37.511  1.00  0.00     0.002 A 
ATOM     73  C   UNL A   1      44.761  25.126  35.969  1.00  0.00     0.091 A 
ATOM     74  F   UNL A   1      43.785  25.778  33.964  1.00  0.00    -0.205 F 
ATOM     75  C   UNL A   1      45.470  25.442  37.126  1.00  0.00     0.022 A 
BRANCH  73  76
ATOM     76  S   UNL A   1      44.602  23.390  35.522  1.00  0.00     0.127 S 
ATOM     77  O   UNL A   1      45.157  22.734  36.701  1.00  0.00    -0.237 OA
ATOM     78  O   UNL A   1      43.154  23.260  35.357  1.00  0.00    -0.237 OA
ATOM     79  O   UNL A   1      45.360  23.227  34.287  1.00  0.00    -0.744 OA
ENDBRANCH  73  76
ENDBRANCH  55  69
BRANCH  56  80
ATOM     80  C   UNL A   1      43.645  23.960  28.158  1.00  0.00     0.023 A 
ATOM     81  C   UNL A   1      42.513  23.120  28.319  1.00  0.00     0.012 A 
ATOM     82  C   UNL A   1      44.510  23.692  27.080  1.00  0.00     0.148 A 
ATOM     83  C   UNL A   1      42.211  22.106  27.398  1.00  0.00     0.002 A 
ATOM     84  C   UNL A   1      44.202  22.684  26.163  1.00  0.00     0.091 A 
ATOM     85  F   UNL A   1      45.572  24.488  26.907  1.00  0.00    -0.205 F 
ATOM     86  C   UNL A   1      43.046  21.901  26.308  1.00  0.00     0.022 A 
BRANCH  84  87
ATOM     87  S   UNL A   1      45.199  22.385  24.696  1.00  0.00     0.127 S 
ATOM     88  O   UNL A   1      46.362  21.696  25.254  1.00  0.00    -0.237 OA
ATOM     89  O   UNL A   1      44.313  21.544  23.895  1.00  0.00    -0.237 OA
ATOM     90  O   UNL A   1      45.487  23.703  24.145  1.00  0.00    -0.744 OA
ENDBRANCH  84  87
ENDBRANCH  56  80
BRANCH  68  91
ATOM     91  C   UNL A   1      46.764  29.161  29.446  1.00  0.00     0.023 A 
ATOM     92  C   UNL A   1      48.060  29.197  28.897  1.00  0.00     0.012 A 
ATOM     93  C   UNL A   1      45.735  29.880  28.814  1.00  0.00     0.148 A 
ATOM     94  C   UNL A   1      48.324  29.956  27.752  1.00  0.00     0.002 A 
ATOM     95  C   UNL A   1      45.988  30.585  27.649  1.00  0.00     0.091 A 
ATOM     96  F   UNL A   1      44.514  29.863  29.371  1.00  0.00    -0.205 F 
ATOM     97  C   UNL A   1      47.285  30.637  27.119  1.00  0.00     0.022 A 
BRANCH  95  98
ATOM     98  S   UNL A   1      44.657  31.377  26.748  1.00  0.00     0.127 S 
ATOM     99  O   UNL A   1      45.353  31.913  25.580  1.00  0.00    -0.237 OA
ATOM    100  O   UNL A   1      43.757  30.257  26.467  1.00  0.00    -0.237 OA
ATOM    101  O   UNL A   1      44.098  32.369  27.660  1.00  0.00    -0.744 OA
ENDBRANCH  95  98
ENDBRANCH  68  91
ENDBRANCH  42  43
ENDBRANCH  35  37
ENDBRANCH  34  35
ENDBRANCH  33  34
ENDBRANCH   1  33
TORSDOF 21
ENDMDL
