MODEL 1
REMARK VINA RESULT:     -10.5      0.000      0.000
REMARK SMILES C[C@@H](Sc1ccccc1[N+](=O)[O-])[C@@H](C)C(=O)OCCOCCOC(=O)c1ccc(-c2c3nc(c(-c4cccc(S(=O)(=O)[O-])c4F)c4ccc([nH]4)c(-c4cccc(S(=O)(=O)[O-])c4F)c4nc(c(-c5cccc(S(=O)(=O)[O-])c5F)c5ccc2[nH]5)C=C4)C=C3)cc1
REMARK SMILES IDX 19 1 18 2 17 3 15 4 16 5 13 6 14 7 2 8 1 9 3 10 4 11 5 12
REMARK SMILES IDX 9 13 6 14 8 15 7 16 10 17 11 18 12 19 20 20 21 21 22 22
REMARK SMILES IDX 23 23 24 24 25 25 26 26 27 27 88 28 28 29 87 30 29 31 30 32
REMARK SMILES IDX 31 33 81 34 32 35 86 36 80 37 82 38 33 39 85 40 79 41 78 42
REMARK SMILES IDX 34 44 66 45 46 46 65 47 47 48 50 49 64 50 83 51 48 52 49 53
REMARK SMILES IDX 63 55 84 56 51 57 35 58 36 59 44 60 37 61 39 62 45 63 38 64
REMARK SMILES IDX 40 65 41 66 42 67 43 68 67 69 68 70 76 71 69 72 71 73 77 74
REMARK SMILES IDX 70 75 72 76 73 77 74 78 75 79 52 80 53 81 61 82 54 83 56 84
REMARK SMILES IDX 62 85 55 86 57 87 58 88 59 89 60 90
REMARK H PARENT 82 43 50 54
REMARK Flexibility Score: inf
ROOT
ATOM      1  C   UNL A   1      35.268  23.789  24.883  1.00  0.00     0.202 C 
ENDROOT
BRANCH   1   2
ATOM      2  C   UNL A   1      34.491  24.984  25.447  1.00  0.00     0.261 C 
BRANCH   2   3
ATOM      3  O   UNL A   1      34.313  26.083  24.532  1.00  0.00    -0.463 OA
BRANCH   3   4
ATOM      4  C   UNL A   1      33.357  26.977  24.894  1.00  0.00     0.309 C 
ATOM      5  O   UNL A   1      33.290  27.515  25.996  1.00  0.00    -0.252 OA
BRANCH   4   6
ATOM      6  C   UNL A   1      32.265  27.166  23.857  1.00  0.00     0.109 C 
ATOM      7  C   UNL A   1      32.767  28.278  22.926  1.00  0.00     0.021 C 
BRANCH   6   8
ATOM      8  C   UNL A   1      30.809  27.426  24.343  1.00  0.00     0.063 C 
ATOM      9  C   UNL A   1      30.211  28.576  23.521  1.00  0.00     0.020 C 
BRANCH   8  10
ATOM     10  S   UNL A   1      29.731  25.946  24.087  1.00  0.00    -0.115 SA
BRANCH  10  11
ATOM     11  C   UNL A   1      30.696  24.431  24.271  1.00  0.00     0.085 A 
ATOM     12  C   UNL A   1      31.192  23.976  23.025  1.00  0.00     0.022 A 
ATOM     13  C   UNL A   1      31.030  23.629  25.373  1.00  0.00     0.282 A 
ATOM     14  C   UNL A   1      31.936  22.793  22.890  1.00  0.00     0.002 A 
ATOM     15  C   UNL A   1      31.748  22.420  25.246  1.00  0.00     0.087 A 
ATOM     16  C   UNL A   1      32.198  22.003  24.001  1.00  0.00     0.007 A 
BRANCH  13  17
ATOM     17  N   UNL A   1      30.737  24.001  26.732  1.00  0.00     0.063 N 
ATOM     18  O   UNL A   1      31.469  24.857  27.249  1.00  0.00    -0.258 OA
ATOM     19  O   UNL A   1      29.742  23.483  27.251  1.00  0.00    -0.258 OA
ENDBRANCH  13  17
ENDBRANCH  10  11
ENDBRANCH   8  10
ENDBRANCH   6   8
ENDBRANCH   4   6
ENDBRANCH   3   4
ENDBRANCH   2   3
ENDBRANCH   1   2
BRANCH   1  20
ATOM     20  O   UNL A   1      35.659  22.752  25.780  1.00  0.00    -0.374 OA
BRANCH  20  21
ATOM     21  C   UNL A   1      35.527  21.410  25.320  1.00  0.00     0.202 C 
BRANCH  21  22
ATOM     22  C   UNL A   1      36.782  20.529  25.347  1.00  0.00     0.261 C 
BRANCH  22  23
ATOM     23  O   UNL A   1      37.978  21.257  25.015  1.00  0.00    -0.460 OA
BRANCH  23  24
ATOM     24  C   UNL A   1      39.048  20.960  25.787  1.00  0.00     0.338 C 
ATOM     25  O   UNL A   1      39.666  19.900  25.813  1.00  0.00    -0.246 OA
BRANCH  24  26
ATOM     26  C   UNL A   1      39.524  22.156  26.501  1.00  0.00     0.060 A 
ATOM     27  C   UNL A   1      38.973  23.392  26.132  1.00  0.00     0.016 A 
ATOM     28  C   UNL A   1      40.560  22.088  27.434  1.00  0.00     0.016 A 
ATOM     29  C   UNL A   1      39.501  24.574  26.644  1.00  0.00     0.010 A 
ATOM     30  C   UNL A   1      41.095  23.276  27.937  1.00  0.00     0.010 A 
ATOM     31  C   UNL A   1      40.599  24.522  27.510  1.00  0.00    -0.014 A 
BRANCH  31  32
ATOM     32  C   UNL A   1      41.349  25.758  27.835  1.00  0.00     0.031 A 
ATOM     33  C   UNL A   1      40.634  26.858  28.571  1.00  0.00     0.074 A 
ATOM     34  C   UNL A   1      42.631  25.909  27.456  1.00  0.00     0.049 A 
ATOM     35  N   UNL A   1      41.033  28.071  28.843  1.00  0.00    -0.248 NA
ATOM     36  C   UNL A   1      39.279  26.546  29.061  1.00  0.00     0.031 C 
ATOM     37  C   UNL A   1      43.432  24.899  26.768  1.00  0.00     0.029 A 
ATOM     38  N   UNL A   1      43.470  26.990  27.568  1.00  0.00    -0.354 N 
ATOM     39  C   UNL A   1      39.969  28.681  29.497  1.00  0.00     0.074 A 
ATOM     40  C   UNL A   1      38.904  27.706  29.579  1.00  0.00     0.031 C 
ATOM     41  C   UNL A   1      44.637  25.422  26.480  1.00  0.00     0.029 A 
ATOM     42  C   UNL A   1      44.674  26.812  26.929  1.00  0.00     0.049 A 
ATOM     43  H   UNL A   1      43.232  27.810  28.056  1.00  0.00     0.167 HD
ATOM     44  C   UNL A   1      39.890  29.939  29.992  1.00  0.00     0.034 A 
ATOM     45  C   UNL A   1      45.674  27.688  26.700  1.00  0.00     0.034 A 
ATOM     46  C   UNL A   1      40.961  30.894  29.919  1.00  0.00     0.049 A 
ATOM     47  C   UNL A   1      45.545  29.097  27.221  1.00  0.00     0.074 A 
ATOM     48  C   UNL A   1      40.997  32.186  30.410  1.00  0.00     0.029 A 
ATOM     49  N   UNL A   1      42.184  30.661  29.309  1.00  0.00    -0.354 N 
ATOM     50  N   UNL A   1      44.565  29.639  27.905  1.00  0.00    -0.248 NA
ATOM     51  C   UNL A   1      46.669  30.010  26.963  1.00  0.00     0.031 C 
ATOM     52  C   UNL A   1      42.233  32.745  30.071  1.00  0.00     0.029 A 
ATOM     53  C   UNL A   1      42.981  31.787  29.406  1.00  0.00     0.049 A 
ATOM     54  H   UNL A   1      42.446  29.819  28.871  1.00  0.00     0.167 HD
ATOM     55  C   UNL A   1      44.977  30.933  28.204  1.00  0.00     0.074 A 
ATOM     56  C   UNL A   1      46.295  31.095  27.628  1.00  0.00     0.031 C 
ATOM     57  C   UNL A   1      44.321  31.901  28.891  1.00  0.00     0.034 A 
BRANCH  44  58
ATOM     58  C   UNL A   1      38.608  30.351  30.667  1.00  0.00     0.023 A 
ATOM     59  C   UNL A   1      38.410  30.058  32.031  1.00  0.00     0.012 A 
ATOM     60  C   UNL A   1      37.625  31.078  29.966  1.00  0.00     0.148 A 
ATOM     61  C   UNL A   1      37.240  30.451  32.679  1.00  0.00     0.002 A 
ATOM     62  C   UNL A   1      36.482  31.506  30.630  1.00  0.00     0.091 A 
ATOM     63  F   UNL A   1      37.822  31.329  28.664  1.00  0.00    -0.205 F 
ATOM     64  C   UNL A   1      36.282  31.184  31.982  1.00  0.00     0.022 A 
BRANCH  62  65
ATOM     65  S   UNL A   1      35.225  32.520  29.842  1.00  0.00     0.127 S 
ATOM     66  O   UNL A   1      34.311  32.774  30.955  1.00  0.00    -0.237 OA
ATOM     67  O   UNL A   1      35.997  33.685  29.410  1.00  0.00    -0.237 OA
ATOM     68  O   UNL A   1      34.679  31.716  28.759  1.00  0.00    -0.744 OA
ENDBRANCH  62  65
ENDBRANCH  44  58
BRANCH  45  69
ATOM     69  C   UNL A   1      46.895  27.256  25.963  1.00  0.00     0.023 A 
ATOM     70  C   UNL A   1      46.956  27.422  24.565  1.00  0.00     0.012 A 
ATOM     71  C   UNL A   1      47.997  26.691  26.635  1.00  0.00     0.148 A 
ATOM     72  C   UNL A   1      48.075  27.001  23.846  1.00  0.00     0.002 A 
ATOM     73  C   UNL A   1      49.131  26.323  25.920  1.00  0.00     0.091 A 
ATOM     74  F   UNL A   1      47.915  26.527  27.962  1.00  0.00    -0.205 F 
ATOM     75  C   UNL A   1      49.165  26.460  24.523  1.00  0.00     0.022 A 
BRANCH  73  76
ATOM     76  S   UNL A   1      50.628  25.732  26.718  1.00  0.00     0.127 S 
ATOM     77  O   UNL A   1      50.184  24.458  27.277  1.00  0.00    -0.237 OA
ATOM     78  O   UNL A   1      51.549  25.622  25.587  1.00  0.00    -0.237 OA
ATOM     79  O   UNL A   1      50.988  26.756  27.688  1.00  0.00    -0.744 OA
ENDBRANCH  73  76
ENDBRANCH  45  69
BRANCH  57  80
ATOM     80  C   UNL A   1      45.036  33.204  29.137  1.00  0.00     0.023 A 
ATOM     81  C   UNL A   1      45.917  33.335  30.226  1.00  0.00     0.012 A 
ATOM     82  C   UNL A   1      44.918  34.257  28.206  1.00  0.00     0.148 A 
ATOM     83  C   UNL A   1      46.660  34.504  30.396  1.00  0.00     0.002 A 
ATOM     84  C   UNL A   1      45.699  35.395  28.353  1.00  0.00     0.091 A 
ATOM     85  F   UNL A   1      44.061  34.114  27.185  1.00  0.00    -0.205 F 
ATOM     86  C   UNL A   1      46.562  35.526  29.453  1.00  0.00     0.022 A 
BRANCH  84  87
ATOM     87  S   UNL A   1      45.720  36.716  27.135  1.00  0.00     0.127 S 
ATOM     88  O   UNL A   1      46.562  37.713  27.793  1.00  0.00    -0.237 OA
ATOM     89  O   UNL A   1      46.336  36.061  25.981  1.00  0.00    -0.237 OA
ATOM     90  O   UNL A   1      44.330  37.109  26.941  1.00  0.00    -0.744 OA
ENDBRANCH  84  87
ENDBRANCH  57  80
ENDBRANCH  31  32
ENDBRANCH  24  26
ENDBRANCH  23  24
ENDBRANCH  22  23
ENDBRANCH  21  22
ENDBRANCH  20  21
ENDBRANCH   1  20
TORSDOF 21
ENDMDL
MODEL 2
REMARK VINA RESULT:      -9.9      1.425      8.216
REMARK SMILES C[C@@H](Sc1ccccc1[N+](=O)[O-])[C@@H](C)C(=O)OCCOCCOC(=O)c1ccc(-c2c3nc(c(-c4cccc(S(=O)(=O)[O-])c4F)c4ccc([nH]4)c(-c4cccc(S(=O)(=O)[O-])c4F)c4nc(c(-c5cccc(S(=O)(=O)[O-])c5F)c5ccc2[nH]5)C=C4)C=C3)cc1
REMARK SMILES IDX 19 1 18 2 17 3 15 4 16 5 13 6 14 7 2 8 1 9 3 10 4 11 5 12
REMARK SMILES IDX 9 13 6 14 8 15 7 16 10 17 11 18 12 19 20 20 21 21 22 22
REMARK SMILES IDX 23 23 24 24 25 25 26 26 27 27 88 28 28 29 87 30 29 31 30 32
REMARK SMILES IDX 31 33 81 34 32 35 86 36 80 37 82 38 33 39 85 40 79 41 78 42
REMARK SMILES IDX 34 44 66 45 46 46 65 47 47 48 50 49 64 50 83 51 48 52 49 53
REMARK SMILES IDX 63 55 84 56 51 57 35 58 36 59 44 60 37 61 39 62 45 63 38 64
REMARK SMILES IDX 40 65 41 66 42 67 43 68 67 69 68 70 76 71 69 72 71 73 77 74
REMARK SMILES IDX 70 75 72 76 73 77 74 78 75 79 52 80 53 81 61 82 54 83 56 84
REMARK SMILES IDX 62 85 55 86 57 87 58 88 59 89 60 90
REMARK H PARENT 82 43 50 54
REMARK Flexibility Score: inf
ROOT
ATOM      1  C   UNL A   1      36.683  21.832  25.433  1.00  0.00     0.202 C 
ENDROOT
BRANCH   1   2
ATOM      2  C   UNL A   1      35.419  22.419  24.794  1.00  0.00     0.261 C 
BRANCH   2   3
ATOM      3  O   UNL A   1      34.372  21.466  24.525  1.00  0.00    -0.463 OA
BRANCH   3   4
ATOM      4  C   UNL A   1      33.460  21.325  25.522  1.00  0.00     0.309 C 
ATOM      5  O   UNL A   1      32.822  20.298  25.740  1.00  0.00    -0.252 OA
BRANCH   4   6
ATOM      6  C   UNL A   1      33.176  22.607  26.284  1.00  0.00     0.109 C 
ATOM      7  C   UNL A   1      33.169  22.212  27.767  1.00  0.00     0.021 C 
BRANCH   6   8
ATOM      8  C   UNL A   1      31.922  23.444  25.897  1.00  0.00     0.063 C 
ATOM      9  C   UNL A   1      30.786  23.115  26.877  1.00  0.00     0.020 C 
BRANCH   8  10
ATOM     10  S   UNL A   1      32.250  25.259  26.022  1.00  0.00    -0.115 SA
BRANCH  10  11
ATOM     11  C   UNL A   1      31.766  26.088  24.494  1.00  0.00     0.085 A 
ATOM     12  C   UNL A   1      30.943  27.213  24.749  1.00  0.00     0.022 A 
ATOM     13  C   UNL A   1      32.024  25.837  23.137  1.00  0.00     0.282 A 
ATOM     14  C   UNL A   1      30.396  28.002  23.726  1.00  0.00     0.002 A 
ATOM     15  C   UNL A   1      31.452  26.603  22.098  1.00  0.00     0.087 A 
ATOM     16  C   UNL A   1      30.636  27.686  22.396  1.00  0.00     0.007 A 
BRANCH  13  17
ATOM     17  N   UNL A   1      32.947  24.829  22.687  1.00  0.00     0.063 N 
ATOM     18  O   UNL A   1      32.461  23.753  22.309  1.00  0.00    -0.258 OA
ATOM     19  O   UNL A   1      34.142  25.140  22.654  1.00  0.00    -0.258 OA
ENDBRANCH  13  17
ENDBRANCH  10  11
ENDBRANCH   8  10
ENDBRANCH   6   8
ENDBRANCH   4   6
ENDBRANCH   3   4
ENDBRANCH   2   3
ENDBRANCH   1   2
BRANCH   1  20
ATOM     20  O   UNL A   1      37.581  21.098  24.605  1.00  0.00    -0.374 OA
BRANCH  20  21
ATOM     21  C   UNL A   1      37.701  19.700  24.855  1.00  0.00     0.202 C 
BRANCH  21  22
ATOM     22  C   UNL A   1      39.048  19.192  25.382  1.00  0.00     0.261 C 
BRANCH  22  23
ATOM     23  O   UNL A   1      39.442  19.833  26.609  1.00  0.00    -0.460 OA
BRANCH  23  24
ATOM     24  C   UNL A   1      40.730  20.243  26.639  1.00  0.00     0.338 C 
ATOM     25  O   UNL A   1      41.706  19.643  26.196  1.00  0.00    -0.246 OA
BRANCH  24  26
ATOM     26  C   UNL A   1      40.825  21.630  27.125  1.00  0.00     0.060 A 
ATOM     27  C   UNL A   1      40.150  22.619  26.396  1.00  0.00     0.016 A 
ATOM     28  C   UNL A   1      41.639  21.972  28.206  1.00  0.00     0.016 A 
ATOM     29  C   UNL A   1      40.339  23.964  26.701  1.00  0.00     0.010 A 
ATOM     30  C   UNL A   1      41.835  23.323  28.502  1.00  0.00     0.010 A 
ATOM     31  C   UNL A   1      41.224  24.323  27.724  1.00  0.00    -0.014 A 
BRANCH  31  32
ATOM     32  C   UNL A   1      41.655  25.733  27.873  1.00  0.00     0.031 A 
ATOM     33  C   UNL A   1      43.028  26.117  27.390  1.00  0.00     0.074 A 
ATOM     34  C   UNL A   1      40.853  26.644  28.452  1.00  0.00     0.049 A 
ATOM     35  N   UNL A   1      43.673  27.242  27.534  1.00  0.00    -0.248 NA
ATOM     36  C   UNL A   1      43.775  25.085  26.650  1.00  0.00     0.031 C 
ATOM     37  C   UNL A   1      39.494  26.391  28.926  1.00  0.00     0.029 A 
ATOM     38  N   UNL A   1      41.086  27.958  28.772  1.00  0.00    -0.354 N 
ATOM     39  C   UNL A   1      44.915  27.045  26.942  1.00  0.00     0.074 A 
ATOM     40  C   UNL A   1      44.935  25.690  26.438  1.00  0.00     0.031 C 
ATOM     41  C   UNL A   1      39.026  27.505  29.516  1.00  0.00     0.029 A 
ATOM     42  C   UNL A   1      40.066  28.532  29.492  1.00  0.00     0.049 A 
ATOM     43  H   UNL A   1      41.902  28.442  28.510  1.00  0.00     0.167 HD
ATOM     44  C   UNL A   1      45.943  27.918  26.823  1.00  0.00     0.034 A 
ATOM     45  C   UNL A   1      40.000  29.735  30.099  1.00  0.00     0.034 A 
ATOM     46  C   UNL A   1      45.905  29.268  27.313  1.00  0.00     0.049 A 
ATOM     47  C   UNL A   1      41.174  30.674  29.990  1.00  0.00     0.074 A 
ATOM     48  C   UNL A   1      46.880  30.245  27.222  1.00  0.00     0.029 A 
ATOM     49  N   UNL A   1      44.835  29.829  27.994  1.00  0.00    -0.354 N 
ATOM     50  N   UNL A   1      42.313  30.503  29.361  1.00  0.00    -0.248 NA
ATOM     51  C   UNL A   1      41.048  31.981  30.651  1.00  0.00     0.031 C 
ATOM     52  C   UNL A   1      46.410  31.389  27.874  1.00  0.00     0.029 A 
ATOM     53  C   UNL A   1      45.127  31.137  28.333  1.00  0.00     0.049 A 
ATOM     54  H   UNL A   1      43.993  29.365  28.204  1.00  0.00     0.167 HD
ATOM     55  C   UNL A   1      43.013  31.697  29.505  1.00  0.00     0.074 A 
ATOM     56  C   UNL A   1      42.170  32.583  30.280  1.00  0.00     0.031 C 
ATOM     57  C   UNL A   1      44.243  32.028  29.040  1.00  0.00     0.034 A 
BRANCH  44  58
ATOM     58  C   UNL A   1      47.190  27.445  26.123  1.00  0.00     0.023 A 
ATOM     59  C   UNL A   1      47.332  27.644  24.735  1.00  0.00     0.012 A 
ATOM     60  C   UNL A   1      48.245  26.856  26.848  1.00  0.00     0.148 A 
ATOM     61  C   UNL A   1      48.489  27.234  24.074  1.00  0.00     0.002 A 
ATOM     62  C   UNL A   1      49.413  26.491  26.191  1.00  0.00     0.091 A 
ATOM     63  F   UNL A   1      48.083  26.656  28.164  1.00  0.00    -0.205 F 
ATOM     64  C   UNL A   1      49.533  26.668  24.803  1.00  0.00     0.022 A 
BRANCH  62  65
ATOM     65  S   UNL A   1      50.843  25.825  27.051  1.00  0.00     0.127 S 
ATOM     66  O   UNL A   1      50.352  24.511  27.465  1.00  0.00    -0.237 OA
ATOM     67  O   UNL A   1      51.851  25.793  25.991  1.00  0.00    -0.237 OA
ATOM     68  O   UNL A   1      51.130  26.753  28.134  1.00  0.00    -0.744 OA
ENDBRANCH  62  65
ENDBRANCH  44  58
BRANCH  45  69
ATOM     69  C   UNL A   1      38.771  30.133  30.843  1.00  0.00     0.023 A 
ATOM     70  C   UNL A   1      38.609  29.724  32.181  1.00  0.00     0.012 A 
ATOM     71  C   UNL A   1      37.769  30.919  30.238  1.00  0.00     0.148 A 
ATOM     72  C   UNL A   1      37.455  30.059  32.892  1.00  0.00     0.002 A 
ATOM     73  C   UNL A   1      36.649  31.294  30.970  1.00  0.00     0.091 A 
ATOM     74  F   UNL A   1      37.935  31.286  28.961  1.00  0.00    -0.205 F 
ATOM     75  C   UNL A   1      36.481  30.850  32.291  1.00  0.00     0.022 A 
BRANCH  73  76
ATOM     76  S   UNL A   1      35.400  32.411  30.321  1.00  0.00     0.127 S 
ATOM     77  O   UNL A   1      34.436  32.450  31.416  1.00  0.00    -0.237 OA
ATOM     78  O   UNL A   1      36.168  33.642  30.130  1.00  0.00    -0.237 OA
ATOM     79  O   UNL A   1      34.929  31.800  29.086  1.00  0.00    -0.744 OA
ENDBRANCH  73  76
ENDBRANCH  45  69
BRANCH  57  80
ATOM     80  C   UNL A   1      44.737  33.430  29.278  1.00  0.00     0.023 A 
ATOM     81  C   UNL A   1      45.570  33.713  30.377  1.00  0.00     0.012 A 
ATOM     82  C   UNL A   1      44.468  34.440  28.332  1.00  0.00     0.148 A 
ATOM     83  C   UNL A   1      46.114  34.986  30.541  1.00  0.00     0.002 A 
ATOM     84  C   UNL A   1      45.055  35.690  28.473  1.00  0.00     0.091 A 
ATOM     85  F   UNL A   1      43.660  34.151  27.301  1.00  0.00    -0.205 F 
ATOM     86  C   UNL A   1      45.870  35.969  29.582  1.00  0.00     0.022 A 
BRANCH  84  87
ATOM     87  S   UNL A   1      44.884  36.984  27.238  1.00  0.00     0.127 S 
ATOM     88  O   UNL A   1      45.962  36.650  26.308  1.00  0.00    -0.237 OA
ATOM     89  O   UNL A   1      43.537  36.742  26.723  1.00  0.00    -0.237 OA
ATOM     90  O   UNL A   1      45.047  38.245  27.948  1.00  0.00    -0.744 OA
ENDBRANCH  84  87
ENDBRANCH  57  80
ENDBRANCH  31  32
ENDBRANCH  24  26
ENDBRANCH  23  24
ENDBRANCH  22  23
ENDBRANCH  21  22
ENDBRANCH  20  21
ENDBRANCH   1  20
TORSDOF 21
ENDMDL
MODEL 3
REMARK VINA RESULT:      -9.7      5.277     10.143
REMARK SMILES C[C@@H](Sc1ccccc1[N+](=O)[O-])[C@@H](C)C(=O)OCCOCCOC(=O)c1ccc(-c2c3nc(c(-c4cccc(S(=O)(=O)[O-])c4F)c4ccc([nH]4)c(-c4cccc(S(=O)(=O)[O-])c4F)c4nc(c(-c5cccc(S(=O)(=O)[O-])c5F)c5ccc2[nH]5)C=C4)C=C3)cc1
REMARK SMILES IDX 19 1 18 2 17 3 15 4 16 5 13 6 14 7 2 8 1 9 3 10 4 11 5 12
REMARK SMILES IDX 9 13 6 14 8 15 7 16 10 17 11 18 12 19 20 20 21 21 22 22
REMARK SMILES IDX 23 23 24 24 25 25 26 26 27 27 88 28 28 29 87 30 29 31 30 32
REMARK SMILES IDX 31 33 81 34 32 35 86 36 80 37 82 38 33 39 85 40 79 41 78 42
REMARK SMILES IDX 34 44 66 45 46 46 65 47 47 48 50 49 64 50 83 51 48 52 49 53
REMARK SMILES IDX 63 55 84 56 51 57 35 58 36 59 44 60 37 61 39 62 45 63 38 64
REMARK SMILES IDX 40 65 41 66 42 67 43 68 67 69 68 70 76 71 69 72 71 73 77 74
REMARK SMILES IDX 70 75 72 76 73 77 74 78 75 79 52 80 53 81 61 82 54 83 56 84
REMARK SMILES IDX 62 85 55 86 57 87 58 88 59 89 60 90
REMARK H PARENT 82 43 50 54
REMARK Flexibility Score: inf
ROOT
ATOM      1  C   UNL A   1      33.290  28.277  26.446  1.00  0.00     0.202 C 
ENDROOT
BRANCH   1   2
ATOM      2  C   UNL A   1      32.895  26.802  26.299  1.00  0.00     0.261 C 
BRANCH   2   3
ATOM      3  O   UNL A   1      31.543  26.575  25.855  1.00  0.00    -0.463 OA
BRANCH   3   4
ATOM      4  C   UNL A   1      31.316  26.867  24.548  1.00  0.00     0.309 C 
ATOM      5  O   UNL A   1      30.492  27.688  24.153  1.00  0.00    -0.252 OA
BRANCH   4   6
ATOM      6  C   UNL A   1      32.076  25.983  23.577  1.00  0.00     0.109 C 
ATOM      7  C   UNL A   1      31.552  26.356  22.183  1.00  0.00     0.021 C 
BRANCH   6   8
ATOM      8  C   UNL A   1      32.075  24.444  23.808  1.00  0.00     0.063 C 
ATOM      9  C   UNL A   1      30.665  23.903  23.529  1.00  0.00     0.020 C 
BRANCH   8  10
ATOM     10  S   UNL A   1      33.234  23.581  22.655  1.00  0.00    -0.115 SA
BRANCH  10  11
ATOM     11  C   UNL A   1      34.459  22.641  23.590  1.00  0.00     0.085 A 
ATOM     12  C   UNL A   1      35.735  23.256  23.542  1.00  0.00     0.022 A 
ATOM     13  C   UNL A   1      34.403  21.446  24.324  1.00  0.00     0.282 A 
ATOM     14  C   UNL A   1      36.870  22.700  24.152  1.00  0.00     0.002 A 
ATOM     15  C   UNL A   1      35.545  20.858  24.913  1.00  0.00     0.087 A 
ATOM     16  C   UNL A   1      36.779  21.488  24.823  1.00  0.00     0.007 A 
BRANCH  13  17
ATOM     17  N   UNL A   1      33.174  20.753  24.603  1.00  0.00     0.063 N 
ATOM     18  O   UNL A   1      32.235  20.939  23.816  1.00  0.00    -0.258 OA
ATOM     19  O   UNL A   1      33.174  19.979  25.566  1.00  0.00    -0.258 OA
ENDBRANCH  13  17
ENDBRANCH  10  11
ENDBRANCH   8  10
ENDBRANCH   6   8
ENDBRANCH   4   6
ENDBRANCH   3   4
ENDBRANCH   2   3
ENDBRANCH   1   2
BRANCH   1  20
ATOM     20  O   UNL A   1      32.343  29.177  27.016  1.00  0.00    -0.374 OA
BRANCH  20  21
ATOM     21  C   UNL A   1      31.935  30.284  26.215  1.00  0.00     0.202 C 
BRANCH  21  22
ATOM     22  C   UNL A   1      31.665  31.611  26.935  1.00  0.00     0.261 C 
BRANCH  22  23
ATOM     23  O   UNL A   1      32.663  32.608  26.653  1.00  0.00    -0.460 OA
BRANCH  23  24
ATOM     24  C   UNL A   1      33.187  33.203  27.749  1.00  0.00     0.338 C 
ATOM     25  O   UNL A   1      32.626  34.005  28.491  1.00  0.00    -0.246 OA
BRANCH  24  26
ATOM     26  C   UNL A   1      34.503  32.629  28.076  1.00  0.00     0.060 A 
ATOM     27  C   UNL A   1      34.533  31.312  28.557  1.00  0.00     0.016 A 
ATOM     28  C   UNL A   1      35.669  33.392  28.014  1.00  0.00     0.016 A 
ATOM     29  C   UNL A   1      35.720  30.773  29.045  1.00  0.00     0.010 A 
ATOM     30  C   UNL A   1      36.856  32.852  28.514  1.00  0.00     0.010 A 
ATOM     31  C   UNL A   1      36.876  31.560  29.073  1.00  0.00    -0.014 A 
BRANCH  31  32
ATOM     32  C   UNL A   1      38.062  31.113  29.840  1.00  0.00     0.031 A 
ATOM     33  C   UNL A   1      38.946  30.053  29.241  1.00  0.00     0.074 A 
ATOM     34  C   UNL A   1      38.329  31.618  31.058  1.00  0.00     0.049 A 
ATOM     35  N   UNL A   1      39.950  29.411  29.773  1.00  0.00    -0.248 NA
ATOM     36  C   UNL A   1      38.651  29.662  27.851  1.00  0.00     0.031 C 
ATOM     37  C   UNL A   1      37.561  32.670  31.722  1.00  0.00     0.029 A 
ATOM     38  N   UNL A   1      39.302  31.284  31.966  1.00  0.00    -0.354 N 
ATOM     39  C   UNL A   1      40.381  28.512  28.805  1.00  0.00     0.074 A 
ATOM     40  C   UNL A   1      39.528  28.689  27.651  1.00  0.00     0.031 C 
ATOM     41  C   UNL A   1      38.067  32.867  32.951  1.00  0.00     0.029 A 
ATOM     42  C   UNL A   1      39.167  31.930  33.172  1.00  0.00     0.049 A 
ATOM     43  H   UNL A   1      40.025  30.645  31.772  1.00  0.00     0.167 HD
ATOM     44  C   UNL A   1      41.401  27.624  28.869  1.00  0.00     0.034 A 
ATOM     45  C   UNL A   1      39.831  31.753  34.332  1.00  0.00     0.034 A 
ATOM     46  C   UNL A   1      42.253  27.469  30.015  1.00  0.00     0.049 A 
ATOM     47  C   UNL A   1      40.934  30.727  34.393  1.00  0.00     0.074 A 
ATOM     48  C   UNL A   1      43.332  26.619  30.178  1.00  0.00     0.029 A 
ATOM     49  N   UNL A   1      42.117  28.177  31.200  1.00  0.00    -0.354 N 
ATOM     50  N   UNL A   1      41.382  29.938  33.446  1.00  0.00    -0.248 NA
ATOM     51  C   UNL A   1      41.642  30.583  35.675  1.00  0.00     0.031 C 
ATOM     52  C   UNL A   1      43.830  26.793  31.472  1.00  0.00     0.029 A 
ATOM     53  C   UNL A   1      43.088  27.780  32.100  1.00  0.00     0.049 A 
ATOM     54  H   UNL A   1      41.430  28.860  31.374  1.00  0.00     0.167 HD
ATOM     55  C   UNL A   1      42.455  29.246  33.999  1.00  0.00     0.074 A 
ATOM     56  C   UNL A   1      42.591  29.710  35.364  1.00  0.00     0.031 C 
ATOM     57  C   UNL A   1      43.253  28.309  33.430  1.00  0.00     0.034 A 
BRANCH  44  58
ATOM     58  C   UNL A   1      41.662  26.762  27.662  1.00  0.00     0.023 A 
ATOM     59  C   UNL A   1      42.317  27.308  26.540  1.00  0.00     0.012 A 
ATOM     60  C   UNL A   1      41.308  25.398  27.659  1.00  0.00     0.148 A 
ATOM     61  C   UNL A   1      42.588  26.520  25.422  1.00  0.00     0.002 A 
ATOM     62  C   UNL A   1      41.621  24.607  26.561  1.00  0.00     0.091 A 
ATOM     63  F   UNL A   1      40.667  24.902  28.727  1.00  0.00    -0.205 F 
ATOM     64  C   UNL A   1      42.250  25.168  25.437  1.00  0.00     0.022 A 
BRANCH  62  65
ATOM     65  S   UNL A   1      41.297  22.841  26.512  1.00  0.00     0.127 S 
ATOM     66  O   UNL A   1      39.876  22.811  26.169  1.00  0.00    -0.237 OA
ATOM     67  O   UNL A   1      42.192  22.394  25.445  1.00  0.00    -0.237 OA
ATOM     68  O   UNL A   1      41.629  22.334  27.836  1.00  0.00    -0.744 OA
ENDBRANCH  62  65
ENDBRANCH  44  58
BRANCH  45  69
ATOM     69  C   UNL A   1      39.491  32.579  35.525  1.00  0.00     0.023 A 
ATOM     70  C   UNL A   1      40.002  33.888  35.629  1.00  0.00     0.012 A 
ATOM     71  C   UNL A   1      38.660  32.083  36.549  1.00  0.00     0.148 A 
ATOM     72  C   UNL A   1      39.723  34.674  36.748  1.00  0.00     0.002 A 
ATOM     73  C   UNL A   1      38.342  32.892  37.635  1.00  0.00     0.091 A 
ATOM     74  F   UNL A   1      38.195  30.832  36.440  1.00  0.00    -0.205 F 
ATOM     75  C   UNL A   1      38.887  34.181  37.745  1.00  0.00     0.022 A 
BRANCH  73  76
ATOM     76  S   UNL A   1      37.177  32.387  38.906  1.00  0.00     0.127 S 
ATOM     77  O   UNL A   1      37.459  30.959  39.019  1.00  0.00    -0.237 OA
ATOM     78  O   UNL A   1      37.610  33.194  40.048  1.00  0.00    -0.237 OA
ATOM     79  O   UNL A   1      35.859  32.733  38.393  1.00  0.00    -0.744 OA
ENDBRANCH  73  76
ENDBRANCH  45  69
BRANCH  57  80
ATOM     80  C   UNL A   1      44.401  27.769  34.240  1.00  0.00     0.023 A 
ATOM     81  C   UNL A   1      45.617  28.475  34.307  1.00  0.00     0.012 A 
ATOM     82  C   UNL A   1      44.222  26.617  35.033  1.00  0.00     0.148 A 
ATOM     83  C   UNL A   1      46.645  28.032  35.139  1.00  0.00     0.002 A 
ATOM     84  C   UNL A   1      45.229  26.211  35.897  1.00  0.00     0.091 A 
ATOM     85  F   UNL A   1      43.060  25.953  34.940  1.00  0.00    -0.205 F 
ATOM     86  C   UNL A   1      46.446  26.911  35.944  1.00  0.00     0.022 A 
BRANCH  84  87
ATOM     87  S   UNL A   1      45.025  24.846  37.047  1.00  0.00     0.127 S 
ATOM     88  O   UNL A   1      46.245  24.946  37.846  1.00  0.00    -0.237 OA
ATOM     89  O   UNL A   1      43.800  25.218  37.753  1.00  0.00    -0.237 OA
ATOM     90  O   UNL A   1      44.916  23.644  36.231  1.00  0.00    -0.744 OA
ENDBRANCH  84  87
ENDBRANCH  57  80
ENDBRANCH  31  32
ENDBRANCH  24  26
ENDBRANCH  23  24
ENDBRANCH  22  23
ENDBRANCH  21  22
ENDBRANCH  20  21
ENDBRANCH   1  20
TORSDOF 21
ENDMDL
