MODEL 1
REMARK VINA RESULT:     -11.5      0.000      0.000
REMARK SMILES O=C(OCCOCCOC(=O)[C@H]1C[C@](O)(c2ccccc2Cl)[C@@H](c2ccccc2Cl)O1)c1ccc(-c2c3nc(c(-c4cccc(S(=O)(=O)[O-])c4F)c4ccc([nH]4)c(-c4cccc(S(=O)(=O)[O-])c4F)c4nc(c(-c5cccc(S(=O)(=O)[O-])c5F)c5ccc2[nH]5)C=C4)C=C3)cc1
REMARK SMILES IDX 5 1 4 2 3 3 2 4 1 5 32 6 33 7 94 8 34 9 93 10 35 11 36 12
REMARK SMILES IDX 37 13 87 14 38 15 92 16 86 17 88 18 39 19 91 20 85 21 84 22
REMARK SMILES IDX 40 24 72 25 52 26 71 27 53 28 56 29 70 30 89 31 54 32 55 33
REMARK SMILES IDX 69 35 90 36 57 37 41 38 42 39 50 40 43 41 45 42 51 43 44 44
REMARK SMILES IDX 46 45 47 46 48 47 49 48 73 49 74 50 82 51 75 52 77 53 83 54
REMARK SMILES IDX 76 55 78 56 79 57 80 58 81 59 58 60 59 61 67 62 60 63 62 64
REMARK SMILES IDX 68 65 61 66 63 67 64 68 65 69 66 70 6 71 7 72 8 73 9 74
REMARK SMILES IDX 10 75 11 76 12 77 13 78 31 79 14 80 23 81 16 82 17 83 21 84
REMARK SMILES IDX 18 85 20 86 22 87 19 88 15 89 24 91 25 92 29 93 26 94 28 95
REMARK SMILES IDX 30 96 27 97
REMARK H PARENT 88 23 56 34 15 90
REMARK Flexibility Score: inf
ROOT
ATOM      1  C   UNL A   1      32.094  28.127  25.225  1.00  0.00     0.202 C 
ENDROOT
BRANCH   1   2
ATOM      2  C   UNL A   1      31.804  29.627  25.360  1.00  0.00     0.261 C 
BRANCH   2   3
ATOM      3  O   UNL A   1      32.999  30.367  25.636  1.00  0.00    -0.460 OA
BRANCH   3   4
ATOM      4  C   UNL A   1      33.295  31.030  26.780  1.00  0.00     0.338 C 
ATOM      5  O   UNL A   1      32.520  31.901  27.172  1.00  0.00    -0.246 OA
BRANCH   4   6
ATOM      6  C   UNL A   1      34.512  30.743  27.599  1.00  0.00     0.060 A 
ATOM      7  C   UNL A   1      34.825  29.501  28.160  1.00  0.00     0.016 A 
ATOM      8  C   UNL A   1      35.450  31.778  27.725  1.00  0.00     0.016 A 
ATOM      9  C   UNL A   1      35.994  29.287  28.860  1.00  0.00     0.010 A 
ATOM     10  C   UNL A   1      36.657  31.563  28.393  1.00  0.00     0.010 A 
ATOM     11  C   UNL A   1      36.923  30.311  28.959  1.00  0.00    -0.014 A 
BRANCH  11  12
ATOM     12  C   UNL A   1      38.145  30.030  29.717  1.00  0.00     0.031 A 
ATOM     13  C   UNL A   1      39.167  29.138  29.100  1.00  0.00     0.074 A 
ATOM     14  C   UNL A   1      38.341  30.661  30.888  1.00  0.00     0.049 A 
ATOM     15  N   UNL A   1      40.275  28.690  29.612  1.00  0.00    -0.248 NA
ATOM     16  C   UNL A   1      38.916  28.701  27.714  1.00  0.00     0.031 C 
ATOM     17  C   UNL A   1      37.421  31.636  31.487  1.00  0.00     0.029 A 
ATOM     18  N   UNL A   1      39.366  30.577  31.787  1.00  0.00    -0.354 N 
ATOM     19  C   UNL A   1      40.819  27.859  28.644  1.00  0.00     0.074 A 
ATOM     20  C   UNL A   1      39.947  27.898  27.494  1.00  0.00     0.031 C 
ATOM     21  C   UNL A   1      37.913  32.036  32.669  1.00  0.00     0.029 A 
ATOM     22  C   UNL A   1      39.134  31.290  32.940  1.00  0.00     0.049 A 
ATOM     23  H   UNL A   1      40.188  30.060  31.626  1.00  0.00     0.167 HD
ATOM     24  C   UNL A   1      41.939  27.113  28.738  1.00  0.00     0.034 A 
ATOM     25  C   UNL A   1      39.805  31.274  34.107  1.00  0.00     0.034 A 
ATOM     26  C   UNL A   1      42.781  27.113  29.900  1.00  0.00     0.049 A 
ATOM     27  C   UNL A   1      41.014  30.382  34.196  1.00  0.00     0.074 A 
ATOM     28  C   UNL A   1      43.947  26.407  30.118  1.00  0.00     0.029 A 
ATOM     29  N   UNL A   1      42.524  27.843  31.053  1.00  0.00    -0.354 N 
ATOM     30  N   UNL A   1      41.560  29.640  33.260  1.00  0.00    -0.248 NA
ATOM     31  C   UNL A   1      41.703  30.326  35.490  1.00  0.00     0.031 C 
ATOM     32  C   UNL A   1      44.370  26.674  31.423  1.00  0.00     0.029 A 
ATOM     33  C   UNL A   1      43.493  27.582  32.001  1.00  0.00     0.049 A 
ATOM     34  H   UNL A   1      41.764  28.457  31.176  1.00  0.00     0.167 HD
ATOM     35  C   UNL A   1      42.665  29.040  33.846  1.00  0.00     0.074 A 
ATOM     36  C   UNL A   1      42.732  29.539  35.207  1.00  0.00     0.031 C 
ATOM     37  C   UNL A   1      43.537  28.142  33.328  1.00  0.00     0.034 A 
BRANCH  24  38
ATOM     38  C   UNL A   1      42.270  26.198  27.597  1.00  0.00     0.023 A 
ATOM     39  C   UNL A   1      42.884  26.696  26.431  1.00  0.00     0.012 A 
ATOM     40  C   UNL A   1      42.000  24.821  27.708  1.00  0.00     0.148 A 
ATOM     41  C   UNL A   1      43.209  25.833  25.383  1.00  0.00     0.002 A 
ATOM     42  C   UNL A   1      42.367  23.962  26.681  1.00  0.00     0.091 A 
ATOM     43  F   UNL A   1      41.384  24.380  28.815  1.00  0.00    -0.205 F 
ATOM     44  C   UNL A   1      42.962  24.467  25.514  1.00  0.00     0.022 A 
BRANCH  42  45
ATOM     45  S   UNL A   1      42.153  22.184  26.784  1.00  0.00     0.127 S 
ATOM     46  O   UNL A   1      42.125  21.807  25.370  1.00  0.00    -0.237 OA
ATOM     47  O   UNL A   1      43.360  21.776  27.501  1.00  0.00    -0.237 OA
ATOM     48  O   UNL A   1      40.905  21.965  27.502  1.00  0.00    -0.744 OA
ENDBRANCH  42  45
ENDBRANCH  24  38
BRANCH  25  49
ATOM     49  C   UNL A   1      39.321  32.055  35.281  1.00  0.00     0.023 A 
ATOM     50  C   UNL A   1      38.331  31.516  36.123  1.00  0.00     0.012 A 
ATOM     51  C   UNL A   1      39.821  33.344  35.555  1.00  0.00     0.148 A 
ATOM     52  C   UNL A   1      37.814  32.264  37.184  1.00  0.00     0.002 A 
ATOM     53  C   UNL A   1      39.347  34.059  36.648  1.00  0.00     0.091 A 
ATOM     54  F   UNL A   1      40.750  33.857  34.734  1.00  0.00    -0.205 F 
ATOM     55  C   UNL A   1      38.328  33.530  37.452  1.00  0.00     0.022 A 
BRANCH  53  56
ATOM     56  S   UNL A   1      40.043  35.644  37.132  1.00  0.00     0.127 S 
ATOM     57  O   UNL A   1      39.645  36.497  36.016  1.00  0.00    -0.237 OA
ATOM     58  O   UNL A   1      39.347  35.910  38.391  1.00  0.00    -0.237 OA
ATOM     59  O   UNL A   1      41.474  35.412  37.279  1.00  0.00    -0.744 OA
ENDBRANCH  53  56
ENDBRANCH  25  49
BRANCH  37  60
ATOM     60  C   UNL A   1      44.644  27.667  34.224  1.00  0.00     0.023 A 
ATOM     61  C   UNL A   1      45.831  28.418  34.328  1.00  0.00     0.012 A 
ATOM     62  C   UNL A   1      44.464  26.529  35.032  1.00  0.00     0.148 A 
ATOM     63  C   UNL A   1      46.837  28.024  35.205  1.00  0.00     0.002 A 
ATOM     64  C   UNL A   1      45.445  26.177  35.946  1.00  0.00     0.091 A 
ATOM     65  F   UNL A   1      43.329  25.825  34.900  1.00  0.00    -0.205 F 
ATOM     66  C   UNL A   1      46.638  26.915  36.024  1.00  0.00     0.022 A 
BRANCH  64  67
ATOM     67  S   UNL A   1      45.228  24.835  37.117  1.00  0.00     0.127 S 
ATOM     68  O   UNL A   1      46.613  24.518  37.464  1.00  0.00    -0.237 OA
ATOM     69  O   UNL A   1      44.463  25.479  38.184  1.00  0.00    -0.237 OA
ATOM     70  O   UNL A   1      44.512  23.787  36.404  1.00  0.00    -0.744 OA
ENDBRANCH  64  67
ENDBRANCH  37  60
ENDBRANCH  11  12
ENDBRANCH   4   6
ENDBRANCH   3   4
ENDBRANCH   2   3
ENDBRANCH   1   2
BRANCH   1  71
ATOM     71  O   UNL A   1      32.922  27.734  24.124  1.00  0.00    -0.374 OA
BRANCH  71  72
ATOM     72  C   UNL A   1      33.140  26.326  23.970  1.00  0.00     0.202 C 
BRANCH  72  73
ATOM     73  C   UNL A   1      33.307  25.673  25.338  1.00  0.00     0.261 C 
BRANCH  73  74
ATOM     74  O   UNL A   1      32.686  24.384  25.257  1.00  0.00    -0.461 OA
BRANCH  74  75
ATOM     75  C   UNL A   1      32.191  23.965  26.455  1.00  0.00     0.335 C 
ATOM     76  O   UNL A   1      31.601  24.695  27.245  1.00  0.00    -0.249 OA
BRANCH  75  77
ATOM     77  C   UNL A   1      32.491  22.477  26.651  1.00  0.00     0.232 C 
ATOM     78  C   UNL A   1      32.206  21.712  25.396  1.00  0.00     0.087 C 
ATOM     79  O   UNL A   1      33.796  22.140  27.079  1.00  0.00    -0.355 OA
ATOM     80  C   UNL A   1      33.563  21.228  24.834  1.00  0.00     0.124 C 
ATOM     81  C   UNL A   1      34.544  21.463  26.042  1.00  0.00     0.187 C 
BRANCH  80  82
ATOM     82  C   UNL A   1      33.198  19.862  24.208  1.00  0.00     0.005 A 
ATOM     83  C   UNL A   1      33.777  18.732  24.867  1.00  0.00     0.008 A 
ATOM     84  C   UNL A   1      32.532  19.585  23.004  1.00  0.00     0.047 A 
ATOM     85  C   UNL A   1      33.755  17.441  24.337  1.00  0.00     0.001 A 
ATOM     86  C   UNL A   1      32.483  18.272  22.491  1.00  0.00     0.021 A 
ATOM     87  Cl  UNL A   1      31.760  20.743  21.995  1.00  0.00    -0.084 Cl
ATOM     88  C   UNL A   1      33.105  17.210  23.140  1.00  0.00     0.002 A 
ENDBRANCH  80  82
BRANCH  80  89
ATOM     89  O   UNL A   1      33.884  22.092  23.731  1.00  0.00    -0.382 OA
ATOM     90  H   UNL A   1      34.165  22.956  24.068  1.00  0.00     0.212 HD
ENDBRANCH  80  89
BRANCH  81  91
ATOM     91  C   UNL A   1      35.824  22.298  25.906  1.00  0.00     0.003 A 
ATOM     92  C   UNL A   1      35.824  23.648  26.314  1.00  0.00     0.008 A 
ATOM     93  C   UNL A   1      37.076  21.755  25.562  1.00  0.00     0.046 A 
ATOM     94  C   UNL A   1      37.000  24.389  26.471  1.00  0.00     0.000 A 
ATOM     95  C   UNL A   1      38.260  22.505  25.701  1.00  0.00     0.021 A 
ATOM     96  Cl  UNL A   1      37.268  20.148  24.964  1.00  0.00    -0.084 Cl
ATOM     97  C   UNL A   1      38.224  23.811  26.182  1.00  0.00     0.002 A 
ENDBRANCH  81  91
ENDBRANCH  75  77
ENDBRANCH  74  75
ENDBRANCH  73  74
ENDBRANCH  72  73
ENDBRANCH  71  72
ENDBRANCH   1  71
TORSDOF 20
ENDMDL
MODEL 2
REMARK VINA RESULT:     -11.5      1.440      2.765
REMARK SMILES O=C(OCCOCCOC(=O)[C@H]1C[C@](O)(c2ccccc2Cl)[C@@H](c2ccccc2Cl)O1)c1ccc(-c2c3nc(c(-c4cccc(S(=O)(=O)[O-])c4F)c4ccc([nH]4)c(-c4cccc(S(=O)(=O)[O-])c4F)c4nc(c(-c5cccc(S(=O)(=O)[O-])c5F)c5ccc2[nH]5)C=C4)C=C3)cc1
REMARK SMILES IDX 5 1 4 2 3 3 2 4 1 5 32 6 33 7 94 8 34 9 93 10 35 11 36 12
REMARK SMILES IDX 37 13 87 14 38 15 92 16 86 17 88 18 39 19 91 20 85 21 84 22
REMARK SMILES IDX 40 24 72 25 52 26 71 27 53 28 56 29 70 30 89 31 54 32 55 33
REMARK SMILES IDX 69 35 90 36 57 37 41 38 42 39 50 40 43 41 45 42 51 43 44 44
REMARK SMILES IDX 46 45 47 46 48 47 49 48 73 49 74 50 82 51 75 52 77 53 83 54
REMARK SMILES IDX 76 55 78 56 79 57 80 58 81 59 58 60 59 61 67 62 60 63 62 64
REMARK SMILES IDX 68 65 61 66 63 67 64 68 65 69 66 70 6 71 7 72 8 73 9 74
REMARK SMILES IDX 10 75 11 76 12 77 13 78 31 79 14 80 23 81 16 82 17 83 21 84
REMARK SMILES IDX 18 85 20 86 22 87 19 88 15 89 24 91 25 92 29 93 26 94 28 95
REMARK SMILES IDX 30 96 27 97
REMARK H PARENT 88 23 56 34 15 90
REMARK Flexibility Score: inf
ROOT
ATOM      1  C   UNL A   1      31.624  28.707  24.946  1.00  0.00     0.202 C 
ENDROOT
BRANCH   1   2
ATOM      2  C   UNL A   1      31.690  29.716  26.099  1.00  0.00     0.261 C 
BRANCH   2   3
ATOM      3  O   UNL A   1      32.851  30.549  26.000  1.00  0.00    -0.460 OA
BRANCH   3   4
ATOM      4  C   UNL A   1      33.346  31.367  26.960  1.00  0.00     0.338 C 
ATOM      5  O   UNL A   1      32.755  32.420  27.195  1.00  0.00    -0.246 OA
BRANCH   4   6
ATOM      6  C   UNL A   1      34.566  31.045  27.759  1.00  0.00     0.060 A 
ATOM      7  C   UNL A   1      34.860  29.790  28.301  1.00  0.00     0.016 A 
ATOM      8  C   UNL A   1      35.527  32.059  27.886  1.00  0.00     0.016 A 
ATOM      9  C   UNL A   1      36.033  29.543  28.983  1.00  0.00     0.010 A 
ATOM     10  C   UNL A   1      36.738  31.809  28.537  1.00  0.00     0.010 A 
ATOM     11  C   UNL A   1      36.984  30.545  29.084  1.00  0.00    -0.014 A 
BRANCH  11  12
ATOM     12  C   UNL A   1      38.210  30.230  29.822  1.00  0.00     0.031 A 
ATOM     13  C   UNL A   1      39.227  29.365  29.161  1.00  0.00     0.074 A 
ATOM     14  C   UNL A   1      38.411  30.807  31.020  1.00  0.00     0.049 A 
ATOM     15  N   UNL A   1      40.338  28.894  29.647  1.00  0.00    -0.248 NA
ATOM     16  C   UNL A   1      38.970  28.992  27.757  1.00  0.00     0.031 C 
ATOM     17  C   UNL A   1      37.495  31.754  31.666  1.00  0.00     0.029 A 
ATOM     18  N   UNL A   1      39.441  30.682  31.909  1.00  0.00    -0.354 N 
ATOM     19  C   UNL A   1      40.876  28.107  28.640  1.00  0.00     0.074 A 
ATOM     20  C   UNL A   1      39.998  28.198  27.497  1.00  0.00     0.031 C 
ATOM     21  C   UNL A   1      37.993  32.101  32.863  1.00  0.00     0.029 A 
ATOM     22  C   UNL A   1      39.214  31.343  33.094  1.00  0.00     0.049 A 
ATOM     23  H   UNL A   1      40.261  30.172  31.721  1.00  0.00     0.167 HD
ATOM     24  C   UNL A   1      41.996  27.357  28.696  1.00  0.00     0.034 A 
ATOM     25  C   UNL A   1      39.891  31.273  34.256  1.00  0.00     0.034 A 
ATOM     26  C   UNL A   1      42.843  27.303  29.852  1.00  0.00     0.049 A 
ATOM     27  C   UNL A   1      41.099  30.377  34.299  1.00  0.00     0.074 A 
ATOM     28  C   UNL A   1      44.009  26.588  30.032  1.00  0.00     0.029 A 
ATOM     29  N   UNL A   1      42.592  27.981  31.038  1.00  0.00    -0.354 N 
ATOM     30  N   UNL A   1      41.640  29.677  33.329  1.00  0.00    -0.248 NA
ATOM     31  C   UNL A   1      41.795  30.262  35.586  1.00  0.00     0.031 C 
ATOM     32  C   UNL A   1      44.439  26.795  31.347  1.00  0.00     0.029 A 
ATOM     33  C   UNL A   1      43.565  27.677  31.969  1.00  0.00     0.049 A 
ATOM     34  H   UNL A   1      41.834  28.589  31.192  1.00  0.00     0.167 HD
ATOM     35  C   UNL A   1      42.747  29.051  33.882  1.00  0.00     0.074 A 
ATOM     36  C   UNL A   1      42.821  29.488  35.264  1.00  0.00     0.031 C 
ATOM     37  C   UNL A   1      43.616  28.176  33.319  1.00  0.00     0.034 A 
BRANCH  24  38
ATOM     38  C   UNL A   1      42.321  26.494  27.512  1.00  0.00     0.023 A 
ATOM     39  C   UNL A   1      43.036  27.015  26.417  1.00  0.00     0.012 A 
ATOM     40  C   UNL A   1      41.941  25.138  27.514  1.00  0.00     0.148 A 
ATOM     41  C   UNL A   1      43.354  26.198  25.331  1.00  0.00     0.002 A 
ATOM     42  C   UNL A   1      42.299  24.321  26.451  1.00  0.00     0.091 A 
ATOM     43  F   UNL A   1      41.231  24.678  28.555  1.00  0.00    -0.205 F 
ATOM     44  C   UNL A   1      42.996  24.852  25.354  1.00  0.00     0.022 A 
BRANCH  42  45
ATOM     45  S   UNL A   1      41.944  22.563  26.420  1.00  0.00     0.127 S 
ATOM     46  O   UNL A   1      40.481  22.555  26.469  1.00  0.00    -0.237 OA
ATOM     47  O   UNL A   1      42.514  22.163  25.133  1.00  0.00    -0.237 OA
ATOM     48  O   UNL A   1      42.601  21.994  27.588  1.00  0.00    -0.744 OA
ENDBRANCH  42  45
ENDBRANCH  24  38
BRANCH  25  49
ATOM     49  C   UNL A   1      39.413  32.000  35.467  1.00  0.00     0.023 A 
ATOM     50  C   UNL A   1      38.491  31.388  36.336  1.00  0.00     0.012 A 
ATOM     51  C   UNL A   1      39.850  33.311  35.749  1.00  0.00     0.148 A 
ATOM     52  C   UNL A   1      37.978  32.083  37.434  1.00  0.00     0.002 A 
ATOM     53  C   UNL A   1      39.383  33.975  36.877  1.00  0.00     0.091 A 
ATOM     54  F   UNL A   1      40.712  33.893  34.903  1.00  0.00    -0.205 F 
ATOM     55  C   UNL A   1      38.430  33.372  37.709  1.00  0.00     0.022 A 
BRANCH  53  56
ATOM     56  S   UNL A   1      40.007  35.586  37.367  1.00  0.00     0.127 S 
ATOM     57  O   UNL A   1      39.366  35.772  38.666  1.00  0.00    -0.237 OA
ATOM     58  O   UNL A   1      41.450  35.351  37.419  1.00  0.00    -0.237 OA
ATOM     59  O   UNL A   1      39.589  36.503  36.314  1.00  0.00    -0.744 OA
ENDBRANCH  53  56
ENDBRANCH  25  49
BRANCH  37  60
ATOM     60  C   UNL A   1      44.727  27.661  34.188  1.00  0.00     0.023 A 
ATOM     61  C   UNL A   1      45.914  28.405  34.320  1.00  0.00     0.012 A 
ATOM     62  C   UNL A   1      44.549  26.487  34.944  1.00  0.00     0.148 A 
ATOM     63  C   UNL A   1      46.924  27.971  35.175  1.00  0.00     0.002 A 
ATOM     64  C   UNL A   1      45.534  26.093  35.837  1.00  0.00     0.091 A 
ATOM     65  F   UNL A   1      43.413  25.790  34.785  1.00  0.00    -0.205 F 
ATOM     66  C   UNL A   1      46.728  26.826  35.943  1.00  0.00     0.022 A 
BRANCH  64  67
ATOM     67  S   UNL A   1      45.321  24.700  36.947  1.00  0.00     0.127 S 
ATOM     68  O   UNL A   1      46.600  24.689  37.658  1.00  0.00    -0.237 OA
ATOM     69  O   UNL A   1      44.176  25.121  37.754  1.00  0.00    -0.237 OA
ATOM     70  O   UNL A   1      45.074  23.541  36.100  1.00  0.00    -0.744 OA
ENDBRANCH  64  67
ENDBRANCH  37  60
ENDBRANCH  11  12
ENDBRANCH   4   6
ENDBRANCH   3   4
ENDBRANCH   2   3
ENDBRANCH   1   2
BRANCH   1  71
ATOM     71  O   UNL A   1      32.600  28.861  23.907  1.00  0.00    -0.374 OA
BRANCH  71  72
ATOM     72  C   UNL A   1      33.380  27.699  23.597  1.00  0.00     0.202 C 
BRANCH  72  73
ATOM     73  C   UNL A   1      32.886  27.075  22.297  1.00  0.00     0.261 C 
BRANCH  73  74
ATOM     74  O   UNL A   1      33.751  25.966  22.020  1.00  0.00    -0.461 OA
BRANCH  74  75
ATOM     75  C   UNL A   1      33.217  25.100  21.113  1.00  0.00     0.335 C 
ATOM     76  O   UNL A   1      32.816  25.434  20.003  1.00  0.00    -0.249 OA
BRANCH  75  77
ATOM     77  C   UNL A   1      33.198  23.684  21.693  1.00  0.00     0.232 C 
ATOM     78  C   UNL A   1      34.462  23.404  22.445  1.00  0.00     0.087 C 
ATOM     79  O   UNL A   1      32.110  23.353  22.533  1.00  0.00    -0.355 OA
ATOM     80  C   UNL A   1      34.093  23.304  23.943  1.00  0.00     0.124 C 
ATOM     81  C   UNL A   1      32.525  23.185  23.909  1.00  0.00     0.187 C 
BRANCH  80  82
ATOM     82  C   UNL A   1      35.079  22.231  24.460  1.00  0.00     0.005 A 
ATOM     83  C   UNL A   1      36.454  22.620  24.425  1.00  0.00     0.008 A 
ATOM     84  C   UNL A   1      34.837  20.889  24.794  1.00  0.00     0.047 A 
ATOM     85  C   UNL A   1      37.509  21.730  24.637  1.00  0.00     0.001 A 
ATOM     86  C   UNL A   1      35.906  20.002  25.041  1.00  0.00     0.021 A 
ATOM     87  Cl  UNL A   1      33.292  20.143  24.897  1.00  0.00    -0.084 Cl
ATOM     88  C   UNL A   1      37.232  20.412  24.945  1.00  0.00     0.002 A 
ENDBRANCH  80  82
BRANCH  80  89
ATOM     89  O   UNL A   1      34.505  24.540  24.552  1.00  0.00    -0.382 OA
ATOM     90  H   UNL A   1      33.766  24.915  25.055  1.00  0.00     0.212 HD
ENDBRANCH  80  89
BRANCH  81  91
ATOM     91  C   UNL A   1      31.614  24.142  24.689  1.00  0.00     0.003 A 
ATOM     92  C   UNL A   1      30.775  25.034  23.988  1.00  0.00     0.008 A 
ATOM     93  C   UNL A   1      31.416  24.071  26.081  1.00  0.00     0.046 A 
ATOM     94  C   UNL A   1      29.738  25.738  24.608  1.00  0.00     0.000 A 
ATOM     95  C   UNL A   1      30.385  24.794  26.709  1.00  0.00     0.021 A 
ATOM     96  Cl  UNL A   1      32.395  23.099  27.116  1.00  0.00    -0.084 Cl
ATOM     97  C   UNL A   1      29.529  25.604  25.970  1.00  0.00     0.002 A 
ENDBRANCH  81  91
ENDBRANCH  75  77
ENDBRANCH  74  75
ENDBRANCH  73  74
ENDBRANCH  72  73
ENDBRANCH  71  72
ENDBRANCH   1  71
TORSDOF 20
ENDMDL
MODEL 3
REMARK VINA RESULT:     -11.4      2.828      8.114
REMARK SMILES O=C(OCCOCCOC(=O)[C@H]1C[C@](O)(c2ccccc2Cl)[C@@H](c2ccccc2Cl)O1)c1ccc(-c2c3nc(c(-c4cccc(S(=O)(=O)[O-])c4F)c4ccc([nH]4)c(-c4cccc(S(=O)(=O)[O-])c4F)c4nc(c(-c5cccc(S(=O)(=O)[O-])c5F)c5ccc2[nH]5)C=C4)C=C3)cc1
REMARK SMILES IDX 5 1 4 2 3 3 2 4 1 5 32 6 33 7 94 8 34 9 93 10 35 11 36 12
REMARK SMILES IDX 37 13 87 14 38 15 92 16 86 17 88 18 39 19 91 20 85 21 84 22
REMARK SMILES IDX 40 24 72 25 52 26 71 27 53 28 56 29 70 30 89 31 54 32 55 33
REMARK SMILES IDX 69 35 90 36 57 37 41 38 42 39 50 40 43 41 45 42 51 43 44 44
REMARK SMILES IDX 46 45 47 46 48 47 49 48 73 49 74 50 82 51 75 52 77 53 83 54
REMARK SMILES IDX 76 55 78 56 79 57 80 58 81 59 58 60 59 61 67 62 60 63 62 64
REMARK SMILES IDX 68 65 61 66 63 67 64 68 65 69 66 70 6 71 7 72 8 73 9 74
REMARK SMILES IDX 10 75 11 76 12 77 13 78 31 79 14 80 23 81 16 82 17 83 21 84
REMARK SMILES IDX 18 85 20 86 22 87 19 88 15 89 24 91 25 92 29 93 26 94 28 95
REMARK SMILES IDX 30 96 27 97
REMARK H PARENT 88 23 56 34 15 90
REMARK Flexibility Score: inf
ROOT
ATOM      1  C   UNL A   1      32.103  28.303  26.530  1.00  0.00     0.202 C 
ENDROOT
BRANCH   1   2
ATOM      2  C   UNL A   1      33.536  28.850  26.557  1.00  0.00     0.261 C 
BRANCH   2   3
ATOM      3  O   UNL A   1      33.681  29.886  27.536  1.00  0.00    -0.460 OA
BRANCH   3   4
ATOM      4  C   UNL A   1      34.778  30.653  27.746  1.00  0.00     0.338 C 
ATOM      5  O   UNL A   1      34.685  31.868  27.583  1.00  0.00    -0.246 OA
BRANCH   4   6
ATOM      6  C   UNL A   1      36.094  30.095  28.183  1.00  0.00     0.060 A 
ATOM      7  C   UNL A   1      37.290  30.214  27.469  1.00  0.00     0.016 A 
ATOM      8  C   UNL A   1      36.139  29.495  29.450  1.00  0.00     0.016 A 
ATOM      9  C   UNL A   1      38.484  29.723  27.954  1.00  0.00     0.010 A 
ATOM     10  C   UNL A   1      37.349  29.033  29.972  1.00  0.00     0.010 A 
ATOM     11  C   UNL A   1      38.521  29.151  29.216  1.00  0.00    -0.014 A 
BRANCH  11  12
ATOM     12  C   UNL A   1      39.814  28.644  29.681  1.00  0.00     0.031 A 
ATOM     13  C   UNL A   1      40.490  29.358  30.800  1.00  0.00     0.074 A 
ATOM     14  C   UNL A   1      40.293  27.505  29.149  1.00  0.00     0.049 A 
ATOM     15  N   UNL A   1      41.664  29.140  31.317  1.00  0.00    -0.248 NA
ATOM     16  C   UNL A   1      39.739  30.457  31.436  1.00  0.00     0.031 C 
ATOM     17  C   UNL A   1      39.614  26.701  28.125  1.00  0.00     0.029 A 
ATOM     18  N   UNL A   1      41.456  26.829  29.385  1.00  0.00    -0.354 N 
ATOM     19  C   UNL A   1      41.827  30.119  32.285  1.00  0.00     0.074 A 
ATOM     20  C   UNL A   1      40.616  30.905  32.322  1.00  0.00     0.031 C 
ATOM     21  C   UNL A   1      40.391  25.655  27.802  1.00  0.00     0.029 A 
ATOM     22  C   UNL A   1      41.643  25.763  28.536  1.00  0.00     0.049 A 
ATOM     23  H   UNL A   1      42.095  27.078  30.091  1.00  0.00     0.167 HD
ATOM     24  C   UNL A   1      42.916  30.342  33.050  1.00  0.00     0.034 A 
ATOM     25  C   UNL A   1      42.742  25.012  28.334  1.00  0.00     0.034 A 
ATOM     26  C   UNL A   1      44.096  29.528  32.986  1.00  0.00     0.049 A 
ATOM     27  C   UNL A   1      43.959  25.331  29.161  1.00  0.00     0.074 A 
ATOM     28  C   UNL A   1      45.263  29.646  33.712  1.00  0.00     0.029 A 
ATOM     29  N   UNL A   1      44.260  28.456  32.119  1.00  0.00    -0.354 N 
ATOM     30  N   UNL A   1      44.093  26.221  30.118  1.00  0.00    -0.248 NA
ATOM     31  C   UNL A   1      45.169  24.547  28.892  1.00  0.00     0.031 C 
ATOM     32  C   UNL A   1      46.154  28.672  33.250  1.00  0.00     0.029 A 
ATOM     33  C   UNL A   1      45.523  27.919  32.268  1.00  0.00     0.049 A 
ATOM     34  H   UNL A   1      43.577  28.127  31.491  1.00  0.00     0.167 HD
ATOM     35  C   UNL A   1      45.396  26.093  30.576  1.00  0.00     0.074 A 
ATOM     36  C   UNL A   1      45.997  25.012  29.817  1.00  0.00     0.031 C 
ATOM     37  C   UNL A   1      46.055  26.812  31.517  1.00  0.00     0.034 A 
BRANCH  24  38
ATOM     38  C   UNL A   1      42.903  31.539  33.956  1.00  0.00     0.023 A 
ATOM     39  C   UNL A   1      43.383  32.785  33.508  1.00  0.00     0.012 A 
ATOM     40  C   UNL A   1      42.369  31.424  35.253  1.00  0.00     0.148 A 
ATOM     41  C   UNL A   1      43.346  33.897  34.349  1.00  0.00     0.002 A 
ATOM     42  C   UNL A   1      42.293  32.544  36.068  1.00  0.00     0.091 A 
ATOM     43  F   UNL A   1      41.950  30.218  35.665  1.00  0.00    -0.205 F 
ATOM     44  C   UNL A   1      42.791  33.779  35.622  1.00  0.00     0.022 A 
BRANCH  42  45
ATOM     45  S   UNL A   1      41.536  32.509  37.694  1.00  0.00     0.127 S 
ATOM     46  O   UNL A   1      42.339  31.490  38.373  1.00  0.00    -0.237 OA
ATOM     47  O   UNL A   1      41.763  33.876  38.162  1.00  0.00    -0.237 OA
ATOM     48  O   UNL A   1      40.140  32.152  37.486  1.00  0.00    -0.744 OA
ENDBRANCH  42  45
ENDBRANCH  24  38
BRANCH  25  49
ATOM     49  C   UNL A   1      42.768  23.958  27.279  1.00  0.00     0.023 A 
ATOM     50  C   UNL A   1      43.304  24.246  26.011  1.00  0.00     0.012 A 
ATOM     51  C   UNL A   1      42.240  22.673  27.521  1.00  0.00     0.148 A 
ATOM     52  C   UNL A   1      43.269  23.293  24.990  1.00  0.00     0.002 A 
ATOM     53  C   UNL A   1      42.263  21.709  26.520  1.00  0.00     0.091 A 
ATOM     54  F   UNL A   1      41.713  22.416  28.727  1.00  0.00    -0.205 F 
ATOM     55  C   UNL A   1      42.757  22.023  25.247  1.00  0.00     0.022 A 
BRANCH  53  56
ATOM     56  S   UNL A   1      41.737  20.016  26.808  1.00  0.00     0.127 S 
ATOM     57  O   UNL A   1      40.543  20.210  27.627  1.00  0.00    -0.237 OA
ATOM     58  O   UNL A   1      41.481  19.541  25.448  1.00  0.00    -0.237 OA
ATOM     59  O   UNL A   1      42.862  19.364  27.466  1.00  0.00    -0.744 OA
ENDBRANCH  53  56
ENDBRANCH  25  49
BRANCH  37  60
ATOM     60  C   UNL A   1      47.482  26.433  31.792  1.00  0.00     0.023 A 
ATOM     61  C   UNL A   1      47.779  25.534  32.834  1.00  0.00     0.012 A 
ATOM     62  C   UNL A   1      48.513  26.897  30.953  1.00  0.00     0.148 A 
ATOM     63  C   UNL A   1      49.091  25.124  33.056  1.00  0.00     0.002 A 
ATOM     64  C   UNL A   1      49.807  26.438  31.143  1.00  0.00     0.091 A 
ATOM     65  F   UNL A   1      48.202  27.765  29.979  1.00  0.00    -0.205 F 
ATOM     66  C   UNL A   1      50.101  25.562  32.203  1.00  0.00     0.022 A 
BRANCH  64  67
ATOM     67  S   UNL A   1      51.148  26.859  30.028  1.00  0.00     0.127 S 
ATOM     68  O   UNL A   1      52.276  26.161  30.644  1.00  0.00    -0.237 OA
ATOM     69  O   UNL A   1      50.689  26.283  28.764  1.00  0.00    -0.237 OA
ATOM     70  O   UNL A   1      51.240  28.312  30.036  1.00  0.00    -0.744 OA
ENDBRANCH  64  67
ENDBRANCH  37  60
ENDBRANCH  11  12
ENDBRANCH   4   6
ENDBRANCH   3   4
ENDBRANCH   2   3
ENDBRANCH   1   2
BRANCH   1  71
ATOM     71  O   UNL A   1      31.792  27.382  25.477  1.00  0.00    -0.374 OA
BRANCH  71  72
ATOM     72  C   UNL A   1      32.884  26.596  24.983  1.00  0.00     0.202 C 
BRANCH  72  73
ATOM     73  C   UNL A   1      32.409  25.178  24.686  1.00  0.00     0.261 C 
BRANCH  73  74
ATOM     74  O   UNL A   1      33.147  24.308  25.554  1.00  0.00    -0.461 OA
BRANCH  74  75
ATOM     75  C   UNL A   1      32.377  23.790  26.553  1.00  0.00     0.335 C 
ATOM     76  O   UNL A   1      31.605  24.454  27.236  1.00  0.00    -0.249 OA
BRANCH  75  77
ATOM     77  C   UNL A   1      32.633  22.287  26.681  1.00  0.00     0.232 C 
ATOM     78  C   UNL A   1      32.294  21.582  25.405  1.00  0.00     0.087 C 
ATOM     79  O   UNL A   1      33.936  21.891  27.063  1.00  0.00    -0.355 OA
ATOM     80  C   UNL A   1      33.621  21.079  24.790  1.00  0.00     0.124 C 
ATOM     81  C   UNL A   1      34.637  21.234  25.981  1.00  0.00     0.187 C 
BRANCH  80  82
ATOM     82  C   UNL A   1      33.198  19.752  24.119  1.00  0.00     0.005 A 
ATOM     83  C   UNL A   1      33.740  18.577  24.728  1.00  0.00     0.008 A 
ATOM     84  C   UNL A   1      32.507  19.545  22.914  1.00  0.00     0.047 A 
ATOM     85  C   UNL A   1      33.664  17.309  24.152  1.00  0.00     0.001 A 
ATOM     86  C   UNL A   1      32.402  18.255  22.355  1.00  0.00     0.021 A 
ATOM     87  Cl  UNL A   1      31.768  20.767  21.959  1.00  0.00    -0.084 Cl
ATOM     88  C   UNL A   1      32.992  17.147  22.956  1.00  0.00     0.002 A 
ENDBRANCH  80  82
BRANCH  80  89
ATOM     89  O   UNL A   1      33.944  21.977  23.714  1.00  0.00    -0.382 OA
ATOM     90  H   UNL A   1      34.634  21.582  23.160  1.00  0.00     0.212 HD
ENDBRANCH  80  89
BRANCH  81  91
ATOM     91  C   UNL A   1      35.940  22.033  25.847  1.00  0.00     0.003 A 
ATOM     92  C   UNL A   1      35.980  23.379  26.266  1.00  0.00     0.008 A 
ATOM     93  C   UNL A   1      37.175  21.458  25.495  1.00  0.00     0.046 A 
ATOM     94  C   UNL A   1      37.177  24.085  26.423  1.00  0.00     0.000 A 
ATOM     95  C   UNL A   1      38.380  22.172  25.636  1.00  0.00     0.021 A 
ATOM     96  Cl  UNL A   1      37.320  19.850  24.885  1.00  0.00    -0.084 Cl
ATOM     97  C   UNL A   1      38.383  23.475  26.126  1.00  0.00     0.002 A 
ENDBRANCH  81  91
ENDBRANCH  75  77
ENDBRANCH  74  75
ENDBRANCH  73  74
ENDBRANCH  72  73
ENDBRANCH  71  72
ENDBRANCH   1  71
TORSDOF 20
ENDMDL
