MODEL 1
REMARK VINA RESULT:     -12.4      0.000      0.000
REMARK SMILES COc1ccc(-c2nc3ccc(C)cc3[nH]2)c(C(=O)OCCOCCOC(=O)c2ccc(-c3c4nc(c(-c5cccc(S(=O)(=O)[O-])c5F)c5ccc([nH]5)c(-c5cccc(S(=O)(=O)[O-])c5F)c5nc(c(-c6cccc(S(=O)(=O)[O-])c6F)c6ccc3[nH]6)C=C5)C=C4)cc2)c1OC
REMARK SMILES IDX 24 1 23 2 22 3 21 4 20 5 18 6 19 7 17 8 3 9 4 10 92 11 5 12
REMARK SMILES IDX 6 13 2 14 1 15 93 16 94 17 7 18 8 19 16 20 9 21 15 22 10 24
REMARK SMILES IDX 14 25 11 26 12 27 13 28 25 29 26 30 27 31 28 32 29 33 30 34
REMARK SMILES IDX 91 35 31 36 90 37 32 38 33 39 34 40 84 41 35 42 89 43 83 44
REMARK SMILES IDX 85 45 36 46 88 47 82 48 81 49 37 51 69 52 49 53 68 54 50 55
REMARK SMILES IDX 53 56 67 57 86 58 51 59 52 60 66 62 87 63 54 64 38 65 39 66
REMARK SMILES IDX 47 67 40 68 42 69 48 70 41 71 43 72 44 73 45 74 46 75 70 76
REMARK SMILES IDX 71 77 79 78 72 79 74 80 80 81 73 82 75 83 76 84 77 85 78 86
REMARK SMILES IDX 55 87 56 88 64 89 57 90 59 91 65 92 58 93 60 94 61 95 62 96
REMARK SMILES IDX 63 97
REMARK H PARENT 16 23 85 50 53 61
REMARK Flexibility Score: inf
ROOT
ATOM      1  C   UNL A   1      36.164  20.463  25.358  1.00  0.00     0.202 C 
ENDROOT
BRANCH   1   2
ATOM      2  O   UNL A   1      35.447  21.470  24.639  1.00  0.00    -0.374 OA
BRANCH   2   3
ATOM      3  C   UNL A   1      35.593  22.817  25.106  1.00  0.00     0.202 C 
BRANCH   3   4
ATOM      4  C   UNL A   1      35.033  23.120  26.500  1.00  0.00     0.261 C 
BRANCH   4   5
ATOM      5  O   UNL A   1      33.934  24.029  26.367  1.00  0.00    -0.460 OA
BRANCH   5   6
ATOM      6  C   UNL A   1      32.708  23.508  26.600  1.00  0.00     0.342 C 
ATOM      7  O   UNL A   1      32.338  22.875  27.574  1.00  0.00    -0.246 OA
BRANCH   6   8
ATOM      8  C   UNL A   1      31.797  23.974  25.531  1.00  0.00     0.116 A 
ATOM      9  C   UNL A   1      30.276  25.607  24.632  1.00  0.00     0.161 A 
ATOM     10  C   UNL A   1      30.156  24.825  23.471  1.00  0.00     0.051 A 
ATOM     11  C   UNL A   1      31.104  25.194  25.681  1.00  0.00     0.176 A 
ATOM     12  C   UNL A   1      30.826  23.601  23.346  1.00  0.00     0.017 A 
ATOM     13  C   UNL A   1      31.624  23.140  24.395  1.00  0.00     0.036 A 
BRANCH   9  14
ATOM     14  O   UNL A   1      29.456  26.702  24.692  1.00  0.00    -0.493 OA
ATOM     15  C   UNL A   1      28.427  26.682  23.707  1.00  0.00     0.278 C 
ENDBRANCH   9  14
BRANCH  11  16
ATOM     16  O   UNL A   1      31.359  25.885  26.833  1.00  0.00    -0.492 OA
ATOM     17  C   UNL A   1      32.139  27.073  26.782  1.00  0.00     0.278 C 
ENDBRANCH  11  16
BRANCH  13  18
ATOM     18  C   UNL A   1      32.048  21.735  24.458  1.00  0.00     0.139 A 
ATOM     19  N   UNL A   1      32.299  21.042  23.369  1.00  0.00    -0.228 NA
ATOM     20  N   UNL A   1      32.230  20.935  25.566  1.00  0.00    -0.338 N 
ATOM     21  C   UNL A   1      32.520  19.758  23.750  1.00  0.00     0.089 A 
ATOM     22  C   UNL A   1      32.503  19.649  25.133  1.00  0.00     0.066 A 
ATOM     23  H   UNL A   1      32.177  21.229  26.504  1.00  0.00     0.168 HD
ATOM     24  C   UNL A   1      32.732  18.633  22.946  1.00  0.00     0.031 A 
ATOM     25  C   UNL A   1      32.701  18.423  25.782  1.00  0.00     0.031 A 
ATOM     26  C   UNL A   1      32.907  17.399  23.566  1.00  0.00     0.006 A 
ATOM     27  C   UNL A   1      32.889  17.285  24.965  1.00  0.00    -0.049 A 
ATOM     28  C   UNL A   1      33.068  15.917  25.561  1.00  0.00     0.044 C 
ENDBRANCH  13  18
ENDBRANCH   6   8
ENDBRANCH   5   6
ENDBRANCH   4   5
ENDBRANCH   3   4
ENDBRANCH   2   3
ENDBRANCH   1   2
BRANCH   1  29
ATOM     29  C   UNL A   1      37.553  20.107  24.834  1.00  0.00     0.261 C 
BRANCH  29  30
ATOM     30  O   UNL A   1      38.484  21.175  25.017  1.00  0.00    -0.460 OA
BRANCH  30  31
ATOM     31  C   UNL A   1      39.412  20.924  25.970  1.00  0.00     0.338 C 
ATOM     32  O   UNL A   1      39.977  19.872  26.202  1.00  0.00    -0.246 OA
BRANCH  31  33
ATOM     33  C   UNL A   1      39.770  22.188  26.629  1.00  0.00     0.060 A 
ATOM     34  C   UNL A   1      39.115  23.346  26.194  1.00  0.00     0.016 A 
ATOM     35  C   UNL A   1      40.766  22.245  27.606  1.00  0.00     0.016 A 
ATOM     36  C   UNL A   1      39.511  24.584  26.682  1.00  0.00     0.010 A 
ATOM     37  C   UNL A   1      41.165  23.489  28.091  1.00  0.00     0.010 A 
ATOM     38  C   UNL A   1      40.573  24.661  27.591  1.00  0.00    -0.014 A 
BRANCH  38  39
ATOM     39  C   UNL A   1      41.179  25.978  27.874  1.00  0.00     0.031 A 
ATOM     40  C   UNL A   1      42.568  26.253  27.367  1.00  0.00     0.074 A 
ATOM     41  C   UNL A   1      40.492  26.911  28.554  1.00  0.00     0.049 A 
ATOM     42  N   UNL A   1      43.296  27.329  27.497  1.00  0.00    -0.248 NA
ATOM     43  C   UNL A   1      43.224  25.169  26.616  1.00  0.00     0.031 C 
ATOM     44  C   UNL A   1      39.139  26.743  29.084  1.00  0.00     0.029 A 
ATOM     45  N   UNL A   1      40.850  28.179  28.927  1.00  0.00    -0.354 N 
ATOM     46  C   UNL A   1      44.505  27.044  26.872  1.00  0.00     0.074 A 
ATOM     47  C   UNL A   1      44.420  25.688  26.378  1.00  0.00     0.031 C 
ATOM     48  C   UNL A   1      38.789  27.864  29.738  1.00  0.00     0.029 A 
ATOM     49  C   UNL A   1      39.898  28.813  29.689  1.00  0.00     0.049 A 
ATOM     50  H   UNL A   1      41.706  28.595  28.676  1.00  0.00     0.167 HD
ATOM     51  C   UNL A   1      45.581  27.847  26.709  1.00  0.00     0.034 A 
ATOM     52  C   UNL A   1      39.934  30.018  30.289  1.00  0.00     0.034 A 
ATOM     53  C   UNL A   1      45.645  29.201  27.187  1.00  0.00     0.049 A 
ATOM     54  C   UNL A   1      41.149  30.887  30.103  1.00  0.00     0.074 A 
ATOM     55  C   UNL A   1      46.669  30.120  27.039  1.00  0.00     0.029 A 
ATOM     56  N   UNL A   1      44.646  29.828  27.917  1.00  0.00    -0.354 N 
ATOM     57  N   UNL A   1      42.239  30.648  29.414  1.00  0.00    -0.248 NA
ATOM     58  C   UNL A   1      41.124  32.208  30.747  1.00  0.00     0.031 C 
ATOM     59  C   UNL A   1      46.299  31.293  27.705  1.00  0.00     0.029 A 
ATOM     60  C   UNL A   1      45.032  31.118  28.238  1.00  0.00     0.049 A 
ATOM     61  H   UNL A   1      43.788  29.416  28.171  1.00  0.00     0.167 HD
ATOM     62  C   UNL A   1      43.011  31.801  29.507  1.00  0.00     0.074 A 
ATOM     63  C   UNL A   1      42.253  32.745  30.306  1.00  0.00     0.031 C 
ATOM     64  C   UNL A   1      44.239  32.057  28.990  1.00  0.00     0.034 A 
BRANCH  51  65
ATOM     65  C   UNL A   1      46.766  27.287  25.969  1.00  0.00     0.023 A 
ATOM     66  C   UNL A   1      47.583  26.317  26.585  1.00  0.00     0.012 A 
ATOM     67  C   UNL A   1      47.048  27.689  24.648  1.00  0.00     0.148 A 
ATOM     68  C   UNL A   1      48.680  25.780  25.912  1.00  0.00     0.002 A 
ATOM     69  C   UNL A   1      48.114  27.115  23.966  1.00  0.00     0.091 A 
ATOM     70  F   UNL A   1      46.276  28.631  24.089  1.00  0.00    -0.205 F 
ATOM     71  C   UNL A   1      48.938  26.170  24.600  1.00  0.00     0.022 A 
BRANCH  69  72
ATOM     72  S   UNL A   1      48.482  27.493  22.250  1.00  0.00     0.127 S 
ATOM     73  O   UNL A   1      48.882  26.184  21.736  1.00  0.00    -0.237 OA
ATOM     74  O   UNL A   1      47.190  27.972  21.758  1.00  0.00    -0.237 OA
ATOM     75  O   UNL A   1      49.533  28.501  22.277  1.00  0.00    -0.744 OA
ENDBRANCH  69  72
ENDBRANCH  51  65
BRANCH  52  76
ATOM     76  C   UNL A   1      38.764  30.486  31.083  1.00  0.00     0.023 A 
ATOM     77  C   UNL A   1      38.744  30.286  32.476  1.00  0.00     0.012 A 
ATOM     78  C   UNL A   1      37.682  31.146  30.468  1.00  0.00     0.148 A 
ATOM     79  C   UNL A   1      37.653  30.706  33.238  1.00  0.00     0.002 A 
ATOM     80  C   UNL A   1      36.625  31.611  31.239  1.00  0.00     0.091 A 
ATOM     81  F   UNL A   1      37.714  31.314  29.137  1.00  0.00    -0.205 F 
ATOM     82  C   UNL A   1      36.599  31.376  32.622  1.00  0.00     0.022 A 
BRANCH  80  83
ATOM     83  S   UNL A   1      35.287  32.592  30.550  1.00  0.00     0.127 S 
ATOM     84  O   UNL A   1      34.325  32.600  31.648  1.00  0.00    -0.237 OA
ATOM     85  O   UNL A   1      35.950  33.872  30.301  1.00  0.00    -0.237 OA
ATOM     86  O   UNL A   1      34.866  31.891  29.345  1.00  0.00    -0.744 OA
ENDBRANCH  80  83
ENDBRANCH  52  76
BRANCH  64  87
ATOM     87  C   UNL A   1      44.825  33.424  29.229  1.00  0.00     0.023 A 
ATOM     88  C   UNL A   1      45.550  33.683  30.410  1.00  0.00     0.012 A 
ATOM     89  C   UNL A   1      44.715  34.430  28.249  1.00  0.00     0.148 A 
ATOM     90  C   UNL A   1      46.123  34.935  30.628  1.00  0.00     0.002 A 
ATOM     91  C   UNL A   1      45.333  35.659  28.451  1.00  0.00     0.091 A 
ATOM     92  F   UNL A   1      44.006  34.171  27.141  1.00  0.00    -0.205 F 
ATOM     93  C   UNL A   1      46.024  35.918  29.645  1.00  0.00     0.022 A 
BRANCH  91  94
ATOM     94  S   UNL A   1      45.345  36.945  27.198  1.00  0.00     0.127 S 
ATOM     95  O   UNL A   1      45.963  36.254  26.067  1.00  0.00    -0.237 OA
ATOM     96  O   UNL A   1      43.919  37.232  27.033  1.00  0.00    -0.237 OA
ATOM     97  O   UNL A   1      46.119  38.044  27.759  1.00  0.00    -0.744 OA
ENDBRANCH  91  94
ENDBRANCH  64  87
ENDBRANCH  38  39
ENDBRANCH  31  33
ENDBRANCH  30  31
ENDBRANCH  29  30
ENDBRANCH   1  29
TORSDOF 20
ENDMDL
MODEL 2
REMARK VINA RESULT:     -12.3      4.925     10.328
REMARK SMILES COc1ccc(-c2nc3ccc(C)cc3[nH]2)c(C(=O)OCCOCCOC(=O)c2ccc(-c3c4nc(c(-c5cccc(S(=O)(=O)[O-])c5F)c5ccc([nH]5)c(-c5cccc(S(=O)(=O)[O-])c5F)c5nc(c(-c6cccc(S(=O)(=O)[O-])c6F)c6ccc3[nH]6)C=C5)C=C4)cc2)c1OC
REMARK SMILES IDX 24 1 23 2 22 3 21 4 20 5 18 6 19 7 17 8 3 9 4 10 92 11 5 12
REMARK SMILES IDX 6 13 2 14 1 15 93 16 94 17 7 18 8 19 16 20 9 21 15 22 10 24
REMARK SMILES IDX 14 25 11 26 12 27 13 28 25 29 26 30 27 31 28 32 29 33 30 34
REMARK SMILES IDX 91 35 31 36 90 37 32 38 33 39 34 40 84 41 35 42 89 43 83 44
REMARK SMILES IDX 85 45 36 46 88 47 82 48 81 49 37 51 69 52 49 53 68 54 50 55
REMARK SMILES IDX 53 56 67 57 86 58 51 59 52 60 66 62 87 63 54 64 38 65 39 66
REMARK SMILES IDX 47 67 40 68 42 69 48 70 41 71 43 72 44 73 45 74 46 75 70 76
REMARK SMILES IDX 71 77 79 78 72 79 74 80 80 81 73 82 75 83 76 84 77 85 78 86
REMARK SMILES IDX 55 87 56 88 64 89 57 90 59 91 65 92 58 93 60 94 61 95 62 96
REMARK SMILES IDX 63 97
REMARK H PARENT 16 23 85 50 53 61
REMARK Flexibility Score: inf
ROOT
ATOM      1  C   UNL A   1      31.837  29.885  25.762  1.00  0.00     0.202 C 
ENDROOT
BRANCH   1   2
ATOM      2  O   UNL A   1      32.943  29.600  24.902  1.00  0.00    -0.374 OA
BRANCH   2   3
ATOM      3  C   UNL A   1      33.705  28.424  25.206  1.00  0.00     0.202 C 
BRANCH   3   4
ATOM      4  C   UNL A   1      33.078  27.447  26.206  1.00  0.00     0.261 C 
BRANCH   4   5
ATOM      5  O   UNL A   1      33.181  26.119  25.678  1.00  0.00    -0.460 OA
BRANCH   5   6
ATOM      6  C   UNL A   1      32.204  25.262  26.051  1.00  0.00     0.342 C 
ATOM      7  O   UNL A   1      31.346  25.429  26.901  1.00  0.00    -0.246 OA
BRANCH   6   8
ATOM      8  C   UNL A   1      32.228  24.105  25.127  1.00  0.00     0.116 A 
ATOM      9  C   UNL A   1      33.103  21.964  24.466  1.00  0.00     0.161 A 
ATOM     10  C   UNL A   1      32.184  21.940  23.404  1.00  0.00     0.051 A 
ATOM     11  C   UNL A   1      33.136  23.048  25.349  1.00  0.00     0.176 A 
ATOM     12  C   UNL A   1      31.308  23.009  23.176  1.00  0.00     0.017 A 
ATOM     13  C   UNL A   1      31.348  24.126  24.013  1.00  0.00     0.036 A 
BRANCH   9  14
ATOM     14  O   UNL A   1      34.002  20.932  24.490  1.00  0.00    -0.493 OA
ATOM     15  C   UNL A   1      33.531  19.799  25.216  1.00  0.00     0.278 C 
ENDBRANCH   9  14
BRANCH  11  16
ATOM     16  O   UNL A   1      33.932  23.170  26.454  1.00  0.00    -0.492 OA
ATOM     17  C   UNL A   1      35.336  23.336  26.295  1.00  0.00     0.278 C 
ENDBRANCH  11  16
BRANCH  13  18
ATOM     18  C   UNL A   1      30.718  25.391  23.613  1.00  0.00     0.139 A 
ATOM     19  N   UNL A   1      31.377  26.306  22.937  1.00  0.00    -0.228 NA
ATOM     20  N   UNL A   1      29.436  25.835  23.860  1.00  0.00    -0.338 N 
ATOM     21  C   UNL A   1      30.577  27.399  22.852  1.00  0.00     0.089 A 
ATOM     22  C   UNL A   1      29.334  27.139  23.408  1.00  0.00     0.066 A 
ATOM     23  H   UNL A   1      28.717  25.313  24.285  1.00  0.00     0.168 HD
ATOM     24  C   UNL A   1      30.872  28.656  22.314  1.00  0.00     0.031 A 
ATOM     25  C   UNL A   1      28.323  28.109  23.449  1.00  0.00     0.031 A 
ATOM     26  C   UNL A   1      29.893  29.646  22.366  1.00  0.00     0.006 A 
ATOM     27  C   UNL A   1      28.634  29.386  22.927  1.00  0.00    -0.049 A 
ATOM     28  C   UNL A   1      27.635  30.507  22.963  1.00  0.00     0.044 C 
ENDBRANCH  13  18
ENDBRANCH   6   8
ENDBRANCH   5   6
ENDBRANCH   4   5
ENDBRANCH   3   4
ENDBRANCH   2   3
ENDBRANCH   1   2
BRANCH   1  29
ATOM     29  C   UNL A   1      31.791  31.283  26.376  1.00  0.00     0.261 C 
BRANCH  29  30
ATOM     30  O   UNL A   1      32.526  31.353  27.599  1.00  0.00    -0.460 OA
BRANCH  30  31
ATOM     31  C   UNL A   1      33.408  32.379  27.640  1.00  0.00     0.338 C 
ATOM     32  O   UNL A   1      33.173  33.569  27.549  1.00  0.00    -0.246 OA
BRANCH  31  33
ATOM     33  C   UNL A   1      34.739  31.848  27.966  1.00  0.00     0.060 A 
ATOM     34  C   UNL A   1      34.854  30.463  28.131  1.00  0.00     0.016 A 
ATOM     35  C   UNL A   1      35.833  32.692  28.167  1.00  0.00     0.016 A 
ATOM     36  C   UNL A   1      36.052  29.920  28.575  1.00  0.00     0.010 A 
ATOM     37  C   UNL A   1      37.034  32.147  28.616  1.00  0.00     0.010 A 
ATOM     38  C   UNL A   1      37.127  30.768  28.869  1.00  0.00    -0.014 A 
BRANCH  38  39
ATOM     39  C   UNL A   1      38.283  30.226  29.614  1.00  0.00     0.031 A 
ATOM     40  C   UNL A   1      38.494  30.673  31.034  1.00  0.00     0.074 A 
ATOM     41  C   UNL A   1      39.110  29.341  29.036  1.00  0.00     0.049 A 
ATOM     42  N   UNL A   1      39.435  30.336  31.874  1.00  0.00    -0.248 NA
ATOM     43  C   UNL A   1      37.517  31.632  31.578  1.00  0.00     0.031 C 
ATOM     44  C   UNL A   1      38.988  28.842  27.666  1.00  0.00     0.029 A 
ATOM     45  N   UNL A   1      40.227  28.720  29.527  1.00  0.00    -0.354 N 
ATOM     46  C   UNL A   1      39.182  31.060  33.034  1.00  0.00     0.074 A 
ATOM     47  C   UNL A   1      38.011  31.869  32.785  1.00  0.00     0.031 C 
ATOM     48  C   UNL A   1      40.010  28.005  27.418  1.00  0.00     0.029 A 
ATOM     49  C   UNL A   1      40.864  27.928  28.601  1.00  0.00     0.049 A 
ATOM     50  H   UNL A   1      40.545  28.830  30.452  1.00  0.00     0.167 HD
ATOM     51  C   UNL A   1      39.857  31.037  34.207  1.00  0.00     0.034 A 
ATOM     52  C   UNL A   1      42.015  27.237  28.701  1.00  0.00     0.034 A 
ATOM     53  C   UNL A   1      41.009  30.212  34.449  1.00  0.00     0.049 A 
ATOM     54  C   UNL A   1      42.753  27.239  30.013  1.00  0.00     0.074 A 
ATOM     55  C   UNL A   1      41.742  30.078  35.614  1.00  0.00     0.029 A 
ATOM     56  N   UNL A   1      41.602  29.389  33.503  1.00  0.00    -0.354 N 
ATOM     57  N   UNL A   1      42.441  27.839  31.137  1.00  0.00    -0.248 NA
ATOM     58  C   UNL A   1      43.985  26.439  30.082  1.00  0.00     0.031 C 
ATOM     59  C   UNL A   1      42.797  29.194  35.362  1.00  0.00     0.029 A 
ATOM     60  C   UNL A   1      42.700  28.752  34.053  1.00  0.00     0.049 A 
ATOM     61  H   UNL A   1      41.288  29.275  32.577  1.00  0.00     0.167 HD
ATOM     62  C   UNL A   1      43.411  27.457  32.057  1.00  0.00     0.074 A 
ATOM     63  C   UNL A   1      44.312  26.560  31.361  1.00  0.00     0.031 C 
ATOM     64  C   UNL A   1      43.553  27.822  33.357  1.00  0.00     0.034 A 
BRANCH  51  65
ATOM     65  C   UNL A   1      39.352  31.916  35.321  1.00  0.00     0.023 A 
ATOM     66  C   UNL A   1      38.412  31.410  36.242  1.00  0.00     0.012 A 
ATOM     67  C   UNL A   1      39.839  33.228  35.481  1.00  0.00     0.148 A 
ATOM     68  C   UNL A   1      37.940  32.206  37.285  1.00  0.00     0.002 A 
ATOM     69  C   UNL A   1      39.400  33.999  36.551  1.00  0.00     0.091 A 
ATOM     70  F   UNL A   1      40.713  33.700  34.581  1.00  0.00    -0.205 F 
ATOM     71  C   UNL A   1      38.442  33.495  37.446  1.00  0.00     0.022 A 
BRANCH  69  72
ATOM     72  S   UNL A   1      40.043  35.641  36.888  1.00  0.00     0.127 S 
ATOM     73  O   UNL A   1      39.664  36.364  35.675  1.00  0.00    -0.237 OA
ATOM     74  O   UNL A   1      39.292  36.025  38.084  1.00  0.00    -0.237 OA
ATOM     75  O   UNL A   1      41.474  35.478  37.097  1.00  0.00    -0.744 OA
ENDBRANCH  69  72
ENDBRANCH  51  65
BRANCH  52  76
ATOM     76  C   UNL A   1      42.513  26.452  27.537  1.00  0.00     0.023 A 
ATOM     77  C   UNL A   1      43.354  27.068  26.591  1.00  0.00     0.012 A 
ATOM     78  C   UNL A   1      42.173  25.095  27.374  1.00  0.00     0.148 A 
ATOM     79  C   UNL A   1      43.822  26.356  25.486  1.00  0.00     0.002 A 
ATOM     80  C   UNL A   1      42.687  24.376  26.302  1.00  0.00     0.091 A 
ATOM     81  F   UNL A   1      41.359  24.530  28.278  1.00  0.00    -0.205 F 
ATOM     82  C   UNL A   1      43.497  25.009  25.347  1.00  0.00     0.022 A 
BRANCH  80  83
ATOM     83  S   UNL A   1      42.424  22.609  26.112  1.00  0.00     0.127 S 
ATOM     84  O   UNL A   1      43.017  22.085  27.341  1.00  0.00    -0.237 OA
ATOM     85  O   UNL A   1      40.965  22.527  26.047  1.00  0.00    -0.237 OA
ATOM     86  O   UNL A   1      43.102  22.241  24.877  1.00  0.00    -0.744 OA
ENDBRANCH  80  83
ENDBRANCH  52  76
BRANCH  64  87
ATOM     87  C   UNL A   1      44.697  27.217  34.128  1.00  0.00     0.023 A 
ATOM     88  C   UNL A   1      45.956  27.850  34.131  1.00  0.00     0.012 A 
ATOM     89  C   UNL A   1      44.501  26.060  34.906  1.00  0.00     0.148 A 
ATOM     90  C   UNL A   1      47.014  27.317  34.867  1.00  0.00     0.002 A 
ATOM     91  C   UNL A   1      45.545  25.564  35.678  1.00  0.00     0.091 A 
ATOM     92  F   UNL A   1      43.301  25.463  34.876  1.00  0.00    -0.205 F 
ATOM     93  C   UNL A   1      46.805  26.182  35.648  1.00  0.00     0.022 A 
BRANCH  91  94
ATOM     94  S   UNL A   1      45.339  24.170  36.791  1.00  0.00     0.127 S 
ATOM     95  O   UNL A   1      44.928  23.111  35.870  1.00  0.00    -0.237 OA
ATOM     96  O   UNL A   1      46.685  24.011  37.343  1.00  0.00    -0.237 OA
ATOM     97  O   UNL A   1      44.334  24.578  37.763  1.00  0.00    -0.744 OA
ENDBRANCH  91  94
ENDBRANCH  64  87
ENDBRANCH  38  39
ENDBRANCH  31  33
ENDBRANCH  30  31
ENDBRANCH  29  30
ENDBRANCH   1  29
TORSDOF 20
ENDMDL
MODEL 3
REMARK VINA RESULT:     -12.2      1.440      1.663
REMARK SMILES COc1ccc(-c2nc3ccc(C)cc3[nH]2)c(C(=O)OCCOCCOC(=O)c2ccc(-c3c4nc(c(-c5cccc(S(=O)(=O)[O-])c5F)c5ccc([nH]5)c(-c5cccc(S(=O)(=O)[O-])c5F)c5nc(c(-c6cccc(S(=O)(=O)[O-])c6F)c6ccc3[nH]6)C=C5)C=C4)cc2)c1OC
REMARK SMILES IDX 24 1 23 2 22 3 21 4 20 5 18 6 19 7 17 8 3 9 4 10 92 11 5 12
REMARK SMILES IDX 6 13 2 14 1 15 93 16 94 17 7 18 8 19 16 20 9 21 15 22 10 24
REMARK SMILES IDX 14 25 11 26 12 27 13 28 25 29 26 30 27 31 28 32 29 33 30 34
REMARK SMILES IDX 91 35 31 36 90 37 32 38 33 39 34 40 84 41 35 42 89 43 83 44
REMARK SMILES IDX 85 45 36 46 88 47 82 48 81 49 37 51 69 52 49 53 68 54 50 55
REMARK SMILES IDX 53 56 67 57 86 58 51 59 52 60 66 62 87 63 54 64 38 65 39 66
REMARK SMILES IDX 47 67 40 68 42 69 48 70 41 71 43 72 44 73 45 74 46 75 70 76
REMARK SMILES IDX 71 77 79 78 72 79 74 80 80 81 73 82 75 83 76 84 77 85 78 86
REMARK SMILES IDX 55 87 56 88 64 89 57 90 59 91 65 92 58 93 60 94 61 95 62 96
REMARK SMILES IDX 63 97
REMARK H PARENT 16 23 85 50 53 61
REMARK Flexibility Score: inf
ROOT
ATOM      1  C   UNL A   1      36.241  20.911  25.433  1.00  0.00     0.202 C 
ENDROOT
BRANCH   1   2
ATOM      2  O   UNL A   1      35.572  21.303  24.232  1.00  0.00    -0.374 OA
BRANCH   2   3
ATOM      3  C   UNL A   1      35.836  22.629  23.756  1.00  0.00     0.202 C 
BRANCH   3   4
ATOM      4  C   UNL A   1      35.988  23.718  24.823  1.00  0.00     0.261 C 
BRANCH   4   5
ATOM      5  O   UNL A   1      34.813  24.537  24.816  1.00  0.00    -0.460 OA
BRANCH   5   6
ATOM      6  C   UNL A   1      33.775  24.081  25.554  1.00  0.00     0.342 C 
ATOM      7  O   UNL A   1      33.815  23.533  26.642  1.00  0.00    -0.246 OA
BRANCH   6   8
ATOM      8  C   UNL A   1      32.519  24.506  24.896  1.00  0.00     0.116 A 
ATOM      9  C   UNL A   1      30.844  26.172  24.444  1.00  0.00     0.161 A 
ATOM     10  C   UNL A   1      30.200  25.264  23.588  1.00  0.00     0.051 A 
ATOM     11  C   UNL A   1      32.019  25.808  25.109  1.00  0.00     0.176 A 
ATOM     12  C   UNL A   1      30.690  23.964  23.406  1.00  0.00     0.017 A 
ATOM     13  C   UNL A   1      31.836  23.555  24.093  1.00  0.00     0.036 A 
BRANCH   9  14
ATOM     14  O   UNL A   1      30.184  27.354  24.651  1.00  0.00    -0.493 OA
ATOM     15  C   UNL A   1      29.958  28.084  23.448  1.00  0.00     0.278 C 
ENDBRANCH   9  14
BRANCH  11  16
ATOM     16  O   UNL A   1      32.776  26.610  25.918  1.00  0.00    -0.492 OA
ATOM     17  C   UNL A   1      33.448  27.734  25.362  1.00  0.00     0.278 C 
ENDBRANCH  11  16
BRANCH  13  18
ATOM     18  C   UNL A   1      32.175  22.130  24.211  1.00  0.00     0.139 A 
ATOM     19  N   UNL A   1      32.237  21.347  23.158  1.00  0.00    -0.228 NA
ATOM     20  N   UNL A   1      32.450  21.398  25.347  1.00  0.00    -0.338 N 
ATOM     21  C   UNL A   1      32.424  20.080  23.607  1.00  0.00     0.089 A 
ATOM     22  C   UNL A   1      32.581  20.069  24.985  1.00  0.00     0.066 A 
ATOM     23  H   UNL A   1      32.539  21.760  26.258  1.00  0.00     0.168 HD
ATOM     24  C   UNL A   1      32.457  18.890  22.873  1.00  0.00     0.031 A 
ATOM     25  C   UNL A   1      32.785  18.880  25.698  1.00  0.00     0.031 A 
ATOM     26  C   UNL A   1      32.633  17.692  23.562  1.00  0.00     0.006 A 
ATOM     27  C   UNL A   1      32.792  17.677  24.955  1.00  0.00    -0.049 A 
ATOM     28  C   UNL A   1      32.961  16.345  25.630  1.00  0.00     0.044 C 
ENDBRANCH  13  18
ENDBRANCH   6   8
ENDBRANCH   5   6
ENDBRANCH   4   5
ENDBRANCH   3   4
ENDBRANCH   2   3
ENDBRANCH   1   2
BRANCH   1  29
ATOM     29  C   UNL A   1      37.580  20.195  25.267  1.00  0.00     0.261 C 
BRANCH  29  30
ATOM     30  O   UNL A   1      38.668  21.114  25.165  1.00  0.00    -0.460 OA
BRANCH  30  31
ATOM     31  C   UNL A   1      39.636  20.908  26.088  1.00  0.00     0.338 C 
ATOM     32  O   UNL A   1      40.259  19.884  26.301  1.00  0.00    -0.246 OA
BRANCH  31  33
ATOM     33  C   UNL A   1      39.953  22.187  26.740  1.00  0.00     0.060 A 
ATOM     34  C   UNL A   1      39.290  23.327  26.269  1.00  0.00     0.016 A 
ATOM     35  C   UNL A   1      40.919  22.276  27.743  1.00  0.00     0.016 A 
ATOM     36  C   UNL A   1      39.650  24.578  26.750  1.00  0.00     0.010 A 
ATOM     37  C   UNL A   1      41.282  23.533  28.222  1.00  0.00     0.010 A 
ATOM     38  C   UNL A   1      40.684  24.687  27.688  1.00  0.00    -0.014 A 
BRANCH  38  39
ATOM     39  C   UNL A   1      41.258  26.019  27.970  1.00  0.00     0.031 A 
ATOM     40  C   UNL A   1      42.658  26.309  27.505  1.00  0.00     0.074 A 
ATOM     41  C   UNL A   1      40.533  26.950  28.610  1.00  0.00     0.049 A 
ATOM     42  N   UNL A   1      43.364  27.399  27.642  1.00  0.00    -0.248 NA
ATOM     43  C   UNL A   1      43.358  25.224  26.796  1.00  0.00     0.031 C 
ATOM     44  C   UNL A   1      39.166  26.769  29.097  1.00  0.00     0.029 A 
ATOM     45  N   UNL A   1      40.857  28.230  28.974  1.00  0.00    -0.354 N 
ATOM     46  C   UNL A   1      44.598  27.124  27.064  1.00  0.00     0.074 A 
ATOM     47  C   UNL A   1      44.553  25.760  26.590  1.00  0.00     0.031 C 
ATOM     48  C   UNL A   1      38.775  27.893  29.720  1.00  0.00     0.029 A 
ATOM     49  C   UNL A   1      39.869  28.860  29.692  1.00  0.00     0.049 A 
ATOM     50  H   UNL A   1      41.714  28.657  28.745  1.00  0.00     0.167 HD
ATOM     51  C   UNL A   1      45.666  27.944  26.924  1.00  0.00     0.034 A 
ATOM     52  C   UNL A   1      39.864  30.076  30.273  1.00  0.00     0.034 A 
ATOM     53  C   UNL A   1      45.691  29.306  27.381  1.00  0.00     0.049 A 
ATOM     54  C   UNL A   1      41.071  30.962  30.114  1.00  0.00     0.074 A 
ATOM     55  C   UNL A   1      46.704  30.239  27.252  1.00  0.00     0.029 A 
ATOM     56  N   UNL A   1      44.657  29.928  28.066  1.00  0.00    -0.354 N 
ATOM     57  N   UNL A   1      42.188  30.731  29.467  1.00  0.00    -0.248 NA
ATOM     58  C   UNL A   1      41.002  32.293  30.735  1.00  0.00     0.031 C 
ATOM     59  C   UNL A   1      46.293  31.416  27.886  1.00  0.00     0.029 A 
ATOM     60  C   UNL A   1      45.011  31.228  28.378  1.00  0.00     0.049 A 
ATOM     61  H   UNL A   1      43.799  29.505  28.297  1.00  0.00     0.167 HD
ATOM     62  C   UNL A   1      42.937  31.898  29.566  1.00  0.00     0.074 A 
ATOM     63  C   UNL A   1      42.136  32.841  30.323  1.00  0.00     0.031 C 
ATOM     64  C   UNL A   1      44.177  32.166  29.086  1.00  0.00     0.034 A 
BRANCH  51  65
ATOM     65  C   UNL A   1      46.885  27.392  26.233  1.00  0.00     0.023 A 
ATOM     66  C   UNL A   1      47.056  27.592  24.848  1.00  0.00     0.012 A 
ATOM     67  C   UNL A   1      47.881  26.713  26.961  1.00  0.00     0.148 A 
ATOM     68  C   UNL A   1      48.182  27.096  24.192  1.00  0.00     0.002 A 
ATOM     69  C   UNL A   1      49.024  26.263  26.309  1.00  0.00     0.091 A 
ATOM     70  F   UNL A   1      47.688  26.510  28.272  1.00  0.00    -0.205 F 
ATOM     71  C   UNL A   1      49.170  26.443  24.924  1.00  0.00     0.022 A 
BRANCH  69  72
ATOM     72  S   UNL A   1      50.387  25.479  27.176  1.00  0.00     0.127 S 
ATOM     73  O   UNL A   1      49.753  24.266  27.690  1.00  0.00    -0.237 OA
ATOM     74  O   UNL A   1      51.347  25.253  26.097  1.00  0.00    -0.237 OA
ATOM     75  O   UNL A   1      50.822  26.431  28.187  1.00  0.00    -0.744 OA
ENDBRANCH  69  72
ENDBRANCH  51  65
BRANCH  52  76
ATOM     76  C   UNL A   1      38.661  30.537  31.019  1.00  0.00     0.023 A 
ATOM     77  C   UNL A   1      38.577  30.319  32.407  1.00  0.00     0.012 A 
ATOM     78  C   UNL A   1      37.609  31.206  30.363  1.00  0.00     0.148 A 
ATOM     79  C   UNL A   1      37.453  30.732  33.124  1.00  0.00     0.002 A 
ATOM     80  C   UNL A   1      36.519  31.664  31.092  1.00  0.00     0.091 A 
ATOM     81  F   UNL A   1      37.702  31.391  29.038  1.00  0.00    -0.205 F 
ATOM     82  C   UNL A   1      36.429  31.412  32.470  1.00  0.00     0.022 A 
BRANCH  80  83
ATOM     83  S   UNL A   1      35.216  32.657  30.355  1.00  0.00     0.127 S 
ATOM     84  O   UNL A   1      34.347  32.909  31.502  1.00  0.00    -0.237 OA
ATOM     85  O   UNL A   1      35.959  33.822  29.875  1.00  0.00    -0.237 OA
ATOM     86  O   UNL A   1      34.644  31.834  29.298  1.00  0.00    -0.744 OA
ENDBRANCH  80  83
ENDBRANCH  52  76
BRANCH  64  87
ATOM     87  C   UNL A   1      44.732  33.547  29.323  1.00  0.00     0.023 A 
ATOM     88  C   UNL A   1      45.403  33.840  30.527  1.00  0.00     0.012 A 
ATOM     89  C   UNL A   1      44.649  34.532  28.319  1.00  0.00     0.148 A 
ATOM     90  C   UNL A   1      45.947  35.105  30.744  1.00  0.00     0.002 A 
ATOM     91  C   UNL A   1      45.239  35.773  28.522  1.00  0.00     0.091 A 
ATOM     92  F   UNL A   1      43.992  34.239  27.187  1.00  0.00    -0.205 F 
ATOM     93  C   UNL A   1      45.875  36.067  29.738  1.00  0.00     0.022 A 
BRANCH  91  94
ATOM     94  S   UNL A   1      45.285  37.035  27.244  1.00  0.00     0.127 S 
ATOM     95  O   UNL A   1      46.073  38.085  27.890  1.00  0.00    -0.237 OA
ATOM     96  O   UNL A   1      45.968  36.345  26.150  1.00  0.00    -0.237 OA
ATOM     97  O   UNL A   1      43.896  37.376  26.968  1.00  0.00    -0.744 OA
ENDBRANCH  91  94
ENDBRANCH  64  87
ENDBRANCH  38  39
ENDBRANCH  31  33
ENDBRANCH  30  31
ENDBRANCH  29  30
ENDBRANCH   1  29
TORSDOF 20
ENDMDL
