MODEL 1
REMARK VINA RESULT:     -10.8      0.000      0.000
REMARK SMILES O=C(OCCOCCOC(=O)[C@@H](CCO)NC(=O)c1c(F)ccc([N+](=O)[O-])c1F)c1ccc(-c2c3nc(c(-c4cccc(S(=O)(=O)[O-])c4F)c4ccc([nH]4)c(-c4cccc(S(=O)(=O)[O-])c4F)c4nc(c(-c5cccc(S(=O)(=O)[O-])c5F)c5ccc2[nH]5)C=C4)C=C3)cc1
REMARK SMILES IDX 6 1 5 2 4 3 3 4 2 5 1 6 30 7 31 8 92 9 32 10 91 11 33 12
REMARK SMILES IDX 34 13 35 14 85 15 36 16 90 17 84 18 86 19 37 20 89 21 83 22
REMARK SMILES IDX 82 23 38 25 70 26 50 27 69 28 51 29 54 30 68 31 87 32 52 33
REMARK SMILES IDX 53 34 67 36 88 37 55 38 39 39 40 40 48 41 41 42 43 43 49 44
REMARK SMILES IDX 42 45 44 46 45 47 46 48 47 49 71 50 72 51 80 52 73 53 75 54
REMARK SMILES IDX 81 55 74 56 76 57 77 58 78 59 79 60 56 61 57 62 65 63 58 64
REMARK SMILES IDX 60 65 66 66 59 67 61 68 62 69 63 70 64 71 7 72 8 73 9 74
REMARK SMILES IDX 10 75 11 76 12 77 13 78 14 79 15 80 16 82 17 83 18 85 19 86
REMARK SMILES IDX 20 87 28 88 21 89 22 90 24 91 29 92 23 93 25 94 26 95 27 96
REMARK H PARENT 86 24 54 35 15 81 16 84
REMARK Flexibility Score: inf
ROOT
ATOM      1  O   UNL A   1      36.410  21.629  25.768  1.00  0.00    -0.374 OA
ENDROOT
BRANCH   1   2
ATOM      2  C   UNL A   1      37.181  21.116  24.680  1.00  0.00     0.202 C 
BRANCH   2   3
ATOM      3  C   UNL A   1      38.111  19.923  24.949  1.00  0.00     0.261 C 
BRANCH   3   4
ATOM      4  O   UNL A   1      38.827  20.092  26.185  1.00  0.00    -0.460 OA
BRANCH   4   5
ATOM      5  C   UNL A   1      40.113  20.488  26.362  1.00  0.00     0.338 C 
ATOM      6  O   UNL A   1      41.015  19.700  26.085  1.00  0.00    -0.246 OA
BRANCH   5   7
ATOM      7  C   UNL A   1      40.476  21.840  26.876  1.00  0.00     0.060 A 
ATOM      8  C   UNL A   1      39.989  23.032  26.345  1.00  0.00     0.016 A 
ATOM      9  C   UNL A   1      41.317  21.916  27.997  1.00  0.00     0.016 A 
ATOM     10  C   UNL A   1      40.398  24.261  26.810  1.00  0.00     0.010 A 
ATOM     11  C   UNL A   1      41.702  23.157  28.515  1.00  0.00     0.010 A 
ATOM     12  C   UNL A   1      41.265  24.329  27.890  1.00  0.00    -0.014 A 
BRANCH  12  13
ATOM     13  C   UNL A   1      41.789  25.664  28.193  1.00  0.00     0.031 A 
ATOM     14  C   UNL A   1      43.117  26.039  27.618  1.00  0.00     0.074 A 
ATOM     15  C   UNL A   1      40.973  26.565  28.769  1.00  0.00     0.049 A 
ATOM     16  N   UNL A   1      43.748  27.176  27.677  1.00  0.00    -0.248 NA
ATOM     17  C   UNL A   1      43.818  24.998  26.841  1.00  0.00     0.031 C 
ATOM     18  C   UNL A   1      39.599  26.293  29.208  1.00  0.00     0.029 A 
ATOM     19  N   UNL A   1      41.151  27.893  29.032  1.00  0.00    -0.354 N 
ATOM     20  C   UNL A   1      44.947  26.970  27.011  1.00  0.00     0.074 A 
ATOM     21  C   UNL A   1      44.944  25.613  26.517  1.00  0.00     0.031 C 
ATOM     22  C   UNL A   1      39.051  27.431  29.662  1.00  0.00     0.029 A 
ATOM     23  C   UNL A   1      40.055  28.487  29.611  1.00  0.00     0.049 A 
ATOM     24  H   UNL A   1      41.983  28.377  28.829  1.00  0.00     0.167 HD
ATOM     25  C   UNL A   1      45.964  27.842  26.844  1.00  0.00     0.034 A 
ATOM     26  C   UNL A   1      39.903  29.742  30.069  1.00  0.00     0.034 A 
ATOM     27  C   UNL A   1      45.921  29.189  27.336  1.00  0.00     0.049 A 
ATOM     28  C   UNL A   1      41.071  30.676  29.919  1.00  0.00     0.074 A 
ATOM     29  C   UNL A   1      46.903  30.158  27.296  1.00  0.00     0.029 A 
ATOM     30  N   UNL A   1      44.818  29.753  27.968  1.00  0.00    -0.354 N 
ATOM     31  N   UNL A   1      42.217  30.469  29.313  1.00  0.00    -0.248 NA
ATOM     32  C   UNL A   1      40.931  32.013  30.506  1.00  0.00     0.031 C 
ATOM     33  C   UNL A   1      46.400  31.303  27.927  1.00  0.00     0.029 A 
ATOM     34  C   UNL A   1      45.094  31.056  28.330  1.00  0.00     0.049 A 
ATOM     35  H   UNL A   1      43.966  29.289  28.133  1.00  0.00     0.167 HD
ATOM     36  C   UNL A   1      42.929  31.655  29.425  1.00  0.00     0.074 A 
ATOM     37  C   UNL A   1      42.070  32.583  30.138  1.00  0.00     0.031 C 
ATOM     38  C   UNL A   1      44.182  31.952  28.996  1.00  0.00     0.034 A 
BRANCH  25  39
ATOM     39  C   UNL A   1      47.203  27.322  26.171  1.00  0.00     0.023 A 
ATOM     40  C   UNL A   1      47.358  27.430  24.774  1.00  0.00     0.012 A 
ATOM     41  C   UNL A   1      48.194  26.667  26.929  1.00  0.00     0.148 A 
ATOM     42  C   UNL A   1      48.462  26.860  24.138  1.00  0.00     0.002 A 
ATOM     43  C   UNL A   1      49.308  26.134  26.292  1.00  0.00     0.091 A 
ATOM     44  F   UNL A   1      48.007  26.537  28.249  1.00  0.00    -0.205 F 
ATOM     45  C   UNL A   1      49.438  26.218  24.897  1.00  0.00     0.022 A 
BRANCH  43  46
ATOM     46  S   UNL A   1      50.635  25.329  27.194  1.00  0.00     0.127 S 
ATOM     47  O   UNL A   1      51.075  26.398  28.089  1.00  0.00    -0.237 OA
ATOM     48  O   UNL A   1      49.934  24.229  27.857  1.00  0.00    -0.237 OA
ATOM     49  O   UNL A   1      51.603  24.910  26.189  1.00  0.00    -0.744 OA
ENDBRANCH  43  46
ENDBRANCH  25  39
BRANCH  26  50
ATOM     50  C   UNL A   1      38.619  30.166  30.696  1.00  0.00     0.023 A 
ATOM     51  C   UNL A   1      38.377  29.894  32.055  1.00  0.00     0.012 A 
ATOM     52  C   UNL A   1      37.649  30.879  29.960  1.00  0.00     0.148 A 
ATOM     53  C   UNL A   1      37.189  30.306  32.664  1.00  0.00     0.002 A 
ATOM     54  C   UNL A   1      36.495  31.337  30.587  1.00  0.00     0.091 A 
ATOM     55  F   UNL A   1      37.881  31.110  28.660  1.00  0.00    -0.205 F 
ATOM     56  C   UNL A   1      36.255  31.038  31.935  1.00  0.00     0.022 A 
BRANCH  54  57
ATOM     57  S   UNL A   1      35.311  32.399  29.749  1.00  0.00     0.127 S 
ATOM     58  O   UNL A   1      36.168  33.495  29.293  1.00  0.00    -0.237 OA
ATOM     59  O   UNL A   1      34.821  31.522  28.681  1.00  0.00    -0.237 OA
ATOM     60  O   UNL A   1      34.316  32.743  30.744  1.00  0.00    -0.744 OA
ENDBRANCH  54  57
ENDBRANCH  26  50
BRANCH  38  61
ATOM     61  C   UNL A   1      44.676  33.346  29.256  1.00  0.00     0.023 A 
ATOM     62  C   UNL A   1      45.261  33.662  30.496  1.00  0.00     0.012 A 
ATOM     63  C   UNL A   1      44.642  34.309  28.230  1.00  0.00     0.148 A 
ATOM     64  C   UNL A   1      45.785  34.934  30.721  1.00  0.00     0.002 A 
ATOM     65  C   UNL A   1      45.213  35.555  28.445  1.00  0.00     0.091 A 
ATOM     66  F   UNL A   1      44.057  33.988  27.067  1.00  0.00    -0.205 F 
ATOM     67  C   UNL A   1      45.774  35.874  29.692  1.00  0.00     0.022 A 
BRANCH  65  68
ATOM     68  S   UNL A   1      45.337  36.776  27.135  1.00  0.00     0.127 S 
ATOM     69  O   UNL A   1      43.937  37.143  26.936  1.00  0.00    -0.237 OA
ATOM     70  O   UNL A   1      46.159  37.818  27.754  1.00  0.00    -0.237 OA
ATOM     71  O   UNL A   1      45.976  36.095  26.017  1.00  0.00    -0.744 OA
ENDBRANCH  65  68
ENDBRANCH  38  61
ENDBRANCH  12  13
ENDBRANCH   5   7
ENDBRANCH   4   5
ENDBRANCH   3   4
ENDBRANCH   2   3
ENDBRANCH   1   2
BRANCH   1  72
ATOM     72  C   UNL A   1      36.477  23.042  26.007  1.00  0.00     0.202 C 
BRANCH  72  73
ATOM     73  C   UNL A   1      35.097  23.680  25.872  1.00  0.00     0.261 C 
BRANCH  73  74
ATOM     74  O   UNL A   1      34.387  22.937  24.865  1.00  0.00    -0.462 OA
BRANCH  74  75
ATOM     75  C   UNL A   1      34.402  23.494  23.630  1.00  0.00     0.328 C 
ATOM     76  O   UNL A   1      35.302  23.356  22.809  1.00  0.00    -0.250 OA
BRANCH  75  77
ATOM     77  C   UNL A   1      33.178  24.376  23.354  1.00  0.00     0.194 C 
BRANCH  77  78
ATOM     78  C   UNL A   1      32.576  24.565  21.949  1.00  0.00     0.065 C 
BRANCH  78  79
ATOM     79  C   UNL A   1      32.369  25.968  21.398  1.00  0.00     0.159 C 
BRANCH  79  80
ATOM     80  O   UNL A   1      31.671  25.926  20.167  1.00  0.00    -0.396 OA
ATOM     81  H   UNL A   1      30.906  25.335  20.249  1.00  0.00     0.210 HD
ENDBRANCH  79  80
ENDBRANCH  78  79
ENDBRANCH  77  78
BRANCH  77  82
ATOM     82  N   UNL A   1      32.148  24.045  24.337  1.00  0.00    -0.338 N 
ATOM     83  C   UNL A   1      31.455  24.879  25.174  1.00  0.00     0.258 C 
ATOM     84  H   UNL A   1      31.920  23.090  24.406  1.00  0.00     0.164 HD
ATOM     85  O   UNL A   1      30.720  24.405  26.039  1.00  0.00    -0.269 OA
BRANCH  83  86
ATOM     86  C   UNL A   1      31.540  26.342  25.037  1.00  0.00     0.118 A 
ATOM     87  C   UNL A   1      32.573  27.057  25.646  1.00  0.00     0.139 A 
ATOM     88  C   UNL A   1      30.646  27.005  24.190  1.00  0.00     0.216 A 
ATOM     89  F   UNL A   1      33.477  26.439  26.419  1.00  0.00    -0.206 F 
ATOM     90  C   UNL A   1      32.692  28.433  25.471  1.00  0.00     0.047 A 
ATOM     91  C   UNL A   1      30.782  28.381  23.984  1.00  0.00     0.305 A 
ATOM     92  F   UNL A   1      29.679  26.303  23.583  1.00  0.00    -0.198 F 
ATOM     93  C   UNL A   1      31.798  29.102  24.636  1.00  0.00     0.092 A 
BRANCH  91  94
ATOM     94  N   UNL A   1      29.905  29.085  23.047  1.00  0.00     0.065 N 
ATOM     95  O   UNL A   1      29.125  29.938  23.483  1.00  0.00    -0.258 OA
ATOM     96  O   UNL A   1      29.987  28.763  21.852  1.00  0.00    -0.258 OA
ENDBRANCH  91  94
ENDBRANCH  83  86
ENDBRANCH  77  82
ENDBRANCH  75  77
ENDBRANCH  74  75
ENDBRANCH  73  74
ENDBRANCH  72  73
ENDBRANCH   1  72
TORSDOF 23
ENDMDL
MODEL 2
REMARK VINA RESULT:     -10.6      1.376      2.229
REMARK SMILES O=C(OCCOCCOC(=O)[C@@H](CCO)NC(=O)c1c(F)ccc([N+](=O)[O-])c1F)c1ccc(-c2c3nc(c(-c4cccc(S(=O)(=O)[O-])c4F)c4ccc([nH]4)c(-c4cccc(S(=O)(=O)[O-])c4F)c4nc(c(-c5cccc(S(=O)(=O)[O-])c5F)c5ccc2[nH]5)C=C4)C=C3)cc1
REMARK SMILES IDX 6 1 5 2 4 3 3 4 2 5 1 6 30 7 31 8 92 9 32 10 91 11 33 12
REMARK SMILES IDX 34 13 35 14 85 15 36 16 90 17 84 18 86 19 37 20 89 21 83 22
REMARK SMILES IDX 82 23 38 25 70 26 50 27 69 28 51 29 54 30 68 31 87 32 52 33
REMARK SMILES IDX 53 34 67 36 88 37 55 38 39 39 40 40 48 41 41 42 43 43 49 44
REMARK SMILES IDX 42 45 44 46 45 47 46 48 47 49 71 50 72 51 80 52 73 53 75 54
REMARK SMILES IDX 81 55 74 56 76 57 77 58 78 59 79 60 56 61 57 62 65 63 58 64
REMARK SMILES IDX 60 65 66 66 59 67 61 68 62 69 63 70 64 71 7 72 8 73 9 74
REMARK SMILES IDX 10 75 11 76 12 77 13 78 14 79 15 80 16 82 17 83 18 85 19 86
REMARK SMILES IDX 20 87 28 88 21 89 22 90 24 91 29 92 23 93 25 94 26 95 27 96
REMARK H PARENT 86 24 54 35 15 81 16 84
REMARK Flexibility Score: inf
ROOT
ATOM      1  O   UNL A   1      37.117  21.565  25.726  1.00  0.00    -0.374 OA
ENDROOT
BRANCH   1   2
ATOM      2  C   UNL A   1      37.512  20.672  24.684  1.00  0.00     0.202 C 
BRANCH   2   3
ATOM      3  C   UNL A   1      38.406  19.478  25.053  1.00  0.00     0.261 C 
BRANCH   3   4
ATOM      4  O   UNL A   1      39.227  19.778  26.195  1.00  0.00    -0.460 OA
BRANCH   4   5
ATOM      5  C   UNL A   1      40.484  20.288  26.214  1.00  0.00     0.338 C 
ATOM      6  O   UNL A   1      41.406  19.596  25.788  1.00  0.00    -0.246 OA
BRANCH   5   7
ATOM      7  C   UNL A   1      40.792  21.654  26.728  1.00  0.00     0.060 A 
ATOM      8  C   UNL A   1      40.364  22.831  26.118  1.00  0.00     0.016 A 
ATOM      9  C   UNL A   1      41.511  21.761  27.929  1.00  0.00     0.016 A 
ATOM     10  C   UNL A   1      40.722  24.072  26.591  1.00  0.00     0.010 A 
ATOM     11  C   UNL A   1      41.839  23.016  28.452  1.00  0.00     0.010 A 
ATOM     12  C   UNL A   1      41.471  24.170  27.754  1.00  0.00    -0.014 A 
BRANCH  12  13
ATOM     13  C   UNL A   1      41.961  25.514  28.076  1.00  0.00     0.031 A 
ATOM     14  C   UNL A   1      43.295  25.917  27.537  1.00  0.00     0.074 A 
ATOM     15  C   UNL A   1      41.112  26.396  28.634  1.00  0.00     0.049 A 
ATOM     16  N   UNL A   1      43.903  27.066  27.617  1.00  0.00    -0.248 NA
ATOM     17  C   UNL A   1      44.037  24.894  26.775  1.00  0.00     0.031 C 
ATOM     18  C   UNL A   1      39.733  26.096  29.036  1.00  0.00     0.029 A 
ATOM     19  N   UNL A   1      41.258  27.726  28.906  1.00  0.00    -0.354 N 
ATOM     20  C   UNL A   1      45.122  26.886  26.981  1.00  0.00     0.074 A 
ATOM     21  C   UNL A   1      45.158  25.531  26.482  1.00  0.00     0.031 C 
ATOM     22  C   UNL A   1      39.152  27.221  29.479  1.00  0.00     0.029 A 
ATOM     23  C   UNL A   1      40.136  28.296  29.458  1.00  0.00     0.049 A 
ATOM     24  H   UNL A   1      42.085  28.227  28.727  1.00  0.00     0.167 HD
ATOM     25  C   UNL A   1      46.126  27.779  26.844  1.00  0.00     0.034 A 
ATOM     26  C   UNL A   1      39.947  29.547  29.917  1.00  0.00     0.034 A 
ATOM     27  C   UNL A   1      46.044  29.122  27.340  1.00  0.00     0.049 A 
ATOM     28  C   UNL A   1      41.100  30.504  29.801  1.00  0.00     0.074 A 
ATOM     29  C   UNL A   1      47.008  30.110  27.329  1.00  0.00     0.029 A 
ATOM     30  N   UNL A   1      44.914  29.662  27.944  1.00  0.00    -0.354 N 
ATOM     31  N   UNL A   1      42.266  30.322  29.224  1.00  0.00    -0.248 NA
ATOM     32  C   UNL A   1      40.919  31.835  30.389  1.00  0.00     0.031 C 
ATOM     33  C   UNL A   1      46.466  31.242  27.951  1.00  0.00     0.029 A 
ATOM     34  C   UNL A   1      45.155  30.968  28.318  1.00  0.00     0.049 A 
ATOM     35  H   UNL A   1      44.067  29.181  28.085  1.00  0.00     0.167 HD
ATOM     36  C   UNL A   1      42.951  31.521  29.359  1.00  0.00     0.074 A 
ATOM     37  C   UNL A   1      42.056  32.429  30.053  1.00  0.00     0.031 C 
ATOM     38  C   UNL A   1      44.208  31.844  28.964  1.00  0.00     0.034 A 
BRANCH  25  39
ATOM     39  C   UNL A   1      47.392  27.286  26.202  1.00  0.00     0.023 A 
ATOM     40  C   UNL A   1      47.590  27.423  24.813  1.00  0.00     0.012 A 
ATOM     41  C   UNL A   1      48.365  26.627  26.978  1.00  0.00     0.148 A 
ATOM     42  C   UNL A   1      48.721  26.877  24.202  1.00  0.00     0.002 A 
ATOM     43  C   UNL A   1      49.506  26.119  26.368  1.00  0.00     0.091 A 
ATOM     44  F   UNL A   1      48.138  26.469  28.289  1.00  0.00    -0.205 F 
ATOM     45  C   UNL A   1      49.679  26.231  24.979  1.00  0.00     0.022 A 
BRANCH  43  46
ATOM     46  S   UNL A   1      50.813  25.311  27.297  1.00  0.00     0.127 S 
ATOM     47  O   UNL A   1      50.108  24.161  27.860  1.00  0.00    -0.237 OA
ATOM     48  O   UNL A   1      51.777  24.981  26.247  1.00  0.00    -0.237 OA
ATOM     49  O   UNL A   1      51.283  26.296  28.262  1.00  0.00    -0.744 OA
ENDBRANCH  43  46
ENDBRANCH  25  39
BRANCH  26  50
ATOM     50  C   UNL A   1      38.639  29.943  30.512  1.00  0.00     0.023 A 
ATOM     51  C   UNL A   1      38.365  29.655  31.862  1.00  0.00     0.012 A 
ATOM     52  C   UNL A   1      37.678  30.646  29.755  1.00  0.00     0.148 A 
ATOM     53  C   UNL A   1      37.154  30.041  32.441  1.00  0.00     0.002 A 
ATOM     54  C   UNL A   1      36.499  31.078  30.354  1.00  0.00     0.091 A 
ATOM     55  F   UNL A   1      37.941  30.892  28.464  1.00  0.00    -0.205 F 
ATOM     56  C   UNL A   1      36.228  30.763  31.693  1.00  0.00     0.022 A 
BRANCH  54  57
ATOM     57  S   UNL A   1      35.320  32.127  29.492  1.00  0.00     0.127 S 
ATOM     58  O   UNL A   1      36.177  33.223  29.037  1.00  0.00    -0.237 OA
ATOM     59  O   UNL A   1      34.847  31.238  28.427  1.00  0.00    -0.237 OA
ATOM     60  O   UNL A   1      34.312  32.475  30.473  1.00  0.00    -0.744 OA
ENDBRANCH  54  57
ENDBRANCH  26  50
BRANCH  38  61
ATOM     61  C   UNL A   1      44.668  33.246  29.241  1.00  0.00     0.023 A 
ATOM     62  C   UNL A   1      45.361  33.533  30.432  1.00  0.00     0.012 A 
ATOM     63  C   UNL A   1      44.493  34.251  28.273  1.00  0.00     0.148 A 
ATOM     64  C   UNL A   1      45.853  34.816  30.667  1.00  0.00     0.002 A 
ATOM     65  C   UNL A   1      45.030  35.512  28.490  1.00  0.00     0.091 A 
ATOM     66  F   UNL A   1      43.807  33.955  27.158  1.00  0.00    -0.205 F 
ATOM     67  C   UNL A   1      45.700  35.800  29.691  1.00  0.00     0.022 A 
BRANCH  65  68
ATOM     68  S   UNL A   1      44.972  36.794  27.236  1.00  0.00     0.127 S 
ATOM     69  O   UNL A   1      45.863  36.251  26.213  1.00  0.00    -0.237 OA
ATOM     70  O   UNL A   1      43.555  36.809  26.868  1.00  0.00    -0.237 OA
ATOM     71  O   UNL A   1      45.433  38.011  27.892  1.00  0.00    -0.744 OA
ENDBRANCH  65  68
ENDBRANCH  38  61
ENDBRANCH  12  13
ENDBRANCH   5   7
ENDBRANCH   4   5
ENDBRANCH   3   4
ENDBRANCH   2   3
ENDBRANCH   1   2
BRANCH   1  72
ATOM     72  C   UNL A   1      36.292  22.680  25.355  1.00  0.00     0.202 C 
BRANCH  72  73
ATOM     73  C   UNL A   1      34.978  22.200  24.744  1.00  0.00     0.261 C 
BRANCH  73  74
ATOM     74  O   UNL A   1      34.164  21.714  25.826  1.00  0.00    -0.462 OA
BRANCH  74  75
ATOM     75  C   UNL A   1      33.876  22.632  26.779  1.00  0.00     0.328 C 
ATOM     76  O   UNL A   1      34.356  22.647  27.907  1.00  0.00    -0.250 OA
BRANCH  75  77
ATOM     77  C   UNL A   1      32.832  23.660  26.327  1.00  0.00     0.194 C 
BRANCH  77  78
ATOM     78  C   UNL A   1      31.364  23.631  26.793  1.00  0.00     0.065 C 
BRANCH  78  79
ATOM     79  C   UNL A   1      30.384  22.665  26.145  1.00  0.00     0.159 C 
BRANCH  79  80
ATOM     80  O   UNL A   1      30.979  21.394  25.961  1.00  0.00    -0.396 OA
ATOM     81  H   UNL A   1      31.055  21.207  25.012  1.00  0.00     0.210 HD
ENDBRANCH  79  80
ENDBRANCH  78  79
ENDBRANCH  77  78
BRANCH  77  82
ATOM     82  N   UNL A   1      33.413  24.994  26.472  1.00  0.00    -0.338 N 
ATOM     83  C   UNL A   1      33.410  26.037  25.585  1.00  0.00     0.258 C 
ATOM     84  H   UNL A   1      33.869  25.165  27.328  1.00  0.00     0.164 HD
ATOM     85  O   UNL A   1      34.074  27.044  25.824  1.00  0.00    -0.269 OA
BRANCH  83  86
ATOM     86  C   UNL A   1      32.597  25.997  24.360  1.00  0.00     0.118 A 
ATOM     87  C   UNL A   1      31.334  26.593  24.321  1.00  0.00     0.139 A 
ATOM     88  C   UNL A   1      33.144  25.463  23.190  1.00  0.00     0.216 A 
ATOM     89  F   UNL A   1      30.807  27.163  25.414  1.00  0.00    -0.206 F 
ATOM     90  C   UNL A   1      30.586  26.611  23.147  1.00  0.00     0.047 A 
ATOM     91  C   UNL A   1      32.411  25.507  22.001  1.00  0.00     0.305 A 
ATOM     92  F   UNL A   1      34.371  24.923  23.229  1.00  0.00    -0.198 F 
ATOM     93  C   UNL A   1      31.122  26.070  21.979  1.00  0.00     0.092 A 
BRANCH  91  94
ATOM     94  N   UNL A   1      32.989  25.021  20.747  1.00  0.00     0.065 N 
ATOM     95  O   UNL A   1      33.362  23.845  20.676  1.00  0.00    -0.258 OA
ATOM     96  O   UNL A   1      33.089  25.840  19.821  1.00  0.00    -0.258 OA
ENDBRANCH  91  94
ENDBRANCH  83  86
ENDBRANCH  77  82
ENDBRANCH  75  77
ENDBRANCH  74  75
ENDBRANCH  73  74
ENDBRANCH  72  73
ENDBRANCH   1  72
TORSDOF 23
ENDMDL
MODEL 3
REMARK VINA RESULT:     -10.5      4.847     10.312
REMARK SMILES O=C(OCCOCCOC(=O)[C@@H](CCO)NC(=O)c1c(F)ccc([N+](=O)[O-])c1F)c1ccc(-c2c3nc(c(-c4cccc(S(=O)(=O)[O-])c4F)c4ccc([nH]4)c(-c4cccc(S(=O)(=O)[O-])c4F)c4nc(c(-c5cccc(S(=O)(=O)[O-])c5F)c5ccc2[nH]5)C=C4)C=C3)cc1
REMARK SMILES IDX 6 1 5 2 4 3 3 4 2 5 1 6 30 7 31 8 92 9 32 10 91 11 33 12
REMARK SMILES IDX 34 13 35 14 85 15 36 16 90 17 84 18 86 19 37 20 89 21 83 22
REMARK SMILES IDX 82 23 38 25 70 26 50 27 69 28 51 29 54 30 68 31 87 32 52 33
REMARK SMILES IDX 53 34 67 36 88 37 55 38 39 39 40 40 48 41 41 42 43 43 49 44
REMARK SMILES IDX 42 45 44 46 45 47 46 48 47 49 71 50 72 51 80 52 73 53 75 54
REMARK SMILES IDX 81 55 74 56 76 57 77 58 78 59 79 60 56 61 57 62 65 63 58 64
REMARK SMILES IDX 60 65 66 66 59 67 61 68 62 69 63 70 64 71 7 72 8 73 9 74
REMARK SMILES IDX 10 75 11 76 12 77 13 78 14 79 15 80 16 82 17 83 18 85 19 86
REMARK SMILES IDX 20 87 28 88 21 89 22 90 24 91 29 92 23 93 25 94 26 95 27 96
REMARK H PARENT 86 24 54 35 15 81 16 84
REMARK Flexibility Score: inf
ROOT
ATOM      1  O   UNL A   1      32.919  29.538  24.634  1.00  0.00    -0.374 OA
ENDROOT
BRANCH   1   2
ATOM      2  C   UNL A   1      31.879  29.914  25.539  1.00  0.00     0.202 C 
BRANCH   2   3
ATOM      3  C   UNL A   1      32.281  30.492  26.904  1.00  0.00     0.261 C 
BRANCH   3   4
ATOM      4  O   UNL A   1      32.660  31.876  26.791  1.00  0.00    -0.460 OA
BRANCH   4   5
ATOM      5  C   UNL A   1      33.508  32.581  27.580  1.00  0.00     0.338 C 
ATOM      6  O   UNL A   1      33.187  33.717  27.922  1.00  0.00    -0.246 OA
BRANCH   5   7
ATOM      7  C   UNL A   1      34.812  32.033  28.052  1.00  0.00     0.060 A 
ATOM      8  C   UNL A   1      35.026  30.693  28.367  1.00  0.00     0.016 A 
ATOM      9  C   UNL A   1      35.906  32.909  28.134  1.00  0.00     0.016 A 
ATOM     10  C   UNL A   1      36.229  30.240  28.858  1.00  0.00     0.010 A 
ATOM     11  C   UNL A   1      37.150  32.453  28.582  1.00  0.00     0.010 A 
ATOM     12  C   UNL A   1      37.293  31.121  28.979  1.00  0.00    -0.014 A 
BRANCH  12  13
ATOM     13  C   UNL A   1      38.469  30.596  29.681  1.00  0.00     0.031 A 
ATOM     14  C   UNL A   1      38.616  30.923  31.132  1.00  0.00     0.074 A 
ATOM     15  C   UNL A   1      39.229  29.670  29.069  1.00  0.00     0.049 A 
ATOM     16  N   UNL A   1      39.517  30.516  31.980  1.00  0.00    -0.248 NA
ATOM     17  C   UNL A   1      37.590  31.807  31.718  1.00  0.00     0.031 C 
ATOM     18  C   UNL A   1      39.029  29.193  27.696  1.00  0.00     0.029 A 
ATOM     19  N   UNL A   1      40.277  28.928  29.532  1.00  0.00    -0.354 N 
ATOM     20  C   UNL A   1      39.210  31.146  33.177  1.00  0.00     0.074 A 
ATOM     21  C   UNL A   1      38.018  31.932  32.964  1.00  0.00     0.031 C 
ATOM     22  C   UNL A   1      39.912  28.216  27.439  1.00  0.00     0.029 A 
ATOM     23  C   UNL A   1      40.780  28.052  28.599  1.00  0.00     0.049 A 
ATOM     24  H   UNL A   1      40.639  29.012  30.443  1.00  0.00     0.167 HD
ATOM     25  C   UNL A   1      39.883  31.079  34.346  1.00  0.00     0.034 A 
ATOM     26  C   UNL A   1      41.843  27.232  28.679  1.00  0.00     0.034 A 
ATOM     27  C   UNL A   1      41.057  30.272  34.522  1.00  0.00     0.049 A 
ATOM     28  C   UNL A   1      42.606  27.218  29.974  1.00  0.00     0.074 A 
ATOM     29  C   UNL A   1      41.874  30.161  35.628  1.00  0.00     0.029 A 
ATOM     30  N   UNL A   1      41.579  29.433  33.544  1.00  0.00    -0.354 N 
ATOM     31  N   UNL A   1      42.330  27.839  31.098  1.00  0.00    -0.248 NA
ATOM     32  C   UNL A   1      43.819  26.394  30.020  1.00  0.00     0.031 C 
ATOM     33  C   UNL A   1      42.906  29.270  35.309  1.00  0.00     0.029 A 
ATOM     34  C   UNL A   1      42.712  28.803  34.015  1.00  0.00     0.049 A 
ATOM     35  H   UNL A   1      41.195  29.308  32.646  1.00  0.00     0.167 HD
ATOM     36  C   UNL A   1      43.321  27.465  31.995  1.00  0.00     0.074 A 
ATOM     37  C   UNL A   1      44.190  26.543  31.285  1.00  0.00     0.031 C 
ATOM     38  C   UNL A   1      43.512  27.855  33.280  1.00  0.00     0.034 A 
BRANCH  25  39
ATOM     39  C   UNL A   1      39.393  31.954  35.464  1.00  0.00     0.023 A 
ATOM     40  C   UNL A   1      38.376  31.506  36.331  1.00  0.00     0.012 A 
ATOM     41  C   UNL A   1      39.907  33.257  35.617  1.00  0.00     0.148 A 
ATOM     42  C   UNL A   1      37.852  32.355  37.307  1.00  0.00     0.002 A 
ATOM     43  C   UNL A   1      39.406  34.084  36.615  1.00  0.00     0.091 A 
ATOM     44  F   UNL A   1      40.843  33.679  34.756  1.00  0.00    -0.205 F 
ATOM     45  C   UNL A   1      38.370  33.640  37.452  1.00  0.00     0.022 A 
BRANCH  43  46
ATOM     46  S   UNL A   1      40.044  35.737  36.903  1.00  0.00     0.127 S 
ATOM     47  O   UNL A   1      39.345  36.113  38.130  1.00  0.00    -0.237 OA
ATOM     48  O   UNL A   1      41.476  35.490  37.067  1.00  0.00    -0.237 OA
ATOM     49  O   UNL A   1      39.696  36.510  35.717  1.00  0.00    -0.744 OA
ENDBRANCH  43  46
ENDBRANCH  25  39
BRANCH  26  50
ATOM     50  C   UNL A   1      42.229  26.381  27.518  1.00  0.00     0.023 A 
ATOM     51  C   UNL A   1      43.042  26.911  26.499  1.00  0.00     0.012 A 
ATOM     52  C   UNL A   1      41.828  25.031  27.438  1.00  0.00     0.148 A 
ATOM     53  C   UNL A   1      43.433  26.119  25.416  1.00  0.00     0.002 A 
ATOM     54  C   UNL A   1      42.267  24.233  26.387  1.00  0.00     0.091 A 
ATOM     55  F   UNL A   1      41.032  24.547  28.402  1.00  0.00    -0.205 F 
ATOM     56  C   UNL A   1      43.058  24.779  25.366  1.00  0.00     0.022 A 
BRANCH  54  57
ATOM     57  S   UNL A   1      41.936  22.467  26.326  1.00  0.00     0.127 S 
ATOM     58  O   UNL A   1      42.494  22.018  27.603  1.00  0.00    -0.237 OA
ATOM     59  O   UNL A   1      40.472  22.437  26.254  1.00  0.00    -0.237 OA
ATOM     60  O   UNL A   1      42.605  21.981  25.136  1.00  0.00    -0.744 OA
ENDBRANCH  54  57
ENDBRANCH  26  50
BRANCH  38  61
ATOM     61  C   UNL A   1      44.682  27.255  34.005  1.00  0.00     0.023 A 
ATOM     62  C   UNL A   1      45.919  27.926  34.016  1.00  0.00     0.012 A 
ATOM     63  C   UNL A   1      44.518  26.075  34.753  1.00  0.00     0.148 A 
ATOM     64  C   UNL A   1      46.991  27.411  34.744  1.00  0.00     0.002 A 
ATOM     65  C   UNL A   1      45.574  25.597  35.517  1.00  0.00     0.091 A 
ATOM     66  F   UNL A   1      43.336  25.443  34.706  1.00  0.00    -0.205 F 
ATOM     67  C   UNL A   1      46.814  26.257  35.504  1.00  0.00     0.022 A 
BRANCH  65  68
ATOM     68  S   UNL A   1      45.389  24.184  36.608  1.00  0.00     0.127 S 
ATOM     69  O   UNL A   1      44.508  23.318  35.828  1.00  0.00    -0.237 OA
ATOM     70  O   UNL A   1      46.766  23.702  36.732  1.00  0.00    -0.237 OA
ATOM     71  O   UNL A   1      44.826  24.709  37.845  1.00  0.00    -0.744 OA
ENDBRANCH  65  68
ENDBRANCH  38  61
ENDBRANCH  12  13
ENDBRANCH   5   7
ENDBRANCH   4   5
ENDBRANCH   3   4
ENDBRANCH   2   3
ENDBRANCH   1   2
BRANCH   1  72
ATOM     72  C   UNL A   1      33.705  28.390  24.983  1.00  0.00     0.202 C 
BRANCH  72  73
ATOM     73  C   UNL A   1      33.665  27.346  23.869  1.00  0.00     0.261 C 
BRANCH  73  74
ATOM     74  O   UNL A   1      34.106  26.103  24.441  1.00  0.00    -0.462 OA
BRANCH  74  75
ATOM     75  C   UNL A   1      34.210  25.077  23.562  1.00  0.00     0.328 C 
ATOM     76  O   UNL A   1      34.053  25.173  22.350  1.00  0.00    -0.250 OA
BRANCH  75  77
ATOM     77  C   UNL A   1      34.506  23.733  24.240  1.00  0.00     0.194 C 
BRANCH  77  78
ATOM     78  C   UNL A   1      35.925  23.283  24.633  1.00  0.00     0.065 C 
BRANCH  78  79
ATOM     79  C   UNL A   1      36.263  23.039  26.097  1.00  0.00     0.159 C 
BRANCH  79  80
ATOM     80  O   UNL A   1      37.629  23.311  26.349  1.00  0.00    -0.396 OA
ATOM     81  H   UNL A   1      37.854  23.026  27.249  1.00  0.00     0.210 HD
ENDBRANCH  79  80
ENDBRANCH  78  79
ENDBRANCH  77  78
BRANCH  77  82
ATOM     82  N   UNL A   1      33.565  23.564  25.345  1.00  0.00    -0.338 N 
ATOM     83  C   UNL A   1      32.573  22.632  25.499  1.00  0.00     0.258 C 
ATOM     84  H   UNL A   1      33.658  24.210  26.083  1.00  0.00     0.164 HD
ATOM     85  O   UNL A   1      31.783  22.729  26.436  1.00  0.00    -0.269 OA
BRANCH  83  86
ATOM     86  C   UNL A   1      32.452  21.487  24.584  1.00  0.00     0.118 A 
ATOM     87  C   UNL A   1      32.014  21.666  23.270  1.00  0.00     0.139 A 
ATOM     88  C   UNL A   1      32.895  20.227  24.998  1.00  0.00     0.216 A 
ATOM     89  F   UNL A   1      31.636  22.873  22.827  1.00  0.00    -0.206 F 
ATOM     90  C   UNL A   1      31.956  20.595  22.381  1.00  0.00     0.047 A 
ATOM     91  C   UNL A   1      32.870  19.156  24.101  1.00  0.00     0.305 A 
ATOM     92  F   UNL A   1      33.346  20.073  26.252  1.00  0.00    -0.198 F 
ATOM     93  C   UNL A   1      32.386  19.334  22.792  1.00  0.00     0.092 A 
BRANCH  91  94
ATOM     94  N   UNL A   1      33.394  17.845  24.487  1.00  0.00     0.065 N 
ATOM     95  O   UNL A   1      34.593  17.604  24.312  1.00  0.00    -0.258 OA
ATOM     96  O   UNL A   1      32.582  17.033  24.957  1.00  0.00    -0.258 OA
ENDBRANCH  91  94
ENDBRANCH  83  86
ENDBRANCH  77  82
ENDBRANCH  75  77
ENDBRANCH  74  75
ENDBRANCH  73  74
ENDBRANCH  72  73
ENDBRANCH   1  72
TORSDOF 23
ENDMDL
