MODEL 1
REMARK VINA RESULT:     -11.7      0.000      0.000
REMARK SMILES COc1ccc([C@H]2[C@H](C(=O)OCCOCCOC(=O)c3ccc(-c4c5nc(c(-c6cccc(S(=O)(=O)[O-])c6F)c6ccc([nH]6)c(-c6cccc(S(=O)(=O)[O-])c6F)c6nc(c(-c7cccc(S(=O)(=O)[O-])c7F)c7ccc4[nH]7)C=C6)C=C5)cc3)CCN2c2ccc(F)cc2)cc1
REMARK SMILES IDX 15 1 14 2 13 3 12 4 11 5 9 6 10 7 8 8 7 9 85 10 83 11 84 12
REMARK SMILES IDX 6 13 3 14 4 15 94 16 5 17 93 18 2 19 1 20 86 21 87 22 92 23
REMARK SMILES IDX 88 24 91 25 89 26 90 27 16 28 17 29 18 30 19 31 20 32 21 33
REMARK SMILES IDX 82 34 22 35 81 36 23 37 24 38 25 39 75 40 26 41 80 42 74 43
REMARK SMILES IDX 76 44 27 45 79 46 73 47 72 48 28 50 60 51 40 52 59 53 41 54
REMARK SMILES IDX 44 55 58 56 77 57 42 58 43 59 57 61 78 62 45 63 29 64 30 65
REMARK SMILES IDX 38 66 31 67 33 68 39 69 32 70 34 71 35 72 36 73 37 74 61 75
REMARK SMILES IDX 62 76 70 77 63 78 65 79 71 80 64 81 66 82 67 83 68 84 69 85
REMARK SMILES IDX 46 86 47 87 55 88 48 89 50 90 56 91 49 92 51 93 52 94 53 95
REMARK SMILES IDX 54 96
REMARK H PARENT 76 49 44 60
REMARK Flexibility Score: inf
ROOT
ATOM      1  C   UNL A   1      34.715  21.553  26.015  1.00  0.00     0.202 C 
ENDROOT
BRANCH   1   2
ATOM      2  O   UNL A   1      33.453  20.891  26.070  1.00  0.00    -0.374 OA
BRANCH   2   3
ATOM      3  C   UNL A   1      32.299  21.695  25.823  1.00  0.00     0.202 C 
BRANCH   3   4
ATOM      4  C   UNL A   1      32.550  23.081  25.231  1.00  0.00     0.261 C 
BRANCH   4   5
ATOM      5  O   UNL A   1      31.321  23.706  24.818  1.00  0.00    -0.463 OA
BRANCH   5   6
ATOM      6  C   UNL A   1      31.085  23.724  23.486  1.00  0.00     0.311 C 
ATOM      7  O   UNL A   1      31.072  22.729  22.767  1.00  0.00    -0.252 OA
BRANCH   6   8
ATOM      8  C   UNL A   1      30.877  25.107  22.913  1.00  0.00     0.128 C 
ATOM      9  C   UNL A   1      30.724  26.260  23.925  1.00  0.00     0.127 C 
ATOM     10  N   UNL A   1      32.110  26.717  24.105  1.00  0.00    -0.364 N 
ATOM     11  C   UNL A   1      32.073  25.518  22.063  1.00  0.00     0.039 C 
ATOM     12  C   UNL A   1      32.986  26.279  23.023  1.00  0.00     0.118 C 
BRANCH   9  13
ATOM     13  C   UNL A   1      29.832  27.367  23.329  1.00  0.00    -0.024 A 
ATOM     14  C   UNL A   1      28.244  29.549  22.472  1.00  0.00     0.118 A 
ATOM     15  C   UNL A   1      29.617  29.539  22.232  1.00  0.00     0.047 A 
ATOM     16  C   UNL A   1      27.649  28.437  23.052  1.00  0.00     0.047 A 
ATOM     17  C   UNL A   1      30.406  28.458  22.651  1.00  0.00     0.010 A 
ATOM     18  C   UNL A   1      28.436  27.366  23.478  1.00  0.00     0.010 A 
BRANCH  14  19
ATOM     19  O   UNL A   1      27.559  30.668  22.083  1.00  0.00    -0.497 OA
ATOM     20  C   UNL A   1      28.375  31.834  21.973  1.00  0.00     0.278 C 
ENDBRANCH  14  19
ENDBRANCH   9  13
BRANCH  10  21
ATOM     21  C   UNL A   1      32.582  27.445  25.174  1.00  0.00     0.037 A 
ATOM     22  C   UNL A   1      33.841  28.075  25.122  1.00  0.00     0.029 A 
ATOM     23  C   UNL A   1      31.827  27.633  26.339  1.00  0.00     0.029 A 
ATOM     24  C   UNL A   1      34.315  28.877  26.166  1.00  0.00     0.041 A 
ATOM     25  C   UNL A   1      32.298  28.433  27.386  1.00  0.00     0.041 A 
ATOM     26  C   UNL A   1      33.537  29.045  27.294  1.00  0.00     0.123 A 
ATOM     27  F   UNL A   1      33.970  29.812  28.302  1.00  0.00    -0.207 F 
ENDBRANCH  10  21
ENDBRANCH   6   8
ENDBRANCH   5   6
ENDBRANCH   4   5
ENDBRANCH   3   4
ENDBRANCH   2   3
ENDBRANCH   1   2
BRANCH   1  28
ATOM     28  C   UNL A   1      35.871  20.789  25.352  1.00  0.00     0.261 C 
BRANCH  28  29
ATOM     29  O   UNL A   1      37.004  21.627  25.069  1.00  0.00    -0.460 OA
BRANCH  29  30
ATOM     30  C   UNL A   1      38.196  21.192  25.554  1.00  0.00     0.338 C 
ATOM     31  O   UNL A   1      38.701  20.092  25.393  1.00  0.00    -0.246 OA
BRANCH  30  32
ATOM     32  C   UNL A   1      38.900  22.336  26.167  1.00  0.00     0.060 A 
ATOM     33  C   UNL A   1      38.376  23.627  26.022  1.00  0.00     0.016 A 
ATOM     34  C   UNL A   1      40.076  22.132  26.883  1.00  0.00     0.016 A 
ATOM     35  C   UNL A   1      39.042  24.723  26.583  1.00  0.00     0.010 A 
ATOM     36  C   UNL A   1      40.718  23.224  27.471  1.00  0.00     0.010 A 
ATOM     37  C   UNL A   1      40.233  24.534  27.295  1.00  0.00    -0.014 A 
BRANCH  37  38
ATOM     38  C   UNL A   1      41.097  25.674  27.713  1.00  0.00     0.031 A 
ATOM     39  C   UNL A   1      40.464  26.787  28.512  1.00  0.00     0.074 A 
ATOM     40  C   UNL A   1      42.388  25.776  27.345  1.00  0.00     0.049 A 
ATOM     41  N   UNL A   1      40.938  27.963  28.829  1.00  0.00    -0.248 NA
ATOM     42  C   UNL A   1      39.089  26.548  28.985  1.00  0.00     0.031 C 
ATOM     43  C   UNL A   1      43.138  24.782  26.580  1.00  0.00     0.029 A 
ATOM     44  N   UNL A   1      43.291  26.795  27.544  1.00  0.00    -0.354 N 
ATOM     45  C   UNL A   1      39.897  28.628  29.465  1.00  0.00     0.074 A 
ATOM     46  C   UNL A   1      38.758  27.736  29.461  1.00  0.00     0.031 C 
ATOM     47  C   UNL A   1      44.385  25.240  26.370  1.00  0.00     0.029 A 
ATOM     48  C   UNL A   1      44.510  26.581  26.943  1.00  0.00     0.049 A 
ATOM     49  H   UNL A   1      43.084  27.602  28.068  1.00  0.00     0.167 HD
ATOM     50  C   UNL A   1      39.885  29.861  30.028  1.00  0.00     0.034 A 
ATOM     51  C   UNL A   1      45.592  27.381  26.847  1.00  0.00     0.034 A 
ATOM     52  C   UNL A   1      41.030  30.725  30.086  1.00  0.00     0.049 A 
ATOM     53  C   UNL A   1      45.559  28.759  27.467  1.00  0.00     0.074 A 
ATOM     54  C   UNL A   1      41.144  31.960  30.698  1.00  0.00     0.029 A 
ATOM     55  N   UNL A   1      42.259  30.446  29.510  1.00  0.00    -0.354 N 
ATOM     56  N   UNL A   1      44.599  29.337  28.147  1.00  0.00    -0.248 NA
ATOM     57  C   UNL A   1      46.769  29.586  27.324  1.00  0.00     0.031 C 
ATOM     58  C   UNL A   1      42.434  32.445  30.461  1.00  0.00     0.029 A 
ATOM     59  C   UNL A   1      43.136  31.489  29.742  1.00  0.00     0.049 A 
ATOM     60  H   UNL A   1      42.476  29.627  29.009  1.00  0.00     0.167 HD
ATOM     61  C   UNL A   1      45.106  30.566  28.559  1.00  0.00     0.074 A 
ATOM     62  C   UNL A   1      46.459  30.652  28.050  1.00  0.00     0.031 C 
ATOM     63  C   UNL A   1      44.505  31.534  29.293  1.00  0.00     0.034 A 
BRANCH  50  64
ATOM     64  C   UNL A   1      38.591  30.329  30.642  1.00  0.00     0.023 A 
ATOM     65  C   UNL A   1      38.209  29.870  31.920  1.00  0.00     0.012 A 
ATOM     66  C   UNL A   1      37.751  31.227  29.955  1.00  0.00     0.148 A 
ATOM     67  C   UNL A   1      36.983  30.240  32.472  1.00  0.00     0.002 A 
ATOM     68  C   UNL A   1      36.559  31.639  30.538  1.00  0.00     0.091 A 
ATOM     69  F   UNL A   1      38.119  31.644  28.734  1.00  0.00    -0.205 F 
ATOM     70  C   UNL A   1      36.163  31.129  31.786  1.00  0.00     0.022 A 
BRANCH  68  71
ATOM     71  S   UNL A   1      35.479  32.854  29.775  1.00  0.00     0.127 S 
ATOM     72  O   UNL A   1      34.250  32.686  30.550  1.00  0.00    -0.237 OA
ATOM     73  O   UNL A   1      36.195  34.105  30.032  1.00  0.00    -0.237 OA
ATOM     74  O   UNL A   1      35.393  32.486  28.369  1.00  0.00    -0.744 OA
ENDBRANCH  68  71
ENDBRANCH  50  64
BRANCH  51  75
ATOM     75  C   UNL A   1      46.837  26.885  26.190  1.00  0.00     0.023 A 
ATOM     76  C   UNL A   1      46.960  26.996  24.790  1.00  0.00     0.012 A 
ATOM     77  C   UNL A   1      47.894  26.316  26.927  1.00  0.00     0.148 A 
ATOM     78  C   UNL A   1      48.097  26.525  24.133  1.00  0.00     0.002 A 
ATOM     79  C   UNL A   1      49.047  25.894  26.272  1.00  0.00     0.091 A 
ATOM     80  F   UNL A   1      47.757  26.211  28.256  1.00  0.00    -0.205 F 
ATOM     81  C   UNL A   1      49.142  25.982  24.873  1.00  0.00     0.022 A 
BRANCH  79  82
ATOM     82  S   UNL A   1      50.494  25.283  27.143  1.00  0.00     0.127 S 
ATOM     83  O   UNL A   1      50.857  26.434  27.966  1.00  0.00    -0.237 OA
ATOM     84  O   UNL A   1      49.939  24.149  27.882  1.00  0.00    -0.237 OA
ATOM     85  O   UNL A   1      51.456  24.921  26.112  1.00  0.00    -0.744 OA
ENDBRANCH  79  82
ENDBRANCH  51  75
BRANCH  63  86
ATOM     86  C   UNL A   1      45.307  32.751  29.680  1.00  0.00     0.023 A 
ATOM     87  C   UNL A   1      46.214  32.694  30.755  1.00  0.00     0.012 A 
ATOM     88  C   UNL A   1      45.255  33.910  28.878  1.00  0.00     0.148 A 
ATOM     89  C   UNL A   1      47.048  33.778  31.033  1.00  0.00     0.002 A 
ATOM     90  C   UNL A   1      46.125  34.964  29.128  1.00  0.00     0.091 A 
ATOM     91  F   UNL A   1      44.373  33.947  27.868  1.00  0.00    -0.205 F 
ATOM     92  C   UNL A   1      47.015  34.904  30.212  1.00  0.00     0.022 A 
BRANCH  90  93
ATOM     93  S   UNL A   1      46.231  36.405  28.062  1.00  0.00     0.127 S 
ATOM     94  O   UNL A   1      46.482  35.792  26.757  1.00  0.00    -0.237 OA
ATOM     95  O   UNL A   1      44.903  36.999  28.212  1.00  0.00    -0.237 OA
ATOM     96  O   UNL A   1      47.323  37.216  28.582  1.00  0.00    -0.744 OA
ENDBRANCH  90  93
ENDBRANCH  63  86
ENDBRANCH  37  38
ENDBRANCH  30  32
ENDBRANCH  29  30
ENDBRANCH  28  29
ENDBRANCH   1  28
TORSDOF 20
ENDMDL
MODEL 2
REMARK VINA RESULT:     -11.6      4.735      9.821
REMARK SMILES COc1ccc([C@H]2[C@H](C(=O)OCCOCCOC(=O)c3ccc(-c4c5nc(c(-c6cccc(S(=O)(=O)[O-])c6F)c6ccc([nH]6)c(-c6cccc(S(=O)(=O)[O-])c6F)c6nc(c(-c7cccc(S(=O)(=O)[O-])c7F)c7ccc4[nH]7)C=C6)C=C5)cc3)CCN2c2ccc(F)cc2)cc1
REMARK SMILES IDX 15 1 14 2 13 3 12 4 11 5 9 6 10 7 8 8 7 9 85 10 83 11 84 12
REMARK SMILES IDX 6 13 3 14 4 15 94 16 5 17 93 18 2 19 1 20 86 21 87 22 92 23
REMARK SMILES IDX 88 24 91 25 89 26 90 27 16 28 17 29 18 30 19 31 20 32 21 33
REMARK SMILES IDX 82 34 22 35 81 36 23 37 24 38 25 39 75 40 26 41 80 42 74 43
REMARK SMILES IDX 76 44 27 45 79 46 73 47 72 48 28 50 60 51 40 52 59 53 41 54
REMARK SMILES IDX 44 55 58 56 77 57 42 58 43 59 57 61 78 62 45 63 29 64 30 65
REMARK SMILES IDX 38 66 31 67 33 68 39 69 32 70 34 71 35 72 36 73 37 74 61 75
REMARK SMILES IDX 62 76 70 77 63 78 65 79 71 80 64 81 66 82 67 83 68 84 69 85
REMARK SMILES IDX 46 86 47 87 55 88 48 89 50 90 56 91 49 92 51 93 52 94 53 95
REMARK SMILES IDX 54 96
REMARK H PARENT 76 49 44 60
REMARK Flexibility Score: inf
ROOT
ATOM      1  C   UNL A   1      32.158  27.524  24.983  1.00  0.00     0.202 C 
ENDROOT
BRANCH   1   2
ATOM      2  O   UNL A   1      33.323  26.912  24.434  1.00  0.00    -0.374 OA
BRANCH   2   3
ATOM      3  C   UNL A   1      33.346  26.738  23.017  1.00  0.00     0.202 C 
BRANCH   3   4
ATOM      4  C   UNL A   1      32.015  26.395  22.352  1.00  0.00     0.261 C 
BRANCH   4   5
ATOM      5  O   UNL A   1      31.778  24.975  22.351  1.00  0.00    -0.463 OA
BRANCH   5   6
ATOM      6  C   UNL A   1      30.816  24.535  23.195  1.00  0.00     0.311 C 
ATOM      7  O   UNL A   1      29.825  25.183  23.520  1.00  0.00    -0.252 OA
BRANCH   6   8
ATOM      8  C   UNL A   1      31.078  23.162  23.768  1.00  0.00     0.128 C 
ATOM      9  C   UNL A   1      32.512  22.615  23.630  1.00  0.00     0.127 C 
ATOM     10  N   UNL A   1      33.155  23.078  24.868  1.00  0.00    -0.364 N 
ATOM     11  C   UNL A   1      30.821  23.153  25.270  1.00  0.00     0.039 C 
ATOM     12  C   UNL A   1      32.185  23.444  25.895  1.00  0.00     0.118 C 
BRANCH   9  13
ATOM     13  C   UNL A   1      32.481  21.076  23.546  1.00  0.00    -0.024 A 
ATOM     14  C   UNL A   1      32.703  18.261  23.331  1.00  0.00     0.118 A 
ATOM     15  C   UNL A   1      32.970  18.899  24.542  1.00  0.00     0.047 A 
ATOM     16  C   UNL A   1      32.236  19.009  22.259  1.00  0.00     0.047 A 
ATOM     17  C   UNL A   1      32.856  20.293  24.653  1.00  0.00     0.010 A 
ATOM     18  C   UNL A   1      32.133  20.396  22.367  1.00  0.00     0.010 A 
BRANCH  14  19
ATOM     19  O   UNL A   1      32.894  16.906  23.294  1.00  0.00    -0.497 OA
ATOM     20  C   UNL A   1      34.110  16.479  23.910  1.00  0.00     0.278 C 
ENDBRANCH  14  19
ENDBRANCH   9  13
BRANCH  10  21
ATOM     21  C   UNL A   1      34.511  23.203  25.070  1.00  0.00     0.037 A 
ATOM     22  C   UNL A   1      35.377  23.501  24.000  1.00  0.00     0.029 A 
ATOM     23  C   UNL A   1      35.089  23.087  26.340  1.00  0.00     0.029 A 
ATOM     24  C   UNL A   1      36.749  23.703  24.188  1.00  0.00     0.041 A 
ATOM     25  C   UNL A   1      36.461  23.286  26.532  1.00  0.00     0.041 A 
ATOM     26  C   UNL A   1      37.279  23.588  25.457  1.00  0.00     0.123 A 
ATOM     27  F   UNL A   1      38.589  23.782  25.659  1.00  0.00    -0.207 F 
ENDBRANCH  10  21
ENDBRANCH   6   8
ENDBRANCH   5   6
ENDBRANCH   4   5
ENDBRANCH   3   4
ENDBRANCH   2   3
ENDBRANCH   1   2
BRANCH   1  28
ATOM     28  C   UNL A   1      32.087  29.057  24.925  1.00  0.00     0.261 C 
BRANCH  28  29
ATOM     29  O   UNL A   1      33.272  29.690  25.436  1.00  0.00    -0.460 OA
BRANCH  29  30
ATOM     30  C   UNL A   1      33.077  30.599  26.426  1.00  0.00     0.338 C 
ATOM     31  O   UNL A   1      32.075  31.266  26.629  1.00  0.00    -0.246 OA
BRANCH  30  32
ATOM     32  C   UNL A   1      34.215  30.524  27.364  1.00  0.00     0.060 A 
ATOM     33  C   UNL A   1      34.976  31.672  27.618  1.00  0.00     0.016 A 
ATOM     34  C   UNL A   1      34.528  29.322  27.991  1.00  0.00     0.016 A 
ATOM     35  C   UNL A   1      36.069  31.614  28.492  1.00  0.00     0.010 A 
ATOM     36  C   UNL A   1      35.596  29.276  28.889  1.00  0.00     0.010 A 
ATOM     37  C   UNL A   1      36.403  30.406  29.119  1.00  0.00    -0.014 A 
BRANCH  37  38
ATOM     38  C   UNL A   1      37.677  30.230  29.872  1.00  0.00     0.031 A 
ATOM     39  C   UNL A   1      38.742  29.349  29.267  1.00  0.00     0.074 A 
ATOM     40  C   UNL A   1      37.877  30.768  31.091  1.00  0.00     0.049 A 
ATOM     41  N   UNL A   1      39.843  28.884  29.795  1.00  0.00    -0.248 NA
ATOM     42  C   UNL A   1      38.507  28.902  27.883  1.00  0.00     0.031 C 
ATOM     43  C   UNL A   1      36.946  31.643  31.800  1.00  0.00     0.029 A 
ATOM     44  N   UNL A   1      38.930  30.622  31.964  1.00  0.00    -0.354 N 
ATOM     45  C   UNL A   1      40.388  28.032  28.842  1.00  0.00     0.074 A 
ATOM     46  C   UNL A   1      39.479  28.022  27.716  1.00  0.00     0.031 C 
ATOM     47  C   UNL A   1      37.466  31.954  33.001  1.00  0.00     0.029 A 
ATOM     48  C   UNL A   1      38.744  31.262  33.168  1.00  0.00     0.049 A 
ATOM     49  H   UNL A   1      39.741  30.108  31.747  1.00  0.00     0.167 HD
ATOM     50  C   UNL A   1      41.549  27.336  28.879  1.00  0.00     0.034 A 
ATOM     51  C   UNL A   1      39.506  31.270  34.282  1.00  0.00     0.034 A 
ATOM     52  C   UNL A   1      42.481  27.392  29.970  1.00  0.00     0.049 A 
ATOM     53  C   UNL A   1      40.791  30.477  34.313  1.00  0.00     0.074 A 
ATOM     54  C   UNL A   1      43.719  26.784  30.074  1.00  0.00     0.029 A 
ATOM     55  N   UNL A   1      42.276  28.093  31.147  1.00  0.00    -0.354 N 
ATOM     56  N   UNL A   1      41.339  29.751  33.369  1.00  0.00    -0.248 NA
ATOM     57  C   UNL A   1      41.575  30.523  35.559  1.00  0.00     0.031 C 
ATOM     58  C   UNL A   1      44.249  27.090  31.331  1.00  0.00     0.029 A 
ATOM     59  C   UNL A   1      43.360  27.927  31.990  1.00  0.00     0.049 A 
ATOM     60  H   UNL A   1      41.478  28.630  31.354  1.00  0.00     0.167 HD
ATOM     61  C   UNL A   1      42.552  29.302  33.884  1.00  0.00     0.074 A 
ATOM     62  C   UNL A   1      42.659  29.835  35.225  1.00  0.00     0.031 C 
ATOM     63  C   UNL A   1      43.491  28.521  33.296  1.00  0.00     0.034 A 
BRANCH  50  64
ATOM     64  C   UNL A   1      41.877  26.473  27.688  1.00  0.00     0.023 A 
ATOM     65  C   UNL A   1      42.351  27.063  26.497  1.00  0.00     0.012 A 
ATOM     66  C   UNL A   1      41.719  25.074  27.746  1.00  0.00     0.148 A 
ATOM     67  C   UNL A   1      42.594  26.286  25.366  1.00  0.00     0.002 A 
ATOM     68  C   UNL A   1      42.020  24.300  26.632  1.00  0.00     0.091 A 
ATOM     69  F   UNL A   1      41.253  24.528  28.879  1.00  0.00    -0.205 F 
ATOM     70  C   UNL A   1      42.436  24.906  25.436  1.00  0.00     0.022 A 
BRANCH  68  71
ATOM     71  S   UNL A   1      41.940  22.507  26.653  1.00  0.00     0.127 S 
ATOM     72  O   UNL A   1      40.533  22.278  26.983  1.00  0.00    -0.237 OA
ATOM     73  O   UNL A   1      42.306  22.166  25.278  1.00  0.00    -0.237 OA
ATOM     74  O   UNL A   1      42.900  22.074  27.659  1.00  0.00    -0.744 OA
ENDBRANCH  68  71
ENDBRANCH  50  64
BRANCH  51  75
ATOM     75  C   UNL A   1      39.114  32.109  35.453  1.00  0.00     0.023 A 
ATOM     76  C   UNL A   1      38.218  31.578  36.402  1.00  0.00     0.012 A 
ATOM     77  C   UNL A   1      39.618  33.411  35.640  1.00  0.00     0.148 A 
ATOM     78  C   UNL A   1      37.808  32.337  37.499  1.00  0.00     0.002 A 
ATOM     79  C   UNL A   1      39.245  34.143  36.762  1.00  0.00     0.091 A 
ATOM     80  F   UNL A   1      40.462  33.903  34.722  1.00  0.00    -0.205 F 
ATOM     81  C   UNL A   1      38.327  33.614  37.683  1.00  0.00     0.022 A 
BRANCH  79  82
ATOM     82  S   UNL A   1      39.941  35.754  37.150  1.00  0.00     0.127 S 
ATOM     83  O   UNL A   1      41.351  35.430  37.354  1.00  0.00    -0.237 OA
ATOM     84  O   UNL A   1      39.653  36.504  35.927  1.00  0.00    -0.237 OA
ATOM     85  O   UNL A   1      39.228  36.222  38.330  1.00  0.00    -0.744 OA
ENDBRANCH  79  82
ENDBRANCH  51  75
BRANCH  63  86
ATOM     86  C   UNL A   1      44.770  28.242  34.044  1.00  0.00     0.023 A 
ATOM     87  C   UNL A   1      45.844  29.151  33.983  1.00  0.00     0.012 A 
ATOM     88  C   UNL A   1      44.845  27.139  34.920  1.00  0.00     0.148 A 
ATOM     89  C   UNL A   1      46.977  28.958  34.774  1.00  0.00     0.002 A 
ATOM     90  C   UNL A   1      45.954  26.984  35.742  1.00  0.00     0.091 A 
ATOM     91  F   UNL A   1      43.817  26.279  34.951  1.00  0.00    -0.205 F 
ATOM     92  C   UNL A   1      47.026  27.887  35.664  1.00  0.00     0.022 A 
BRANCH  90  93
ATOM     93  S   UNL A   1      46.057  25.699  36.995  1.00  0.00     0.127 S 
ATOM     94  O   UNL A   1      47.364  25.972  37.593  1.00  0.00    -0.237 OA
ATOM     95  O   UNL A   1      44.915  26.014  37.854  1.00  0.00    -0.237 OA
ATOM     96  O   UNL A   1      45.955  24.432  36.286  1.00  0.00    -0.744 OA
ENDBRANCH  90  93
ENDBRANCH  63  86
ENDBRANCH  37  38
ENDBRANCH  30  32
ENDBRANCH  29  30
ENDBRANCH  28  29
ENDBRANCH   1  28
TORSDOF 20
ENDMDL
MODEL 3
REMARK VINA RESULT:     -11.6      4.862     10.314
REMARK SMILES COc1ccc([C@H]2[C@H](C(=O)OCCOCCOC(=O)c3ccc(-c4c5nc(c(-c6cccc(S(=O)(=O)[O-])c6F)c6ccc([nH]6)c(-c6cccc(S(=O)(=O)[O-])c6F)c6nc(c(-c7cccc(S(=O)(=O)[O-])c7F)c7ccc4[nH]7)C=C6)C=C5)cc3)CCN2c2ccc(F)cc2)cc1
REMARK SMILES IDX 15 1 14 2 13 3 12 4 11 5 9 6 10 7 8 8 7 9 85 10 83 11 84 12
REMARK SMILES IDX 6 13 3 14 4 15 94 16 5 17 93 18 2 19 1 20 86 21 87 22 92 23
REMARK SMILES IDX 88 24 91 25 89 26 90 27 16 28 17 29 18 30 19 31 20 32 21 33
REMARK SMILES IDX 82 34 22 35 81 36 23 37 24 38 25 39 75 40 26 41 80 42 74 43
REMARK SMILES IDX 76 44 27 45 79 46 73 47 72 48 28 50 60 51 40 52 59 53 41 54
REMARK SMILES IDX 44 55 58 56 77 57 42 58 43 59 57 61 78 62 45 63 29 64 30 65
REMARK SMILES IDX 38 66 31 67 33 68 39 69 32 70 34 71 35 72 36 73 37 74 61 75
REMARK SMILES IDX 62 76 70 77 63 78 65 79 71 80 64 81 66 82 67 83 68 84 69 85
REMARK SMILES IDX 46 86 47 87 55 88 48 89 50 90 56 91 49 92 51 93 52 94 53 95
REMARK SMILES IDX 54 96
REMARK H PARENT 76 49 44 60
REMARK Flexibility Score: inf
ROOT
ATOM      1  C   UNL A   1      31.441  28.933  24.324  1.00  0.00     0.202 C 
ENDROOT
BRANCH   1   2
ATOM      2  O   UNL A   1      30.508  27.895  24.617  1.00  0.00    -0.374 OA
BRANCH   2   3
ATOM      3  C   UNL A   1      31.023  26.742  25.283  1.00  0.00     0.202 C 
BRANCH   3   4
ATOM      4  C   UNL A   1      30.062  25.566  25.450  1.00  0.00     0.261 C 
BRANCH   4   5
ATOM      5  O   UNL A   1      30.392  24.487  24.556  1.00  0.00    -0.463 OA
BRANCH   5   6
ATOM      6  C   UNL A   1      31.001  23.418  25.119  1.00  0.00     0.311 C 
ATOM      7  O   UNL A   1      30.488  22.689  25.964  1.00  0.00    -0.252 OA
BRANCH   6   8
ATOM      8  C   UNL A   1      32.423  23.201  24.656  1.00  0.00     0.128 C 
ATOM      9  C   UNL A   1      33.123  21.918  25.145  1.00  0.00     0.127 C 
ATOM     10  N   UNL A   1      32.800  20.951  24.086  1.00  0.00    -0.364 N 
ATOM     11  C   UNL A   1      32.479  23.097  23.137  1.00  0.00     0.039 C 
ATOM     12  C   UNL A   1      32.378  21.600  22.849  1.00  0.00     0.118 C 
BRANCH   9  13
ATOM     13  C   UNL A   1      34.642  22.157  25.254  1.00  0.00    -0.024 A 
ATOM     14  C   UNL A   1      37.398  22.592  25.736  1.00  0.00     0.118 A 
ATOM     15  C   UNL A   1      36.886  21.296  25.690  1.00  0.00     0.047 A 
ATOM     16  C   UNL A   1      36.561  23.662  25.450  1.00  0.00     0.047 A 
ATOM     17  C   UNL A   1      35.522  21.077  25.447  1.00  0.00     0.010 A 
ATOM     18  C   UNL A   1      35.202  23.444  25.218  1.00  0.00     0.010 A 
BRANCH  14  19
ATOM     19  O   UNL A   1      38.728  22.719  26.037  1.00  0.00    -0.497 OA
ATOM     20  C   UNL A   1      39.425  21.474  26.098  1.00  0.00     0.278 C 
ENDBRANCH  14  19
ENDBRANCH   9  13
BRANCH  10  21
ATOM     21  C   UNL A   1      32.841  19.580  24.211  1.00  0.00     0.037 A 
ATOM     22  C   UNL A   1      32.729  18.965  25.473  1.00  0.00     0.029 A 
ATOM     23  C   UNL A   1      32.951  18.733  23.101  1.00  0.00     0.029 A 
ATOM     24  C   UNL A   1      32.698  17.574  25.623  1.00  0.00     0.041 A 
ATOM     25  C   UNL A   1      32.922  17.342  23.246  1.00  0.00     0.041 A 
ATOM     26  C   UNL A   1      32.800  16.774  24.503  1.00  0.00     0.123 A 
ATOM     27  F   UNL A   1      32.767  15.441  24.624  1.00  0.00    -0.207 F 
ENDBRANCH  10  21
ENDBRANCH   6   8
ENDBRANCH   5   6
ENDBRANCH   4   5
ENDBRANCH   3   4
ENDBRANCH   2   3
ENDBRANCH   1   2
BRANCH   1  28
ATOM     28  C   UNL A   1      31.584  30.051  25.366  1.00  0.00     0.261 C 
BRANCH  28  29
ATOM     29  O   UNL A   1      32.887  30.086  25.973  1.00  0.00    -0.460 OA
BRANCH  29  30
ATOM     30  C   UNL A   1      33.089  31.074  26.882  1.00  0.00     0.338 C 
ATOM     31  O   UNL A   1      32.283  31.911  27.254  1.00  0.00    -0.246 OA
BRANCH  30  32
ATOM     32  C   UNL A   1      34.408  30.869  27.514  1.00  0.00     0.060 A 
ATOM     33  C   UNL A   1      34.848  29.568  27.785  1.00  0.00     0.016 A 
ATOM     34  C   UNL A   1      35.207  31.961  27.836  1.00  0.00     0.016 A 
ATOM     35  C   UNL A   1      36.089  29.358  28.399  1.00  0.00     0.010 A 
ATOM     36  C   UNL A   1      36.459  31.747  28.416  1.00  0.00     0.010 A 
ATOM     37  C   UNL A   1      36.898  30.449  28.741  1.00  0.00    -0.014 A 
BRANCH  37  38
ATOM     38  C   UNL A   1      38.111  30.301  29.594  1.00  0.00     0.031 A 
ATOM     39  C   UNL A   1      39.263  29.489  29.053  1.00  0.00     0.074 A 
ATOM     40  C   UNL A   1      38.182  30.800  30.842  1.00  0.00     0.049 A 
ATOM     41  N   UNL A   1      40.336  29.053  29.658  1.00  0.00    -0.248 NA
ATOM     42  C   UNL A   1      39.166  29.084  27.640  1.00  0.00     0.031 C 
ATOM     43  C   UNL A   1      37.156  31.607  31.499  1.00  0.00     0.029 A 
ATOM     44  N   UNL A   1      39.164  30.668  31.797  1.00  0.00    -0.354 N 
ATOM     45  C   UNL A   1      40.997  28.262  28.726  1.00  0.00     0.074 A 
ATOM     46  C   UNL A   1      40.188  28.254  27.527  1.00  0.00     0.031 C 
ATOM     47  C   UNL A   1      37.559  31.896  32.749  1.00  0.00     0.029 A 
ATOM     48  C   UNL A   1      38.849  31.254  33.001  1.00  0.00     0.049 A 
ATOM     49  H   UNL A   1      40.014  30.198  31.633  1.00  0.00     0.167 HD
ATOM     50  C   UNL A   1      42.182  27.616  28.839  1.00  0.00     0.034 A 
ATOM     51  C   UNL A   1      39.513  31.253  34.176  1.00  0.00     0.034 A 
ATOM     52  C   UNL A   1      43.016  27.671  30.007  1.00  0.00     0.049 A 
ATOM     53  C   UNL A   1      40.826  30.516  34.291  1.00  0.00     0.074 A 
ATOM     54  C   UNL A   1      44.268  27.114  30.196  1.00  0.00     0.029 A 
ATOM     55  N   UNL A   1      42.681  28.318  31.185  1.00  0.00    -0.354 N 
ATOM     56  N   UNL A   1      41.485  29.850  33.373  1.00  0.00    -0.248 NA
ATOM     57  C   UNL A   1      41.500  30.549  35.600  1.00  0.00     0.031 C 
ATOM     58  C   UNL A   1      44.675  27.395  31.503  1.00  0.00     0.029 A 
ATOM     59  C   UNL A   1      43.697  28.168  32.111  1.00  0.00     0.049 A 
ATOM     60  H   UNL A   1      41.844  28.812  31.341  1.00  0.00     0.167 HD
ATOM     61  C   UNL A   1      42.670  29.435  33.974  1.00  0.00     0.074 A 
ATOM     62  C   UNL A   1      42.640  29.922  35.337  1.00  0.00     0.031 C 
ATOM     63  C   UNL A   1      43.690  28.718  33.443  1.00  0.00     0.034 A 
BRANCH  50  64
ATOM     64  C   UNL A   1      42.649  26.812  27.653  1.00  0.00     0.023 A 
ATOM     65  C   UNL A   1      43.157  27.469  26.511  1.00  0.00     0.012 A 
ATOM     66  C   UNL A   1      42.586  25.405  27.665  1.00  0.00     0.148 A 
ATOM     67  C   UNL A   1      43.529  26.744  25.380  1.00  0.00     0.002 A 
ATOM     68  C   UNL A   1      43.015  24.687  26.556  1.00  0.00     0.091 A 
ATOM     69  F   UNL A   1      42.086  24.795  28.750  1.00  0.00    -0.205 F 
ATOM     70  C   UNL A   1      43.464  25.355  25.405  1.00  0.00     0.022 A 
BRANCH  68  71
ATOM     71  S   UNL A   1      43.060  22.892  26.527  1.00  0.00     0.127 S 
ATOM     72  O   UNL A   1      44.457  22.626  26.867  1.00  0.00    -0.237 OA
ATOM     73  O   UNL A   1      42.102  22.543  27.577  1.00  0.00    -0.237 OA
ATOM     74  O   UNL A   1      42.653  22.502  25.184  1.00  0.00    -0.744 OA
ENDBRANCH  68  71
ENDBRANCH  50  64
BRANCH  51  75
ATOM     75  C   UNL A   1      38.986  32.030  35.337  1.00  0.00     0.023 A 
ATOM     76  C   UNL A   1      39.089  33.435  35.319  1.00  0.00     0.012 A 
ATOM     77  C   UNL A   1      38.383  31.401  36.444  1.00  0.00     0.148 A 
ATOM     78  C   UNL A   1      38.630  34.199  36.393  1.00  0.00     0.002 A 
ATOM     79  C   UNL A   1      37.882  32.171  37.489  1.00  0.00     0.091 A 
ATOM     80  F   UNL A   1      38.301  30.064  36.447  1.00  0.00    -0.205 F 
ATOM     81  C   UNL A   1      38.020  33.568  37.472  1.00  0.00     0.022 A 
BRANCH  79  82
ATOM     82  S   UNL A   1      36.979  31.464  38.873  1.00  0.00     0.127 S 
ATOM     83  O   UNL A   1      37.952  31.583  39.956  1.00  0.00    -0.237 OA
ATOM     84  O   UNL A   1      35.834  32.369  38.973  1.00  0.00    -0.237 OA
ATOM     85  O   UNL A   1      36.644  30.104  38.478  1.00  0.00    -0.744 OA
ENDBRANCH  79  82
ENDBRANCH  51  75
BRANCH  63  86
ATOM     86  C   UNL A   1      44.913  28.467  34.288  1.00  0.00     0.023 A 
ATOM     87  C   UNL A   1      45.929  29.438  34.378  1.00  0.00     0.012 A 
ATOM     88  C   UNL A   1      44.981  27.317  35.102  1.00  0.00     0.148 A 
ATOM     89  C   UNL A   1      46.998  29.262  35.257  1.00  0.00     0.002 A 
ATOM     90  C   UNL A   1      46.020  27.174  36.012  1.00  0.00     0.091 A 
ATOM     91  F   UNL A   1      44.010  26.398  34.989  1.00  0.00    -0.205 F 
ATOM     92  C   UNL A   1      47.036  28.141  36.084  1.00  0.00     0.022 A 
BRANCH  90  93
ATOM     93  S   UNL A   1      46.094  25.821  37.193  1.00  0.00     0.127 S 
ATOM     94  O   UNL A   1      46.033  24.655  36.312  1.00  0.00    -0.237 OA
ATOM     95  O   UNL A   1      47.394  26.039  37.829  1.00  0.00    -0.237 OA
ATOM     96  O   UNL A   1      44.948  25.989  38.075  1.00  0.00    -0.744 OA
ENDBRANCH  90  93
ENDBRANCH  63  86
ENDBRANCH  37  38
ENDBRANCH  30  32
ENDBRANCH  29  30
ENDBRANCH  28  29
ENDBRANCH   1  28
TORSDOF 20
ENDMDL
