MODEL 1
REMARK VINA RESULT:     -11.6      0.000      0.000
REMARK SMILES Cc1cccc2nc([C@@H]3CCCC[C@@H]3C(=O)OCCOCCOC(=O)c3ccc(-c4c5nc(c(-c6cccc(S(=O)(=O)[O-])c6F)c6ccc([nH]6)c(-c6cccc(S(=O)(=O)[O-])c6F)c6nc(c(-c7cccc(S(=O)(=O)[O-])c7F)c7ccc4[nH]7)C=C6)C=C5)cc3)oc12
REMARK SMILES IDX 21 1 20 2 19 3 18 4 17 5 15 6 16 7 14 8 9 9 10 10 11 11
REMARK SMILES IDX 13 12 12 13 8 14 1 15 2 16 3 17 90 18 4 19 6 20 89 21 5 22
REMARK SMILES IDX 7 23 22 24 23 25 24 26 25 27 26 28 27 29 88 30 28 31 87 32
REMARK SMILES IDX 29 33 30 34 31 35 81 36 32 37 86 38 80 39 82 40 33 41 85 42
REMARK SMILES IDX 79 43 78 44 34 46 66 47 46 48 65 49 47 50 50 51 64 52 83 53
REMARK SMILES IDX 48 54 49 55 63 57 84 58 51 59 35 60 36 61 44 62 37 63 39 64
REMARK SMILES IDX 45 65 38 66 40 67 41 68 42 69 43 70 67 71 68 72 76 73 69 74
REMARK SMILES IDX 71 75 77 76 70 77 72 78 73 79 74 80 75 81 52 82 53 83 61 84
REMARK SMILES IDX 54 85 56 86 62 87 55 88 57 89 58 90 59 91 60 92
REMARK H PARENT 82 45 50 56
REMARK Flexibility Score: inf
ROOT
ATOM      1  C   UNL A   1      33.176  29.601  26.164  1.00  0.00     0.202 C 
ENDROOT
BRANCH   1   2
ATOM      2  O   UNL A   1      33.235  29.743  24.746  1.00  0.00    -0.374 OA
BRANCH   2   3
ATOM      3  C   UNL A   1      32.445  28.841  23.960  1.00  0.00     0.202 C 
BRANCH   3   4
ATOM      4  C   UNL A   1      33.230  27.736  23.266  1.00  0.00     0.261 C 
BRANCH   4   5
ATOM      5  O   UNL A   1      33.701  26.795  24.250  1.00  0.00    -0.463 OA
BRANCH   5   6
ATOM      6  C   UNL A   1      33.022  25.651  24.425  1.00  0.00     0.309 C 
ATOM      7  O   UNL A   1      32.652  24.936  23.499  1.00  0.00    -0.252 OA
BRANCH   6   8
ATOM      8  C   UNL A   1      32.719  25.308  25.891  1.00  0.00     0.111 C 
ATOM      9  C   UNL A   1      32.966  23.900  26.497  1.00  0.00     0.090 C 
ATOM     10  C   UNL A   1      31.808  22.910  26.323  1.00  0.00     0.014 C 
ATOM     11  C   UNL A   1      30.469  23.488  26.756  1.00  0.00     0.001 C 
ATOM     12  C   UNL A   1      31.294  25.816  26.231  1.00  0.00     0.016 C 
ATOM     13  C   UNL A   1      30.176  24.793  26.039  1.00  0.00     0.001 C 
BRANCH   9  14
ATOM     14  C   UNL A   1      34.260  23.253  26.112  1.00  0.00     0.199 A 
ATOM     15  C   UNL A   1      35.161  19.218  24.693  1.00  0.00     0.048 C 
ATOM     16  C   UNL A   1      36.018  20.393  25.029  1.00  0.00    -0.006 A 
ATOM     17  C   UNL A   1      37.424  20.335  24.956  1.00  0.00     0.007 A 
ATOM     18  C   UNL A   1      35.511  21.620  25.455  1.00  0.00     0.157 A 
ATOM     19  C   UNL A   1      38.232  21.447  25.234  1.00  0.00     0.003 A 
ATOM     20  C   UNL A   1      36.274  22.748  25.700  1.00  0.00     0.110 A 
ATOM     21  O   UNL A   1      34.205  21.938  25.724  1.00  0.00    -0.440 OA
ATOM     22  C   UNL A   1      37.666  22.678  25.586  1.00  0.00     0.032 A 
ATOM     23  N   UNL A   1      35.462  23.791  26.045  1.00  0.00    -0.213 NA
ENDBRANCH   9  14
ENDBRANCH   6   8
ENDBRANCH   5   6
ENDBRANCH   4   5
ENDBRANCH   3   4
ENDBRANCH   2   3
ENDBRANCH   1   2
BRANCH   1  24
ATOM     24  C   UNL A   1      32.467  30.713  26.925  1.00  0.00     0.261 C 
BRANCH  24  25
ATOM     25  O   UNL A   1      33.429  31.511  27.594  1.00  0.00    -0.460 OA
BRANCH  25  26
ATOM     26  C   UNL A   1      33.034  32.780  27.858  1.00  0.00     0.338 C 
ATOM     27  O   UNL A   1      32.091  33.371  27.383  1.00  0.00    -0.246 OA
BRANCH  26  28
ATOM     28  C   UNL A   1      34.037  33.382  28.762  1.00  0.00     0.060 A 
ATOM     29  C   UNL A   1      35.004  34.091  28.061  1.00  0.00     0.016 A 
ATOM     30  C   UNL A   1      34.318  32.700  29.953  1.00  0.00     0.016 A 
ATOM     31  C   UNL A   1      36.302  33.715  28.275  1.00  0.00     0.010 A 
ATOM     32  C   UNL A   1      35.609  32.291  30.146  1.00  0.00     0.010 A 
ATOM     33  C   UNL A   1      36.559  32.724  29.230  1.00  0.00    -0.014 A 
BRANCH  33  34
ATOM     34  C   UNL A   1      37.922  32.287  29.364  1.00  0.00     0.031 A 
ATOM     35  C   UNL A   1      38.023  30.859  29.018  1.00  0.00     0.074 A 
ATOM     36  C   UNL A   1      38.929  33.098  29.725  1.00  0.00     0.049 A 
ATOM     37  N   UNL A   1      38.064  29.865  29.842  1.00  0.00    -0.248 NA
ATOM     38  C   UNL A   1      37.761  30.484  27.620  1.00  0.00     0.031 C 
ATOM     39  C   UNL A   1      38.946  34.563  29.798  1.00  0.00     0.029 A 
ATOM     40  N   UNL A   1      40.215  32.762  29.997  1.00  0.00    -0.354 N 
ATOM     41  C   UNL A   1      38.108  28.746  29.023  1.00  0.00     0.074 A 
ATOM     42  C   UNL A   1      37.657  29.160  27.720  1.00  0.00     0.031 C 
ATOM     43  C   UNL A   1      40.233  34.985  29.849  1.00  0.00     0.029 A 
ATOM     44  C   UNL A   1      41.106  33.829  29.959  1.00  0.00     0.049 A 
ATOM     45  H   UNL A   1      40.493  31.841  30.203  1.00  0.00     0.167 HD
ATOM     46  C   UNL A   1      38.855  27.666  29.367  1.00  0.00     0.034 A 
ATOM     47  C   UNL A   1      42.456  33.709  29.933  1.00  0.00     0.034 A 
ATOM     48  C   UNL A   1      39.257  27.713  30.744  1.00  0.00     0.049 A 
ATOM     49  C   UNL A   1      42.766  32.362  30.469  1.00  0.00     0.074 A 
ATOM     50  C   UNL A   1      38.636  27.588  31.967  1.00  0.00     0.029 A 
ATOM     51  N   UNL A   1      40.446  28.366  30.947  1.00  0.00    -0.354 N 
ATOM     52  N   UNL A   1      42.540  32.004  31.701  1.00  0.00    -0.248 NA
ATOM     53  C   UNL A   1      43.027  31.270  29.538  1.00  0.00     0.031 C 
ATOM     54  C   UNL A   1      39.381  28.408  32.864  1.00  0.00     0.029 A 
ATOM     55  C   UNL A   1      40.447  28.980  32.169  1.00  0.00     0.049 A 
ATOM     56  H   UNL A   1      41.192  28.390  30.305  1.00  0.00     0.167 HD
ATOM     57  C   UNL A   1      42.203  30.665  31.610  1.00  0.00     0.074 A 
ATOM     58  C   UNL A   1      42.693  30.232  30.308  1.00  0.00     0.031 C 
ATOM     59  C   UNL A   1      41.288  30.121  32.460  1.00  0.00     0.034 A 
BRANCH  46  60
ATOM     60  C   UNL A   1      39.617  26.858  28.354  1.00  0.00     0.023 A 
ATOM     61  C   UNL A   1      39.453  25.461  28.360  1.00  0.00     0.012 A 
ATOM     62  C   UNL A   1      40.673  27.383  27.573  1.00  0.00     0.148 A 
ATOM     63  C   UNL A   1      40.284  24.633  27.598  1.00  0.00     0.002 A 
ATOM     64  C   UNL A   1      41.426  26.570  26.740  1.00  0.00     0.091 A 
ATOM     65  F   UNL A   1      41.061  28.651  27.743  1.00  0.00    -0.205 F 
ATOM     66  C   UNL A   1      41.252  25.188  26.764  1.00  0.00     0.022 A 
BRANCH  64  67
ATOM     67  S   UNL A   1      42.636  27.266  25.610  1.00  0.00     0.127 S 
ATOM     68  O   UNL A   1      41.872  28.342  24.989  1.00  0.00    -0.237 OA
ATOM     69  O   UNL A   1      43.689  27.697  26.529  1.00  0.00    -0.237 OA
ATOM     70  O   UNL A   1      43.025  26.163  24.738  1.00  0.00    -0.744 OA
ENDBRANCH  64  67
ENDBRANCH  46  60
BRANCH  47  71
ATOM     71  C   UNL A   1      43.509  34.510  29.259  1.00  0.00     0.023 A 
ATOM     72  C   UNL A   1      44.322  35.348  30.055  1.00  0.00     0.012 A 
ATOM     73  C   UNL A   1      43.946  34.207  27.953  1.00  0.00     0.148 A 
ATOM     74  C   UNL A   1      45.571  35.788  29.606  1.00  0.00     0.002 A 
ATOM     75  C   UNL A   1      45.189  34.656  27.507  1.00  0.00     0.091 A 
ATOM     76  F   UNL A   1      43.201  33.400  27.188  1.00  0.00    -0.205 F 
ATOM     77  C   UNL A   1      46.013  35.425  28.339  1.00  0.00     0.022 A 
BRANCH  75  78
ATOM     78  S   UNL A   1      45.839  34.220  25.888  1.00  0.00     0.127 S 
ATOM     79  O   UNL A   1      46.069  32.781  26.026  1.00  0.00    -0.237 OA
ATOM     80  O   UNL A   1      44.729  34.580  25.010  1.00  0.00    -0.237 OA
ATOM     81  O   UNL A   1      47.057  35.005  25.729  1.00  0.00    -0.744 OA
ENDBRANCH  75  78
ENDBRANCH  47  71
BRANCH  59  82
ATOM     82  C   UNL A   1      40.998  30.867  33.728  1.00  0.00     0.023 A 
ATOM     83  C   UNL A   1      41.842  30.822  34.855  1.00  0.00     0.012 A 
ATOM     84  C   UNL A   1      39.916  31.761  33.710  1.00  0.00     0.148 A 
ATOM     85  C   UNL A   1      41.608  31.662  35.947  1.00  0.00     0.002 A 
ATOM     86  C   UNL A   1      39.710  32.621  34.777  1.00  0.00     0.091 A 
ATOM     87  F   UNL A   1      39.132  31.778  32.622  1.00  0.00    -0.205 F 
ATOM     88  C   UNL A   1      40.551  32.573  35.902  1.00  0.00     0.022 A 
BRANCH  86  89
ATOM     89  S   UNL A   1      38.442  33.887  34.733  1.00  0.00     0.127 S 
ATOM     90  O   UNL A   1      37.219  33.102  34.900  1.00  0.00    -0.237 OA
ATOM     91  O   UNL A   1      38.797  34.720  35.881  1.00  0.00    -0.237 OA
ATOM     92  O   UNL A   1      38.579  34.554  33.443  1.00  0.00    -0.744 OA
ENDBRANCH  86  89
ENDBRANCH  59  82
ENDBRANCH  33  34
ENDBRANCH  26  28
ENDBRANCH  25  26
ENDBRANCH  24  25
ENDBRANCH   1  24
TORSDOF 18
ENDMDL
MODEL 2
REMARK VINA RESULT:     -11.5      2.003      4.166
REMARK SMILES Cc1cccc2nc([C@@H]3CCCC[C@@H]3C(=O)OCCOCCOC(=O)c3ccc(-c4c5nc(c(-c6cccc(S(=O)(=O)[O-])c6F)c6ccc([nH]6)c(-c6cccc(S(=O)(=O)[O-])c6F)c6nc(c(-c7cccc(S(=O)(=O)[O-])c7F)c7ccc4[nH]7)C=C6)C=C5)cc3)oc12
REMARK SMILES IDX 21 1 20 2 19 3 18 4 17 5 15 6 16 7 14 8 9 9 10 10 11 11
REMARK SMILES IDX 13 12 12 13 8 14 1 15 2 16 3 17 90 18 4 19 6 20 89 21 5 22
REMARK SMILES IDX 7 23 22 24 23 25 24 26 25 27 26 28 27 29 88 30 28 31 87 32
REMARK SMILES IDX 29 33 30 34 31 35 81 36 32 37 86 38 80 39 82 40 33 41 85 42
REMARK SMILES IDX 79 43 78 44 34 46 66 47 46 48 65 49 47 50 50 51 64 52 83 53
REMARK SMILES IDX 48 54 49 55 63 57 84 58 51 59 35 60 36 61 44 62 37 63 39 64
REMARK SMILES IDX 45 65 38 66 40 67 41 68 42 69 43 70 67 71 68 72 76 73 69 74
REMARK SMILES IDX 71 75 77 76 70 77 72 78 73 79 74 80 75 81 52 82 53 83 61 84
REMARK SMILES IDX 54 85 56 86 62 87 55 88 57 89 58 90 59 91 60 92
REMARK H PARENT 82 45 50 56
REMARK Flexibility Score: inf
ROOT
ATOM      1  C   UNL A   1      32.925  29.430  27.377  1.00  0.00     0.202 C 
ENDROOT
BRANCH   1   2
ATOM      2  O   UNL A   1      32.218  28.441  26.631  1.00  0.00    -0.374 OA
BRANCH   2   3
ATOM      3  C   UNL A   1      32.990  27.395  26.026  1.00  0.00     0.202 C 
BRANCH   3   4
ATOM      4  C   UNL A   1      33.852  27.830  24.848  1.00  0.00     0.261 C 
BRANCH   4   5
ATOM      5  O   UNL A   1      33.682  26.897  23.765  1.00  0.00    -0.463 OA
BRANCH   5   6
ATOM      6  C   UNL A   1      33.298  27.362  22.566  1.00  0.00     0.309 C 
ATOM      7  O   UNL A   1      33.824  28.324  22.014  1.00  0.00    -0.252 OA
BRANCH   6   8
ATOM      8  C   UNL A   1      32.120  26.604  21.936  1.00  0.00     0.111 C 
ATOM      9  C   UNL A   1      30.659  26.742  22.444  1.00  0.00     0.090 C 
ATOM     10  C   UNL A   1      30.283  25.797  23.592  1.00  0.00     0.014 C 
ATOM     11  C   UNL A   1      30.651  24.349  23.308  1.00  0.00     0.001 C 
ATOM     12  C   UNL A   1      32.517  25.112  21.788  1.00  0.00     0.016 C 
ATOM     13  C   UNL A   1      32.122  24.215  22.959  1.00  0.00     0.001 C 
BRANCH   9  14
ATOM     14  C   UNL A   1      30.217  28.138  22.758  1.00  0.00     0.199 A 
ATOM     15  C   UNL A   1      27.986  31.062  20.397  1.00  0.00     0.048 C 
ATOM     16  C   UNL A   1      28.628  31.119  21.744  1.00  0.00    -0.006 A 
ATOM     17  C   UNL A   1      28.629  32.295  22.520  1.00  0.00     0.007 A 
ATOM     18  C   UNL A   1      29.287  30.038  22.329  1.00  0.00     0.157 A 
ATOM     19  C   UNL A   1      29.197  32.342  23.801  1.00  0.00     0.003 A 
ATOM     20  C   UNL A   1      29.825  30.038  23.604  1.00  0.00     0.110 A 
ATOM     21  O   UNL A   1      29.541  28.812  21.773  1.00  0.00    -0.440 OA
ATOM     22  C   UNL A   1      29.782  31.206  24.372  1.00  0.00     0.032 A 
ATOM     23  N   UNL A   1      30.345  28.807  23.887  1.00  0.00    -0.213 NA
ENDBRANCH   9  14
ENDBRANCH   6   8
ENDBRANCH   5   6
ENDBRANCH   4   5
ENDBRANCH   3   4
ENDBRANCH   2   3
ENDBRANCH   1   2
BRANCH   1  24
ATOM     24  C   UNL A   1      32.562  30.881  27.089  1.00  0.00     0.261 C 
BRANCH  24  25
ATOM     25  O   UNL A   1      33.593  31.727  27.568  1.00  0.00    -0.460 OA
BRANCH  25  26
ATOM     26  C   UNL A   1      33.188  32.966  27.937  1.00  0.00     0.338 C 
ATOM     27  O   UNL A   1      32.222  33.574  27.539  1.00  0.00    -0.246 OA
BRANCH  26  28
ATOM     28  C   UNL A   1      34.213  33.519  28.849  1.00  0.00     0.060 A 
ATOM     29  C   UNL A   1      35.209  34.196  28.157  1.00  0.00     0.016 A 
ATOM     30  C   UNL A   1      34.465  32.812  30.033  1.00  0.00     0.016 A 
ATOM     31  C   UNL A   1      36.490  33.767  28.368  1.00  0.00     0.010 A 
ATOM     32  C   UNL A   1      35.738  32.350  30.223  1.00  0.00     0.010 A 
ATOM     33  C   UNL A   1      36.707  32.755  29.313  1.00  0.00    -0.014 A 
BRANCH  33  34
ATOM     34  C   UNL A   1      38.050  32.264  29.444  1.00  0.00     0.031 A 
ATOM     35  C   UNL A   1      38.109  30.856  29.014  1.00  0.00     0.074 A 
ATOM     36  C   UNL A   1      39.078  33.016  29.870  1.00  0.00     0.049 A 
ATOM     37  N   UNL A   1      38.101  29.814  29.777  1.00  0.00    -0.248 NA
ATOM     38  C   UNL A   1      37.861  30.574  27.592  1.00  0.00     0.031 C 
ATOM     39  C   UNL A   1      39.143  34.472  30.031  1.00  0.00     0.029 A 
ATOM     40  N   UNL A   1      40.346  32.619  30.143  1.00  0.00    -0.354 N 
ATOM     41  C   UNL A   1      38.122  28.744  28.894  1.00  0.00     0.074 A 
ATOM     42  C   UNL A   1      37.710  29.251  27.611  1.00  0.00     0.031 C 
ATOM     43  C   UNL A   1      40.443  34.845  30.130  1.00  0.00     0.029 A 
ATOM     44  C   UNL A   1      41.273  33.654  30.184  1.00  0.00     0.049 A 
ATOM     45  H   UNL A   1      40.589  31.678  30.298  1.00  0.00     0.167 HD
ATOM     46  C   UNL A   1      38.824  27.621  29.185  1.00  0.00     0.034 A 
ATOM     47  C   UNL A   1      42.619  33.488  30.175  1.00  0.00     0.034 A 
ATOM     48  C   UNL A   1      39.201  27.571  30.569  1.00  0.00     0.049 A 
ATOM     49  C   UNL A   1      42.872  32.101  30.634  1.00  0.00     0.074 A 
ATOM     50  C   UNL A   1      38.553  27.396  31.771  1.00  0.00     0.029 A 
ATOM     51  N   UNL A   1      40.408  28.168  30.831  1.00  0.00    -0.354 N 
ATOM     52  N   UNL A   1      42.611  31.679  31.839  1.00  0.00    -0.248 NA
ATOM     53  C   UNL A   1      43.113  31.058  29.643  1.00  0.00     0.031 C 
ATOM     54  C   UNL A   1      39.308  28.134  32.729  1.00  0.00     0.029 A 
ATOM     55  C   UNL A   1      40.407  28.708  32.087  1.00  0.00     0.049 A 
ATOM     56  H   UNL A   1      41.167  28.204  30.204  1.00  0.00     0.167 HD
ATOM     57  C   UNL A   1      42.230  30.360  31.662  1.00  0.00     0.074 A 
ATOM     58  C   UNL A   1      42.729  29.989  30.344  1.00  0.00     0.031 C 
ATOM     59  C   UNL A   1      41.280  29.799  32.461  1.00  0.00     0.034 A 
BRANCH  46  60
ATOM     60  C   UNL A   1      39.577  26.847  28.138  1.00  0.00     0.023 A 
ATOM     61  C   UNL A   1      39.280  25.482  27.979  1.00  0.00     0.012 A 
ATOM     62  C   UNL A   1      40.733  27.339  27.487  1.00  0.00     0.148 A 
ATOM     63  C   UNL A   1      40.082  24.656  27.184  1.00  0.00     0.002 A 
ATOM     64  C   UNL A   1      41.464  26.543  26.618  1.00  0.00     0.091 A 
ATOM     65  F   UNL A   1      41.227  28.536  27.820  1.00  0.00    -0.205 F 
ATOM     66  C   UNL A   1      41.157  25.191  26.479  1.00  0.00     0.022 A 
BRANCH  64  67
ATOM     67  S   UNL A   1      42.814  27.224  25.650  1.00  0.00     0.127 S 
ATOM     68  O   UNL A   1      43.328  26.032  24.984  1.00  0.00    -0.237 OA
ATOM     69  O   UNL A   1      42.111  28.169  24.782  1.00  0.00    -0.237 OA
ATOM     70  O   UNL A   1      43.701  27.857  26.620  1.00  0.00    -0.744 OA
ENDBRANCH  64  67
ENDBRANCH  46  60
BRANCH  47  71
ATOM     71  C   UNL A   1      43.711  34.289  29.568  1.00  0.00     0.023 A 
ATOM     72  C   UNL A   1      44.594  34.976  30.432  1.00  0.00     0.012 A 
ATOM     73  C   UNL A   1      44.103  34.111  28.225  1.00  0.00     0.148 A 
ATOM     74  C   UNL A   1      45.862  35.381  30.003  1.00  0.00     0.002 A 
ATOM     75  C   UNL A   1      45.365  34.524  27.800  1.00  0.00     0.091 A 
ATOM     76  F   UNL A   1      43.290  33.447  27.394  1.00  0.00    -0.205 F 
ATOM     77  C   UNL A   1      46.255  35.137  28.692  1.00  0.00     0.022 A 
BRANCH  75  78
ATOM     78  S   UNL A   1      45.953  34.235  26.126  1.00  0.00     0.127 S 
ATOM     79  O   UNL A   1      46.044  32.775  26.080  1.00  0.00    -0.237 OA
ATOM     80  O   UNL A   1      44.876  34.806  25.323  1.00  0.00    -0.237 OA
ATOM     81  O   UNL A   1      47.240  34.914  26.038  1.00  0.00    -0.744 OA
ENDBRANCH  75  78
ENDBRANCH  47  71
BRANCH  59  82
ATOM     82  C   UNL A   1      40.991  30.479  33.766  1.00  0.00     0.023 A 
ATOM     83  C   UNL A   1      41.830  30.362  34.893  1.00  0.00     0.012 A 
ATOM     84  C   UNL A   1      39.920  31.384  33.792  1.00  0.00     0.148 A 
ATOM     85  C   UNL A   1      41.598  31.145  36.029  1.00  0.00     0.002 A 
ATOM     86  C   UNL A   1      39.718  32.187  34.904  1.00  0.00     0.091 A 
ATOM     87  F   UNL A   1      39.142  31.469  32.703  1.00  0.00    -0.205 F 
ATOM     88  C   UNL A   1      40.552  32.069  36.028  1.00  0.00     0.022 A 
BRANCH  86  89
ATOM     89  S   UNL A   1      38.464  33.468  34.923  1.00  0.00     0.127 S 
ATOM     90  O   UNL A   1      38.693  34.104  36.219  1.00  0.00    -0.237 OA
ATOM     91  O   UNL A   1      38.835  34.281  33.765  1.00  0.00    -0.237 OA
ATOM     92  O   UNL A   1      37.182  32.783  34.787  1.00  0.00    -0.744 OA
ENDBRANCH  86  89
ENDBRANCH  59  82
ENDBRANCH  33  34
ENDBRANCH  26  28
ENDBRANCH  25  26
ENDBRANCH  24  25
ENDBRANCH   1  24
TORSDOF 18
ENDMDL
MODEL 3
REMARK VINA RESULT:     -11.2      3.936      8.810
REMARK SMILES Cc1cccc2nc([C@@H]3CCCC[C@@H]3C(=O)OCCOCCOC(=O)c3ccc(-c4c5nc(c(-c6cccc(S(=O)(=O)[O-])c6F)c6ccc([nH]6)c(-c6cccc(S(=O)(=O)[O-])c6F)c6nc(c(-c7cccc(S(=O)(=O)[O-])c7F)c7ccc4[nH]7)C=C6)C=C5)cc3)oc12
REMARK SMILES IDX 21 1 20 2 19 3 18 4 17 5 15 6 16 7 14 8 9 9 10 10 11 11
REMARK SMILES IDX 13 12 12 13 8 14 1 15 2 16 3 17 90 18 4 19 6 20 89 21 5 22
REMARK SMILES IDX 7 23 22 24 23 25 24 26 25 27 26 28 27 29 88 30 28 31 87 32
REMARK SMILES IDX 29 33 30 34 31 35 81 36 32 37 86 38 80 39 82 40 33 41 85 42
REMARK SMILES IDX 79 43 78 44 34 46 66 47 46 48 65 49 47 50 50 51 64 52 83 53
REMARK SMILES IDX 48 54 49 55 63 57 84 58 51 59 35 60 36 61 44 62 37 63 39 64
REMARK SMILES IDX 45 65 38 66 40 67 41 68 42 69 43 70 67 71 68 72 76 73 69 74
REMARK SMILES IDX 71 75 77 76 70 77 72 78 73 79 74 80 75 81 52 82 53 83 61 84
REMARK SMILES IDX 54 85 56 86 62 87 55 88 57 89 58 90 59 91 60 92
REMARK H PARENT 82 45 50 56
REMARK Flexibility Score: inf
ROOT
ATOM      1  C   UNL A   1      37.484  20.934  25.052  1.00  0.00     0.202 C 
ENDROOT
BRANCH   1   2
ATOM      2  O   UNL A   1      36.231  21.603  24.919  1.00  0.00    -0.374 OA
BRANCH   2   3
ATOM      3  C   UNL A   1      35.946  22.657  25.848  1.00  0.00     0.202 C 
BRANCH   3   4
ATOM      4  C   UNL A   1      35.973  24.060  25.259  1.00  0.00     0.261 C 
BRANCH   4   5
ATOM      5  O   UNL A   1      34.885  24.206  24.326  1.00  0.00    -0.463 OA
BRANCH   5   6
ATOM      6  C   UNL A   1      34.039  25.236  24.478  1.00  0.00     0.309 C 
ATOM      7  O   UNL A   1      33.913  26.135  23.651  1.00  0.00    -0.252 OA
BRANCH   6   8
ATOM      8  C   UNL A   1      33.242  25.218  25.790  1.00  0.00     0.111 C 
ATOM      9  C   UNL A   1      32.054  24.251  26.044  1.00  0.00     0.090 C 
ATOM     10  C   UNL A   1      30.691  24.760  25.555  1.00  0.00     0.014 C 
ATOM     11  C   UNL A   1      30.386  26.172  26.031  1.00  0.00     0.001 C 
ATOM     12  C   UNL A   1      32.857  26.676  26.153  1.00  0.00     0.016 C 
ATOM     13  C   UNL A   1      31.493  27.134  25.641  1.00  0.00     0.001 C 
BRANCH   9  14
ATOM     14  C   UNL A   1      32.267  22.839  25.595  1.00  0.00     0.199 A 
ATOM     15  C   UNL A   1      31.860  20.963  21.668  1.00  0.00     0.048 C 
ATOM     16  C   UNL A   1      32.182  20.427  23.023  1.00  0.00    -0.006 A 
ATOM     17  C   UNL A   1      32.391  19.052  23.249  1.00  0.00     0.007 A 
ATOM     18  C   UNL A   1      32.283  21.223  24.163  1.00  0.00     0.157 A 
ATOM     19  C   UNL A   1      32.732  18.547  24.512  1.00  0.00     0.003 A 
ATOM     20  C   UNL A   1      32.654  20.765  25.415  1.00  0.00     0.110 A 
ATOM     21  O   UNL A   1      32.026  22.564  24.272  1.00  0.00    -0.440 OA
ATOM     22  C   UNL A   1      32.893  19.401  25.610  1.00  0.00     0.032 A 
ATOM     23  N   UNL A   1      32.709  21.811  26.293  1.00  0.00    -0.213 NA
ENDBRANCH   9  14
ENDBRANCH   6   8
ENDBRANCH   5   6
ENDBRANCH   4   5
ENDBRANCH   3   4
ENDBRANCH   2   3
ENDBRANCH   1   2
BRANCH   1  24
ATOM     24  C   UNL A   1      38.669  21.796  25.468  1.00  0.00     0.261 C 
BRANCH  24  25
ATOM     25  O   UNL A   1      39.407  21.124  26.474  1.00  0.00    -0.460 OA
BRANCH  25  26
ATOM     26  C   UNL A   1      40.402  20.326  26.015  1.00  0.00     0.338 C 
ATOM     27  O   UNL A   1      40.292  19.249  25.476  1.00  0.00    -0.246 OA
BRANCH  26  28
ATOM     28  C   UNL A   1      41.688  20.952  26.391  1.00  0.00     0.060 A 
ATOM     29  C   UNL A   1      41.972  20.775  27.740  1.00  0.00     0.016 A 
ATOM     30  C   UNL A   1      42.074  22.098  25.684  1.00  0.00     0.016 A 
ATOM     31  C   UNL A   1      42.192  21.914  28.465  1.00  0.00     0.010 A 
ATOM     32  C   UNL A   1      42.255  23.245  26.407  1.00  0.00     0.010 A 
ATOM     33  C   UNL A   1      42.200  23.142  27.791  1.00  0.00    -0.014 A 
BRANCH  33  34
ATOM     34  C   UNL A   1      42.341  24.325  28.594  1.00  0.00     0.031 A 
ATOM     35  C   UNL A   1      41.243  25.261  28.299  1.00  0.00     0.074 A 
ATOM     36  C   UNL A   1      43.325  24.500  29.491  1.00  0.00     0.049 A 
ATOM     37  N   UNL A   1      41.293  26.291  27.521  1.00  0.00    -0.248 NA
ATOM     38  C   UNL A   1      39.883  24.845  28.676  1.00  0.00     0.031 C 
ATOM     39  C   UNL A   1      44.261  23.509  30.031  1.00  0.00     0.029 A 
ATOM     40  N   UNL A   1      43.616  25.617  30.203  1.00  0.00    -0.354 N 
ATOM     41  C   UNL A   1      40.002  26.800  27.546  1.00  0.00     0.074 A 
ATOM     42  C   UNL A   1      39.146  25.750  28.034  1.00  0.00     0.031 C 
ATOM     43  C   UNL A   1      44.835  24.011  31.152  1.00  0.00     0.029 A 
ATOM     44  C   UNL A   1      44.420  25.394  31.316  1.00  0.00     0.049 A 
ATOM     45  H   UNL A   1      43.285  26.510  29.954  1.00  0.00     0.167 HD
ATOM     46  C   UNL A   1      39.786  28.139  27.522  1.00  0.00     0.034 A 
ATOM     47  C   UNL A   1      44.624  26.287  32.314  1.00  0.00     0.034 A 
ATOM     48  C   UNL A   1      40.964  28.862  27.136  1.00  0.00     0.049 A 
ATOM     49  C   UNL A   1      44.300  27.622  31.755  1.00  0.00     0.074 A 
ATOM     50  C   UNL A   1      41.696  29.029  25.982  1.00  0.00     0.029 A 
ATOM     51  N   UNL A   1      41.772  29.200  28.192  1.00  0.00    -0.354 N 
ATOM     52  N   UNL A   1      44.988  28.194  30.808  1.00  0.00    -0.248 NA
ATOM     53  C   UNL A   1      42.987  28.200  32.014  1.00  0.00     0.031 C 
ATOM     54  C   UNL A   1      43.042  29.238  26.404  1.00  0.00     0.029 A 
ATOM     55  C   UNL A   1      43.081  29.224  27.799  1.00  0.00     0.049 A 
ATOM     56  H   UNL A   1      41.455  29.397  29.104  1.00  0.00     0.167 HD
ATOM     57  C   UNL A   1      44.043  28.897  30.080  1.00  0.00     0.074 A 
ATOM     58  C   UNL A   1      42.888  29.014  30.960  1.00  0.00     0.031 C 
ATOM     59  C   UNL A   1      44.172  29.041  28.731  1.00  0.00     0.034 A 
BRANCH  46  60
ATOM     60  C   UNL A   1      38.688  28.792  28.316  1.00  0.00     0.023 A 
ATOM     61  C   UNL A   1      37.778  29.619  27.634  1.00  0.00     0.012 A 
ATOM     62  C   UNL A   1      38.668  28.832  29.730  1.00  0.00     0.148 A 
ATOM     63  C   UNL A   1      36.871  30.424  28.332  1.00  0.00     0.002 A 
ATOM     64  C   UNL A   1      37.700  29.550  30.416  1.00  0.00     0.091 A 
ATOM     65  F   UNL A   1      39.678  28.300  30.427  1.00  0.00    -0.205 F 
ATOM     66  C   UNL A   1      36.811  30.368  29.722  1.00  0.00     0.022 A 
BRANCH  64  67
ATOM     67  S   UNL A   1      37.560  29.446  32.203  1.00  0.00     0.127 S 
ATOM     68  O   UNL A   1      37.652  28.006  32.421  1.00  0.00    -0.237 OA
ATOM     69  O   UNL A   1      38.724  30.218  32.639  1.00  0.00    -0.237 OA
ATOM     70  O   UNL A   1      36.281  30.069  32.525  1.00  0.00    -0.744 OA
ENDBRANCH  64  67
ENDBRANCH  46  60
BRANCH  47  71
ATOM     71  C   UNL A   1      44.814  26.112  33.776  1.00  0.00     0.023 A 
ATOM     72  C   UNL A   1      46.091  26.380  34.321  1.00  0.00     0.012 A 
ATOM     73  C   UNL A   1      43.719  26.036  34.661  1.00  0.00     0.148 A 
ATOM     74  C   UNL A   1      46.256  26.662  35.680  1.00  0.00     0.002 A 
ATOM     75  C   UNL A   1      43.891  26.309  36.018  1.00  0.00     0.091 A 
ATOM     76  F   UNL A   1      42.498  25.802  34.165  1.00  0.00    -0.205 F 
ATOM     77  C   UNL A   1      45.153  26.646  36.526  1.00  0.00     0.022 A 
BRANCH  75  78
ATOM     78  S   UNL A   1      42.514  26.322  37.174  1.00  0.00     0.127 S 
ATOM     79  O   UNL A   1      43.196  26.460  38.462  1.00  0.00    -0.237 OA
ATOM     80  O   UNL A   1      41.770  27.503  36.746  1.00  0.00    -0.237 OA
ATOM     81  O   UNL A   1      41.837  25.043  36.993  1.00  0.00    -0.744 OA
ENDBRANCH  75  78
ENDBRANCH  47  71
BRANCH  59  82
ATOM     82  C   UNL A   1      45.532  28.812  28.143  1.00  0.00     0.023 A 
ATOM     83  C   UNL A   1      45.914  27.594  27.544  1.00  0.00     0.012 A 
ATOM     84  C   UNL A   1      46.388  29.920  28.061  1.00  0.00     0.148 A 
ATOM     85  C   UNL A   1      47.134  27.492  26.870  1.00  0.00     0.002 A 
ATOM     86  C   UNL A   1      47.578  29.827  27.357  1.00  0.00     0.091 A 
ATOM     87  F   UNL A   1      45.993  31.063  28.642  1.00  0.00    -0.205 F 
ATOM     88  C   UNL A   1      47.959  28.613  26.762  1.00  0.00     0.022 A 
BRANCH  86  89
ATOM     89  S   UNL A   1      48.626  31.256  27.089  1.00  0.00     0.127 S 
ATOM     90  O   UNL A   1      49.729  30.687  26.316  1.00  0.00    -0.237 OA
ATOM     91  O   UNL A   1      47.745  32.148  26.336  1.00  0.00    -0.237 OA
ATOM     92  O   UNL A   1      48.987  31.749  28.413  1.00  0.00    -0.744 OA
ENDBRANCH  86  89
ENDBRANCH  59  82
ENDBRANCH  33  34
ENDBRANCH  26  28
ENDBRANCH  25  26
ENDBRANCH  24  25
ENDBRANCH   1  24
TORSDOF 18
ENDMDL
