MODEL 1
REMARK VINA RESULT:     -12.7      0.000      0.000
REMARK SMILES CC[C@](C)(NC(=O)[C@H]1C[NH2+]Cc2ccccc21)C(=O)OCCOCCOC(=O)c1ccc(-c2c3nc(c(-c4cccc(S(=O)(=O)[O-])c4F)c4ccc([nH]4)c(-c4cccc(S(=O)(=O)[O-])c4F)c4nc(c(-c5cccc(S(=O)(=O)[O-])c5F)c5ccc2[nH]5)C=C4)C=C3)cc1
REMARK SMILES IDX 24 1 23 2 22 3 21 4 20 5 18 6 19 7 3 8 4 9 2 10 1 11 5 12
REMARK SMILES IDX 6 13 7 15 8 16 9 17 17 18 10 19 12 20 16 21 11 22 13 25
REMARK SMILES IDX 15 26 14 27 25 28 26 29 27 30 28 31 29 32 30 33 91 34 31 35
REMARK SMILES IDX 90 36 32 37 33 38 34 39 84 40 35 41 89 42 83 43 85 44 36 45
REMARK SMILES IDX 88 46 82 47 81 48 37 50 69 51 49 52 68 53 50 54 53 55 67 56
REMARK SMILES IDX 86 57 51 58 52 59 66 61 87 62 54 63 38 64 39 65 47 66 40 67
REMARK SMILES IDX 42 68 48 69 41 70 43 71 44 72 45 73 46 74 70 75 71 76 79 77
REMARK SMILES IDX 72 78 74 79 80 80 73 81 75 82 76 83 77 84 78 85 55 86 56 87
REMARK SMILES IDX 64 88 57 89 59 90 65 91 58 92 60 93 61 94 62 95 63 96
REMARK H PARENT 5 14 10 23 10 24 85 49 53 60
REMARK Flexibility Score: inf
ROOT
ATOM      1  C   UNL A   1      36.135  19.196  24.961  1.00  0.00     0.202 C 
ENDROOT
BRANCH   1   2
ATOM      2  O   UNL A   1      34.986  20.154  25.111  1.00  0.00    -0.374 OA
BRANCH   2   3
ATOM      3  C   UNL A   1      33.625  19.691  25.023  1.00  0.00     0.202 C 
BRANCH   3   4
ATOM      4  C   UNL A   1      32.481  20.692  24.731  1.00  0.00     0.261 C 
BRANCH   4   5
ATOM      5  O   UNL A   1      32.847  21.538  23.647  1.00  0.00    -0.462 OA
BRANCH   5   6
ATOM      6  C   UNL A   1      33.199  22.792  24.038  1.00  0.00     0.331 C 
ATOM      7  O   UNL A   1      32.955  23.253  25.146  1.00  0.00    -0.249 OA
BRANCH   6   8
ATOM      8  C   UNL A   1      33.975  23.535  22.921  1.00  0.00     0.135 C 
ATOM      9  C   UNL A   1      33.338  23.044  21.602  1.00  0.00     0.047 C 
BRANCH   8  10
ATOM     10  C   UNL A   1      35.453  23.073  22.995  1.00  0.00     0.037 C 
ATOM     11  C   UNL A   1      36.169  23.300  24.321  1.00  0.00     0.007 C 
ENDBRANCH   8  10
BRANCH   8  12
ATOM     12  N   UNL A   1      33.817  24.988  23.166  1.00  0.00    -0.340 N 
ATOM     13  C   UNL A   1      33.021  25.767  22.344  1.00  0.00     0.234 C 
ATOM     14  H   UNL A   1      34.285  25.404  23.926  1.00  0.00     0.164 HD
ATOM     15  O   UNL A   1      33.330  25.729  21.155  1.00  0.00    -0.274 OA
BRANCH  13  16
ATOM     16  C   UNL A   1      32.111  26.891  23.063  1.00  0.00     0.164 C 
ATOM     17  C   UNL A   1      30.751  25.451  23.253  1.00  0.00     0.279 C 
ATOM     18  C   UNL A   1      32.345  28.086  24.650  1.00  0.00    -0.021 A 
ATOM     19  N   UNL A   1      30.252  24.931  24.929  1.00  0.00    -0.342 N 
ATOM     20  C   UNL A   1      31.511  27.680  26.175  1.00  0.00     0.010 A 
ATOM     21  C   UNL A   1      32.980  29.344  24.793  1.00  0.00     0.005 A 
ATOM     22  C   UNL A   1      30.391  26.141  26.285  1.00  0.00     0.297 C 
ATOM     23  H   UNL A   1      30.828  24.127  25.181  1.00  0.00     0.346 HD
ATOM     24  H   UNL A   1      29.250  24.753  24.851  1.00  0.00     0.346 HD
ATOM     25  C   UNL A   1      31.545  28.394  27.345  1.00  0.00     0.010 A 
ATOM     26  C   UNL A   1      33.030  29.941  26.097  1.00  0.00     0.000 A 
ATOM     27  C   UNL A   1      32.372  29.503  27.297  1.00  0.00     0.001 A 
ENDBRANCH  13  16
ENDBRANCH   8  12
ENDBRANCH   6   8
ENDBRANCH   5   6
ENDBRANCH   4   5
ENDBRANCH   3   4
ENDBRANCH   2   3
ENDBRANCH   1   2
BRANCH   1  28
ATOM     28  C   UNL A   1      37.904  19.617  24.558  1.00  0.00     0.261 C 
BRANCH  28  29
ATOM     29  O   UNL A   1      39.329  19.736  25.837  1.00  0.00    -0.460 OA
BRANCH  29  30
ATOM     30  C   UNL A   1      40.284  20.526  26.784  1.00  0.00     0.338 C 
ATOM     31  O   UNL A   1      41.217  19.974  27.395  1.00  0.00    -0.246 OA
BRANCH  30  32
ATOM     32  C   UNL A   1      40.281  21.968  27.119  1.00  0.00     0.060 A 
ATOM     33  C   UNL A   1      41.297  22.252  28.066  1.00  0.00     0.016 A 
ATOM     34  C   UNL A   1      39.698  23.020  26.420  1.00  0.00     0.016 A 
ATOM     35  C   UNL A   1      41.828  23.511  28.208  1.00  0.00     0.010 A 
ATOM     36  C   UNL A   1      40.184  24.316  26.616  1.00  0.00     0.010 A 
ATOM     37  C   UNL A   1      41.267  24.546  27.480  1.00  0.00    -0.014 A 
BRANCH  37  38
ATOM     38  C   UNL A   1      41.708  25.906  27.787  1.00  0.00     0.031 A 
ATOM     39  C   UNL A   1      43.077  26.278  27.325  1.00  0.00     0.074 A 
ATOM     40  C   UNL A   1      40.888  26.752  28.431  1.00  0.00     0.049 A 
ATOM     41  N   UNL A   1      43.762  27.356  27.562  1.00  0.00    -0.248 NA
ATOM     42  C   UNL A   1      43.782  25.274  26.503  1.00  0.00     0.031 C 
ATOM     43  C   UNL A   1      39.524  26.444  28.868  1.00  0.00     0.029 A 
ATOM     44  N   UNL A   1      41.090  28.040  28.842  1.00  0.00    -0.354 N 
ATOM     45  C   UNL A   1      45.007  27.130  26.991  1.00  0.00     0.074 A 
ATOM     46  C   UNL A   1      44.980  25.822  26.382  1.00  0.00     0.031 C 
ATOM     47  C   UNL A   1      39.021  27.512  29.512  1.00  0.00     0.029 A 
ATOM     48  C   UNL A   1      40.031  28.562  29.546  1.00  0.00     0.049 A 
ATOM     49  H   UNL A   1      41.913  28.545  28.651  1.00  0.00     0.167 HD
ATOM     50  C   UNL A   1      46.074  27.958  26.982  1.00  0.00     0.034 A 
ATOM     51  C   UNL A   1      39.918  29.762  30.149  1.00  0.00     0.034 A 
ATOM     52  C   UNL A   1      46.025  29.276  27.544  1.00  0.00     0.049 A 
ATOM     53  C   UNL A   1      41.079  30.712  30.017  1.00  0.00     0.074 A 
ATOM     54  C   UNL A   1      47.016  30.236  27.597  1.00  0.00     0.029 A 
ATOM     55  N   UNL A   1      44.893  29.827  28.133  1.00  0.00    -0.354 N 
ATOM     56  N   UNL A   1      42.247  30.508  29.447  1.00  0.00    -0.248 NA
ATOM     57  C   UNL A   1      40.904  32.064  30.560  1.00  0.00     0.031 C 
ATOM     58  C   UNL A   1      46.474  31.376  28.202  1.00  0.00     0.029 A 
ATOM     59  C   UNL A   1      45.145  31.127  28.520  1.00  0.00     0.049 A 
ATOM     60  H   UNL A   1      44.036  29.358  28.257  1.00  0.00     0.167 HD
ATOM     61  C   UNL A   1      42.931  31.712  29.530  1.00  0.00     0.074 A 
ATOM     62  C   UNL A   1      42.039  32.646  30.195  1.00  0.00     0.031 C 
ATOM     63  C   UNL A   1      44.187  32.023  29.119  1.00  0.00     0.034 A 
BRANCH  50  64
ATOM     64  C   UNL A   1      47.331  27.446  26.340  1.00  0.00     0.023 A 
ATOM     65  C   UNL A   1      47.569  27.688  24.971  1.00  0.00     0.012 A 
ATOM     66  C   UNL A   1      48.259  26.686  27.077  1.00  0.00     0.148 A 
ATOM     67  C   UNL A   1      48.687  27.144  24.336  1.00  0.00     0.002 A 
ATOM     68  C   UNL A   1      49.394  26.184  26.448  1.00  0.00     0.091 A 
ATOM     69  F   UNL A   1      47.997  26.430  28.367  1.00  0.00    -0.205 F 
ATOM     70  C   UNL A   1      49.601  26.401  25.076  1.00  0.00     0.022 A 
BRANCH  68  71
ATOM     71  S   UNL A   1      50.660  25.266  27.330  1.00  0.00     0.127 S 
ATOM     72  O   UNL A   1      51.586  24.927  26.251  1.00  0.00    -0.237 OA
ATOM     73  O   UNL A   1      51.163  26.263  28.274  1.00  0.00    -0.237 OA
ATOM     74  O   UNL A   1      49.976  24.138  27.949  1.00  0.00    -0.744 OA
ENDBRANCH  68  71
ENDBRANCH  50  64
BRANCH  51  75
ATOM     75  C   UNL A   1      38.643  30.139  30.826  1.00  0.00     0.023 A 
ATOM     76  C   UNL A   1      38.466  29.822  32.187  1.00  0.00     0.012 A 
ATOM     77  C   UNL A   1      37.644  30.878  30.163  1.00  0.00     0.148 A 
ATOM     78  C   UNL A   1      37.312  30.217  32.868  1.00  0.00     0.002 A 
ATOM     79  C   UNL A   1      36.519  31.313  30.861  1.00  0.00     0.091 A 
ATOM     80  F   UNL A   1      37.814  31.160  28.864  1.00  0.00    -0.205 F 
ATOM     81  C   UNL A   1      36.346  30.974  32.211  1.00  0.00     0.022 A 
BRANCH  79  82
ATOM     82  S   UNL A   1      35.303  32.410  30.118  1.00  0.00     0.127 S 
ATOM     83  O   UNL A   1      34.844  31.622  28.978  1.00  0.00    -0.237 OA
ATOM     84  O   UNL A   1      34.323  32.565  31.193  1.00  0.00    -0.237 OA
ATOM     85  O   UNL A   1      36.034  33.630  29.802  1.00  0.00    -0.744 OA
ENDBRANCH  79  82
ENDBRANCH  51  75
BRANCH  63  86
ATOM     86  C   UNL A   1      44.643  33.435  29.338  1.00  0.00     0.023 A 
ATOM     87  C   UNL A   1      45.164  33.809  30.589  1.00  0.00     0.012 A 
ATOM     88  C   UNL A   1      44.639  34.358  28.275  1.00  0.00     0.148 A 
ATOM     89  C   UNL A   1      45.660  35.096  30.787  1.00  0.00     0.002 A 
ATOM     90  C   UNL A   1      45.170  35.625  28.469  1.00  0.00     0.091 A 
ATOM     91  F   UNL A   1      44.114  33.984  27.099  1.00  0.00    -0.205 F 
ATOM     92  C   UNL A   1      45.675  35.999  29.725  1.00  0.00     0.022 A 
BRANCH  90  93
ATOM     93  S   UNL A   1      45.298  36.799  27.117  1.00  0.00     0.127 S 
ATOM     94  O   UNL A   1      45.827  35.964  26.043  1.00  0.00    -0.237 OA
ATOM     95  O   UNL A   1      43.910  37.226  26.931  1.00  0.00    -0.237 OA
ATOM     96  O   UNL A   1      46.183  37.850  27.602  1.00  0.00    -0.744 OA
ENDBRANCH  90  93
ENDBRANCH  63  86
ENDBRANCH  37  38
ENDBRANCH  30  32
ENDBRANCH  29  30
ENDBRANCH  28  29
ENDBRANCH   1  28
TORSDOF 20
ENDMDL
MODEL 2
REMARK VINA RESULT:     -12.4      1.735      2.213
REMARK SMILES CC[C@](C)(NC(=O)[C@H]1C[NH2+]Cc2ccccc21)C(=O)OCCOCCOC(=O)c1ccc(-c2c3nc(c(-c4cccc(S(=O)(=O)[O-])c4F)c4ccc([nH]4)c(-c4cccc(S(=O)(=O)[O-])c4F)c4nc(c(-c5cccc(S(=O)(=O)[O-])c5F)c5ccc2[nH]5)C=C4)C=C3)cc1
REMARK SMILES IDX 24 1 23 2 22 3 21 4 20 5 18 6 19 7 3 8 4 9 2 10 1 11 5 12
REMARK SMILES IDX 6 13 7 15 8 16 9 17 17 18 10 19 12 20 16 21 11 22 13 25
REMARK SMILES IDX 15 26 14 27 25 28 26 29 27 30 28 31 29 32 30 33 91 34 31 35
REMARK SMILES IDX 90 36 32 37 33 38 34 39 84 40 35 41 89 42 83 43 85 44 36 45
REMARK SMILES IDX 88 46 82 47 81 48 37 50 69 51 49 52 68 53 50 54 53 55 67 56
REMARK SMILES IDX 86 57 51 58 52 59 66 61 87 62 54 63 38 64 39 65 47 66 40 67
REMARK SMILES IDX 42 68 48 69 41 70 43 71 44 72 45 73 46 74 70 75 71 76 79 77
REMARK SMILES IDX 72 78 74 79 80 80 73 81 75 82 76 83 77 84 78 85 55 86 56 87
REMARK SMILES IDX 64 88 57 89 59 90 65 91 58 92 60 93 61 94 62 95 63 96
REMARK H PARENT 5 14 10 23 10 24 85 49 53 60
REMARK Flexibility Score: inf
ROOT
ATOM      1  C   UNL A   1      35.308  20.831  25.052  1.00  0.00     0.202 C 
ENDROOT
BRANCH   1   2
ATOM      2  O   UNL A   1      34.331  20.694  26.187  1.00  0.00    -0.374 OA
BRANCH   2   3
ATOM      3  C   UNL A   1      34.214  21.725  27.187  1.00  0.00     0.202 C 
BRANCH   3   4
ATOM      4  C   UNL A   1      32.824  22.307  27.543  1.00  0.00     0.261 C 
BRANCH   4   5
ATOM      5  O   UNL A   1      32.470  23.318  26.605  1.00  0.00    -0.462 OA
BRANCH   5   6
ATOM      6  C   UNL A   1      31.641  22.874  25.623  1.00  0.00     0.331 C 
ATOM      7  O   UNL A   1      30.633  22.212  25.832  1.00  0.00    -0.249 OA
BRANCH   6   8
ATOM      8  C   UNL A   1      32.118  23.345  24.227  1.00  0.00     0.135 C 
ATOM      9  C   UNL A   1      30.834  23.810  23.505  1.00  0.00     0.047 C 
BRANCH   8  10
ATOM     10  C   UNL A   1      32.715  22.114  23.498  1.00  0.00     0.037 C 
ATOM     11  C   UNL A   1      31.927  21.585  22.305  1.00  0.00     0.007 C 
ENDBRANCH   8  10
BRANCH   8  12
ATOM     12  N   UNL A   1      33.116  24.420  24.442  1.00  0.00    -0.340 N 
ATOM     13  C   UNL A   1      33.623  25.145  23.377  1.00  0.00     0.234 C 
ATOM     14  H   UNL A   1      33.421  24.622  25.355  1.00  0.00     0.164 HD
ATOM     15  O   UNL A   1      34.152  24.460  22.503  1.00  0.00    -0.274 OA
BRANCH  13  16
ATOM     16  C   UNL A   1      33.822  26.732  23.603  1.00  0.00     0.164 C 
ATOM     17  C   UNL A   1      32.706  26.951  21.971  1.00  0.00     0.279 C 
ATOM     18  C   UNL A   1      33.435  27.997  25.103  1.00  0.00    -0.021 A 
ATOM     19  N   UNL A   1      31.102  27.810  22.113  1.00  0.00    -0.342 N 
ATOM     20  C   UNL A   1      32.015  29.074  24.988  1.00  0.00     0.010 A 
ATOM     21  C   UNL A   1      34.172  28.331  26.265  1.00  0.00     0.005 A 
ATOM     22  C   UNL A   1      30.896  29.037  23.446  1.00  0.00     0.297 C 
ATOM     23  H   UNL A   1      30.386  27.094  22.248  1.00  0.00     0.346 HD
ATOM     24  H   UNL A   1      31.030  28.355  21.254  1.00  0.00     0.346 HD
ATOM     25  C   UNL A   1      31.617  30.009  25.908  1.00  0.00     0.010 A 
ATOM     26  C   UNL A   1      33.596  29.254  27.200  1.00  0.00     0.000 A 
ATOM     27  C   UNL A   1      32.401  30.037  27.049  1.00  0.00     0.001 A 
ENDBRANCH  13  16
ENDBRANCH   8  12
ENDBRANCH   6   8
ENDBRANCH   5   6
ENDBRANCH   4   5
ENDBRANCH   3   4
ENDBRANCH   2   3
ENDBRANCH   1   2
BRANCH   1  28
ATOM     28  C   UNL A   1      37.077  20.253  25.017  1.00  0.00     0.261 C 
BRANCH  28  29
ATOM     29  O   UNL A   1      38.559  21.184  25.806  1.00  0.00    -0.460 OA
BRANCH  29  30
ATOM     30  C   UNL A   1      39.866  21.249  26.653  1.00  0.00     0.338 C 
ATOM     31  O   UNL A   1      40.379  20.233  27.157  1.00  0.00    -0.246 OA
BRANCH  30  32
ATOM     32  C   UNL A   1      40.696  22.425  26.999  1.00  0.00     0.060 A 
ATOM     33  C   UNL A   1      40.337  23.532  26.191  1.00  0.00     0.016 A 
ATOM     34  C   UNL A   1      41.454  22.644  28.144  1.00  0.00     0.016 A 
ATOM     35  C   UNL A   1      40.583  24.827  26.578  1.00  0.00     0.010 A 
ATOM     36  C   UNL A   1      41.773  23.956  28.505  1.00  0.00     0.010 A 
ATOM     37  C   UNL A   1      41.306  25.038  27.740  1.00  0.00    -0.014 A 
BRANCH  37  38
ATOM     38  C   UNL A   1      41.729  26.406  28.034  1.00  0.00     0.031 A 
ATOM     39  C   UNL A   1      43.079  26.801  27.538  1.00  0.00     0.074 A 
ATOM     40  C   UNL A   1      40.910  27.239  28.697  1.00  0.00     0.049 A 
ATOM     41  N   UNL A   1      43.750  27.892  27.757  1.00  0.00    -0.248 NA
ATOM     42  C   UNL A   1      43.783  25.809  26.700  1.00  0.00     0.031 C 
ATOM     43  C   UNL A   1      39.563  26.906  29.167  1.00  0.00     0.029 A 
ATOM     44  N   UNL A   1      41.098  28.530  29.100  1.00  0.00    -0.354 N 
ATOM     45  C   UNL A   1      44.985  27.688  27.156  1.00  0.00     0.074 A 
ATOM     46  C   UNL A   1      44.967  26.378  26.550  1.00  0.00     0.031 C 
ATOM     47  C   UNL A   1      39.055  27.966  29.821  1.00  0.00     0.029 A 
ATOM     48  C   UNL A   1      40.047  29.035  29.829  1.00  0.00     0.049 A 
ATOM     49  H   UNL A   1      41.907  29.050  28.888  1.00  0.00     0.167 HD
ATOM     50  C   UNL A   1      46.036  28.535  27.120  1.00  0.00     0.034 A 
ATOM     51  C   UNL A   1      39.927  30.234  30.433  1.00  0.00     0.034 A 
ATOM     52  C   UNL A   1      45.977  29.853  27.681  1.00  0.00     0.049 A 
ATOM     53  C   UNL A   1      41.067  31.204  30.271  1.00  0.00     0.074 A 
ATOM     54  C   UNL A   1      46.951  30.831  27.708  1.00  0.00     0.029 A 
ATOM     55  N   UNL A   1      44.849  30.385  28.297  1.00  0.00    -0.354 N 
ATOM     56  N   UNL A   1      42.224  31.021  29.673  1.00  0.00    -0.248 NA
ATOM     57  C   UNL A   1      40.880  32.554  30.816  1.00  0.00     0.031 C 
ATOM     58  C   UNL A   1      46.403  31.963  28.325  1.00  0.00     0.029 A 
ATOM     59  C   UNL A   1      45.087  31.690  28.675  1.00  0.00     0.049 A 
ATOM     60  H   UNL A   1      44.005  29.900  28.442  1.00  0.00     0.167 HD
ATOM     61  C   UNL A   1      42.888  32.237  29.737  1.00  0.00     0.074 A 
ATOM     62  C   UNL A   1      41.995  33.156  30.422  1.00  0.00     0.031 C 
ATOM     63  C   UNL A   1      44.128  32.569  29.296  1.00  0.00     0.034 A 
BRANCH  50  64
ATOM     64  C   UNL A   1      47.287  28.045  26.448  1.00  0.00     0.023 A 
ATOM     65  C   UNL A   1      48.379  27.614  27.228  1.00  0.00     0.012 A 
ATOM     66  C   UNL A   1      47.401  28.051  25.045  1.00  0.00     0.148 A 
ATOM     67  C   UNL A   1      49.581  27.240  26.625  1.00  0.00     0.002 A 
ATOM     68  C   UNL A   1      48.587  27.635  24.449  1.00  0.00     0.091 A 
ATOM     69  F   UNL A   1      46.368  28.503  24.319  1.00  0.00    -0.205 F 
ATOM     70  C   UNL A   1      49.681  27.243  25.237  1.00  0.00     0.022 A 
BRANCH  68  71
ATOM     71  S   UNL A   1      48.792  27.546  22.667  1.00  0.00     0.127 S 
ATOM     72  O   UNL A   1      47.732  28.438  22.201  1.00  0.00    -0.237 OA
ATOM     73  O   UNL A   1      50.148  28.064  22.486  1.00  0.00    -0.237 OA
ATOM     74  O   UNL A   1      48.630  26.141  22.316  1.00  0.00    -0.744 OA
ENDBRANCH  68  71
ENDBRANCH  50  64
BRANCH  51  75
ATOM     75  C   UNL A   1      38.662  30.588  31.140  1.00  0.00     0.023 A 
ATOM     76  C   UNL A   1      38.552  30.340  32.521  1.00  0.00     0.012 A 
ATOM     77  C   UNL A   1      37.604  31.244  30.479  1.00  0.00     0.148 A 
ATOM     78  C   UNL A   1      37.408  30.719  33.227  1.00  0.00     0.002 A 
ATOM     79  C   UNL A   1      36.487  31.664  31.198  1.00  0.00     0.091 A 
ATOM     80  F   UNL A   1      37.711  31.460  29.160  1.00  0.00    -0.205 F 
ATOM     81  C   UNL A   1      36.382  31.393  32.570  1.00  0.00     0.022 A 
BRANCH  79  82
ATOM     82  S   UNL A   1      35.192  32.661  30.447  1.00  0.00     0.127 S 
ATOM     83  O   UNL A   1      34.232  32.782  31.540  1.00  0.00    -0.237 OA
ATOM     84  O   UNL A   1      35.902  33.896  30.112  1.00  0.00    -0.237 OA
ATOM     85  O   UNL A   1      34.750  31.899  29.286  1.00  0.00    -0.744 OA
ENDBRANCH  79  82
ENDBRANCH  51  75
BRANCH  63  86
ATOM     86  C   UNL A   1      44.563  33.991  29.501  1.00  0.00     0.023 A 
ATOM     87  C   UNL A   1      45.162  34.363  30.718  1.00  0.00     0.012 A 
ATOM     88  C   UNL A   1      44.462  34.925  28.454  1.00  0.00     0.148 A 
ATOM     89  C   UNL A   1      45.638  35.659  30.898  1.00  0.00     0.002 A 
ATOM     90  C   UNL A   1      44.974  36.203  28.627  1.00  0.00     0.091 A 
ATOM     91  F   UNL A   1      43.865  34.552  27.312  1.00  0.00    -0.205 F 
ATOM     92  C   UNL A   1      45.556  36.575  29.850  1.00  0.00     0.022 A 
BRANCH  90  93
ATOM     93  S   UNL A   1      44.977  37.396  27.285  1.00  0.00     0.127 S 
ATOM     94  O   UNL A   1      43.566  37.428  26.909  1.00  0.00    -0.237 OA
ATOM     95  O   UNL A   1      45.462  38.612  27.939  1.00  0.00    -0.237 OA
ATOM     96  O   UNL A   1      45.890  36.851  26.289  1.00  0.00    -0.744 OA
ENDBRANCH  90  93
ENDBRANCH  63  86
ENDBRANCH  37  38
ENDBRANCH  30  32
ENDBRANCH  29  30
ENDBRANCH  28  29
ENDBRANCH   1  28
TORSDOF 20
ENDMDL
MODEL 3
REMARK VINA RESULT:     -12.3      1.619      2.155
REMARK SMILES CC[C@](C)(NC(=O)[C@H]1C[NH2+]Cc2ccccc21)C(=O)OCCOCCOC(=O)c1ccc(-c2c3nc(c(-c4cccc(S(=O)(=O)[O-])c4F)c4ccc([nH]4)c(-c4cccc(S(=O)(=O)[O-])c4F)c4nc(c(-c5cccc(S(=O)(=O)[O-])c5F)c5ccc2[nH]5)C=C4)C=C3)cc1
REMARK SMILES IDX 24 1 23 2 22 3 21 4 20 5 18 6 19 7 3 8 4 9 2 10 1 11 5 12
REMARK SMILES IDX 6 13 7 15 8 16 9 17 17 18 10 19 12 20 16 21 11 22 13 25
REMARK SMILES IDX 15 26 14 27 25 28 26 29 27 30 28 31 29 32 30 33 91 34 31 35
REMARK SMILES IDX 90 36 32 37 33 38 34 39 84 40 35 41 89 42 83 43 85 44 36 45
REMARK SMILES IDX 88 46 82 47 81 48 37 50 69 51 49 52 68 53 50 54 53 55 67 56
REMARK SMILES IDX 86 57 51 58 52 59 66 61 87 62 54 63 38 64 39 65 47 66 40 67
REMARK SMILES IDX 42 68 48 69 41 70 43 71 44 72 45 73 46 74 70 75 71 76 79 77
REMARK SMILES IDX 72 78 74 79 80 80 73 81 75 82 76 83 77 84 78 85 55 86 56 87
REMARK SMILES IDX 64 88 57 89 59 90 65 91 58 92 60 93 61 94 62 95 63 96
REMARK H PARENT 5 14 10 23 10 24 85 49 53 60
REMARK Flexibility Score: inf
ROOT
ATOM      1  C   UNL A   1      35.696  21.109  25.284  1.00  0.00     0.202 C 
ENDROOT
BRANCH   1   2
ATOM      2  O   UNL A   1      34.842  21.103  26.522  1.00  0.00    -0.374 OA
BRANCH   2   3
ATOM      3  C   UNL A   1      34.410  22.337  27.126  1.00  0.00     0.202 C 
BRANCH   3   4
ATOM      4  C   UNL A   1      32.931  22.521  27.542  1.00  0.00     0.261 C 
BRANCH   4   5
ATOM      5  O   UNL A   1      32.234  23.252  26.538  1.00  0.00    -0.462 OA
BRANCH   5   6
ATOM      6  C   UNL A   1      31.787  22.471  25.519  1.00  0.00     0.331 C 
ATOM      7  O   UNL A   1      31.093  21.475  25.678  1.00  0.00    -0.249 OA
BRANCH   6   8
ATOM      8  C   UNL A   1      32.237  23.026  24.144  1.00  0.00     0.135 C 
ATOM      9  C   UNL A   1      30.935  23.505  23.464  1.00  0.00     0.047 C 
BRANCH   8  10
ATOM     10  C   UNL A   1      32.846  21.847  23.342  1.00  0.00     0.037 C 
ATOM     11  C   UNL A   1      31.989  21.277  22.218  1.00  0.00     0.007 C 
ENDBRANCH   8  10
BRANCH   8  12
ATOM     12  N   UNL A   1      33.217  24.106  24.404  1.00  0.00    -0.340 N 
ATOM     13  C   UNL A   1      33.729  24.870  23.369  1.00  0.00     0.234 C 
ATOM     14  H   UNL A   1      33.509  24.283  25.328  1.00  0.00     0.164 HD
ATOM     15  O   UNL A   1      34.278  24.219  22.482  1.00  0.00    -0.274 OA
BRANCH  13  16
ATOM     16  C   UNL A   1      33.905  26.451  23.646  1.00  0.00     0.164 C 
ATOM     17  C   UNL A   1      32.899  26.706  21.948  1.00  0.00     0.279 C 
ATOM     18  C   UNL A   1      33.411  27.678  25.146  1.00  0.00    -0.021 A 
ATOM     19  N   UNL A   1      31.285  27.555  22.003  1.00  0.00    -0.342 N 
ATOM     20  C   UNL A   1      31.998  28.753  24.963  1.00  0.00     0.010 A 
ATOM     21  C   UNL A   1      34.068  27.986  26.363  1.00  0.00     0.005 A 
ATOM     22  C   UNL A   1      30.984  28.749  23.348  1.00  0.00     0.297 C 
ATOM     23  H   UNL A   1      30.565  26.835  22.073  1.00  0.00     0.346 HD
ATOM     24  H   UNL A   1      31.268  28.121  21.154  1.00  0.00     0.346 HD
ATOM     25  C   UNL A   1      31.533  29.664  25.876  1.00  0.00     0.010 A 
ATOM     26  C   UNL A   1      33.426  28.885  27.279  1.00  0.00     0.000 A 
ATOM     27  C   UNL A   1      32.239  29.667  27.067  1.00  0.00     0.001 A 
ENDBRANCH  13  16
ENDBRANCH   8  12
ENDBRANCH   6   8
ENDBRANCH   5   6
ENDBRANCH   4   5
ENDBRANCH   3   4
ENDBRANCH   2   3
ENDBRANCH   1   2
BRANCH   1  28
ATOM     28  C   UNL A   1      37.223  20.093  24.967  1.00  0.00     0.261 C 
BRANCH  28  29
ATOM     29  O   UNL A   1      38.995  20.553  25.544  1.00  0.00    -0.460 OA
BRANCH  29  30
ATOM     30  C   UNL A   1      40.105  20.712  26.627  1.00  0.00     0.338 C 
ATOM     31  O   UNL A   1      40.443  19.772  27.371  1.00  0.00    -0.246 OA
BRANCH  30  32
ATOM     32  C   UNL A   1      40.918  21.903  26.963  1.00  0.00     0.060 A 
ATOM     33  C   UNL A   1      40.584  22.980  26.105  1.00  0.00     0.016 A 
ATOM     34  C   UNL A   1      41.633  22.164  28.126  1.00  0.00     0.016 A 
ATOM     35  C   UNL A   1      40.812  24.289  26.458  1.00  0.00     0.010 A 
ATOM     36  C   UNL A   1      41.935  23.489  28.454  1.00  0.00     0.010 A 
ATOM     37  C   UNL A   1      41.491  24.542  27.637  1.00  0.00    -0.014 A 
BRANCH  37  38
ATOM     38  C   UNL A   1      41.899  25.922  27.899  1.00  0.00     0.031 A 
ATOM     39  C   UNL A   1      43.256  26.312  27.419  1.00  0.00     0.074 A 
ATOM     40  C   UNL A   1      41.061  26.766  28.521  1.00  0.00     0.049 A 
ATOM     41  N   UNL A   1      43.915  27.414  27.620  1.00  0.00    -0.248 NA
ATOM     42  C   UNL A   1      43.984  25.302  26.626  1.00  0.00     0.031 C 
ATOM     43  C   UNL A   1      39.706  26.438  28.973  1.00  0.00     0.029 A 
ATOM     44  N   UNL A   1      41.231  28.071  28.890  1.00  0.00    -0.354 N 
ATOM     45  C   UNL A   1      45.163  27.202  27.051  1.00  0.00     0.074 A 
ATOM     46  C   UNL A   1      45.166  25.875  26.483  1.00  0.00     0.031 C 
ATOM     47  C   UNL A   1      39.178  27.512  29.586  1.00  0.00     0.029 A 
ATOM     48  C   UNL A   1      40.162  28.588  29.582  1.00  0.00     0.049 A 
ATOM     49  H   UNL A   1      42.041  28.590  28.679  1.00  0.00     0.167 HD
ATOM     50  C   UNL A   1      46.209  28.056  27.011  1.00  0.00     0.034 A 
ATOM     51  C   UNL A   1      40.021  29.803  30.148  1.00  0.00     0.034 A 
ATOM     52  C   UNL A   1      46.129  29.389  27.532  1.00  0.00     0.049 A 
ATOM     53  C   UNL A   1      41.157  30.777  29.981  1.00  0.00     0.074 A 
ATOM     54  C   UNL A   1      47.095  30.375  27.551  1.00  0.00     0.029 A 
ATOM     55  N   UNL A   1      44.985  29.930  28.109  1.00  0.00    -0.354 N 
ATOM     56  N   UNL A   1      42.328  30.585  29.413  1.00  0.00    -0.248 NA
ATOM     57  C   UNL A   1      40.950  32.141  30.483  1.00  0.00     0.031 C 
ATOM     58  C   UNL A   1      46.527  31.519  28.123  1.00  0.00     0.029 A 
ATOM     59  C   UNL A   1      45.206  31.247  28.455  1.00  0.00     0.049 A 
ATOM     60  H   UNL A   1      44.141  29.443  28.252  1.00  0.00     0.167 HD
ATOM     61  C   UNL A   1      42.982  31.807  29.455  1.00  0.00     0.074 A 
ATOM     62  C   UNL A   1      42.069  32.739  30.095  1.00  0.00     0.031 C 
ATOM     63  C   UNL A   1      44.228  32.137  29.029  1.00  0.00     0.034 A 
BRANCH  50  64
ATOM     64  C   UNL A   1      47.476  27.556  26.380  1.00  0.00     0.023 A 
ATOM     65  C   UNL A   1      47.730  27.812  25.017  1.00  0.00     0.012 A 
ATOM     66  C   UNL A   1      48.398  26.792  27.121  1.00  0.00     0.148 A 
ATOM     67  C   UNL A   1      48.858  27.280  24.391  1.00  0.00     0.002 A 
ATOM     68  C   UNL A   1      49.543  26.302  26.501  1.00  0.00     0.091 A 
ATOM     69  F   UNL A   1      48.121  26.522  28.405  1.00  0.00    -0.205 F 
ATOM     70  C   UNL A   1      49.766  26.533  25.134  1.00  0.00     0.022 A 
BRANCH  68  71
ATOM     71  S   UNL A   1      50.802  25.380  27.389  1.00  0.00     0.127 S 
ATOM     72  O   UNL A   1      50.027  24.266  27.932  1.00  0.00    -0.237 OA
ATOM     73  O   UNL A   1      51.729  25.013  26.318  1.00  0.00    -0.237 OA
ATOM     74  O   UNL A   1      51.351  26.302  28.374  1.00  0.00    -0.744 OA
ENDBRANCH  68  71
ENDBRANCH  50  64
BRANCH  51  75
ATOM     75  C   UNL A   1      38.740  30.168  30.819  1.00  0.00     0.023 A 
ATOM     76  C   UNL A   1      38.552  29.836  32.174  1.00  0.00     0.012 A 
ATOM     77  C   UNL A   1      37.744  30.913  30.156  1.00  0.00     0.148 A 
ATOM     78  C   UNL A   1      37.392  30.221  32.851  1.00  0.00     0.002 A 
ATOM     79  C   UNL A   1      36.612  31.336  30.850  1.00  0.00     0.091 A 
ATOM     80  F   UNL A   1      37.924  31.209  28.861  1.00  0.00    -0.205 F 
ATOM     81  C   UNL A   1      36.429  30.982  32.194  1.00  0.00     0.022 A 
BRANCH  79  82
ATOM     82  S   UNL A   1      35.399  32.438  30.108  1.00  0.00     0.127 S 
ATOM     83  O   UNL A   1      34.396  32.536  31.164  1.00  0.00    -0.237 OA
ATOM     84  O   UNL A   1      36.178  33.657  29.885  1.00  0.00    -0.237 OA
ATOM     85  O   UNL A   1      34.978  31.772  28.883  1.00  0.00    -0.744 OA
ENDBRANCH  79  82
ENDBRANCH  51  75
BRANCH  63  86
ATOM     86  C   UNL A   1      44.649  33.566  29.202  1.00  0.00     0.023 A 
ATOM     87  C   UNL A   1      44.385  34.495  28.179  1.00  0.00     0.012 A 
ATOM     88  C   UNL A   1      45.217  34.000  30.414  1.00  0.00     0.148 A 
ATOM     89  C   UNL A   1      44.701  35.840  28.353  1.00  0.00     0.002 A 
ATOM     90  C   UNL A   1      45.494  35.349  30.595  1.00  0.00     0.091 A 
ATOM     91  F   UNL A   1      45.481  33.091  31.364  1.00  0.00    -0.205 F 
ATOM     92  C   UNL A   1      45.244  36.269  29.564  1.00  0.00     0.022 A 
BRANCH  90  93
ATOM     93  S   UNL A   1      46.108  35.972  32.162  1.00  0.00     0.127 S 
ATOM     94  O   UNL A   1      45.059  35.549  33.085  1.00  0.00    -0.237 OA
ATOM     95  O   UNL A   1      47.378  35.260  32.314  1.00  0.00    -0.237 OA
ATOM     96  O   UNL A   1      46.251  37.410  31.974  1.00  0.00    -0.744 OA
ENDBRANCH  90  93
ENDBRANCH  63  86
ENDBRANCH  37  38
ENDBRANCH  30  32
ENDBRANCH  29  30
ENDBRANCH  28  29
ENDBRANCH   1  28
TORSDOF 20
ENDMDL
