MODEL 1
REMARK VINA RESULT:     -11.1      0.000      0.000
REMARK SMILES O=C(OCCOCCOC(=O)[C@@]12CCC[C@@H](C[NH2+]1)C2)c1ccc(-c2c3nc(c(-c4cccc(S(=O)(=O)[O-])c4F)c4ccc([nH]4)c(-c4cccc(S(=O)(=O)[O-])c4F)c4nc(c(-c5cccc(S(=O)(=O)[O-])c5F)c5ccc2[nH]5)C=C4)C=C3)cc1
REMARK SMILES IDX 4 1 3 2 2 3 1 4 20 5 21 6 82 7 22 8 81 9 23 10 24 11 25 12
REMARK SMILES IDX 75 13 26 14 80 15 74 16 76 17 27 18 79 19 73 20 72 21 28 23
REMARK SMILES IDX 60 24 40 25 59 26 41 27 44 28 58 29 77 30 42 31 43 32 57 34
REMARK SMILES IDX 78 35 45 36 29 37 30 38 38 39 31 40 33 41 39 42 32 43 34 44
REMARK SMILES IDX 35 45 36 46 37 47 61 48 62 49 70 50 63 51 65 52 71 53 64 54
REMARK SMILES IDX 66 55 67 56 68 57 69 58 46 59 47 60 55 61 48 62 50 63 56 64
REMARK SMILES IDX 49 65 51 66 52 67 53 68 54 69 5 70 6 71 7 72 8 73 9 74 10 75
REMARK SMILES IDX 11 76 12 77 13 78 18 79 19 80 14 81 17 82 16 85 15 86
REMARK H PARENT 76 22 44 33 18 83 18 84
REMARK Flexibility Score: inf
ROOT
ATOM      1  C   UNL A   1      36.773  21.673  24.187  1.00  0.00     0.261 C 
ENDROOT
BRANCH   1   2
ATOM      2  O   UNL A   1      37.260  21.817  25.541  1.00  0.00    -0.460 OA
BRANCH   2   3
ATOM      3  C   UNL A   1      38.535  21.645  25.977  1.00  0.00     0.338 C 
ATOM      4  O   UNL A   1      39.064  20.540  25.922  1.00  0.00    -0.246 OA
BRANCH   3   5
ATOM      5  C   UNL A   1      39.303  22.804  26.484  1.00  0.00     0.060 A 
ATOM      6  C   UNL A   1      38.991  24.092  26.081  1.00  0.00     0.016 A 
ATOM      7  C   UNL A   1      40.336  22.636  27.404  1.00  0.00     0.016 A 
ATOM      8  C   UNL A   1      39.763  25.172  26.375  1.00  0.00     0.010 A 
ATOM      9  C   UNL A   1      41.040  23.759  27.855  1.00  0.00     0.010 A 
ATOM     10  C   UNL A   1      40.752  25.026  27.323  1.00  0.00    -0.014 A 
BRANCH  10  11
ATOM     11  C   UNL A   1      41.466  26.261  27.644  1.00  0.00     0.031 A 
ATOM     12  C   UNL A   1      40.799  27.229  28.554  1.00  0.00     0.074 A 
ATOM     13  C   UNL A   1      42.758  26.369  27.277  1.00  0.00     0.049 A 
ATOM     14  N   UNL A   1      41.204  28.406  28.927  1.00  0.00    -0.248 NA
ATOM     15  C   UNL A   1      39.507  26.815  29.134  1.00  0.00     0.031 C 
ATOM     16  C   UNL A   1      43.521  25.349  26.538  1.00  0.00     0.029 A 
ATOM     17  N   UNL A   1      43.674  27.354  27.506  1.00  0.00    -0.354 N 
ATOM     18  C   UNL A   1      40.181  28.913  29.710  1.00  0.00     0.074 A 
ATOM     19  C   UNL A   1      39.152  27.903  29.797  1.00  0.00     0.031 C 
ATOM     20  C   UNL A   1      44.788  25.761  26.390  1.00  0.00     0.029 A 
ATOM     21  C   UNL A   1      44.892  27.111  26.917  1.00  0.00     0.049 A 
ATOM     22  H   UNL A   1      43.481  28.160  28.040  1.00  0.00     0.167 HD
ATOM     23  C   UNL A   1      40.117  30.135  30.277  1.00  0.00     0.034 A 
ATOM     24  C   UNL A   1      45.945  27.931  26.760  1.00  0.00     0.034 A 
ATOM     25  C   UNL A   1      41.180  31.092  30.163  1.00  0.00     0.049 A 
ATOM     26  C   UNL A   1      45.809  29.314  27.328  1.00  0.00     0.074 A 
ATOM     27  C   UNL A   1      41.229  32.389  30.631  1.00  0.00     0.029 A 
ATOM     28  N   UNL A   1      42.387  30.843  29.520  1.00  0.00    -0.354 N 
ATOM     29  N   UNL A   1      44.821  29.820  28.031  1.00  0.00    -0.248 NA
ATOM     30  C   UNL A   1      46.919  30.239  27.091  1.00  0.00     0.031 C 
ATOM     31  C   UNL A   1      42.455  32.935  30.238  1.00  0.00     0.029 A 
ATOM     32  C   UNL A   1      43.189  31.965  29.568  1.00  0.00     0.049 A 
ATOM     33  H   UNL A   1      42.634  29.990  29.094  1.00  0.00     0.167 HD
ATOM     34  C   UNL A   1      45.199  31.115  28.343  1.00  0.00     0.074 A 
ATOM     35  C   UNL A   1      46.522  31.304  27.774  1.00  0.00     0.031 C 
ATOM     36  C   UNL A   1      44.518  32.074  29.019  1.00  0.00     0.034 A 
BRANCH  23  37
ATOM     37  C   UNL A   1      38.838  30.500  30.972  1.00  0.00     0.023 A 
ATOM     38  C   UNL A   1      38.617  30.132  32.313  1.00  0.00     0.012 A 
ATOM     39  C   UNL A   1      37.829  31.182  30.265  1.00  0.00     0.148 A 
ATOM     40  C   UNL A   1      37.396  30.405  32.931  1.00  0.00     0.002 A 
ATOM     41  C   UNL A   1      36.635  31.493  30.900  1.00  0.00     0.091 A 
ATOM     42  F   UNL A   1      38.044  31.485  28.977  1.00  0.00    -0.205 F 
ATOM     43  C   UNL A   1      36.410  31.093  32.227  1.00  0.00     0.022 A 
BRANCH  41  44
ATOM     44  S   UNL A   1      35.328  32.426  30.098  1.00  0.00     0.127 S 
ATOM     45  O   UNL A   1      34.357  32.570  31.183  1.00  0.00    -0.237 OA
ATOM     46  O   UNL A   1      36.021  33.661  29.732  1.00  0.00    -0.237 OA
ATOM     47  O   UNL A   1      34.883  31.617  28.973  1.00  0.00    -0.744 OA
ENDBRANCH  41  44
ENDBRANCH  23  37
BRANCH  24  48
ATOM     48  C   UNL A   1      47.152  27.495  26.000  1.00  0.00     0.023 A 
ATOM     49  C   UNL A   1      48.179  26.796  26.660  1.00  0.00     0.012 A 
ATOM     50  C   UNL A   1      47.288  27.768  24.623  1.00  0.00     0.148 A 
ATOM     51  C   UNL A   1      49.334  26.413  25.974  1.00  0.00     0.002 A 
ATOM     52  C   UNL A   1      48.413  27.334  23.932  1.00  0.00     0.091 A 
ATOM     53  F   UNL A   1      46.310  28.448  24.007  1.00  0.00    -0.205 F 
ATOM     54  C   UNL A   1      49.448  26.674  24.611  1.00  0.00     0.022 A 
BRANCH  52  55
ATOM     55  S   UNL A   1      48.586  27.520  22.153  1.00  0.00     0.127 S 
ATOM     56  O   UNL A   1      48.751  26.135  21.723  1.00  0.00    -0.237 OA
ATOM     57  O   UNL A   1      47.308  28.131  21.787  1.00  0.00    -0.237 OA
ATOM     58  O   UNL A   1      49.741  28.385  21.958  1.00  0.00    -0.744 OA
ENDBRANCH  52  55
ENDBRANCH  24  48
BRANCH  36  59
ATOM     59  C   UNL A   1      45.222  33.383  29.217  1.00  0.00     0.023 A 
ATOM     60  C   UNL A   1      46.028  33.586  30.354  1.00  0.00     0.012 A 
ATOM     61  C   UNL A   1      45.145  34.378  28.225  1.00  0.00     0.148 A 
ATOM     62  C   UNL A   1      46.723  34.782  30.515  1.00  0.00     0.002 A 
ATOM     63  C   UNL A   1      45.889  35.539  28.363  1.00  0.00     0.091 A 
ATOM     64  F   UNL A   1      44.353  34.164  27.164  1.00  0.00    -0.205 F 
ATOM     65  C   UNL A   1      46.666  35.750  29.514  1.00  0.00     0.022 A 
BRANCH  63  66
ATOM     66  S   UNL A   1      45.967  36.781  27.071  1.00  0.00     0.127 S 
ATOM     67  O   UNL A   1      44.579  37.236  27.013  1.00  0.00    -0.237 OA
ATOM     68  O   UNL A   1      46.906  37.752  27.635  1.00  0.00    -0.237 OA
ATOM     69  O   UNL A   1      46.450  36.095  25.881  1.00  0.00    -0.744 OA
ENDBRANCH  63  66
ENDBRANCH  36  59
ENDBRANCH  10  11
ENDBRANCH   3   5
ENDBRANCH   2   3
ENDBRANCH   1   2
BRANCH   1  70
ATOM     70  C   UNL A   1      36.741  23.040  23.504  1.00  0.00     0.202 C 
BRANCH  70  71
ATOM     71  O   UNL A   1      35.585  23.414  22.767  1.00  0.00    -0.374 OA
BRANCH  71  72
ATOM     72  C   UNL A   1      34.337  23.350  23.462  1.00  0.00     0.202 C 
BRANCH  72  73
ATOM     73  C   UNL A   1      33.219  23.219  22.433  1.00  0.00     0.261 C 
BRANCH  73  74
ATOM     74  O   UNL A   1      32.366  24.371  22.545  1.00  0.00    -0.459 OA
BRANCH  74  75
ATOM     75  C   UNL A   1      32.710  25.473  21.800  1.00  0.00     0.368 C 
ATOM     76  O   UNL A   1      33.186  25.458  20.680  1.00  0.00    -0.245 OA
BRANCH  75  77
ATOM     77  C   UNL A   1      32.372  26.748  22.599  1.00  0.00     0.194 C 
ATOM     78  C   UNL A   1      33.584  27.652  22.879  1.00  0.00     0.081 C 
ATOM     79  N   UNL A   1      31.359  27.566  21.851  1.00  0.00    -0.332 N 
ATOM     80  C   UNL A   1      31.738  26.460  23.958  1.00  0.00     0.090 C 
ATOM     81  C   UNL A   1      33.368  28.693  23.979  1.00  0.00     0.008 C 
ATOM     82  C   UNL A   1      30.255  27.787  22.779  1.00  0.00     0.265 C 
ATOM     83  H   UNL A   1      31.034  27.059  21.028  1.00  0.00     0.347 HD
ATOM     84  H   UNL A   1      31.758  28.447  21.528  1.00  0.00     0.347 HD
ATOM     85  C   UNL A   1      30.961  27.762  24.132  1.00  0.00     0.051 C 
ATOM     86  C   UNL A   1      31.898  28.997  24.257  1.00  0.00     0.010 C 
ENDBRANCH  75  77
ENDBRANCH  74  75
ENDBRANCH  73  74
ENDBRANCH  72  73
ENDBRANCH  71  72
ENDBRANCH  70  71
ENDBRANCH   1  70
TORSDOF 17
ENDMDL
MODEL 2
REMARK VINA RESULT:     -11.0      5.465     10.389
REMARK SMILES O=C(OCCOCCOC(=O)[C@@]12CCC[C@@H](C[NH2+]1)C2)c1ccc(-c2c3nc(c(-c4cccc(S(=O)(=O)[O-])c4F)c4ccc([nH]4)c(-c4cccc(S(=O)(=O)[O-])c4F)c4nc(c(-c5cccc(S(=O)(=O)[O-])c5F)c5ccc2[nH]5)C=C4)C=C3)cc1
REMARK SMILES IDX 4 1 3 2 2 3 1 4 20 5 21 6 82 7 22 8 81 9 23 10 24 11 25 12
REMARK SMILES IDX 75 13 26 14 80 15 74 16 76 17 27 18 79 19 73 20 72 21 28 23
REMARK SMILES IDX 60 24 40 25 59 26 41 27 44 28 58 29 77 30 42 31 43 32 57 34
REMARK SMILES IDX 78 35 45 36 29 37 30 38 38 39 31 40 33 41 39 42 32 43 34 44
REMARK SMILES IDX 35 45 36 46 37 47 61 48 62 49 70 50 63 51 65 52 71 53 64 54
REMARK SMILES IDX 66 55 67 56 68 57 69 58 46 59 47 60 55 61 48 62 50 63 56 64
REMARK SMILES IDX 49 65 51 66 52 67 53 68 54 69 5 70 6 71 7 72 8 73 9 74 10 75
REMARK SMILES IDX 11 76 12 77 13 78 18 79 19 80 14 81 17 82 16 85 15 86
REMARK H PARENT 76 22 44 33 18 83 18 84
REMARK Flexibility Score: inf
ROOT
ATOM      1  C   UNL A   1      31.815  29.246  25.812  1.00  0.00     0.261 C 
ENDROOT
BRANCH   1   2
ATOM      2  O   UNL A   1      32.956  30.132  25.854  1.00  0.00    -0.460 OA
BRANCH   2   3
ATOM      3  C   UNL A   1      33.306  30.972  26.861  1.00  0.00     0.338 C 
ATOM      4  O   UNL A   1      32.549  31.872  27.209  1.00  0.00    -0.246 OA
BRANCH   3   5
ATOM      5  C   UNL A   1      34.592  30.779  27.569  1.00  0.00     0.060 A 
ATOM      6  C   UNL A   1      34.965  29.528  28.031  1.00  0.00     0.016 A 
ATOM      7  C   UNL A   1      35.474  31.840  27.762  1.00  0.00     0.016 A 
ATOM      8  C   UNL A   1      36.044  29.321  28.833  1.00  0.00     0.010 A 
ATOM      9  C   UNL A   1      36.678  31.614  28.441  1.00  0.00     0.010 A 
ATOM     10  C   UNL A   1      36.948  30.349  28.986  1.00  0.00    -0.014 A 
BRANCH  10  11
ATOM     11  C   UNL A   1      38.123  30.004  29.785  1.00  0.00     0.031 A 
ATOM     12  C   UNL A   1      39.182  29.183  29.141  1.00  0.00     0.074 A 
ATOM     13  C   UNL A   1      38.287  30.611  30.977  1.00  0.00     0.049 A 
ATOM     14  N   UNL A   1      40.271  28.706  29.665  1.00  0.00    -0.248 NA
ATOM     15  C   UNL A   1      38.999  28.864  27.712  1.00  0.00     0.031 C 
ATOM     16  C   UNL A   1      37.355  31.582  31.574  1.00  0.00     0.029 A 
ATOM     17  N   UNL A   1      39.305  30.542  31.883  1.00  0.00    -0.354 N 
ATOM     18  C   UNL A   1      40.860  27.956  28.660  1.00  0.00     0.074 A 
ATOM     19  C   UNL A   1      40.033  28.072  27.482  1.00  0.00     0.031 C 
ATOM     20  C   UNL A   1      37.856  32.024  32.736  1.00  0.00     0.029 A 
ATOM     21  C   UNL A   1      39.074  31.285  33.017  1.00  0.00     0.049 A 
ATOM     22  H   UNL A   1      40.124  30.012  31.739  1.00  0.00     0.167 HD
ATOM     23  C   UNL A   1      41.984  27.216  28.748  1.00  0.00     0.034 A 
ATOM     24  C   UNL A   1      39.744  31.297  34.182  1.00  0.00     0.034 A 
ATOM     25  C   UNL A   1      42.770  27.151  29.947  1.00  0.00     0.049 A 
ATOM     26  C   UNL A   1      40.943  30.398  34.277  1.00  0.00     0.074 A 
ATOM     27  C   UNL A   1      43.897  26.397  30.202  1.00  0.00     0.029 A 
ATOM     28  N   UNL A   1      42.491  27.874  31.101  1.00  0.00    -0.354 N 
ATOM     29  N   UNL A   1      41.480  29.645  33.344  1.00  0.00    -0.248 NA
ATOM     30  C   UNL A   1      41.629  30.346  35.569  1.00  0.00     0.031 C 
ATOM     31  C   UNL A   1      44.279  26.639  31.526  1.00  0.00     0.029 A 
ATOM     32  C   UNL A   1      43.419  27.579  32.080  1.00  0.00     0.049 A 
ATOM     33  H   UNL A   1      41.743  28.505  31.206  1.00  0.00     0.167 HD
ATOM     34  C   UNL A   1      42.585  29.046  33.927  1.00  0.00     0.074 A 
ATOM     35  C   UNL A   1      42.653  29.551  35.288  1.00  0.00     0.031 C 
ATOM     36  C   UNL A   1      43.458  28.150  33.404  1.00  0.00     0.034 A 
BRANCH  23  37
ATOM     37  C   UNL A   1      42.349  26.382  27.555  1.00  0.00     0.023 A 
ATOM     38  C   UNL A   1      43.000  26.957  26.446  1.00  0.00     0.012 A 
ATOM     39  C   UNL A   1      42.000  25.018  27.524  1.00  0.00     0.148 A 
ATOM     40  C   UNL A   1      43.267  26.195  25.309  1.00  0.00     0.002 A 
ATOM     41  C   UNL A   1      42.311  24.254  26.408  1.00  0.00     0.091 A 
ATOM     42  F   UNL A   1      41.344  24.503  28.573  1.00  0.00    -0.205 F 
ATOM     43  C   UNL A   1      42.930  24.843  25.294  1.00  0.00     0.022 A 
BRANCH  41  44
ATOM     44  S   UNL A   1      41.973  22.494  26.317  1.00  0.00     0.127 S 
ATOM     45  O   UNL A   1      40.512  22.477  26.233  1.00  0.00    -0.237 OA
ATOM     46  O   UNL A   1      42.659  22.119  25.080  1.00  0.00    -0.237 OA
ATOM     47  O   UNL A   1      42.530  21.909  27.528  1.00  0.00    -0.744 OA
ENDBRANCH  41  44
ENDBRANCH  23  37
BRANCH  24  48
ATOM     48  C   UNL A   1      39.268  32.118  35.333  1.00  0.00     0.023 A 
ATOM     49  C   UNL A   1      38.337  31.579  36.239  1.00  0.00     0.012 A 
ATOM     50  C   UNL A   1      39.737  33.432  35.538  1.00  0.00     0.148 A 
ATOM     51  C   UNL A   1      37.851  32.345  37.301  1.00  0.00     0.002 A 
ATOM     52  C   UNL A   1      39.294  34.170  36.630  1.00  0.00     0.091 A 
ATOM     53  F   UNL A   1      40.613  33.942  34.660  1.00  0.00    -0.205 F 
ATOM     54  C   UNL A   1      38.334  33.635  37.501  1.00  0.00     0.022 A 
BRANCH  52  55
ATOM     55  S   UNL A   1      39.955  35.792  37.031  1.00  0.00     0.127 S 
ATOM     56  O   UNL A   1      39.191  36.137  38.226  1.00  0.00    -0.237 OA
ATOM     57  O   UNL A   1      41.367  35.493  37.268  1.00  0.00    -0.237 OA
ATOM     58  O   UNL A   1      39.706  36.620  35.859  1.00  0.00    -0.744 OA
ENDBRANCH  52  55
ENDBRANCH  24  48
BRANCH  36  59
ATOM     59  C   UNL A   1      44.580  27.707  34.295  1.00  0.00     0.023 A 
ATOM     60  C   UNL A   1      45.800  28.410  34.295  1.00  0.00     0.012 A 
ATOM     61  C   UNL A   1      44.384  26.641  35.192  1.00  0.00     0.148 A 
ATOM     62  C   UNL A   1      46.826  28.033  35.158  1.00  0.00     0.002 A 
ATOM     63  C   UNL A   1      45.387  26.312  36.090  1.00  0.00     0.091 A 
ATOM     64  F   UNL A   1      43.219  25.977  35.153  1.00  0.00    -0.205 F 
ATOM     65  C   UNL A   1      46.613  26.996  36.064  1.00  0.00     0.022 A 
BRANCH  63  66
ATOM     66  S   UNL A   1      45.155  25.072  37.366  1.00  0.00     0.127 S 
ATOM     67  O   UNL A   1      45.025  23.851  36.574  1.00  0.00    -0.237 OA
ATOM     68  O   UNL A   1      46.400  25.179  38.127  1.00  0.00    -0.237 OA
ATOM     69  O   UNL A   1      43.962  25.470  38.101  1.00  0.00    -0.744 OA
ENDBRANCH  63  66
ENDBRANCH  36  59
ENDBRANCH  10  11
ENDBRANCH   3   5
ENDBRANCH   2   3
ENDBRANCH   1   2
BRANCH   1  70
ATOM     70  C   UNL A   1      32.235  27.844  26.251  1.00  0.00     0.202 C 
BRANCH  70  71
ATOM     71  O   UNL A   1      31.274  26.998  26.867  1.00  0.00    -0.374 OA
BRANCH  71  72
ATOM     72  C   UNL A   1      30.845  25.862  26.111  1.00  0.00     0.202 C 
BRANCH  72  73
ATOM     73  C   UNL A   1      32.081  25.102  25.642  1.00  0.00     0.261 C 
BRANCH  73  74
ATOM     74  O   UNL A   1      31.762  23.700  25.608  1.00  0.00    -0.459 OA
BRANCH  74  75
ATOM     75  C   UNL A   1      32.226  22.933  26.649  1.00  0.00     0.368 C 
ATOM     76  O   UNL A   1      31.794  22.937  27.787  1.00  0.00    -0.245 OA
BRANCH  75  77
ATOM     77  C   UNL A   1      33.373  22.036  26.143  1.00  0.00     0.194 C 
ATOM     78  C   UNL A   1      34.777  22.599  26.416  1.00  0.00     0.081 C 
ATOM     79  N   UNL A   1      33.291  20.685  26.794  1.00  0.00    -0.332 N 
ATOM     80  C   UNL A   1      33.313  21.766  24.641  1.00  0.00     0.090 C 
ATOM     81  C   UNL A   1      35.898  21.954  25.600  1.00  0.00     0.008 C 
ATOM     82  C   UNL A   1      33.268  19.713  25.706  1.00  0.00     0.265 C 
ATOM     83  H   UNL A   1      32.441  20.613  27.352  1.00  0.00     0.347 HD
ATOM     84  H   UNL A   1      34.080  20.526  27.421  1.00  0.00     0.347 HD
ATOM     85  C   UNL A   1      34.056  20.433  24.614  1.00  0.00     0.051 C 
ATOM     86  C   UNL A   1      35.542  20.576  25.048  1.00  0.00     0.010 C 
ENDBRANCH  75  77
ENDBRANCH  74  75
ENDBRANCH  73  74
ENDBRANCH  72  73
ENDBRANCH  71  72
ENDBRANCH  70  71
ENDBRANCH   1  70
TORSDOF 17
ENDMDL
MODEL 3
REMARK VINA RESULT:     -10.9      2.127      3.493
REMARK SMILES O=C(OCCOCCOC(=O)[C@@]12CCC[C@@H](C[NH2+]1)C2)c1ccc(-c2c3nc(c(-c4cccc(S(=O)(=O)[O-])c4F)c4ccc([nH]4)c(-c4cccc(S(=O)(=O)[O-])c4F)c4nc(c(-c5cccc(S(=O)(=O)[O-])c5F)c5ccc2[nH]5)C=C4)C=C3)cc1
REMARK SMILES IDX 4 1 3 2 2 3 1 4 20 5 21 6 82 7 22 8 81 9 23 10 24 11 25 12
REMARK SMILES IDX 75 13 26 14 80 15 74 16 76 17 27 18 79 19 73 20 72 21 28 23
REMARK SMILES IDX 60 24 40 25 59 26 41 27 44 28 58 29 77 30 42 31 43 32 57 34
REMARK SMILES IDX 78 35 45 36 29 37 30 38 38 39 31 40 33 41 39 42 32 43 34 44
REMARK SMILES IDX 35 45 36 46 37 47 61 48 62 49 70 50 63 51 65 52 71 53 64 54
REMARK SMILES IDX 66 55 67 56 68 57 69 58 46 59 47 60 55 61 48 62 50 63 56 64
REMARK SMILES IDX 49 65 51 66 52 67 53 68 54 69 5 70 6 71 7 72 8 73 9 74 10 75
REMARK SMILES IDX 11 76 12 77 13 78 18 79 19 80 14 81 17 82 16 85 15 86
REMARK H PARENT 76 22 44 33 18 83 18 84
REMARK Flexibility Score: inf
ROOT
ATOM      1  C   UNL A   1      37.019  21.801  24.382  1.00  0.00     0.261 C 
ENDROOT
BRANCH   1   2
ATOM      2  O   UNL A   1      37.535  21.763  25.732  1.00  0.00    -0.460 OA
BRANCH   2   3
ATOM      3  C   UNL A   1      38.835  21.657  26.111  1.00  0.00     0.338 C 
ATOM      4  O   UNL A   1      39.426  20.588  26.004  1.00  0.00    -0.246 OA
BRANCH   3   5
ATOM      5  C   UNL A   1      39.554  22.848  26.618  1.00  0.00     0.060 A 
ATOM      6  C   UNL A   1      39.254  24.113  26.142  1.00  0.00     0.016 A 
ATOM      7  C   UNL A   1      40.526  22.733  27.609  1.00  0.00     0.016 A 
ATOM      8  C   UNL A   1      39.992  25.216  26.441  1.00  0.00     0.010 A 
ATOM      9  C   UNL A   1      41.186  23.884  28.058  1.00  0.00     0.010 A 
ATOM     10  C   UNL A   1      40.919  25.123  27.456  1.00  0.00    -0.014 A 
BRANCH  10  11
ATOM     11  C   UNL A   1      41.594  26.380  27.772  1.00  0.00     0.031 A 
ATOM     12  C   UNL A   1      40.887  27.345  28.654  1.00  0.00     0.074 A 
ATOM     13  C   UNL A   1      42.891  26.516  27.427  1.00  0.00     0.049 A 
ATOM     14  N   UNL A   1      41.255  28.537  29.016  1.00  0.00    -0.248 NA
ATOM     15  C   UNL A   1      39.595  26.907  29.217  1.00  0.00     0.031 C 
ATOM     16  C   UNL A   1      43.693  25.505  26.717  1.00  0.00     0.029 A 
ATOM     17  N   UNL A   1      43.777  27.528  27.657  1.00  0.00    -0.354 N 
ATOM     18  C   UNL A   1      40.204  29.029  29.772  1.00  0.00     0.074 A 
ATOM     19  C   UNL A   1      39.200  27.995  29.856  1.00  0.00     0.031 C 
ATOM     20  C   UNL A   1      44.951  25.947  26.587  1.00  0.00     0.029 A 
ATOM     21  C   UNL A   1      45.011  27.306  27.094  1.00  0.00     0.049 A 
ATOM     22  H   UNL A   1      43.553  28.336  28.176  1.00  0.00     0.167 HD
ATOM     23  C   UNL A   1      40.099  30.258  30.319  1.00  0.00     0.034 A 
ATOM     24  C   UNL A   1      46.046  28.151  26.944  1.00  0.00     0.034 A 
ATOM     25  C   UNL A   1      41.139  31.239  30.210  1.00  0.00     0.049 A 
ATOM     26  C   UNL A   1      45.864  29.538  27.488  1.00  0.00     0.074 A 
ATOM     27  C   UNL A   1      41.147  32.544  30.659  1.00  0.00     0.029 A 
ATOM     28  N   UNL A   1      42.364  31.012  29.593  1.00  0.00    -0.354 N 
ATOM     29  N   UNL A   1      44.851  30.029  28.165  1.00  0.00    -0.248 NA
ATOM     30  C   UNL A   1      46.955  30.487  27.257  1.00  0.00     0.031 C 
ATOM     31  C   UNL A   1      42.366  33.116  30.280  1.00  0.00     0.029 A 
ATOM     32  C   UNL A   1      43.137  32.154  29.638  1.00  0.00     0.049 A 
ATOM     33  H   UNL A   1      42.640  30.160  29.184  1.00  0.00     0.167 HD
ATOM     34  C   UNL A   1      45.190  31.339  28.464  1.00  0.00     0.074 A 
ATOM     35  C   UNL A   1      46.518  31.552  27.916  1.00  0.00     0.031 C 
ATOM     36  C   UNL A   1      44.473  32.290  29.113  1.00  0.00     0.034 A 
BRANCH  23  37
ATOM     37  C   UNL A   1      38.798  30.600  30.985  1.00  0.00     0.023 A 
ATOM     38  C   UNL A   1      38.555  30.232  32.322  1.00  0.00     0.012 A 
ATOM     39  C   UNL A   1      37.792  31.261  30.253  1.00  0.00     0.148 A 
ATOM     40  C   UNL A   1      37.316  30.484  32.912  1.00  0.00     0.002 A 
ATOM     41  C   UNL A   1      36.579  31.551  30.861  1.00  0.00     0.091 A 
ATOM     42  F   UNL A   1      38.030  31.564  28.970  1.00  0.00    -0.205 F 
ATOM     43  C   UNL A   1      36.332  31.151  32.185  1.00  0.00     0.022 A 
BRANCH  41  44
ATOM     44  S   UNL A   1      35.272  32.457  30.028  1.00  0.00     0.127 S 
ATOM     45  O   UNL A   1      34.296  32.627  31.104  1.00  0.00    -0.237 OA
ATOM     46  O   UNL A   1      35.963  33.684  29.630  1.00  0.00    -0.237 OA
ATOM     47  O   UNL A   1      34.835  31.615  28.923  1.00  0.00    -0.744 OA
ENDBRANCH  41  44
ENDBRANCH  23  37
BRANCH  24  48
ATOM     48  C   UNL A   1      47.278  27.735  26.214  1.00  0.00     0.023 A 
ATOM     49  C   UNL A   1      48.348  27.156  26.919  1.00  0.00     0.012 A 
ATOM     50  C   UNL A   1      47.395  27.908  24.819  1.00  0.00     0.148 A 
ATOM     51  C   UNL A   1      49.525  26.795  26.259  1.00  0.00     0.002 A 
ATOM     52  C   UNL A   1      48.545  27.493  24.157  1.00  0.00     0.091 A 
ATOM     53  F   UNL A   1      46.375  28.475  24.158  1.00  0.00    -0.205 F 
ATOM     54  C   UNL A   1      49.620  26.955  24.879  1.00  0.00     0.022 A 
BRANCH  52  55
ATOM     55  S   UNL A   1      48.704  27.551  22.368  1.00  0.00     0.127 S 
ATOM     56  O   UNL A   1      48.688  26.133  22.022  1.00  0.00    -0.237 OA
ATOM     57  O   UNL A   1      47.504  28.294  21.981  1.00  0.00    -0.237 OA
ATOM     58  O   UNL A   1      49.953  28.253  22.106  1.00  0.00    -0.744 OA
ENDBRANCH  52  55
ENDBRANCH  24  48
BRANCH  36  59
ATOM     59  C   UNL A   1      45.139  33.619  29.304  1.00  0.00     0.023 A 
ATOM     60  C   UNL A   1      45.911  33.862  30.456  1.00  0.00     0.012 A 
ATOM     61  C   UNL A   1      45.063  34.594  28.291  1.00  0.00     0.148 A 
ATOM     62  C   UNL A   1      46.574  35.077  30.612  1.00  0.00     0.002 A 
ATOM     63  C   UNL A   1      45.775  35.775  28.426  1.00  0.00     0.091 A 
ATOM     64  F   UNL A   1      44.303  34.341  27.215  1.00  0.00    -0.205 F 
ATOM     65  C   UNL A   1      46.518  36.025  29.591  1.00  0.00     0.022 A 
BRANCH  63  66
ATOM     66  S   UNL A   1      45.854  36.995  27.113  1.00  0.00     0.127 S 
ATOM     67  O   UNL A   1      44.463  37.432  27.030  1.00  0.00    -0.237 OA
ATOM     68  O   UNL A   1      46.775  37.987  27.672  1.00  0.00    -0.237 OA
ATOM     69  O   UNL A   1      46.362  36.294  25.942  1.00  0.00    -0.744 OA
ENDBRANCH  63  66
ENDBRANCH  36  59
ENDBRANCH  10  11
ENDBRANCH   3   5
ENDBRANCH   2   3
ENDBRANCH   1   2
BRANCH   1  70
ATOM     70  C   UNL A   1      36.222  23.088  24.172  1.00  0.00     0.202 C 
BRANCH  70  71
ATOM     71  O   UNL A   1      34.943  23.013  23.557  1.00  0.00    -0.374 OA
BRANCH  71  72
ATOM     72  C   UNL A   1      33.826  22.820  24.430  1.00  0.00     0.202 C 
BRANCH  72  73
ATOM     73  C   UNL A   1      32.648  22.318  23.602  1.00  0.00     0.261 C 
BRANCH  73  74
ATOM     74  O   UNL A   1      32.730  20.884  23.524  1.00  0.00    -0.459 OA
BRANCH  74  75
ATOM     75  C   UNL A   1      32.275  20.177  24.611  1.00  0.00     0.368 C 
ATOM     76  O   UNL A   1      31.580  20.615  25.508  1.00  0.00    -0.245 OA
BRANCH  75  77
ATOM     77  C   UNL A   1      32.765  18.718  24.504  1.00  0.00     0.194 C 
ATOM     78  C   UNL A   1      32.569  17.895  25.788  1.00  0.00     0.081 C 
ATOM     79  N   UNL A   1      32.034  18.015  23.397  1.00  0.00    -0.332 N 
ATOM     80  C   UNL A   1      34.246  18.601  24.150  1.00  0.00     0.090 C 
ATOM     81  C   UNL A   1      33.381  16.601  25.850  1.00  0.00     0.008 C 
ATOM     82  C   UNL A   1      33.062  17.466  22.519  1.00  0.00     0.265 C 
ATOM     83  H   UNL A   1      31.446  18.673  22.886  1.00  0.00     0.347 HD
ATOM     84  H   UNL A   1      31.424  17.282  23.761  1.00  0.00     0.347 HD
ATOM     85  C   UNL A   1      34.218  17.227  23.487  1.00  0.00     0.051 C 
ATOM     86  C   UNL A   1      33.840  16.096  24.485  1.00  0.00     0.010 C 
ENDBRANCH  75  77
ENDBRANCH  74  75
ENDBRANCH  73  74
ENDBRANCH  72  73
ENDBRANCH  71  72
ENDBRANCH  70  71
ENDBRANCH   1  70
TORSDOF 17
ENDMDL
