MODEL 1
REMARK VINA RESULT:     -11.1      0.000      0.000
REMARK SMILES C[C@](NC(=O)c1csc(-c2cccs2)n1)(C(=O)OCCOCCOC(=O)c1ccc(-c2c3nc(c(-c4cccc(S(=O)(=O)[O-])c4F)c4ccc([nH]4)c(-c4cccc(S(=O)(=O)[O-])c4F)c4nc(c(-c5cccc(S(=O)(=O)[O-])c5F)c5ccc2[nH]5)C=C4)C=C3)cc1)C1CC1
REMARK SMILES IDX 21 1 20 2 19 3 18 4 16 5 17 6 2 7 1 8 90 9 91 10 92 11 3 12
REMARK SMILES IDX 4 13 5 15 6 16 7 17 15 18 8 19 9 20 10 21 11 22 14 23 12 24
REMARK SMILES IDX 13 25 22 26 23 27 24 28 25 29 26 30 27 31 28 32 89 33 29 34
REMARK SMILES IDX 88 35 30 36 31 37 32 38 82 39 33 40 87 41 81 42 83 43 34 44
REMARK SMILES IDX 86 45 80 46 79 47 35 49 67 50 47 51 66 52 48 53 51 54 65 55
REMARK SMILES IDX 84 56 49 57 50 58 64 60 85 61 52 62 36 63 37 64 45 65 38 66
REMARK SMILES IDX 40 67 46 68 39 69 41 70 42 71 43 72 44 73 68 74 69 75 77 76
REMARK SMILES IDX 70 77 72 78 78 79 71 80 73 81 74 82 75 83 76 84 53 85 54 86
REMARK SMILES IDX 62 87 55 88 57 89 63 90 56 91 58 92 59 93 60 94 61 95
REMARK H PARENT 3 14 83 48 51 59
REMARK Flexibility Score: inf
ROOT
ATOM      1  O   UNL A   1      31.353  30.735  25.396  1.00  0.00    -0.374 OA
ENDROOT
BRANCH   1   2
ATOM      2  C   UNL A   1      32.037  29.541  25.038  1.00  0.00     0.202 C 
BRANCH   2   3
ATOM      3  C   UNL A   1      32.827  28.797  26.124  1.00  0.00     0.261 C 
BRANCH   3   4
ATOM      4  O   UNL A   1      32.219  27.570  26.549  1.00  0.00    -0.461 OA
BRANCH   4   5
ATOM      5  C   UNL A   1      32.491  26.490  25.759  1.00  0.00     0.331 C 
ATOM      6  O   UNL A   1      33.600  26.240  25.294  1.00  0.00    -0.249 OA
BRANCH   5   7
ATOM      7  C   UNL A   1      31.222  25.633  25.437  1.00  0.00     0.138 C 
ATOM      8  C   UNL A   1      30.114  26.659  25.127  1.00  0.00     0.048 C 
BRANCH   7   9
ATOM      9  C   UNL A   1      31.560  24.740  24.250  1.00  0.00     0.026 C 
ATOM     10  C   UNL A   1      30.530  24.153  23.306  1.00  0.00     0.007 C 
ATOM     11  C   UNL A   1      31.479  25.206  22.811  1.00  0.00     0.007 C 
ENDBRANCH   7   9
BRANCH   7  12
ATOM     12  N   UNL A   1      30.739  24.875  26.631  1.00  0.00    -0.335 N 
ATOM     13  C   UNL A   1      30.618  23.526  26.862  1.00  0.00     0.271 C 
ATOM     14  H   UNL A   1      30.459  25.442  27.386  1.00  0.00     0.165 HD
ATOM     15  O   UNL A   1      29.623  23.094  27.442  1.00  0.00    -0.267 OA
BRANCH  13  16
ATOM     16  C   UNL A   1      31.738  22.652  26.523  1.00  0.00     0.139 A 
ATOM     17  C   UNL A   1      33.018  22.773  27.035  1.00  0.00     0.101 A 
ATOM     18  N   UNL A   1      31.599  21.644  25.570  1.00  0.00    -0.230 NA
ATOM     19  S   UNL A   1      34.011  21.497  26.446  1.00  0.00    -0.121 S 
ATOM     20  C   UNL A   1      32.694  20.921  25.516  1.00  0.00     0.134 A 
BRANCH  20  21
ATOM     21  C   UNL A   1      32.728  19.704  24.763  1.00  0.00     0.063 A 
ATOM     22  C   UNL A   1      32.546  19.555  23.403  1.00  0.00     0.023 A 
ATOM     23  S   UNL A   1      32.860  18.189  25.553  1.00  0.00    -0.141 S 
ATOM     24  C   UNL A   1      32.477  18.184  23.015  1.00  0.00     0.012 A 
ATOM     25  C   UNL A   1      32.610  17.336  24.092  1.00  0.00     0.065 A 
ENDBRANCH  20  21
ENDBRANCH  13  16
ENDBRANCH   7  12
ENDBRANCH   5   7
ENDBRANCH   4   5
ENDBRANCH   3   4
ENDBRANCH   2   3
ENDBRANCH   1   2
BRANCH   1  26
ATOM     26  C   UNL A   1      31.645  31.317  26.669  1.00  0.00     0.202 C 
BRANCH  26  27
ATOM     27  C   UNL A   1      31.903  32.829  26.734  1.00  0.00     0.261 C 
BRANCH  27  28
ATOM     28  O   UNL A   1      32.562  33.239  27.949  1.00  0.00    -0.460 OA
BRANCH  28  29
ATOM     29  C   UNL A   1      33.741  33.888  27.770  1.00  0.00     0.338 C 
ATOM     30  O   UNL A   1      33.903  35.056  27.461  1.00  0.00    -0.246 OA
BRANCH  29  31
ATOM     31  C   UNL A   1      34.861  33.021  28.182  1.00  0.00     0.060 A 
ATOM     32  C   UNL A   1      34.563  31.736  28.656  1.00  0.00     0.016 A 
ATOM     33  C   UNL A   1      36.168  33.506  28.208  1.00  0.00     0.016 A 
ATOM     34  C   UNL A   1      35.574  30.938  29.192  1.00  0.00     0.010 A 
ATOM     35  C   UNL A   1      37.176  32.709  28.757  1.00  0.00     0.010 A 
ATOM     36  C   UNL A   1      36.879  31.437  29.279  1.00  0.00    -0.014 A 
BRANCH  36  37
ATOM     37  C   UNL A   1      37.921  30.696  30.027  1.00  0.00     0.031 A 
ATOM     38  C   UNL A   1      38.213  31.085  31.448  1.00  0.00     0.074 A 
ATOM     39  C   UNL A   1      38.648  29.740  29.422  1.00  0.00     0.049 A 
ATOM     40  N   UNL A   1      39.164  30.667  32.242  1.00  0.00    -0.248 NA
ATOM     41  C   UNL A   1      37.318  32.087  32.050  1.00  0.00     0.031 C 
ATOM     42  C   UNL A   1      38.460  29.285  28.047  1.00  0.00     0.029 A 
ATOM     43  N   UNL A   1      39.726  29.020  29.875  1.00  0.00    -0.354 N 
ATOM     44  C   UNL A   1      39.011  31.385  33.422  1.00  0.00     0.074 A 
ATOM     45  C   UNL A   1      37.873  32.261  33.241  1.00  0.00     0.031 C 
ATOM     46  C   UNL A   1      39.430  28.406  27.745  1.00  0.00     0.029 A 
ATOM     47  C   UNL A   1      40.319  28.260  28.897  1.00  0.00     0.049 A 
ATOM     48  H   UNL A   1      40.042  29.047  30.807  1.00  0.00     0.167 HD
ATOM     49  C   UNL A   1      39.748  31.316  34.555  1.00  0.00     0.034 A 
ATOM     50  C   UNL A   1      41.472  27.560  28.914  1.00  0.00     0.034 A 
ATOM     51  C   UNL A   1      40.864  30.430  34.737  1.00  0.00     0.049 A 
ATOM     52  C   UNL A   1      42.280  27.498  30.182  1.00  0.00     0.074 A 
ATOM     53  C   UNL A   1      41.629  30.230  35.873  1.00  0.00     0.029 A 
ATOM     54  N   UNL A   1      41.386  29.606  33.753  1.00  0.00    -0.354 N 
ATOM     55  N   UNL A   1      42.044  28.072  31.338  1.00  0.00    -0.248 NA
ATOM     56  C   UNL A   1      43.495  26.669  30.163  1.00  0.00     0.031 C 
ATOM     57  C   UNL A   1      42.629  29.301  35.567  1.00  0.00     0.029 A 
ATOM     58  C   UNL A   1      42.474  28.907  34.247  1.00  0.00     0.049 A 
ATOM     59  H   UNL A   1      41.035  29.530  32.836  1.00  0.00     0.167 HD
ATOM     60  C   UNL A   1      43.060  27.651  32.190  1.00  0.00     0.074 A 
ATOM     61  C   UNL A   1      43.908  26.763  31.421  1.00  0.00     0.031 C 
ATOM     62  C   UNL A   1      43.275  27.981  33.487  1.00  0.00     0.034 A 
BRANCH  49  63
ATOM     63  C   UNL A   1      39.354  32.217  35.695  1.00  0.00     0.023 A 
ATOM     64  C   UNL A   1      38.478  31.739  36.690  1.00  0.00     0.012 A 
ATOM     65  C   UNL A   1      39.872  33.522  35.798  1.00  0.00     0.148 A 
ATOM     66  C   UNL A   1      38.097  32.558  37.752  1.00  0.00     0.002 A 
ATOM     67  C   UNL A   1      39.517  34.319  36.881  1.00  0.00     0.091 A 
ATOM     68  F   UNL A   1      40.680  33.971  34.826  1.00  0.00    -0.205 F 
ATOM     69  C   UNL A   1      38.624  33.843  37.852  1.00  0.00     0.022 A 
BRANCH  67  70
ATOM     70  S   UNL A   1      40.207  35.960  37.122  1.00  0.00     0.127 S 
ATOM     71  O   UNL A   1      39.771  36.646  35.906  1.00  0.00    -0.237 OA
ATOM     72  O   UNL A   1      39.540  36.406  38.346  1.00  0.00    -0.237 OA
ATOM     73  O   UNL A   1      41.644  35.766  37.259  1.00  0.00    -0.744 OA
ENDBRANCH  67  70
ENDBRANCH  49  63
BRANCH  50  74
ATOM     74  C   UNL A   1      41.908  26.848  27.680  1.00  0.00     0.023 A 
ATOM     75  C   UNL A   1      42.592  27.555  26.675  1.00  0.00     0.012 A 
ATOM     76  C   UNL A   1      41.708  25.461  27.533  1.00  0.00     0.148 A 
ATOM     77  C   UNL A   1      43.060  26.895  25.537  1.00  0.00     0.002 A 
ATOM     78  C   UNL A   1      42.224  24.801  26.425  1.00  0.00     0.091 A 
ATOM     79  F   UNL A   1      41.040  24.811  28.498  1.00  0.00    -0.205 F 
ATOM     80  C   UNL A   1      42.888  25.517  25.419  1.00  0.00     0.022 A 
BRANCH  78  81
ATOM     81  S   UNL A   1      42.174  23.012  26.258  1.00  0.00     0.127 S 
ATOM     82  O   UNL A   1      43.020  22.584  27.370  1.00  0.00    -0.237 OA
ATOM     83  O   UNL A   1      40.747  22.734  26.426  1.00  0.00    -0.237 OA
ATOM     84  O   UNL A   1      42.689  22.724  24.927  1.00  0.00    -0.744 OA
ENDBRANCH  78  81
ENDBRANCH  50  74
BRANCH  62  85
ATOM     85  C   UNL A   1      44.456  27.361  34.189  1.00  0.00     0.023 A 
ATOM     86  C   UNL A   1      45.684  28.050  34.230  1.00  0.00     0.012 A 
ATOM     87  C   UNL A   1      44.313  26.154  34.903  1.00  0.00     0.148 A 
ATOM     88  C   UNL A   1      46.758  27.539  34.958  1.00  0.00     0.002 A 
ATOM     89  C   UNL A   1      45.374  25.673  35.661  1.00  0.00     0.091 A 
ATOM     90  F   UNL A   1      43.142  25.506  34.835  1.00  0.00    -0.205 F 
ATOM     91  C   UNL A   1      46.599  26.360  35.685  1.00  0.00     0.022 A 
BRANCH  89  92
ATOM     92  S   UNL A   1      45.231  24.215  36.703  1.00  0.00     0.127 S 
ATOM     93  O   UNL A   1      44.357  24.697  37.771  1.00  0.00    -0.237 OA
ATOM     94  O   UNL A   1      44.611  23.247  35.798  1.00  0.00    -0.237 OA
ATOM     95  O   UNL A   1      46.588  23.879  37.110  1.00  0.00    -0.744 OA
ENDBRANCH  89  92
ENDBRANCH  62  85
ENDBRANCH  36  37
ENDBRANCH  29  31
ENDBRANCH  28  29
ENDBRANCH  27  28
ENDBRANCH  26  27
ENDBRANCH   1  26
TORSDOF 21
ENDMDL
MODEL 2
REMARK VINA RESULT:     -10.6      2.298      7.829
REMARK SMILES C[C@](NC(=O)c1csc(-c2cccs2)n1)(C(=O)OCCOCCOC(=O)c1ccc(-c2c3nc(c(-c4cccc(S(=O)(=O)[O-])c4F)c4ccc([nH]4)c(-c4cccc(S(=O)(=O)[O-])c4F)c4nc(c(-c5cccc(S(=O)(=O)[O-])c5F)c5ccc2[nH]5)C=C4)C=C3)cc1)C1CC1
REMARK SMILES IDX 21 1 20 2 19 3 18 4 16 5 17 6 2 7 1 8 90 9 91 10 92 11 3 12
REMARK SMILES IDX 4 13 5 15 6 16 7 17 15 18 8 19 9 20 10 21 11 22 14 23 12 24
REMARK SMILES IDX 13 25 22 26 23 27 24 28 25 29 26 30 27 31 28 32 89 33 29 34
REMARK SMILES IDX 88 35 30 36 31 37 32 38 82 39 33 40 87 41 81 42 83 43 34 44
REMARK SMILES IDX 86 45 80 46 79 47 35 49 67 50 47 51 66 52 48 53 51 54 65 55
REMARK SMILES IDX 84 56 49 57 50 58 64 60 85 61 52 62 36 63 37 64 45 65 38 66
REMARK SMILES IDX 40 67 46 68 39 69 41 70 42 71 43 72 44 73 68 74 69 75 77 76
REMARK SMILES IDX 70 77 72 78 78 79 71 80 73 81 74 82 75 83 76 84 53 85 54 86
REMARK SMILES IDX 62 87 55 88 57 89 63 90 56 91 58 92 59 93 60 94 61 95
REMARK H PARENT 3 14 83 48 51 59
REMARK Flexibility Score: inf
ROOT
ATOM      1  O   UNL A   1      32.205  30.283  26.832  1.00  0.00    -0.374 OA
ENDROOT
BRANCH   1   2
ATOM      2  C   UNL A   1      32.388  29.204  25.924  1.00  0.00     0.202 C 
BRANCH   2   3
ATOM      3  C   UNL A   1      31.374  29.026  24.786  1.00  0.00     0.261 C 
BRANCH   3   4
ATOM      4  O   UNL A   1      30.655  27.786  24.836  1.00  0.00    -0.461 OA
BRANCH   4   5
ATOM      5  C   UNL A   1      30.791  26.997  23.730  1.00  0.00     0.331 C 
ATOM      6  O   UNL A   1      30.421  27.321  22.604  1.00  0.00    -0.249 OA
BRANCH   5   7
ATOM      7  C   UNL A   1      31.403  25.594  24.052  1.00  0.00     0.138 C 
ATOM      8  C   UNL A   1      30.496  24.584  23.323  1.00  0.00     0.048 C 
BRANCH   7   9
ATOM      9  C   UNL A   1      32.837  25.590  23.537  1.00  0.00     0.026 C 
ATOM     10  C   UNL A   1      33.536  26.801  22.954  1.00  0.00     0.007 C 
ATOM     11  C   UNL A   1      33.987  26.247  24.274  1.00  0.00     0.007 C 
ENDBRANCH   7   9
BRANCH   7  12
ATOM     12  N   UNL A   1      31.293  25.253  25.503  1.00  0.00    -0.335 N 
ATOM     13  C   UNL A   1      31.226  24.042  26.149  1.00  0.00     0.271 C 
ATOM     14  H   UNL A   1      31.265  26.034  26.103  1.00  0.00     0.165 HD
ATOM     15  O   UNL A   1      30.448  23.895  27.089  1.00  0.00    -0.267 OA
BRANCH  13  16
ATOM     16  C   UNL A   1      32.176  22.996  25.780  1.00  0.00     0.139 A 
ATOM     17  C   UNL A   1      31.830  21.764  25.253  1.00  0.00     0.101 A 
ATOM     18  N   UNL A   1      33.542  23.152  26.011  1.00  0.00    -0.230 NA
ATOM     19  S   UNL A   1      33.248  20.863  24.880  1.00  0.00    -0.121 S 
ATOM     20  C   UNL A   1      34.204  22.141  25.498  1.00  0.00     0.134 A 
BRANCH  20  21
ATOM     21  C   UNL A   1      35.634  22.168  25.424  1.00  0.00     0.063 A 
ATOM     22  C   UNL A   1      36.484  21.095  25.250  1.00  0.00     0.023 A 
ATOM     23  S   UNL A   1      36.498  23.619  25.713  1.00  0.00    -0.141 S 
ATOM     24  C   UNL A   1      37.855  21.463  25.393  1.00  0.00     0.012 A 
ATOM     25  C   UNL A   1      38.001  22.804  25.670  1.00  0.00     0.065 A 
ENDBRANCH  20  21
ENDBRANCH  13  16
ENDBRANCH   7  12
ENDBRANCH   5   7
ENDBRANCH   4   5
ENDBRANCH   3   4
ENDBRANCH   2   3
ENDBRANCH   1   2
BRANCH   1  26
ATOM     26  C   UNL A   1      31.436  31.404  26.391  1.00  0.00     0.202 C 
BRANCH  26  27
ATOM     27  C   UNL A   1      31.820  32.798  26.910  1.00  0.00     0.261 C 
BRANCH  27  28
ATOM     28  O   UNL A   1      33.100  32.822  27.572  1.00  0.00    -0.460 OA
BRANCH  28  29
ATOM     29  C   UNL A   1      33.326  33.920  28.339  1.00  0.00     0.338 C 
ATOM     30  O   UNL A   1      32.625  34.912  28.434  1.00  0.00    -0.246 OA
BRANCH  29  31
ATOM     31  C   UNL A   1      34.485  33.690  29.220  1.00  0.00     0.060 A 
ATOM     32  C   UNL A   1      35.715  34.257  28.859  1.00  0.00     0.016 A 
ATOM     33  C   UNL A   1      34.390  32.837  30.320  1.00  0.00     0.016 A 
ATOM     34  C   UNL A   1      36.867  33.946  29.582  1.00  0.00     0.010 A 
ATOM     35  C   UNL A   1      35.547  32.518  31.033  1.00  0.00     0.010 A 
ATOM     36  C   UNL A   1      36.794  33.044  30.650  1.00  0.00    -0.014 A 
BRANCH  36  37
ATOM     37  C   UNL A   1      38.027  32.540  31.297  1.00  0.00     0.031 A 
ATOM     38  C   UNL A   1      38.735  31.360  30.697  1.00  0.00     0.074 A 
ATOM     39  C   UNL A   1      38.467  33.084  32.446  1.00  0.00     0.049 A 
ATOM     40  N   UNL A   1      39.746  30.675  31.165  1.00  0.00    -0.248 NA
ATOM     41  C   UNL A   1      38.228  30.881  29.401  1.00  0.00     0.031 C 
ATOM     42  C   UNL A   1      37.858  34.226  33.124  1.00  0.00     0.029 A 
ATOM     43  N   UNL A   1      39.498  32.708  33.271  1.00  0.00    -0.354 N 
ATOM     44  C   UNL A   1      39.968  29.658  30.245  1.00  0.00     0.074 A 
ATOM     45  C   UNL A   1      38.991  29.818  29.189  1.00  0.00     0.031 C 
ATOM     46  C   UNL A   1      38.488  34.421  34.294  1.00  0.00     0.029 A 
ATOM     47  C   UNL A   1      39.524  33.402  34.457  1.00  0.00     0.049 A 
ATOM     48  H   UNL A   1      40.153  32.010  33.037  1.00  0.00     0.167 HD
ATOM     49  C   UNL A   1      40.907  28.682  30.273  1.00  0.00     0.034 A 
ATOM     50  C   UNL A   1      40.268  33.211  35.565  1.00  0.00     0.034 A 
ATOM     51  C   UNL A   1      41.889  28.540  31.313  1.00  0.00     0.049 A 
ATOM     52  C   UNL A   1      41.304  32.118  35.579  1.00  0.00     0.074 A 
ATOM     53  C   UNL A   1      42.929  27.631  31.396  1.00  0.00     0.029 A 
ATOM     54  N   UNL A   1      41.942  29.317  32.459  1.00  0.00    -0.354 N 
ATOM     55  N   UNL A   1      41.600  31.251  34.640  1.00  0.00    -0.248 NA
ATOM     56  C   UNL A   1      42.131  31.994  36.790  1.00  0.00     0.031 C 
ATOM     57  C   UNL A   1      43.599  27.845  32.606  1.00  0.00     0.029 A 
ATOM     58  C   UNL A   1      42.987  28.900  33.266  1.00  0.00     0.049 A 
ATOM     59  H   UNL A   1      41.328  30.056  32.670  1.00  0.00     0.167 HD
ATOM     60  C   UNL A   1      42.664  30.501  35.131  1.00  0.00     0.074 A 
ATOM     61  C   UNL A   1      42.969  31.024  36.448  1.00  0.00     0.031 C 
ATOM     62  C   UNL A   1      43.318  29.467  34.549  1.00  0.00     0.034 A 
BRANCH  49  63
ATOM     63  C   UNL A   1      40.923  27.702  29.132  1.00  0.00     0.023 A 
ATOM     64  C   UNL A   1      40.074  26.577  29.167  1.00  0.00     0.012 A 
ATOM     65  C   UNL A   1      41.753  27.907  28.014  1.00  0.00     0.148 A 
ATOM     66  C   UNL A   1      40.076  25.655  28.121  1.00  0.00     0.002 A 
ATOM     67  C   UNL A   1      41.722  27.003  26.958  1.00  0.00     0.091 A 
ATOM     68  F   UNL A   1      42.576  28.966  28.011  1.00  0.00    -0.205 F 
ATOM     69  C   UNL A   1      40.892  25.873  27.014  1.00  0.00     0.022 A 
BRANCH  67  70
ATOM     70  S   UNL A   1      42.688  27.249  25.464  1.00  0.00     0.127 S 
ATOM     71  O   UNL A   1      42.212  26.154  24.620  1.00  0.00    -0.237 OA
ATOM     72  O   UNL A   1      42.265  28.581  25.030  1.00  0.00    -0.237 OA
ATOM     73  O   UNL A   1      44.082  27.168  25.880  1.00  0.00    -0.744 OA
ENDBRANCH  67  70
ENDBRANCH  49  63
BRANCH  50  74
ATOM     74  C   UNL A   1      40.060  34.099  36.742  1.00  0.00     0.023 A 
ATOM     75  C   UNL A   1      40.405  35.460  36.657  1.00  0.00     0.012 A 
ATOM     76  C   UNL A   1      39.458  33.613  37.920  1.00  0.00     0.148 A 
ATOM     77  C   UNL A   1      40.165  36.320  37.730  1.00  0.00     0.002 A 
ATOM     78  C   UNL A   1      39.171  34.485  38.962  1.00  0.00     0.091 A 
ATOM     79  F   UNL A   1      39.151  32.308  37.984  1.00  0.00    -0.205 F 
ATOM     80  C   UNL A   1      39.537  35.837  38.875  1.00  0.00     0.022 A 
BRANCH  78  81
ATOM     81  S   UNL A   1      38.238  33.983  40.414  1.00  0.00     0.127 S 
ATOM     82  O   UNL A   1      37.959  35.268  41.049  1.00  0.00    -0.237 OA
ATOM     83  O   UNL A   1      37.077  33.327  39.812  1.00  0.00    -0.237 OA
ATOM     84  O   UNL A   1      39.114  33.088  41.157  1.00  0.00    -0.744 OA
ENDBRANCH  78  81
ENDBRANCH  50  74
BRANCH  62  85
ATOM     85  C   UNL A   1      44.460  28.836  35.303  1.00  0.00     0.023 A 
ATOM     86  C   UNL A   1      45.771  29.315  35.113  1.00  0.00     0.012 A 
ATOM     87  C   UNL A   1      44.216  27.851  36.281  1.00  0.00     0.148 A 
ATOM     88  C   UNL A   1      46.825  28.812  35.875  1.00  0.00     0.002 A 
ATOM     89  C   UNL A   1      45.264  27.386  37.066  1.00  0.00     0.091 A 
ATOM     90  F   UNL A   1      42.964  27.397  36.432  1.00  0.00    -0.205 F 
ATOM     91  C   UNL A   1      46.570  27.859  36.860  1.00  0.00     0.022 A 
BRANCH  89  92
ATOM     92  S   UNL A   1      45.015  26.231  38.420  1.00  0.00     0.127 S 
ATOM     93  O   UNL A   1      44.968  24.951  37.715  1.00  0.00    -0.237 OA
ATOM     94  O   UNL A   1      46.216  26.437  39.230  1.00  0.00    -0.237 OA
ATOM     95  O   UNL A   1      43.774  26.634  39.068  1.00  0.00    -0.744 OA
ENDBRANCH  89  92
ENDBRANCH  62  85
ENDBRANCH  36  37
ENDBRANCH  29  31
ENDBRANCH  28  29
ENDBRANCH  27  28
ENDBRANCH  26  27
ENDBRANCH   1  26
TORSDOF 21
ENDMDL
MODEL 3
REMARK VINA RESULT:     -10.5      1.844      7.738
REMARK SMILES C[C@](NC(=O)c1csc(-c2cccs2)n1)(C(=O)OCCOCCOC(=O)c1ccc(-c2c3nc(c(-c4cccc(S(=O)(=O)[O-])c4F)c4ccc([nH]4)c(-c4cccc(S(=O)(=O)[O-])c4F)c4nc(c(-c5cccc(S(=O)(=O)[O-])c5F)c5ccc2[nH]5)C=C4)C=C3)cc1)C1CC1
REMARK SMILES IDX 21 1 20 2 19 3 18 4 16 5 17 6 2 7 1 8 90 9 91 10 92 11 3 12
REMARK SMILES IDX 4 13 5 15 6 16 7 17 15 18 8 19 9 20 10 21 11 22 14 23 12 24
REMARK SMILES IDX 13 25 22 26 23 27 24 28 25 29 26 30 27 31 28 32 89 33 29 34
REMARK SMILES IDX 88 35 30 36 31 37 32 38 82 39 33 40 87 41 81 42 83 43 34 44
REMARK SMILES IDX 86 45 80 46 79 47 35 49 67 50 47 51 66 52 48 53 51 54 65 55
REMARK SMILES IDX 84 56 49 57 50 58 64 60 85 61 52 62 36 63 37 64 45 65 38 66
REMARK SMILES IDX 40 67 46 68 39 69 41 70 42 71 43 72 44 73 68 74 69 75 77 76
REMARK SMILES IDX 70 77 72 78 78 79 71 80 73 81 74 82 75 83 76 84 53 85 54 86
REMARK SMILES IDX 62 87 55 88 57 89 63 90 56 91 58 92 59 93 60 94 61 95
REMARK H PARENT 3 14 83 48 51 59
REMARK Flexibility Score: inf
ROOT
ATOM      1  O   UNL A   1      32.071  30.218  26.743  1.00  0.00    -0.374 OA
ENDROOT
BRANCH   1   2
ATOM      2  C   UNL A   1      32.082  29.059  25.919  1.00  0.00     0.202 C 
BRANCH   2   3
ATOM      3  C   UNL A   1      31.271  29.080  24.617  1.00  0.00     0.261 C 
BRANCH   3   4
ATOM      4  O   UNL A   1      30.440  27.925  24.430  1.00  0.00    -0.461 OA
BRANCH   4   5
ATOM      5  C   UNL A   1      30.791  27.130  23.377  1.00  0.00     0.331 C 
ATOM      6  O   UNL A   1      30.635  27.440  22.198  1.00  0.00    -0.249 OA
BRANCH   5   7
ATOM      7  C   UNL A   1      31.347  25.737  23.822  1.00  0.00     0.138 C 
ATOM      8  C   UNL A   1      30.470  24.702  23.089  1.00  0.00     0.048 C 
BRANCH   7   9
ATOM      9  C   UNL A   1      32.813  25.676  23.412  1.00  0.00     0.026 C 
ATOM     10  C   UNL A   1      33.640  26.885  23.024  1.00  0.00     0.007 C 
ATOM     11  C   UNL A   1      33.945  26.154  24.299  1.00  0.00     0.007 C 
ENDBRANCH   7   9
BRANCH   7  12
ATOM     12  N   UNL A   1      31.128  25.484  25.279  1.00  0.00    -0.335 N 
ATOM     13  C   UNL A   1      31.081  24.316  26.000  1.00  0.00     0.271 C 
ATOM     14  H   UNL A   1      30.995  26.298  25.817  1.00  0.00     0.165 HD
ATOM     15  O   UNL A   1      30.231  24.176  26.878  1.00  0.00    -0.267 OA
BRANCH  13  16
ATOM     16  C   UNL A   1      32.126  23.317  25.790  1.00  0.00     0.139 A 
ATOM     17  C   UNL A   1      33.345  23.299  26.446  1.00  0.00     0.101 A 
ATOM     18  N   UNL A   1      31.984  22.322  24.825  1.00  0.00    -0.230 NA
ATOM     19  S   UNL A   1      34.248  21.913  25.973  1.00  0.00    -0.121 S 
ATOM     20  C   UNL A   1      32.990  21.479  24.896  1.00  0.00     0.134 A 
BRANCH  20  21
ATOM     21  C   UNL A   1      32.971  20.258  24.149  1.00  0.00     0.063 A 
ATOM     22  C   UNL A   1      32.158  19.942  23.080  1.00  0.00     0.023 A 
ATOM     23  S   UNL A   1      33.922  18.919  24.638  1.00  0.00    -0.141 S 
ATOM     24  C   UNL A   1      32.292  18.579  22.684  1.00  0.00     0.012 A 
ATOM     25  C   UNL A   1      33.202  17.902  23.466  1.00  0.00     0.065 A 
ENDBRANCH  20  21
ENDBRANCH  13  16
ENDBRANCH   7  12
ENDBRANCH   5   7
ENDBRANCH   4   5
ENDBRANCH   3   4
ENDBRANCH   2   3
ENDBRANCH   1   2
BRANCH   1  26
ATOM     26  C   UNL A   1      31.374  31.371  26.264  1.00  0.00     0.202 C 
BRANCH  26  27
ATOM     27  C   UNL A   1      31.785  32.747  26.811  1.00  0.00     0.261 C 
BRANCH  27  28
ATOM     28  O   UNL A   1      33.039  32.722  27.521  1.00  0.00    -0.460 OA
BRANCH  28  29
ATOM     29  C   UNL A   1      33.293  33.826  28.271  1.00  0.00     0.338 C 
ATOM     30  O   UNL A   1      32.617  34.836  28.351  1.00  0.00    -0.246 OA
BRANCH  29  31
ATOM     31  C   UNL A   1      34.447  33.580  29.155  1.00  0.00     0.060 A 
ATOM     32  C   UNL A   1      35.698  34.078  28.766  1.00  0.00     0.016 A 
ATOM     33  C   UNL A   1      34.321  32.777  30.288  1.00  0.00     0.016 A 
ATOM     34  C   UNL A   1      36.840  33.745  29.495  1.00  0.00     0.010 A 
ATOM     35  C   UNL A   1      35.468  32.435  31.009  1.00  0.00     0.010 A 
ATOM     36  C   UNL A   1      36.734  32.890  30.599  1.00  0.00    -0.014 A 
BRANCH  36  37
ATOM     37  C   UNL A   1      37.948  32.359  31.260  1.00  0.00     0.031 A 
ATOM     38  C   UNL A   1      38.669  31.198  30.636  1.00  0.00     0.074 A 
ATOM     39  C   UNL A   1      38.359  32.858  32.439  1.00  0.00     0.049 A 
ATOM     40  N   UNL A   1      39.664  30.493  31.105  1.00  0.00    -0.248 NA
ATOM     41  C   UNL A   1      38.195  30.768  29.311  1.00  0.00     0.031 C 
ATOM     42  C   UNL A   1      37.735  33.977  33.141  1.00  0.00     0.029 A 
ATOM     43  N   UNL A   1      39.366  32.449  33.277  1.00  0.00    -0.354 N 
ATOM     44  C   UNL A   1      39.909  29.509  30.156  1.00  0.00     0.074 A 
ATOM     45  C   UNL A   1      38.961  29.711  29.081  1.00  0.00     0.031 C 
ATOM     46  C   UNL A   1      38.334  34.128  34.334  1.00  0.00     0.029 A 
ATOM     47  C   UNL A   1      39.362  33.100  34.487  1.00  0.00     0.049 A 
ATOM     48  H   UNL A   1      40.025  31.758  33.035  1.00  0.00     0.167 HD
ATOM     49  C   UNL A   1      40.843  28.530  30.174  1.00  0.00     0.034 A 
ATOM     50  C   UNL A   1      40.076  32.866  35.607  1.00  0.00     0.034 A 
ATOM     51  C   UNL A   1      41.797  28.346  31.233  1.00  0.00     0.049 A 
ATOM     52  C   UNL A   1      41.108  31.770  35.610  1.00  0.00     0.074 A 
ATOM     53  C   UNL A   1      42.832  27.431  31.311  1.00  0.00     0.029 A 
ATOM     54  N   UNL A   1      41.822  29.080  32.408  1.00  0.00    -0.354 N 
ATOM     55  N   UNL A   1      41.426  30.936  34.648  1.00  0.00    -0.248 NA
ATOM     56  C   UNL A   1      41.902  31.599  36.836  1.00  0.00     0.031 C 
ATOM     57  C   UNL A   1      43.470  27.598  32.545  1.00  0.00     0.029 A 
ATOM     58  C   UNL A   1      42.844  28.631  33.226  1.00  0.00     0.049 A 
ATOM     59  H   UNL A   1      41.204  29.814  32.629  1.00  0.00     0.167 HD
ATOM     60  C   UNL A   1      42.475  30.165  35.140  1.00  0.00     0.074 A 
ATOM     61  C   UNL A   1      42.747  30.639  36.481  1.00  0.00     0.031 C 
ATOM     62  C   UNL A   1      43.142  29.150  34.537  1.00  0.00     0.034 A 
BRANCH  49  63
ATOM     63  C   UNL A   1      40.888  27.591  28.998  1.00  0.00     0.023 A 
ATOM     64  C   UNL A   1      39.988  26.507  28.938  1.00  0.00     0.012 A 
ATOM     65  C   UNL A   1      41.794  27.797  27.941  1.00  0.00     0.148 A 
ATOM     66  C   UNL A   1      40.015  25.623  27.859  1.00  0.00     0.002 A 
ATOM     67  C   UNL A   1      41.789  26.934  26.851  1.00  0.00     0.091 A 
ATOM     68  F   UNL A   1      42.662  28.816  28.030  1.00  0.00    -0.205 F 
ATOM     69  C   UNL A   1      40.907  25.842  26.813  1.00  0.00     0.022 A 
BRANCH  67  70
ATOM     70  S   UNL A   1      42.857  27.188  25.430  1.00  0.00     0.127 S 
ATOM     71  O   UNL A   1      42.284  28.397  24.841  1.00  0.00    -0.237 OA
ATOM     72  O   UNL A   1      44.169  27.375  26.051  1.00  0.00    -0.237 OA
ATOM     73  O   UNL A   1      42.740  25.976  24.630  1.00  0.00    -0.744 OA
ENDBRANCH  67  70
ENDBRANCH  49  63
BRANCH  50  74
ATOM     74  C   UNL A   1      39.839  33.712  36.810  1.00  0.00     0.023 A 
ATOM     75  C   UNL A   1      38.832  33.354  37.724  1.00  0.00     0.012 A 
ATOM     76  C   UNL A   1      40.655  34.827  37.085  1.00  0.00     0.148 A 
ATOM     77  C   UNL A   1      38.632  34.100  38.886  1.00  0.00     0.002 A 
ATOM     78  C   UNL A   1      40.487  35.532  38.270  1.00  0.00     0.091 A 
ATOM     79  F   UNL A   1      41.600  35.158  36.192  1.00  0.00    -0.205 F 
ATOM     80  C   UNL A   1      39.467  35.180  39.166  1.00  0.00     0.022 A 
BRANCH  78  81
ATOM     81  S   UNL A   1      41.604  36.845  38.780  1.00  0.00     0.127 S 
ATOM     82  O   UNL A   1      42.238  37.206  37.514  1.00  0.00    -0.237 OA
ATOM     83  O   UNL A   1      40.674  37.842  39.310  1.00  0.00    -0.237 OA
ATOM     84  O   UNL A   1      42.482  36.252  39.778  1.00  0.00    -0.744 OA
ENDBRANCH  78  81
ENDBRANCH  50  74
BRANCH  62  85
ATOM     85  C   UNL A   1      44.261  28.488  35.298  1.00  0.00     0.023 A 
ATOM     86  C   UNL A   1      45.568  29.005  35.207  1.00  0.00     0.012 A 
ATOM     87  C   UNL A   1      43.995  27.430  36.190  1.00  0.00     0.148 A 
ATOM     88  C   UNL A   1      46.597  28.468  35.980  1.00  0.00     0.002 A 
ATOM     89  C   UNL A   1      45.016  26.929  36.990  1.00  0.00     0.091 A 
ATOM     90  F   UNL A   1      42.748  26.942  36.248  1.00  0.00    -0.205 F 
ATOM     91  C   UNL A   1      46.319  27.441  36.880  1.00  0.00     0.022 A 
BRANCH  89  92
ATOM     92  S   UNL A   1      44.730  25.674  38.244  1.00  0.00     0.127 S 
ATOM     93  O   UNL A   1      43.721  26.317  39.084  1.00  0.00    -0.237 OA
ATOM     94  O   UNL A   1      44.235  24.549  37.450  1.00  0.00    -0.237 OA
ATOM     95  O   UNL A   1      46.019  25.443  38.881  1.00  0.00    -0.744 OA
ENDBRANCH  89  92
ENDBRANCH  62  85
ENDBRANCH  36  37
ENDBRANCH  29  31
ENDBRANCH  28  29
ENDBRANCH  27  28
ENDBRANCH  26  27
ENDBRANCH   1  26
TORSDOF 21
ENDMDL
