MODEL 1
REMARK VINA RESULT:     -12.2      0.000      0.000
REMARK SMILES O=C1C[C@H](c2cn[nH]c2C(=O)OCCOCCOC(=O)c2ccc(-c3c4nc(c(-c5cccc(S(=O)(=O)[O-])c5F)c5ccc([nH]5)c(-c5cccc(S(=O)(=O)[O-])c5F)c5nc(c(-c6cccc(S(=O)(=O)[O-])c6F)c6ccc3[nH]6)C=C5)C=C4)cc2)c2c(-c3cccs3)n[nH]c2N1
REMARK SMILES IDX 16 1 15 2 14 3 13 4 12 5 10 6 11 7 9 8 5 9 6 10 7 11 8 12
REMARK SMILES IDX 4 14 1 15 2 16 3 17 94 18 93 19 84 21 92 22 85 23 91 24
REMARK SMILES IDX 86 26 87 27 90 28 88 29 89 30 17 31 18 32 19 33 20 34 21 35
REMARK SMILES IDX 22 36 83 37 23 38 82 39 24 40 25 41 26 42 76 43 27 44 81 45
REMARK SMILES IDX 75 46 77 47 28 48 80 49 74 50 73 51 29 53 61 54 41 55 60 56
REMARK SMILES IDX 42 57 45 58 59 59 78 60 43 61 44 62 58 64 79 65 46 66 30 67
REMARK SMILES IDX 31 68 39 69 32 70 34 71 40 72 33 73 35 74 36 75 37 76 38 77
REMARK SMILES IDX 62 78 63 79 71 80 64 81 66 82 72 83 65 84 67 85 68 86 69 87
REMARK SMILES IDX 70 88 47 89 48 90 56 91 49 92 51 93 57 94 50 95 52 96 53 97
REMARK SMILES IDX 54 98 55 99
REMARK H PARENT 8 13 94 20 92 25 77 52 45 63
REMARK Flexibility Score: inf
ROOT
ATOM      1  C   UNL A   1      31.599  30.501  25.559  1.00  0.00     0.202 C 
ENDROOT
BRANCH   1   2
ATOM      2  O   UNL A   1      32.187  29.213  25.402  1.00  0.00    -0.374 OA
BRANCH   2   3
ATOM      3  C   UNL A   1      33.161  29.033  24.369  1.00  0.00     0.202 C 
BRANCH   3   4
ATOM      4  C   UNL A   1      32.752  28.095  23.238  1.00  0.00     0.261 C 
BRANCH   4   5
ATOM      5  O   UNL A   1      33.695  27.013  23.087  1.00  0.00    -0.459 OA
BRANCH   5   6
ATOM      6  C   UNL A   1      33.391  26.112  22.120  1.00  0.00     0.356 C 
ATOM      7  O   UNL A   1      33.404  26.352  20.918  1.00  0.00    -0.244 OA
BRANCH   6   8
ATOM      8  C   UNL A   1      33.237  24.776  22.636  1.00  0.00     0.147 A 
ATOM      9  C   UNL A   1      33.181  24.120  23.869  1.00  0.00     0.013 A 
ATOM     10  C   UNL A   1      32.904  22.765  23.495  1.00  0.00     0.140 A 
ATOM     11  N   UNL A   1      32.821  22.578  22.182  1.00  0.00    -0.183 NA
ATOM     12  N   UNL A   1      33.023  23.798  21.692  1.00  0.00    -0.271 N 
ATOM     13  H   UNL A   1      33.021  23.988  20.727  1.00  0.00     0.190 HD
BRANCH   9  14
ATOM     14  C   UNL A   1      33.204  24.543  25.333  1.00  0.00     0.069 C 
ATOM     15  O   UNL A   1      29.718  25.339  26.273  1.00  0.00    -0.275 OA
ATOM     16  C   UNL A   1      30.842  24.855  26.379  1.00  0.00     0.226 C 
ATOM     17  C   UNL A   1      32.042  25.496  25.703  1.00  0.00     0.114 C 
ATOM     18  N   UNL A   1      31.058  23.776  27.203  1.00  0.00    -0.311 N 
ATOM     19  C   UNL A   1      32.257  23.131  27.158  1.00  0.00     0.132 A 
ATOM     20  H   UNL A   1      30.354  23.472  27.820  1.00  0.00     0.171 HD
ATOM     21  C   UNL A   1      33.300  23.456  26.337  1.00  0.00     0.031 A 
ATOM     22  N   UNL A   1      32.623  22.027  27.861  1.00  0.00    -0.262 N 
ATOM     23  C   UNL A   1      34.313  22.531  26.681  1.00  0.00     0.108 A 
ATOM     24  N   UNL A   1      33.865  21.599  27.541  1.00  0.00    -0.173 NA
ATOM     25  H   UNL A   1      32.048  21.589  28.528  1.00  0.00     0.192 HD
BRANCH  23  26
ATOM     26  C   UNL A   1      35.670  22.485  26.062  1.00  0.00     0.055 A 
ATOM     27  C   UNL A   1      36.565  23.531  26.096  1.00  0.00     0.022 A 
ATOM     28  S   UNL A   1      36.324  21.103  25.307  1.00  0.00    -0.142 S 
ATOM     29  C   UNL A   1      37.846  23.144  25.602  1.00  0.00     0.012 A 
ATOM     30  C   UNL A   1      37.837  21.865  25.093  1.00  0.00     0.065 A 
ENDBRANCH  23  26
ENDBRANCH   9  14
ENDBRANCH   6   8
ENDBRANCH   5   6
ENDBRANCH   4   5
ENDBRANCH   3   4
ENDBRANCH   2   3
ENDBRANCH   1   2
BRANCH   1  31
ATOM     31  C   UNL A   1      31.710  31.130  26.935  1.00  0.00     0.261 C 
BRANCH  31  32
ATOM     32  O   UNL A   1      32.956  31.777  27.097  1.00  0.00    -0.460 OA
BRANCH  32  33
ATOM     33  C   UNL A   1      32.918  32.985  27.703  1.00  0.00     0.338 C 
ATOM     34  O   UNL A   1      32.082  33.858  27.584  1.00  0.00    -0.246 OA
BRANCH  33  35
ATOM     35  C   UNL A   1      34.171  33.104  28.452  1.00  0.00     0.060 A 
ATOM     36  C   UNL A   1      35.208  33.873  27.921  1.00  0.00     0.016 A 
ATOM     37  C   UNL A   1      34.370  32.240  29.537  1.00  0.00     0.016 A 
ATOM     38  C   UNL A   1      36.492  33.609  28.354  1.00  0.00     0.010 A 
ATOM     39  C   UNL A   1      35.629  32.025  30.006  1.00  0.00     0.010 A 
ATOM     40  C   UNL A   1      36.673  32.609  29.313  1.00  0.00    -0.014 A 
BRANCH  40  41
ATOM     41  C   UNL A   1      37.977  32.043  29.540  1.00  0.00     0.031 A 
ATOM     42  C   UNL A   1      38.125  30.667  29.042  1.00  0.00     0.074 A 
ATOM     43  C   UNL A   1      38.990  32.822  29.967  1.00  0.00     0.049 A 
ATOM     44  N   UNL A   1      38.167  29.583  29.739  1.00  0.00    -0.248 NA
ATOM     45  C   UNL A   1      38.006  30.453  27.593  1.00  0.00     0.031 C 
ATOM     46  C   UNL A   1      39.016  34.287  30.111  1.00  0.00     0.029 A 
ATOM     47  N   UNL A   1      40.275  32.473  30.203  1.00  0.00    -0.354 N 
ATOM     48  C   UNL A   1      38.351  28.568  28.808  1.00  0.00     0.074 A 
ATOM     49  C   UNL A   1      37.973  29.121  27.534  1.00  0.00     0.031 C 
ATOM     50  C   UNL A   1      40.301  34.704  30.148  1.00  0.00     0.029 A 
ATOM     51  C   UNL A   1      41.164  33.538  30.197  1.00  0.00     0.049 A 
ATOM     52  H   UNL A   1      40.556  31.543  30.363  1.00  0.00     0.167 HD
ATOM     53  C   UNL A   1      39.081  27.461  29.112  1.00  0.00     0.034 A 
ATOM     54  C   UNL A   1      42.512  33.442  30.151  1.00  0.00     0.034 A 
ATOM     55  C   UNL A   1      39.346  27.387  30.529  1.00  0.00     0.049 A 
ATOM     56  C   UNL A   1      42.861  32.058  30.563  1.00  0.00     0.074 A 
ATOM     57  C   UNL A   1      38.567  27.319  31.666  1.00  0.00     0.029 A 
ATOM     58  N   UNL A   1      40.594  27.792  30.941  1.00  0.00    -0.354 N 
ATOM     59  N   UNL A   1      42.641  31.583  31.759  1.00  0.00    -0.248 NA
ATOM     60  C   UNL A   1      43.029  31.059  29.519  1.00  0.00     0.031 C 
ATOM     61  C   UNL A   1      39.252  28.117  32.628  1.00  0.00     0.029 A 
ATOM     62  C   UNL A   1      40.439  28.579  32.051  1.00  0.00     0.049 A 
ATOM     63  H   UNL A   1      41.449  27.556  30.514  1.00  0.00     0.167 HD
ATOM     64  C   UNL A   1      42.201  30.282  31.545  1.00  0.00     0.074 A 
ATOM     65  C   UNL A   1      42.576  29.979  30.165  1.00  0.00     0.031 C 
ATOM     66  C   UNL A   1      41.312  29.684  32.396  1.00  0.00     0.034 A 
BRANCH  53  67
ATOM     67  C   UNL A   1      39.883  26.645  28.125  1.00  0.00     0.023 A 
ATOM     68  C   UNL A   1      39.722  25.242  28.182  1.00  0.00     0.012 A 
ATOM     69  C   UNL A   1      40.951  27.133  27.340  1.00  0.00     0.148 A 
ATOM     70  C   UNL A   1      40.611  24.374  27.541  1.00  0.00     0.002 A 
ATOM     71  C   UNL A   1      41.781  26.268  26.634  1.00  0.00     0.091 A 
ATOM     72  F   UNL A   1      41.278  28.427  27.368  1.00  0.00    -0.205 F 
ATOM     73  C   UNL A   1      41.636  24.886  26.759  1.00  0.00     0.022 A 
BRANCH  71  74
ATOM     74  S   UNL A   1      43.082  26.892  25.564  1.00  0.00     0.127 S 
ATOM     75  O   UNL A   1      43.974  27.526  26.529  1.00  0.00    -0.237 OA
ATOM     76  O   UNL A   1      43.593  25.659  24.962  1.00  0.00    -0.237 OA
ATOM     77  O   UNL A   1      42.414  27.780  24.620  1.00  0.00    -0.744 OA
ENDBRANCH  71  74
ENDBRANCH  53  67
BRANCH  54  78
ATOM     78  C   UNL A   1      43.486  34.363  29.525  1.00  0.00     0.023 A 
ATOM     79  C   UNL A   1      44.204  35.270  30.327  1.00  0.00     0.012 A 
ATOM     80  C   UNL A   1      43.898  34.184  28.183  1.00  0.00     0.148 A 
ATOM     81  C   UNL A   1      45.310  35.960  29.817  1.00  0.00     0.002 A 
ATOM     82  C   UNL A   1      44.994  34.878  27.679  1.00  0.00     0.091 A 
ATOM     83  F   UNL A   1      43.267  33.271  27.432  1.00  0.00    -0.205 F 
ATOM     84  C   UNL A   1      45.709  35.759  28.499  1.00  0.00     0.022 A 
BRANCH  82  85
ATOM     85  S   UNL A   1      45.588  34.659  25.995  1.00  0.00     0.127 S 
ATOM     86  O   UNL A   1      46.249  33.355  26.075  1.00  0.00    -0.237 OA
ATOM     87  O   UNL A   1      44.342  34.666  25.234  1.00  0.00    -0.237 OA
ATOM     88  O   UNL A   1      46.491  35.773  25.742  1.00  0.00    -0.744 OA
ENDBRANCH  82  85
ENDBRANCH  54  78
BRANCH  66  89
ATOM     89  C   UNL A   1      41.002  30.375  33.705  1.00  0.00     0.023 A 
ATOM     90  C   UNL A   1      41.911  30.379  34.783  1.00  0.00     0.012 A 
ATOM     91  C   UNL A   1      39.877  31.214  33.763  1.00  0.00     0.148 A 
ATOM     92  C   UNL A   1      41.698  31.195  35.899  1.00  0.00     0.002 A 
ATOM     93  C   UNL A   1      39.696  32.061  34.851  1.00  0.00     0.091 A 
ATOM     94  F   UNL A   1      39.024  31.204  32.728  1.00  0.00    -0.205 F 
ATOM     95  C   UNL A   1      40.599  32.049  35.925  1.00  0.00     0.022 A 
BRANCH  93  96
ATOM     96  S   UNL A   1      38.384  33.286  34.876  1.00  0.00     0.127 S 
ATOM     97  O   UNL A   1      38.964  34.338  35.707  1.00  0.00    -0.237 OA
ATOM     98  O   UNL A   1      38.248  33.631  33.460  1.00  0.00    -0.237 OA
ATOM     99  O   UNL A   1      37.219  32.612  35.436  1.00  0.00    -0.744 OA
ENDBRANCH  93  96
ENDBRANCH  66  89
ENDBRANCH  40  41
ENDBRANCH  33  35
ENDBRANCH  32  33
ENDBRANCH  31  32
ENDBRANCH   1  31
TORSDOF 19
ENDMDL
MODEL 2
REMARK VINA RESULT:     -12.0      1.678      2.815
REMARK SMILES O=C1C[C@H](c2cn[nH]c2C(=O)OCCOCCOC(=O)c2ccc(-c3c4nc(c(-c5cccc(S(=O)(=O)[O-])c5F)c5ccc([nH]5)c(-c5cccc(S(=O)(=O)[O-])c5F)c5nc(c(-c6cccc(S(=O)(=O)[O-])c6F)c6ccc3[nH]6)C=C5)C=C4)cc2)c2c(-c3cccs3)n[nH]c2N1
REMARK SMILES IDX 16 1 15 2 14 3 13 4 12 5 10 6 11 7 9 8 5 9 6 10 7 11 8 12
REMARK SMILES IDX 4 14 1 15 2 16 3 17 94 18 93 19 84 21 92 22 85 23 91 24
REMARK SMILES IDX 86 26 87 27 90 28 88 29 89 30 17 31 18 32 19 33 20 34 21 35
REMARK SMILES IDX 22 36 83 37 23 38 82 39 24 40 25 41 26 42 76 43 27 44 81 45
REMARK SMILES IDX 75 46 77 47 28 48 80 49 74 50 73 51 29 53 61 54 41 55 60 56
REMARK SMILES IDX 42 57 45 58 59 59 78 60 43 61 44 62 58 64 79 65 46 66 30 67
REMARK SMILES IDX 31 68 39 69 32 70 34 71 40 72 33 73 35 74 36 75 37 76 38 77
REMARK SMILES IDX 62 78 63 79 71 80 64 81 66 82 72 83 65 84 67 85 68 86 69 87
REMARK SMILES IDX 70 88 47 89 48 90 56 91 49 92 51 93 57 94 50 95 52 96 53 97
REMARK SMILES IDX 54 98 55 99
REMARK H PARENT 8 13 94 20 92 25 77 52 45 63
REMARK Flexibility Score: inf
ROOT
ATOM      1  C   UNL A   1      31.752  30.215  26.595  1.00  0.00     0.202 C 
ENDROOT
BRANCH   1   2
ATOM      2  O   UNL A   1      33.028  29.620  26.381  1.00  0.00    -0.374 OA
BRANCH   2   3
ATOM      3  C   UNL A   1      33.194  28.235  26.704  1.00  0.00     0.202 C 
BRANCH   3   4
ATOM      4  C   UNL A   1      34.020  27.424  25.710  1.00  0.00     0.261 C 
BRANCH   4   5
ATOM      5  O   UNL A   1      33.644  26.031  25.730  1.00  0.00    -0.459 OA
BRANCH   5   6
ATOM      6  C   UNL A   1      34.294  25.245  24.836  1.00  0.00     0.356 C 
ATOM      7  O   UNL A   1      35.241  24.516  25.110  1.00  0.00    -0.244 OA
BRANCH   6   8
ATOM      8  C   UNL A   1      33.635  25.198  23.557  1.00  0.00     0.147 A 
ATOM      9  C   UNL A   1      32.489  24.644  22.977  1.00  0.00     0.013 A 
ATOM     10  C   UNL A   1      32.520  25.171  21.646  1.00  0.00     0.140 A 
ATOM     11  N   UNL A   1      33.571  25.946  21.400  1.00  0.00    -0.183 NA
ATOM     12  N   UNL A   1      34.221  25.945  22.561  1.00  0.00    -0.271 N 
ATOM     13  H   UNL A   1      35.059  26.442  22.698  1.00  0.00     0.190 HD
BRANCH   9  14
ATOM     14  C   UNL A   1      31.304  23.824  23.473  1.00  0.00     0.069 C 
ATOM     15  O   UNL A   1      32.678  20.691  24.874  1.00  0.00    -0.275 OA
ATOM     16  C   UNL A   1      31.976  21.697  24.813  1.00  0.00     0.226 C 
ATOM     17  C   UNL A   1      31.583  22.302  23.475  1.00  0.00     0.114 C 
ATOM     18  N   UNL A   1      31.441  22.242  25.956  1.00  0.00    -0.311 N 
ATOM     19  C   UNL A   1      30.835  23.460  25.895  1.00  0.00     0.132 A 
ATOM     20  H   UNL A   1      31.494  21.756  26.811  1.00  0.00     0.171 HD
ATOM     21  C   UNL A   1      30.713  24.228  24.771  1.00  0.00     0.031 A 
ATOM     22  N   UNL A   1      30.298  24.163  26.927  1.00  0.00    -0.262 N 
ATOM     23  C   UNL A   1      29.993  25.366  25.204  1.00  0.00     0.108 A 
ATOM     24  N   UNL A   1      29.827  25.370  26.540  1.00  0.00    -0.173 NA
ATOM     25  H   UNL A   1      30.258  23.831  27.852  1.00  0.00     0.192 HD
BRANCH  23  26
ATOM     26  C   UNL A   1      29.594  26.505  24.329  1.00  0.00     0.055 A 
ATOM     27  C   UNL A   1      28.312  26.708  23.871  1.00  0.00     0.022 A 
ATOM     28  S   UNL A   1      30.653  27.754  23.852  1.00  0.00    -0.142 S 
ATOM     29  C   UNL A   1      28.178  27.971  23.222  1.00  0.00     0.012 A 
ATOM     30  C   UNL A   1      29.388  28.617  23.097  1.00  0.00     0.065 A 
ENDBRANCH  23  26
ENDBRANCH   9  14
ENDBRANCH   6   8
ENDBRANCH   5   6
ENDBRANCH   4   5
ENDBRANCH   3   4
ENDBRANCH   2   3
ENDBRANCH   1   2
BRANCH   1  31
ATOM     31  C   UNL A   1      31.741  31.707  26.872  1.00  0.00     0.261 C 
BRANCH  31  32
ATOM     32  O   UNL A   1      33.007  32.147  27.322  1.00  0.00    -0.460 OA
BRANCH  32  33
ATOM     33  C   UNL A   1      33.023  33.344  27.952  1.00  0.00     0.338 C 
ATOM     34  O   UNL A   1      32.209  34.242  27.878  1.00  0.00    -0.246 OA
BRANCH  33  35
ATOM     35  C   UNL A   1      34.304  33.413  28.659  1.00  0.00     0.060 A 
ATOM     36  C   UNL A   1      35.350  34.148  28.100  1.00  0.00     0.016 A 
ATOM     37  C   UNL A   1      34.507  32.535  29.733  1.00  0.00     0.016 A 
ATOM     38  C   UNL A   1      36.637  33.835  28.488  1.00  0.00     0.010 A 
ATOM     39  C   UNL A   1      35.772  32.271  30.158  1.00  0.00     0.010 A 
ATOM     40  C   UNL A   1      36.814  32.823  29.434  1.00  0.00    -0.014 A 
BRANCH  40  41
ATOM     41  C   UNL A   1      38.103  32.209  29.616  1.00  0.00     0.031 A 
ATOM     42  C   UNL A   1      38.184  30.832  29.107  1.00  0.00     0.074 A 
ATOM     43  C   UNL A   1      39.157  32.950  30.010  1.00  0.00     0.049 A 
ATOM     44  N   UNL A   1      38.211  29.743  29.798  1.00  0.00    -0.248 NA
ATOM     45  C   UNL A   1      38.009  30.629  27.662  1.00  0.00     0.031 C 
ATOM     46  C   UNL A   1      39.241  34.412  30.159  1.00  0.00     0.029 A 
ATOM     47  N   UNL A   1      40.436  32.553  30.201  1.00  0.00    -0.354 N 
ATOM     48  C   UNL A   1      38.327  28.727  28.858  1.00  0.00     0.074 A 
ATOM     49  C   UNL A   1      37.925  29.299  27.600  1.00  0.00     0.031 C 
ATOM     50  C   UNL A   1      40.541  34.782  30.154  1.00  0.00     0.029 A 
ATOM     51  C   UNL A   1      41.362  33.586  30.169  1.00  0.00     0.049 A 
ATOM     52  H   UNL A   1      40.689  31.613  30.348  1.00  0.00     0.167 HD
ATOM     53  C   UNL A   1      39.026  27.593  29.133  1.00  0.00     0.034 A 
ATOM     54  C   UNL A   1      42.704  33.442  30.077  1.00  0.00     0.034 A 
ATOM     55  C   UNL A   1      39.336  27.502  30.539  1.00  0.00     0.049 A 
ATOM     56  C   UNL A   1      43.016  32.044  30.471  1.00  0.00     0.074 A 
ATOM     57  C   UNL A   1      38.594  27.457  31.702  1.00  0.00     0.029 A 
ATOM     58  N   UNL A   1      40.611  27.861  30.911  1.00  0.00    -0.354 N 
ATOM     59  N   UNL A   1      42.820  31.572  31.673  1.00  0.00    -0.248 NA
ATOM     60  C   UNL A   1      43.113  31.045  29.419  1.00  0.00     0.031 C 
ATOM     61  C   UNL A   1      39.340  28.225  32.643  1.00  0.00     0.029 A 
ATOM     62  C   UNL A   1      40.522  28.647  32.029  1.00  0.00     0.049 A 
ATOM     63  H   UNL A   1      41.442  27.596  30.454  1.00  0.00     0.167 HD
ATOM     64  C   UNL A   1      42.327  30.288  31.469  1.00  0.00     0.074 A 
ATOM     65  C   UNL A   1      42.643  29.979  30.076  1.00  0.00     0.031 C 
ATOM     66  C   UNL A   1      41.446  29.719  32.347  1.00  0.00     0.034 A 
BRANCH  53  67
ATOM     67  C   UNL A   1      39.764  26.753  28.117  1.00  0.00     0.023 A 
ATOM     68  C   UNL A   1      39.499  25.365  28.127  1.00  0.00     0.012 A 
ATOM     69  C   UNL A   1      40.865  27.187  27.344  1.00  0.00     0.148 A 
ATOM     70  C   UNL A   1      40.320  24.455  27.454  1.00  0.00     0.002 A 
ATOM     71  C   UNL A   1      41.627  26.287  26.607  1.00  0.00     0.091 A 
ATOM     72  F   UNL A   1      41.287  28.451  27.415  1.00  0.00    -0.205 F 
ATOM     73  C   UNL A   1      41.380  24.916  26.686  1.00  0.00     0.022 A 
BRANCH  71  74
ATOM     74  S   UNL A   1      42.971  26.848  25.554  1.00  0.00     0.127 S 
ATOM     75  O   UNL A   1      43.889  27.421  26.533  1.00  0.00    -0.237 OA
ATOM     76  O   UNL A   1      43.417  25.595  24.943  1.00  0.00    -0.237 OA
ATOM     77  O   UNL A   1      42.361  27.783  24.615  1.00  0.00    -0.744 OA
ENDBRANCH  71  74
ENDBRANCH  53  67
BRANCH  54  78
ATOM     78  C   UNL A   1      43.689  34.330  29.421  1.00  0.00     0.023 A 
ATOM     79  C   UNL A   1      44.410  35.261  30.192  1.00  0.00     0.012 A 
ATOM     80  C   UNL A   1      44.105  34.097  28.089  1.00  0.00     0.148 A 
ATOM     81  C   UNL A   1      45.525  35.922  29.662  1.00  0.00     0.002 A 
ATOM     82  C   UNL A   1      45.210  34.762  27.565  1.00  0.00     0.091 A 
ATOM     83  F   UNL A   1      43.470  33.161  27.370  1.00  0.00    -0.205 F 
ATOM     84  C   UNL A   1      45.928  35.668  28.354  1.00  0.00     0.022 A 
BRANCH  82  85
ATOM     85  S   UNL A   1      45.810  34.474  25.893  1.00  0.00     0.127 S 
ATOM     86  O   UNL A   1      46.789  35.551  25.734  1.00  0.00    -0.237 OA
ATOM     87  O   UNL A   1      46.387  33.137  26.007  1.00  0.00    -0.237 OA
ATOM     88  O   UNL A   1      44.646  34.589  25.026  1.00  0.00    -0.744 OA
ENDBRANCH  82  85
ENDBRANCH  54  78
BRANCH  66  89
ATOM     89  C   UNL A   1      41.205  30.413  33.668  1.00  0.00     0.023 A 
ATOM     90  C   UNL A   1      42.108  30.304  34.747  1.00  0.00     0.012 A 
ATOM     91  C   UNL A   1      40.173  31.363  33.742  1.00  0.00     0.148 A 
ATOM     92  C   UNL A   1      41.977  31.117  35.877  1.00  0.00     0.002 A 
ATOM     93  C   UNL A   1      40.077  32.204  34.845  1.00  0.00     0.091 A 
ATOM     94  F   UNL A   1      39.326  31.459  32.707  1.00  0.00    -0.205 F 
ATOM     95  C   UNL A   1      40.972  32.079  35.918  1.00  0.00     0.022 A 
BRANCH  93  96
ATOM     96  S   UNL A   1      38.898  33.557  34.892  1.00  0.00     0.127 S 
ATOM     97  O   UNL A   1      39.246  34.308  33.689  1.00  0.00    -0.237 OA
ATOM     98  O   UNL A   1      37.613  32.857  34.827  1.00  0.00    -0.237 OA
ATOM     99  O   UNL A   1      39.132  34.246  36.155  1.00  0.00    -0.744 OA
ENDBRANCH  93  96
ENDBRANCH  66  89
ENDBRANCH  40  41
ENDBRANCH  33  35
ENDBRANCH  32  33
ENDBRANCH  31  32
ENDBRANCH   1  31
TORSDOF 19
ENDMDL
MODEL 3
REMARK VINA RESULT:     -11.9      2.116      3.156
REMARK SMILES O=C1C[C@H](c2cn[nH]c2C(=O)OCCOCCOC(=O)c2ccc(-c3c4nc(c(-c5cccc(S(=O)(=O)[O-])c5F)c5ccc([nH]5)c(-c5cccc(S(=O)(=O)[O-])c5F)c5nc(c(-c6cccc(S(=O)(=O)[O-])c6F)c6ccc3[nH]6)C=C5)C=C4)cc2)c2c(-c3cccs3)n[nH]c2N1
REMARK SMILES IDX 16 1 15 2 14 3 13 4 12 5 10 6 11 7 9 8 5 9 6 10 7 11 8 12
REMARK SMILES IDX 4 14 1 15 2 16 3 17 94 18 93 19 84 21 92 22 85 23 91 24
REMARK SMILES IDX 86 26 87 27 90 28 88 29 89 30 17 31 18 32 19 33 20 34 21 35
REMARK SMILES IDX 22 36 83 37 23 38 82 39 24 40 25 41 26 42 76 43 27 44 81 45
REMARK SMILES IDX 75 46 77 47 28 48 80 49 74 50 73 51 29 53 61 54 41 55 60 56
REMARK SMILES IDX 42 57 45 58 59 59 78 60 43 61 44 62 58 64 79 65 46 66 30 67
REMARK SMILES IDX 31 68 39 69 32 70 34 71 40 72 33 73 35 74 36 75 37 76 38 77
REMARK SMILES IDX 62 78 63 79 71 80 64 81 66 82 72 83 65 84 67 85 68 86 69 87
REMARK SMILES IDX 70 88 47 89 48 90 56 91 49 92 51 93 57 94 50 95 52 96 53 97
REMARK SMILES IDX 54 98 55 99
REMARK H PARENT 8 13 94 20 92 25 77 52 45 63
REMARK Flexibility Score: inf
ROOT
ATOM      1  C   UNL A   1      31.609  30.050  26.462  1.00  0.00     0.202 C 
ENDROOT
BRANCH   1   2
ATOM      2  O   UNL A   1      32.602  29.262  27.114  1.00  0.00    -0.374 OA
BRANCH   2   3
ATOM      3  C   UNL A   1      32.565  27.842  26.940  1.00  0.00     0.202 C 
BRANCH   3   4
ATOM      4  C   UNL A   1      33.630  27.267  26.012  1.00  0.00     0.261 C 
BRANCH   4   5
ATOM      5  O   UNL A   1      33.480  25.839  25.864  1.00  0.00    -0.459 OA
BRANCH   5   6
ATOM      6  C   UNL A   1      34.269  25.272  24.917  1.00  0.00     0.356 C 
ATOM      7  O   UNL A   1      35.333  24.708  25.145  1.00  0.00    -0.244 OA
BRANCH   6   8
ATOM      8  C   UNL A   1      33.635  25.222  23.625  1.00  0.00     0.147 A 
ATOM      9  C   UNL A   1      32.518  24.641  23.017  1.00  0.00     0.013 A 
ATOM     10  C   UNL A   1      32.557  25.187  21.694  1.00  0.00     0.140 A 
ATOM     11  N   UNL A   1      33.588  25.996  21.477  1.00  0.00    -0.183 NA
ATOM     12  N   UNL A   1      34.217  26.000  22.650  1.00  0.00    -0.271 N 
ATOM     13  H   UNL A   1      35.037  26.520  22.810  1.00  0.00     0.190 HD
BRANCH   9  14
ATOM     14  C   UNL A   1      31.349  23.779  23.479  1.00  0.00     0.069 C 
ATOM     15  O   UNL A   1      32.793  20.684  24.892  1.00  0.00    -0.275 OA
ATOM     16  C   UNL A   1      32.060  21.667  24.821  1.00  0.00     0.226 C 
ATOM     17  C   UNL A   1      31.678  22.267  23.479  1.00  0.00     0.114 C 
ATOM     18  N   UNL A   1      31.481  22.185  25.954  1.00  0.00    -0.311 N 
ATOM     19  C   UNL A   1      30.837  23.383  25.887  1.00  0.00     0.132 A 
ATOM     20  H   UNL A   1      31.530  21.695  26.807  1.00  0.00     0.171 HD
ATOM     21  C   UNL A   1      30.715  24.155  24.766  1.00  0.00     0.031 A 
ATOM     22  N   UNL A   1      30.254  24.061  26.911  1.00  0.00    -0.262 N 
ATOM     23  C   UNL A   1      29.949  25.265  25.190  1.00  0.00     0.108 A 
ATOM     24  N   UNL A   1      29.752  25.255  26.521  1.00  0.00    -0.173 NA
ATOM     25  H   UNL A   1      30.203  23.721  27.833  1.00  0.00     0.192 HD
BRANCH  23  26
ATOM     26  C   UNL A   1      29.533  26.397  24.312  1.00  0.00     0.055 A 
ATOM     27  C   UNL A   1      28.233  26.628  23.923  1.00  0.00     0.022 A 
ATOM     28  S   UNL A   1      30.598  27.604  23.748  1.00  0.00    -0.142 S 
ATOM     29  C   UNL A   1      28.098  27.881  23.254  1.00  0.00     0.012 A 
ATOM     30  C   UNL A   1      29.316  28.488  23.047  1.00  0.00     0.065 A 
ENDBRANCH  23  26
ENDBRANCH   9  14
ENDBRANCH   6   8
ENDBRANCH   5   6
ENDBRANCH   4   5
ENDBRANCH   3   4
ENDBRANCH   2   3
ENDBRANCH   1   2
BRANCH   1  31
ATOM     31  C   UNL A   1      31.705  31.551  26.655  1.00  0.00     0.261 C 
BRANCH  31  32
ATOM     32  O   UNL A   1      32.856  31.893  27.401  1.00  0.00    -0.460 OA
BRANCH  32  33
ATOM     33  C   UNL A   1      32.891  33.158  27.880  1.00  0.00     0.338 C 
ATOM     34  O   UNL A   1      32.104  34.061  27.675  1.00  0.00    -0.246 OA
BRANCH  33  35
ATOM     35  C   UNL A   1      34.155  33.280  28.609  1.00  0.00     0.060 A 
ATOM     36  C   UNL A   1      35.165  34.089  28.086  1.00  0.00     0.016 A 
ATOM     37  C   UNL A   1      34.394  32.386  29.662  1.00  0.00     0.016 A 
ATOM     38  C   UNL A   1      36.463  33.840  28.485  1.00  0.00     0.010 A 
ATOM     39  C   UNL A   1      35.666  32.184  30.100  1.00  0.00     0.010 A 
ATOM     40  C   UNL A   1      36.684  32.814  29.407  1.00  0.00    -0.014 A 
BRANCH  40  41
ATOM     41  C   UNL A   1      38.004  32.270  29.592  1.00  0.00     0.031 A 
ATOM     42  C   UNL A   1      38.146  30.881  29.130  1.00  0.00     0.074 A 
ATOM     43  C   UNL A   1      39.025  33.074  29.947  1.00  0.00     0.049 A 
ATOM     44  N   UNL A   1      38.234  29.820  29.857  1.00  0.00    -0.248 NA
ATOM     45  C   UNL A   1      37.964  30.620  27.695  1.00  0.00     0.031 C 
ATOM     46  C   UNL A   1      39.039  34.543  30.044  1.00  0.00     0.029 A 
ATOM     47  N   UNL A   1      40.324  32.747  30.133  1.00  0.00    -0.354 N 
ATOM     48  C   UNL A   1      38.389  28.779  28.950  1.00  0.00     0.074 A 
ATOM     49  C   UNL A   1      37.945  29.286  27.679  1.00  0.00     0.031 C 
ATOM     50  C   UNL A   1      40.319  34.976  30.009  1.00  0.00     0.029 A 
ATOM     51  C   UNL A   1      41.198  33.822  30.053  1.00  0.00     0.049 A 
ATOM     52  H   UNL A   1      40.624  31.826  30.310  1.00  0.00     0.167 HD
ATOM     53  C   UNL A   1      39.146  27.690  29.255  1.00  0.00     0.034 A 
ATOM     54  C   UNL A   1      42.544  33.740  29.948  1.00  0.00     0.034 A 
ATOM     55  C   UNL A   1      39.477  27.663  30.659  1.00  0.00     0.049 A 
ATOM     56  C   UNL A   1      42.929  32.374  30.386  1.00  0.00     0.074 A 
ATOM     57  C   UNL A   1      38.751  27.623  31.833  1.00  0.00     0.029 A 
ATOM     58  N   UNL A   1      40.737  28.096  31.001  1.00  0.00    -0.354 N 
ATOM     59  N   UNL A   1      42.770  31.934  31.606  1.00  0.00    -0.248 NA
ATOM     60  C   UNL A   1      43.062  31.344  29.367  1.00  0.00     0.031 C 
ATOM     61  C   UNL A   1      39.470  28.458  32.737  1.00  0.00     0.029 A 
ATOM     62  C   UNL A   1      40.623  28.915  32.092  1.00  0.00     0.049 A 
ATOM     63  H   UNL A   1      41.575  27.857  30.542  1.00  0.00     0.167 HD
ATOM     64  C   UNL A   1      42.338  30.622  31.453  1.00  0.00     0.074 A 
ATOM     65  C   UNL A   1      42.653  30.280  30.067  1.00  0.00     0.031 C 
ATOM     66  C   UNL A   1      41.496  30.041  32.361  1.00  0.00     0.034 A 
BRANCH  53  67
ATOM     67  C   UNL A   1      39.912  26.852  28.258  1.00  0.00     0.023 A 
ATOM     68  C   UNL A   1      39.742  25.452  28.341  1.00  0.00     0.012 A 
ATOM     69  C   UNL A   1      40.961  27.319  27.434  1.00  0.00     0.148 A 
ATOM     70  C   UNL A   1      40.604  24.566  27.688  1.00  0.00     0.002 A 
ATOM     71  C   UNL A   1      41.763  26.437  26.719  1.00  0.00     0.091 A 
ATOM     72  F   UNL A   1      41.299  28.611  27.433  1.00  0.00    -0.205 F 
ATOM     73  C   UNL A   1      41.611  25.058  26.869  1.00  0.00     0.022 A 
BRANCH  71  74
ATOM     74  S   UNL A   1      43.038  27.033  25.602  1.00  0.00     0.127 S 
ATOM     75  O   UNL A   1      43.532  25.786  25.030  1.00  0.00    -0.237 OA
ATOM     76  O   UNL A   1      42.265  27.874  24.686  1.00  0.00    -0.237 OA
ATOM     77  O   UNL A   1      43.971  27.775  26.442  1.00  0.00    -0.744 OA
ENDBRANCH  71  74
ENDBRANCH  53  67
BRANCH  54  78
ATOM     78  C   UNL A   1      43.476  34.651  29.250  1.00  0.00     0.023 A 
ATOM     79  C   UNL A   1      43.785  34.429  27.895  1.00  0.00     0.012 A 
ATOM     80  C   UNL A   1      43.869  35.878  29.834  1.00  0.00     0.148 A 
ATOM     81  C   UNL A   1      44.442  35.406  27.137  1.00  0.00     0.002 A 
ATOM     82  C   UNL A   1      44.528  36.844  29.078  1.00  0.00     0.091 A 
ATOM     83  F   UNL A   1      43.518  36.129  31.102  1.00  0.00    -0.205 F 
ATOM     84  C   UNL A   1      44.807  36.614  27.726  1.00  0.00     0.022 A 
BRANCH  82  85
ATOM     85  S   UNL A   1      45.013  38.439  29.756  1.00  0.00     0.127 S 
ATOM     86  O   UNL A   1      45.711  39.049  28.623  1.00  0.00    -0.237 OA
ATOM     87  O   UNL A   1      43.719  39.038  30.070  1.00  0.00    -0.237 OA
ATOM     88  O   UNL A   1      45.867  38.144  30.898  1.00  0.00    -0.744 OA
ENDBRANCH  82  85
ENDBRANCH  54  78
BRANCH  66  89
ATOM     89  C   UNL A   1      41.238  30.769  33.661  1.00  0.00     0.023 A 
ATOM     90  C   UNL A   1      42.156  30.740  34.732  1.00  0.00     0.012 A 
ATOM     91  C   UNL A   1      40.162  31.671  33.716  1.00  0.00     0.148 A 
ATOM     92  C   UNL A   1      41.999  31.584  35.835  1.00  0.00     0.002 A 
ATOM     93  C   UNL A   1      40.038  32.544  34.790  1.00  0.00     0.091 A 
ATOM     94  F   UNL A   1      39.300  31.691  32.688  1.00  0.00    -0.205 F 
ATOM     95  C   UNL A   1      40.950  32.498  35.856  1.00  0.00     0.022 A 
BRANCH  93  96
ATOM     96  S   UNL A   1      38.797  33.841  34.807  1.00  0.00     0.127 S 
ATOM     97  O   UNL A   1      39.101  34.539  36.053  1.00  0.00    -0.237 OA
ATOM     98  O   UNL A   1      39.113  34.593  33.591  1.00  0.00    -0.237 OA
ATOM     99  O   UNL A   1      37.508  33.161  34.764  1.00  0.00    -0.744 OA
ENDBRANCH  93  96
ENDBRANCH  66  89
ENDBRANCH  40  41
ENDBRANCH  33  35
ENDBRANCH  32  33
ENDBRANCH  31  32
ENDBRANCH   1  31
TORSDOF 19
ENDMDL
