MODEL 1
REMARK VINA RESULT:     -11.7      0.000      0.000
REMARK SMILES Cc1ccc(C(=O)N2CCC(CC(=O)OCCOCCOC(=O)c3ccc(-c4c5nc(c(-c6cccc(S(=O)(=O)[O-])c6F)c6ccc([nH]6)c(-c6cccc(S(=O)(=O)[O-])c6F)c6nc(c(-c7cccc(S(=O)(=O)[O-])c7F)c7ccc4[nH]7)C=C6)C=C5)cc3)CC2)cn1
REMARK SMILES IDX 19 1 18 2 17 3 16 4 15 5 13 6 14 7 12 8 11 9 6 10 7 11 8 12
REMARK SMILES IDX 9 13 88 14 10 15 87 16 5 17 1 18 2 19 3 20 90 21 4 22 89 23
REMARK SMILES IDX 20 24 21 25 22 26 23 27 24 28 25 29 86 30 26 31 85 32 27 33
REMARK SMILES IDX 28 34 29 35 79 36 30 37 84 38 78 39 80 40 31 41 83 42 77 43
REMARK SMILES IDX 76 44 32 46 64 47 44 48 63 49 45 50 48 51 62 52 81 53 46 54
REMARK SMILES IDX 47 55 61 57 82 58 49 59 33 60 34 61 42 62 35 63 37 64 43 65
REMARK SMILES IDX 36 66 38 67 39 68 40 69 41 70 65 71 66 72 74 73 67 74 69 75
REMARK SMILES IDX 75 76 68 77 70 78 71 79 72 80 73 81 50 82 51 83 59 84 52 85
REMARK SMILES IDX 54 86 60 87 53 88 55 89 56 90 57 91 58 92
REMARK H PARENT 80 45 48 56
REMARK Flexibility Score: inf
ROOT
ATOM      1  C   UNL A   1      36.367  22.206  23.915  1.00  0.00     0.202 C 
ENDROOT
BRANCH   1   2
ATOM      2  O   UNL A   1      35.037  22.375  24.401  1.00  0.00    -0.374 OA
BRANCH   2   3
ATOM      3  C   UNL A   1      34.292  21.189  24.678  1.00  0.00     0.202 C 
BRANCH   3   4
ATOM      4  C   UNL A   1      33.002  21.374  25.481  1.00  0.00     0.261 C 
BRANCH   4   5
ATOM      5  O   UNL A   1      33.254  22.072  26.714  1.00  0.00    -0.463 OA
BRANCH   5   6
ATOM      6  C   UNL A   1      32.493  23.161  26.974  1.00  0.00     0.306 C 
ATOM      7  O   UNL A   1      31.502  23.168  27.695  1.00  0.00    -0.252 OA
BRANCH   6   8
ATOM      8  C   UNL A   1      32.976  24.400  26.244  1.00  0.00     0.126 C 
BRANCH   8   9
ATOM      9  C   UNL A   1      32.050  25.635  26.203  1.00  0.00     0.003 C 
ATOM     10  C   UNL A   1      31.422  28.802  23.774  1.00  0.00     0.255 C 
ATOM     11  O   UNL A   1      32.577  28.876  23.369  1.00  0.00    -0.269 OA
ATOM     12  N   UNL A   1      31.072  28.044  24.884  1.00  0.00    -0.339 N 
ATOM     13  C   UNL A   1      31.894  28.159  26.074  1.00  0.00     0.120 C 
ATOM     14  C   UNL A   1      30.305  26.818  24.741  1.00  0.00     0.120 C 
ATOM     15  C   UNL A   1      32.825  26.965  26.246  1.00  0.00     0.026 C 
ATOM     16  C   UNL A   1      31.193  25.583  24.915  1.00  0.00     0.026 C 
BRANCH  10  17
ATOM     17  C   UNL A   1      30.361  29.658  23.179  1.00  0.00     0.058 A 
ATOM     18  C   UNL A   1      27.768  32.327  21.108  1.00  0.00     0.066 C 
ATOM     19  C   UNL A   1      28.625  31.361  21.869  1.00  0.00     0.037 A 
ATOM     20  C   UNL A   1      28.749  31.454  23.251  1.00  0.00     0.024 A 
ATOM     21  N   UNL A   1      29.307  30.447  21.140  1.00  0.00    -0.261 NA
ATOM     22  C   UNL A   1      29.625  30.592  23.912  1.00  0.00     0.017 A 
ATOM     23  C   UNL A   1      30.168  29.630  21.804  1.00  0.00     0.125 A 
ENDBRANCH  10  17
ENDBRANCH   8   9
ENDBRANCH   6   8
ENDBRANCH   5   6
ENDBRANCH   4   5
ENDBRANCH   3   4
ENDBRANCH   2   3
ENDBRANCH   1   2
BRANCH   1  24
ATOM     24  C   UNL A   1      37.213  21.123  24.598  1.00  0.00     0.261 C 
BRANCH  24  25
ATOM     25  O   UNL A   1      37.668  21.523  25.902  1.00  0.00    -0.460 OA
BRANCH  25  26
ATOM     26  C   UNL A   1      39.001  21.389  26.104  1.00  0.00     0.338 C 
ATOM     27  O   UNL A   1      39.720  20.484  25.695  1.00  0.00    -0.246 OA
BRANCH  26  28
ATOM     28  C   UNL A   1      39.540  22.599  26.751  1.00  0.00     0.060 A 
ATOM     29  C   UNL A   1      39.029  23.840  26.348  1.00  0.00     0.016 A 
ATOM     30  C   UNL A   1      40.576  22.528  27.685  1.00  0.00     0.016 A 
ATOM     31  C   UNL A   1      39.584  25.021  26.840  1.00  0.00     0.010 A 
ATOM     32  C   UNL A   1      41.135  23.713  28.170  1.00  0.00     0.010 A 
ATOM     33  C   UNL A   1      40.669  24.962  27.721  1.00  0.00    -0.014 A 
BRANCH  33  34
ATOM     34  C   UNL A   1      41.437  26.187  28.053  1.00  0.00     0.031 A 
ATOM     35  C   UNL A   1      40.728  27.303  28.773  1.00  0.00     0.074 A 
ATOM     36  C   UNL A   1      42.726  26.321  27.692  1.00  0.00     0.049 A 
ATOM     37  N   UNL A   1      41.132  28.519  29.021  1.00  0.00    -0.248 NA
ATOM     38  C   UNL A   1      39.374  27.005  29.273  1.00  0.00     0.031 C 
ATOM     39  C   UNL A   1      43.532  25.299  27.028  1.00  0.00     0.029 A 
ATOM     40  N   UNL A   1      43.572  27.398  27.802  1.00  0.00    -0.354 N 
ATOM     41  C   UNL A   1      40.075  29.144  29.674  1.00  0.00     0.074 A 
ATOM     42  C   UNL A   1      39.006  28.175  29.777  1.00  0.00     0.031 C 
ATOM     43  C   UNL A   1      44.744  25.809  26.752  1.00  0.00     0.029 A 
ATOM     44  C   UNL A   1      44.785  27.206  27.182  1.00  0.00     0.049 A 
ATOM     45  H   UNL A   1      43.334  28.226  28.278  1.00  0.00     0.167 HD
ATOM     46  C   UNL A   1      40.005  30.408  30.152  1.00  0.00     0.034 A 
ATOM     47  C   UNL A   1      45.793  28.073  26.953  1.00  0.00     0.034 A 
ATOM     48  C   UNL A   1      41.076  31.361  30.060  1.00  0.00     0.049 A 
ATOM     49  C   UNL A   1      45.664  29.494  27.445  1.00  0.00     0.074 A 
ATOM     50  C   UNL A   1      41.108  32.665  30.520  1.00  0.00     0.029 A 
ATOM     51  N   UNL A   1      42.304  31.112  29.470  1.00  0.00    -0.354 N 
ATOM     52  N   UNL A   1      44.686  30.052  28.116  1.00  0.00    -0.248 NA
ATOM     53  C   UNL A   1      46.791  30.400  27.171  1.00  0.00     0.031 C 
ATOM     54  C   UNL A   1      42.351  33.211  30.189  1.00  0.00     0.029 A 
ATOM     55  C   UNL A   1      43.104  32.236  29.558  1.00  0.00     0.049 A 
ATOM     56  H   UNL A   1      42.568  30.261  29.052  1.00  0.00     0.167 HD
ATOM     57  C   UNL A   1      45.104  31.348  28.396  1.00  0.00     0.074 A 
ATOM     58  C   UNL A   1      46.425  31.495  27.822  1.00  0.00     0.031 C 
ATOM     59  C   UNL A   1      44.452  32.332  29.062  1.00  0.00     0.034 A 
BRANCH  46  60
ATOM     60  C   UNL A   1      38.737  30.830  30.846  1.00  0.00     0.023 A 
ATOM     61  C   UNL A   1      38.632  30.692  32.245  1.00  0.00     0.012 A 
ATOM     62  C   UNL A   1      37.685  31.432  30.129  1.00  0.00     0.148 A 
ATOM     63  C   UNL A   1      37.488  31.122  32.917  1.00  0.00     0.002 A 
ATOM     64  C   UNL A   1      36.567  31.899  30.811  1.00  0.00     0.091 A 
ATOM     65  F   UNL A   1      37.797  31.538  28.797  1.00  0.00    -0.205 F 
ATOM     66  C   UNL A   1      36.463  31.736  32.202  1.00  0.00     0.022 A 
BRANCH  64  67
ATOM     67  S   UNL A   1      35.225  32.772  29.995  1.00  0.00     0.127 S 
ATOM     68  O   UNL A   1      34.644  31.714  29.169  1.00  0.00    -0.237 OA
ATOM     69  O   UNL A   1      34.396  33.186  31.126  1.00  0.00    -0.237 OA
ATOM     70  O   UNL A   1      35.843  33.865  29.257  1.00  0.00    -0.744 OA
ENDBRANCH  64  67
ENDBRANCH  46  60
BRANCH  47  71
ATOM     71  C   UNL A   1      47.028  27.631  26.242  1.00  0.00     0.023 A 
ATOM     72  C   UNL A   1      48.055  26.998  26.971  1.00  0.00     0.012 A 
ATOM     73  C   UNL A   1      47.206  27.858  24.863  1.00  0.00     0.148 A 
ATOM     74  C   UNL A   1      49.253  26.640  26.350  1.00  0.00     0.002 A 
ATOM     75  C   UNL A   1      48.380  27.448  24.240  1.00  0.00     0.091 A 
ATOM     76  F   UNL A   1      46.228  28.478  24.190  1.00  0.00    -0.205 F 
ATOM     77  C   UNL A   1      49.413  26.859  24.985  1.00  0.00     0.022 A 
BRANCH  75  78
ATOM     78  S   UNL A   1      48.625  27.579  22.466  1.00  0.00     0.127 S 
ATOM     79  O   UNL A   1      47.418  28.287  22.049  1.00  0.00    -0.237 OA
ATOM     80  O   UNL A   1      49.858  28.363  22.388  1.00  0.00    -0.237 OA
ATOM     81  O   UNL A   1      48.757  26.209  21.988  1.00  0.00    -0.744 OA
ENDBRANCH  75  78
ENDBRANCH  47  71
BRANCH  59  82
ATOM     82  C   UNL A   1      45.177  33.630  29.306  1.00  0.00     0.023 A 
ATOM     83  C   UNL A   1      45.996  33.784  30.440  1.00  0.00     0.012 A 
ATOM     84  C   UNL A   1      45.134  34.651  28.335  1.00  0.00     0.148 A 
ATOM     85  C   UNL A   1      46.747  34.947  30.614  1.00  0.00     0.002 A 
ATOM     86  C   UNL A   1      45.924  35.783  28.490  1.00  0.00     0.091 A 
ATOM     87  F   UNL A   1      44.335  34.487  27.270  1.00  0.00    -0.205 F 
ATOM     88  C   UNL A   1      46.722  35.938  29.634  1.00  0.00     0.022 A 
BRANCH  86  89
ATOM     89  S   UNL A   1      46.037  37.060  27.232  1.00  0.00     0.127 S 
ATOM     90  O   UNL A   1      46.486  36.294  26.069  1.00  0.00    -0.237 OA
ATOM     91  O   UNL A   1      44.656  37.536  27.152  1.00  0.00    -0.237 OA
ATOM     92  O   UNL A   1      46.990  38.040  27.734  1.00  0.00    -0.744 OA
ENDBRANCH  86  89
ENDBRANCH  59  82
ENDBRANCH  33  34
ENDBRANCH  26  28
ENDBRANCH  25  26
ENDBRANCH  24  25
ENDBRANCH   1  24
TORSDOF 19
ENDMDL
MODEL 2
REMARK VINA RESULT:     -11.6      5.214      8.802
REMARK SMILES Cc1ccc(C(=O)N2CCC(CC(=O)OCCOCCOC(=O)c3ccc(-c4c5nc(c(-c6cccc(S(=O)(=O)[O-])c6F)c6ccc([nH]6)c(-c6cccc(S(=O)(=O)[O-])c6F)c6nc(c(-c7cccc(S(=O)(=O)[O-])c7F)c7ccc4[nH]7)C=C6)C=C5)cc3)CC2)cn1
REMARK SMILES IDX 19 1 18 2 17 3 16 4 15 5 13 6 14 7 12 8 11 9 6 10 7 11 8 12
REMARK SMILES IDX 9 13 88 14 10 15 87 16 5 17 1 18 2 19 3 20 90 21 4 22 89 23
REMARK SMILES IDX 20 24 21 25 22 26 23 27 24 28 25 29 86 30 26 31 85 32 27 33
REMARK SMILES IDX 28 34 29 35 79 36 30 37 84 38 78 39 80 40 31 41 83 42 77 43
REMARK SMILES IDX 76 44 32 46 64 47 44 48 63 49 45 50 48 51 62 52 81 53 46 54
REMARK SMILES IDX 47 55 61 57 82 58 49 59 33 60 34 61 42 62 35 63 37 64 43 65
REMARK SMILES IDX 36 66 38 67 39 68 40 69 41 70 65 71 66 72 74 73 67 74 69 75
REMARK SMILES IDX 75 76 68 77 70 78 71 79 72 80 73 81 50 82 51 83 59 84 52 85
REMARK SMILES IDX 54 86 60 87 53 88 55 89 56 90 57 91 58 92
REMARK H PARENT 80 45 48 56
REMARK Flexibility Score: inf
ROOT
ATOM      1  C   UNL A   1      31.424  31.877  26.512  1.00  0.00     0.202 C 
ENDROOT
BRANCH   1   2
ATOM      2  O   UNL A   1      32.304  30.770  26.691  1.00  0.00    -0.374 OA
BRANCH   2   3
ATOM      3  C   UNL A   1      32.167  29.678  25.781  1.00  0.00     0.202 C 
BRANCH   3   4
ATOM      4  C   UNL A   1      31.013  29.774  24.780  1.00  0.00     0.261 C 
BRANCH   4   5
ATOM      5  O   UNL A   1      31.435  29.379  23.462  1.00  0.00    -0.463 OA
BRANCH   5   6
ATOM      6  C   UNL A   1      30.572  28.629  22.736  1.00  0.00     0.306 C 
ATOM      7  O   UNL A   1      30.098  28.956  21.654  1.00  0.00    -0.252 OA
BRANCH   6   8
ATOM      8  C   UNL A   1      30.210  27.325  23.422  1.00  0.00     0.126 C 
BRANCH   8   9
ATOM      9  C   UNL A   1      30.985  26.049  23.028  1.00  0.00     0.003 C 
ATOM     10  C   UNL A   1      33.000  23.094  24.906  1.00  0.00     0.255 C 
ATOM     11  O   UNL A   1      33.372  23.781  25.850  1.00  0.00    -0.269 OA
ATOM     12  N   UNL A   1      32.475  23.648  23.746  1.00  0.00    -0.339 N 
ATOM     13  C   UNL A   1      33.170  24.776  23.155  1.00  0.00     0.120 C 
ATOM     14  C   UNL A   1      31.063  23.516  23.427  1.00  0.00     0.120 C 
ATOM     15  C   UNL A   1      32.467  26.098  23.441  1.00  0.00     0.026 C 
ATOM     16  C   UNL A   1      30.309  24.823  23.687  1.00  0.00     0.026 C 
BRANCH  10  17
ATOM     17  C   UNL A   1      33.245  21.627  24.902  1.00  0.00     0.058 A 
ATOM     18  C   UNL A   1      34.245  17.523  24.357  1.00  0.00     0.066 C 
ATOM     19  C   UNL A   1      33.869  18.952  24.611  1.00  0.00     0.037 A 
ATOM     20  C   UNL A   1      32.536  19.324  24.751  1.00  0.00     0.024 A 
ATOM     21  N   UNL A   1      34.879  19.851  24.637  1.00  0.00    -0.261 NA
ATOM     22  C   UNL A   1      32.223  20.676  24.899  1.00  0.00     0.017 A 
ATOM     23  C   UNL A   1      34.548  21.164  24.765  1.00  0.00     0.125 A 
ENDBRANCH  10  17
ENDBRANCH   8   9
ENDBRANCH   6   8
ENDBRANCH   5   6
ENDBRANCH   4   5
ENDBRANCH   3   4
ENDBRANCH   2   3
ENDBRANCH   1   2
BRANCH   1  24
ATOM     24  C   UNL A   1      31.968  33.256  26.910  1.00  0.00     0.261 C 
BRANCH  24  25
ATOM     25  O   UNL A   1      32.839  33.193  28.052  1.00  0.00    -0.460 OA
BRANCH  25  26
ATOM     26  C   UNL A   1      34.002  33.877  27.917  1.00  0.00     0.338 C 
ATOM     27  O   UNL A   1      34.129  35.072  27.680  1.00  0.00    -0.246 OA
BRANCH  26  28
ATOM     28  C   UNL A   1      35.141  33.014  28.279  1.00  0.00     0.060 A 
ATOM     29  C   UNL A   1      34.870  31.687  28.637  1.00  0.00     0.016 A 
ATOM     30  C   UNL A   1      36.445  33.511  28.335  1.00  0.00     0.016 A 
ATOM     31  C   UNL A   1      35.893  30.862  29.101  1.00  0.00     0.010 A 
ATOM     32  C   UNL A   1      37.467  32.685  28.807  1.00  0.00     0.010 A 
ATOM     33  C   UNL A   1      37.191  31.371  29.229  1.00  0.00    -0.014 A 
BRANCH  33  34
ATOM     34  C   UNL A   1      38.233  30.606  29.955  1.00  0.00     0.031 A 
ATOM     35  C   UNL A   1      38.522  30.974  31.387  1.00  0.00     0.074 A 
ATOM     36  C   UNL A   1      38.933  29.631  29.348  1.00  0.00     0.049 A 
ATOM     37  N   UNL A   1      39.487  30.569  32.168  1.00  0.00    -0.248 NA
ATOM     38  C   UNL A   1      37.599  31.935  32.017  1.00  0.00     0.031 C 
ATOM     39  C   UNL A   1      38.719  29.158  27.982  1.00  0.00     0.029 A 
ATOM     40  N   UNL A   1      39.998  28.889  29.799  1.00  0.00    -0.354 N 
ATOM     41  C   UNL A   1      39.312  31.249  33.368  1.00  0.00     0.074 A 
ATOM     42  C   UNL A   1      38.152  32.099  33.211  1.00  0.00     0.031 C 
ATOM     43  C   UNL A   1      39.650  28.233  27.690  1.00  0.00     0.029 A 
ATOM     44  C   UNL A   1      40.549  28.080  28.832  1.00  0.00     0.049 A 
ATOM     45  H   UNL A   1      40.333  28.931  30.724  1.00  0.00     0.167 HD
ATOM     46  C   UNL A   1      40.045  31.166  34.503  1.00  0.00     0.034 A 
ATOM     47  C   UNL A   1      41.674  27.336  28.858  1.00  0.00     0.034 A 
ATOM     48  C   UNL A   1      41.187  30.308  34.658  1.00  0.00     0.049 A 
ATOM     49  C   UNL A   1      42.507  27.307  30.116  1.00  0.00     0.074 A 
ATOM     50  C   UNL A   1      41.995  30.144  35.768  1.00  0.00     0.029 A 
ATOM     51  N   UNL A   1      41.682  29.469  33.673  1.00  0.00    -0.354 N 
ATOM     52  N   UNL A   1      42.294  27.905  31.263  1.00  0.00    -0.248 NA
ATOM     53  C   UNL A   1      43.723  26.480  30.092  1.00  0.00     0.031 C 
ATOM     54  C   UNL A   1      42.992  29.220  35.448  1.00  0.00     0.029 A 
ATOM     55  C   UNL A   1      42.782  28.781  34.151  1.00  0.00     0.049 A 
ATOM     56  H   UNL A   1      41.307  29.376  32.768  1.00  0.00     0.167 HD
ATOM     57  C   UNL A   1      43.310  27.479  32.111  1.00  0.00     0.074 A 
ATOM     58  C   UNL A   1      44.141  26.572  31.347  1.00  0.00     0.031 C 
ATOM     59  C   UNL A   1      43.540  27.812  33.405  1.00  0.00     0.034 A 
BRANCH  46  60
ATOM     60  C   UNL A   1      39.622  32.003  35.680  1.00  0.00     0.023 A 
ATOM     61  C   UNL A   1      40.086  33.329  35.792  1.00  0.00     0.012 A 
ATOM     62  C   UNL A   1      38.708  31.507  36.630  1.00  0.00     0.148 A 
ATOM     63  C   UNL A   1      39.668  34.141  36.846  1.00  0.00     0.002 A 
ATOM     64  C   UNL A   1      38.262  32.336  37.653  1.00  0.00     0.091 A 
ATOM     65  F   UNL A   1      38.293  30.238  36.516  1.00  0.00    -0.205 F 
ATOM     66  C   UNL A   1      38.748  33.649  37.768  1.00  0.00     0.022 A 
BRANCH  64  67
ATOM     67  S   UNL A   1      37.021  31.825  38.848  1.00  0.00     0.127 S 
ATOM     68  O   UNL A   1      35.904  32.704  38.507  1.00  0.00    -0.237 OA
ATOM     69  O   UNL A   1      36.820  30.419  38.498  1.00  0.00    -0.237 OA
ATOM     70  O   UNL A   1      37.609  32.049  40.161  1.00  0.00    -0.744 OA
ENDBRANCH  64  67
ENDBRANCH  46  60
BRANCH  47  71
ATOM     71  C   UNL A   1      42.081  26.535  27.666  1.00  0.00     0.023 A 
ATOM     72  C   UNL A   1      42.717  27.179  26.586  1.00  0.00     0.012 A 
ATOM     73  C   UNL A   1      41.819  25.153  27.582  1.00  0.00     0.148 A 
ATOM     74  C   UNL A   1      43.043  26.472  25.427  1.00  0.00     0.002 A 
ATOM     75  C   UNL A   1      42.199  24.445  26.447  1.00  0.00     0.091 A 
ATOM     76  F   UNL A   1      41.198  24.560  28.610  1.00  0.00    -0.205 F 
ATOM     77  C   UNL A   1      42.791  25.105  25.361  1.00  0.00     0.022 A 
BRANCH  75  78
ATOM     78  S   UNL A   1      42.023  22.662  26.321  1.00  0.00     0.127 S 
ATOM     79  O   UNL A   1      42.647  22.390  25.030  1.00  0.00    -0.237 OA
ATOM     80  O   UNL A   1      42.784  22.200  27.483  1.00  0.00    -0.237 OA
ATOM     81  O   UNL A   1      40.592  22.405  26.404  1.00  0.00    -0.744 OA
ENDBRANCH  75  78
ENDBRANCH  47  71
BRANCH  59  82
ATOM     82  C   UNL A   1      44.672  27.129  34.126  1.00  0.00     0.023 A 
ATOM     83  C   UNL A   1      45.931  27.751  34.224  1.00  0.00     0.012 A 
ATOM     84  C   UNL A   1      44.440  25.919  34.811  1.00  0.00     0.148 A 
ATOM     85  C   UNL A   1      46.949  27.167  34.978  1.00  0.00     0.002 A 
ATOM     86  C   UNL A   1      45.441  25.370  35.602  1.00  0.00     0.091 A 
ATOM     87  F   UNL A   1      43.237  25.338  34.691  1.00  0.00    -0.205 F 
ATOM     88  C   UNL A   1      46.701  25.987  35.677  1.00  0.00     0.022 A 
BRANCH  86  89
ATOM     89  S   UNL A   1      45.180  23.914  36.619  1.00  0.00     0.127 S 
ATOM     90  O   UNL A   1      44.581  24.493  37.821  1.00  0.00    -0.237 OA
ATOM     91  O   UNL A   1      44.259  23.127  35.798  1.00  0.00    -0.237 OA
ATOM     92  O   UNL A   1      46.491  23.310  36.809  1.00  0.00    -0.744 OA
ENDBRANCH  86  89
ENDBRANCH  59  82
ENDBRANCH  33  34
ENDBRANCH  26  28
ENDBRANCH  25  26
ENDBRANCH  24  25
ENDBRANCH   1  24
TORSDOF 19
ENDMDL
MODEL 3
REMARK VINA RESULT:     -11.5      5.477     11.046
REMARK SMILES Cc1ccc(C(=O)N2CCC(CC(=O)OCCOCCOC(=O)c3ccc(-c4c5nc(c(-c6cccc(S(=O)(=O)[O-])c6F)c6ccc([nH]6)c(-c6cccc(S(=O)(=O)[O-])c6F)c6nc(c(-c7cccc(S(=O)(=O)[O-])c7F)c7ccc4[nH]7)C=C6)C=C5)cc3)CC2)cn1
REMARK SMILES IDX 19 1 18 2 17 3 16 4 15 5 13 6 14 7 12 8 11 9 6 10 7 11 8 12
REMARK SMILES IDX 9 13 88 14 10 15 87 16 5 17 1 18 2 19 3 20 90 21 4 22 89 23
REMARK SMILES IDX 20 24 21 25 22 26 23 27 24 28 25 29 86 30 26 31 85 32 27 33
REMARK SMILES IDX 28 34 29 35 79 36 30 37 84 38 78 39 80 40 31 41 83 42 77 43
REMARK SMILES IDX 76 44 32 46 64 47 44 48 63 49 45 50 48 51 62 52 81 53 46 54
REMARK SMILES IDX 47 55 61 57 82 58 49 59 33 60 34 61 42 62 35 63 37 64 43 65
REMARK SMILES IDX 36 66 38 67 39 68 40 69 41 70 65 71 66 72 74 73 67 74 69 75
REMARK SMILES IDX 75 76 68 77 70 78 71 79 72 80 73 81 50 82 51 83 59 84 52 85
REMARK SMILES IDX 54 86 60 87 53 88 55 89 56 90 57 91 58 92
REMARK H PARENT 80 45 48 56
REMARK Flexibility Score: inf
ROOT
ATOM      1  C   UNL A   1      31.147  30.269  24.988  1.00  0.00     0.202 C 
ENDROOT
BRANCH   1   2
ATOM      2  O   UNL A   1      31.310  28.852  24.959  1.00  0.00    -0.374 OA
BRANCH   2   3
ATOM      3  C   UNL A   1      31.912  28.292  23.791  1.00  0.00     0.202 C 
BRANCH   3   4
ATOM      4  C   UNL A   1      31.913  26.764  23.699  1.00  0.00     0.261 C 
BRANCH   4   5
ATOM      5  O   UNL A   1      33.255  26.245  23.699  1.00  0.00    -0.463 OA
BRANCH   5   6
ATOM      6  C   UNL A   1      33.831  26.020  24.904  1.00  0.00     0.306 C 
ATOM      7  O   UNL A   1      33.622  26.681  25.915  1.00  0.00    -0.252 OA
BRANCH   6   8
ATOM      8  C   UNL A   1      34.811  24.863  24.877  1.00  0.00     0.126 C 
BRANCH   8   9
ATOM      9  C   UNL A   1      34.370  23.512  25.480  1.00  0.00     0.003 C 
ATOM     10  C   UNL A   1      32.829  20.022  24.152  1.00  0.00     0.255 C 
ATOM     11  O   UNL A   1      32.220  20.510  23.207  1.00  0.00    -0.269 OA
ATOM     12  N   UNL A   1      33.349  20.798  25.180  1.00  0.00    -0.339 N 
ATOM     13  C   UNL A   1      32.501  21.826  25.753  1.00  0.00     0.120 C 
ATOM     14  C   UNL A   1      34.783  20.986  25.323  1.00  0.00     0.120 C 
ATOM     15  C   UNL A   1      32.875  23.219  25.261  1.00  0.00     0.026 C 
ATOM     16  C   UNL A   1      35.213  22.377  24.850  1.00  0.00     0.026 C 
BRANCH  10  17
ATOM     17  C   UNL A   1      32.900  18.546  24.319  1.00  0.00     0.058 A 
ATOM     18  C   UNL A   1      33.267  14.438  25.380  1.00  0.00     0.066 C 
ATOM     19  C   UNL A   1      33.112  15.864  24.946  1.00  0.00     0.037 A 
ATOM     20  C   UNL A   1      33.857  16.372  23.887  1.00  0.00     0.024 A 
ATOM     21  N   UNL A   1      32.264  16.631  25.669  1.00  0.00    -0.261 NA
ATOM     22  C   UNL A   1      33.748  17.726  23.571  1.00  0.00     0.017 A 
ATOM     23  C   UNL A   1      32.187  17.952  25.353  1.00  0.00     0.125 A 
ENDBRANCH  10  17
ENDBRANCH   8   9
ENDBRANCH   6   8
ENDBRANCH   5   6
ENDBRANCH   4   5
ENDBRANCH   3   4
ENDBRANCH   2   3
ENDBRANCH   1   2
BRANCH   1  24
ATOM     24  C   UNL A   1      31.512  30.972  26.302  1.00  0.00     0.261 C 
BRANCH  24  25
ATOM     25  O   UNL A   1      32.893  30.791  26.658  1.00  0.00    -0.460 OA
BRANCH  25  26
ATOM     26  C   UNL A   1      33.459  31.845  27.293  1.00  0.00     0.338 C 
ATOM     27  O   UNL A   1      32.921  32.909  27.576  1.00  0.00    -0.246 OA
BRANCH  26  28
ATOM     28  C   UNL A   1      34.802  31.481  27.781  1.00  0.00     0.060 A 
ATOM     29  C   UNL A   1      35.044  30.135  28.089  1.00  0.00     0.016 A 
ATOM     30  C   UNL A   1      35.786  32.447  28.001  1.00  0.00     0.016 A 
ATOM     31  C   UNL A   1      36.256  29.754  28.664  1.00  0.00     0.010 A 
ATOM     32  C   UNL A   1      36.996  32.064  28.584  1.00  0.00     0.010 A 
ATOM     33  C   UNL A   1      37.221  30.725  28.954  1.00  0.00    -0.014 A 
BRANCH  33  34
ATOM     34  C   UNL A   1      38.398  30.391  29.793  1.00  0.00     0.031 A 
ATOM     35  C   UNL A   1      39.407  29.412  29.253  1.00  0.00     0.074 A 
ATOM     36  C   UNL A   1      38.550  30.916  31.022  1.00  0.00     0.049 A 
ATOM     37  N   UNL A   1      40.415  28.843  29.856  1.00  0.00    -0.248 NA
ATOM     38  C   UNL A   1      39.248  29.018  27.842  1.00  0.00     0.031 C 
ATOM     39  C   UNL A   1      37.664  31.902  31.639  1.00  0.00     0.029 A 
ATOM     40  N   UNL A   1      39.491  30.658  31.989  1.00  0.00    -0.354 N 
ATOM     41  C   UNL A   1      40.991  27.998  28.913  1.00  0.00     0.074 A 
ATOM     42  C   UNL A   1      40.216  28.123  27.699  1.00  0.00     0.031 C 
ATOM     43  C   UNL A   1      38.080  32.137  32.895  1.00  0.00     0.029 A 
ATOM     44  C   UNL A   1      39.234  31.287  33.185  1.00  0.00     0.049 A 
ATOM     45  H   UNL A   1      40.274  30.079  31.840  1.00  0.00     0.167 HD
ATOM     46  C   UNL A   1      42.075  27.198  29.045  1.00  0.00     0.034 A 
ATOM     47  C   UNL A   1      39.839  31.158  34.384  1.00  0.00     0.034 A 
ATOM     48  C   UNL A   1      42.851  27.091  30.249  1.00  0.00     0.049 A 
ATOM     49  C   UNL A   1      41.008  30.214  34.519  1.00  0.00     0.074 A 
ATOM     50  C   UNL A   1      43.972  26.315  30.484  1.00  0.00     0.029 A 
ATOM     51  N   UNL A   1      42.588  27.782  31.421  1.00  0.00    -0.354 N 
ATOM     52  N   UNL A   1      41.581  29.471  33.603  1.00  0.00    -0.248 NA
ATOM     53  C   UNL A   1      41.632  30.110  35.847  1.00  0.00     0.031 C 
ATOM     54  C   UNL A   1      44.375  26.522  31.805  1.00  0.00     0.029 A 
ATOM     55  C   UNL A   1      43.527  27.454  32.380  1.00  0.00     0.049 A 
ATOM     56  H   UNL A   1      41.843  28.413  31.550  1.00  0.00     0.167 HD
ATOM     57  C   UNL A   1      42.664  28.862  34.228  1.00  0.00     0.074 A 
ATOM     58  C   UNL A   1      42.669  29.322  35.601  1.00  0.00     0.031 C 
ATOM     59  C   UNL A   1      43.571  27.995  33.714  1.00  0.00     0.034 A 
BRANCH  46  60
ATOM     60  C   UNL A   1      42.508  26.394  27.848  1.00  0.00     0.023 A 
ATOM     61  C   UNL A   1      43.456  26.933  26.955  1.00  0.00     0.012 A 
ATOM     62  C   UNL A   1      42.038  25.081  27.649  1.00  0.00     0.148 A 
ATOM     63  C   UNL A   1      43.910  26.188  25.867  1.00  0.00     0.002 A 
ATOM     64  C   UNL A   1      42.529  24.329  26.589  1.00  0.00     0.091 A 
ATOM     65  F   UNL A   1      41.123  24.594  28.500  1.00  0.00    -0.205 F 
ATOM     66  C   UNL A   1      43.457  24.883  25.692  1.00  0.00     0.022 A 
BRANCH  64  67
ATOM     67  S   UNL A   1      42.067  22.613  26.318  1.00  0.00     0.127 S 
ATOM     68  O   UNL A   1      40.607  22.695  26.334  1.00  0.00    -0.237 OA
ATOM     69  O   UNL A   1      42.648  22.343  25.004  1.00  0.00    -0.237 OA
ATOM     70  O   UNL A   1      42.658  21.858  27.414  1.00  0.00    -0.744 OA
ENDBRANCH  64  67
ENDBRANCH  46  60
BRANCH  47  71
ATOM     71  C   UNL A   1      39.372  31.952  35.559  1.00  0.00     0.023 A 
ATOM     72  C   UNL A   1      39.777  33.296  35.689  1.00  0.00     0.012 A 
ATOM     73  C   UNL A   1      38.560  31.382  36.558  1.00  0.00     0.148 A 
ATOM     74  C   UNL A   1      39.420  34.042  36.812  1.00  0.00     0.002 A 
ATOM     75  C   UNL A   1      38.161  32.150  37.647  1.00  0.00     0.091 A 
ATOM     76  F   UNL A   1      38.199  30.098  36.428  1.00  0.00    -0.205 F 
ATOM     77  C   UNL A   1      38.607  33.472  37.787  1.00  0.00     0.022 A 
BRANCH  75  78
ATOM     78  S   UNL A   1      37.017  31.537  38.889  1.00  0.00     0.127 S 
ATOM     79  O   UNL A   1      37.793  31.699  40.116  1.00  0.00    -0.237 OA
ATOM     80  O   UNL A   1      35.891  32.461  38.745  1.00  0.00    -0.237 OA
ATOM     81  O   UNL A   1      36.719  30.165  38.501  1.00  0.00    -0.744 OA
ENDBRANCH  75  78
ENDBRANCH  47  71
BRANCH  59  82
ATOM     82  C   UNL A   1      44.710  27.551  34.593  1.00  0.00     0.023 A 
ATOM     83  C   UNL A   1      45.892  28.313  34.664  1.00  0.00     0.012 A 
ATOM     84  C   UNL A   1      44.550  26.437  35.441  1.00  0.00     0.148 A 
ATOM     85  C   UNL A   1      46.907  27.958  35.553  1.00  0.00     0.002 A 
ATOM     86  C   UNL A   1      45.542  26.121  36.360  1.00  0.00     0.091 A 
ATOM     87  F   UNL A   1      43.421  25.718  35.346  1.00  0.00    -0.205 F 
ATOM     88  C   UNL A   1      46.727  26.874  36.409  1.00  0.00     0.022 A 
BRANCH  86  89
ATOM     89  S   UNL A   1      45.354  24.809  37.572  1.00  0.00     0.127 S 
ATOM     90  O   UNL A   1      43.987  25.033  38.044  1.00  0.00    -0.237 OA
ATOM     91  O   UNL A   1      45.528  23.608  36.755  1.00  0.00    -0.237 OA
ATOM     92  O   UNL A   1      46.395  25.023  38.567  1.00  0.00    -0.744 OA
ENDBRANCH  86  89
ENDBRANCH  59  82
ENDBRANCH  33  34
ENDBRANCH  26  28
ENDBRANCH  25  26
ENDBRANCH  24  25
ENDBRANCH   1  24
TORSDOF 19
ENDMDL
