MODEL 1
REMARK VINA RESULT:     -11.1      0.000      0.000
REMARK SMILES O=C(OCCOCCOC(=O)[C@H](Cc1cccc(O)c1)Cc1cccc(F)c1)c1ccc(-c2c3nc(c(-c4cccc(S(=O)(=O)[O-])c4F)c4ccc([nH]4)c(-c4cccc(S(=O)(=O)[O-])c4F)c4nc(c(-c5cccc(S(=O)(=O)[O-])c5F)c5ccc2[nH]5)C=C4)C=C3)cc1
REMARK SMILES IDX 6 1 5 2 4 3 3 4 2 5 1 6 29 7 30 8 91 9 31 10 90 11 32 12
REMARK SMILES IDX 33 13 34 14 84 15 35 16 89 17 83 18 85 19 36 20 88 21 82 22
REMARK SMILES IDX 81 23 37 25 69 26 49 27 68 28 50 29 53 30 67 31 86 32 51 33
REMARK SMILES IDX 52 34 66 36 87 37 54 38 38 39 39 40 47 41 40 42 42 43 48 44
REMARK SMILES IDX 41 45 43 46 44 47 45 48 46 49 70 50 71 51 79 52 72 53 74 54
REMARK SMILES IDX 80 55 73 56 75 57 76 58 77 59 78 60 55 61 56 62 64 63 57 64
REMARK SMILES IDX 59 65 65 66 58 67 60 68 61 69 62 70 63 71 7 72 8 73 9 74
REMARK SMILES IDX 10 75 11 76 12 77 21 78 22 79 23 80 28 81 24 82 26 83 25 84
REMARK SMILES IDX 27 85 13 86 14 87 15 88 20 89 16 90 18 91 17 92 19 93
REMARK H PARENT 85 24 53 35 19 94
REMARK Flexibility Score: inf
ROOT
ATOM      1  O   UNL A   1      34.344  21.643  24.965  1.00  0.00    -0.374 OA
ENDROOT
BRANCH   1   2
ATOM      2  C   UNL A   1      35.604  21.593  25.621  1.00  0.00     0.202 C 
BRANCH   2   3
ATOM      3  C   UNL A   1      36.731  20.680  25.082  1.00  0.00     0.261 C 
BRANCH   3   4
ATOM      4  O   UNL A   1      38.035  21.299  24.962  1.00  0.00    -0.460 OA
BRANCH   4   5
ATOM      5  C   UNL A   1      39.051  21.147  25.867  1.00  0.00     0.338 C 
ATOM      6  O   UNL A   1      39.617  20.084  26.040  1.00  0.00    -0.246 OA
BRANCH   5   7
ATOM      7  C   UNL A   1      39.440  22.361  26.611  1.00  0.00     0.060 A 
ATOM      8  C   UNL A   1      38.766  23.536  26.332  1.00  0.00     0.016 A 
ATOM      9  C   UNL A   1      40.553  22.382  27.446  1.00  0.00     0.016 A 
ATOM     10  C   UNL A   1      39.396  24.741  26.541  1.00  0.00     0.010 A 
ATOM     11  C   UNL A   1      41.042  23.618  27.887  1.00  0.00     0.010 A 
ATOM     12  C   UNL A   1      40.516  24.817  27.370  1.00  0.00    -0.014 A 
BRANCH  12  13
ATOM     13  C   UNL A   1      41.110  26.151  27.656  1.00  0.00     0.031 A 
ATOM     14  C   UNL A   1      42.457  26.513  27.091  1.00  0.00     0.074 A 
ATOM     15  C   UNL A   1      40.415  27.055  28.384  1.00  0.00     0.049 A 
ATOM     16  N   UNL A   1      43.236  27.511  27.409  1.00  0.00    -0.248 NA
ATOM     17  C   UNL A   1      43.020  25.630  26.052  1.00  0.00     0.031 C 
ATOM     18  C   UNL A   1      39.075  26.843  28.947  1.00  0.00     0.029 A 
ATOM     19  N   UNL A   1      40.713  28.341  28.757  1.00  0.00    -0.354 N 
ATOM     20  C   UNL A   1      44.420  27.307  26.711  1.00  0.00     0.074 A 
ATOM     21  C   UNL A   1      44.245  26.118  25.909  1.00  0.00     0.031 C 
ATOM     22  C   UNL A   1      38.630  27.978  29.494  1.00  0.00     0.029 A 
ATOM     23  C   UNL A   1      39.714  28.945  29.491  1.00  0.00     0.049 A 
ATOM     24  H   UNL A   1      41.557  28.789  28.524  1.00  0.00     0.167 HD
ATOM     25  C   UNL A   1      45.551  28.047  26.755  1.00  0.00     0.034 A 
ATOM     26  C   UNL A   1      39.692  30.111  30.163  1.00  0.00     0.034 A 
ATOM     27  C   UNL A   1      45.655  29.280  27.487  1.00  0.00     0.049 A 
ATOM     28  C   UNL A   1      40.950  30.927  30.171  1.00  0.00     0.074 A 
ATOM     29  C   UNL A   1      46.746  30.119  27.610  1.00  0.00     0.029 A 
ATOM     30  N   UNL A   1      44.614  29.861  28.198  1.00  0.00    -0.354 N 
ATOM     31  N   UNL A   1      42.079  30.697  29.546  1.00  0.00    -0.248 NA
ATOM     32  C   UNL A   1      40.946  32.146  30.989  1.00  0.00     0.031 C 
ATOM     33  C   UNL A   1      46.367  31.205  28.404  1.00  0.00     0.029 A 
ATOM     34  C   UNL A   1      45.034  31.052  28.759  1.00  0.00     0.049 A 
ATOM     35  H   UNL A   1      43.711  29.481  28.292  1.00  0.00     0.167 HD
ATOM     36  C   UNL A   1      42.925  31.738  29.895  1.00  0.00     0.074 A 
ATOM     37  C   UNL A   1      42.162  32.622  30.755  1.00  0.00     0.031 C 
ATOM     38  C   UNL A   1      44.224  31.930  29.564  1.00  0.00     0.034 A 
BRANCH  25  39
ATOM     39  C   UNL A   1      46.761  27.552  26.010  1.00  0.00     0.023 A 
ATOM     40  C   UNL A   1      46.922  27.841  24.641  1.00  0.00     0.012 A 
ATOM     41  C   UNL A   1      47.778  26.851  26.692  1.00  0.00     0.148 A 
ATOM     42  C   UNL A   1      48.065  27.424  23.957  1.00  0.00     0.002 A 
ATOM     43  C   UNL A   1      48.931  26.471  26.013  1.00  0.00     0.091 A 
ATOM     44  F   UNL A   1      47.598  26.573  27.991  1.00  0.00    -0.205 F 
ATOM     45  C   UNL A   1      49.072  26.748  24.644  1.00  0.00     0.022 A 
BRANCH  43  46
ATOM     46  S   UNL A   1      50.312  25.653  26.820  1.00  0.00     0.127 S 
ATOM     47  O   UNL A   1      50.659  26.621  27.861  1.00  0.00    -0.237 OA
ATOM     48  O   UNL A   1      49.693  24.424  27.313  1.00  0.00    -0.237 OA
ATOM     49  O   UNL A   1      51.326  25.462  25.793  1.00  0.00    -0.744 OA
ENDBRANCH  43  46
ENDBRANCH  25  39
BRANCH  26  50
ATOM     50  C   UNL A   1      38.461  30.530  30.897  1.00  0.00     0.023 A 
ATOM     51  C   UNL A   1      38.369  30.301  32.282  1.00  0.00     0.012 A 
ATOM     52  C   UNL A   1      37.423  31.235  30.254  1.00  0.00     0.148 A 
ATOM     53  C   UNL A   1      37.270  30.763  33.009  1.00  0.00     0.002 A 
ATOM     54  C   UNL A   1      36.370  31.759  30.995  1.00  0.00     0.091 A 
ATOM     55  F   UNL A   1      37.502  31.418  28.927  1.00  0.00    -0.205 F 
ATOM     56  C   UNL A   1      36.281  31.509  32.371  1.00  0.00     0.022 A 
BRANCH  54  57
ATOM     57  S   UNL A   1      35.169  32.885  30.272  1.00  0.00     0.127 S 
ATOM     58  O   UNL A   1      36.005  34.029  29.918  1.00  0.00    -0.237 OA
ATOM     59  O   UNL A   1      34.665  32.114  29.135  1.00  0.00    -0.237 OA
ATOM     60  O   UNL A   1      34.180  33.113  31.317  1.00  0.00    -0.744 OA
ENDBRANCH  54  57
ENDBRANCH  26  50
BRANCH  38  61
ATOM     61  C   UNL A   1      44.902  33.149  30.114  1.00  0.00     0.023 A 
ATOM     62  C   UNL A   1      45.631  33.052  31.314  1.00  0.00     0.012 A 
ATOM     63  C   UNL A   1      44.928  34.344  29.371  1.00  0.00     0.148 A 
ATOM     64  C   UNL A   1      46.377  34.136  31.771  1.00  0.00     0.002 A 
ATOM     65  C   UNL A   1      45.712  35.402  29.808  1.00  0.00     0.091 A 
ATOM     66  F   UNL A   1      44.205  34.410  28.242  1.00  0.00    -0.205 F 
ATOM     67  C   UNL A   1      46.430  35.303  31.011  1.00  0.00     0.022 A 
BRANCH  65  68
ATOM     68  S   UNL A   1      45.928  36.897  28.838  1.00  0.00     0.127 S 
ATOM     69  O   UNL A   1      46.143  36.353  27.498  1.00  0.00    -0.237 OA
ATOM     70  O   UNL A   1      44.646  37.574  29.026  1.00  0.00    -0.237 OA
ATOM     71  O   UNL A   1      47.070  37.591  29.419  1.00  0.00    -0.744 OA
ENDBRANCH  65  68
ENDBRANCH  38  61
ENDBRANCH  12  13
ENDBRANCH   5   7
ENDBRANCH   4   5
ENDBRANCH   3   4
ENDBRANCH   2   3
ENDBRANCH   1   2
BRANCH   1  72
ATOM     72  C   UNL A   1      33.345  22.500  25.524  1.00  0.00     0.202 C 
BRANCH  72  73
ATOM     73  C   UNL A   1      32.263  22.834  24.502  1.00  0.00     0.261 C 
BRANCH  73  74
ATOM     74  O   UNL A   1      31.610  24.035  24.951  1.00  0.00    -0.463 OA
BRANCH  74  75
ATOM     75  C   UNL A   1      31.247  24.908  23.979  1.00  0.00     0.309 C 
ATOM     76  O   UNL A   1      31.428  24.714  22.784  1.00  0.00    -0.252 OA
BRANCH  75  77
ATOM     77  C   UNL A   1      30.583  26.167  24.548  1.00  0.00     0.108 C 
BRANCH  77  78
ATOM     78  C   UNL A   1      31.089  26.279  26.008  1.00  0.00     0.051 C 
BRANCH  78  79
ATOM     79  C   UNL A   1      32.047  27.396  26.345  1.00  0.00    -0.044 A 
ATOM     80  C   UNL A   1      33.425  27.200  26.138  1.00  0.00     0.004 A 
ATOM     81  C   UNL A   1      31.615  28.624  26.856  1.00  0.00     0.043 A 
ATOM     82  C   UNL A   1      34.335  28.238  26.347  1.00  0.00     0.003 A 
ATOM     83  C   UNL A   1      32.528  29.654  27.054  1.00  0.00     0.123 A 
ATOM     84  C   UNL A   1      33.880  29.476  26.791  1.00  0.00     0.039 A 
ATOM     85  F   UNL A   1      32.091  30.843  27.492  1.00  0.00    -0.207 F 
ENDBRANCH  78  79
ENDBRANCH  77  78
BRANCH  77  86
ATOM     86  C   UNL A   1      30.779  27.402  23.611  1.00  0.00     0.051 C 
BRANCH  86  87
ATOM     87  C   UNL A   1      29.686  28.432  23.457  1.00  0.00    -0.043 A 
ATOM     88  C   UNL A   1      28.354  28.066  23.194  1.00  0.00     0.004 A 
ATOM     89  C   UNL A   1      29.979  29.792  23.609  1.00  0.00     0.049 A 
ATOM     90  C   UNL A   1      27.359  29.032  23.025  1.00  0.00     0.004 A 
ATOM     91  C   UNL A   1      28.981  30.749  23.447  1.00  0.00     0.115 A 
ATOM     92  C   UNL A   1      27.674  30.381  23.144  1.00  0.00     0.046 A 
BRANCH  91  93
ATOM     93  O   UNL A   1      29.332  32.060  23.587  1.00  0.00    -0.508 OA
ATOM     94  H   UNL A   1      28.825  32.624  24.136  1.00  0.00     0.293 HD
ENDBRANCH  91  93
ENDBRANCH  86  87
ENDBRANCH  77  86
ENDBRANCH  75  77
ENDBRANCH  74  75
ENDBRANCH  73  74
ENDBRANCH  72  73
ENDBRANCH   1  72
TORSDOF 22
ENDMDL
MODEL 2
REMARK VINA RESULT:     -10.4      1.913      2.250
REMARK SMILES O=C(OCCOCCOC(=O)[C@H](Cc1cccc(O)c1)Cc1cccc(F)c1)c1ccc(-c2c3nc(c(-c4cccc(S(=O)(=O)[O-])c4F)c4ccc([nH]4)c(-c4cccc(S(=O)(=O)[O-])c4F)c4nc(c(-c5cccc(S(=O)(=O)[O-])c5F)c5ccc2[nH]5)C=C4)C=C3)cc1
REMARK SMILES IDX 6 1 5 2 4 3 3 4 2 5 1 6 29 7 30 8 91 9 31 10 90 11 32 12
REMARK SMILES IDX 33 13 34 14 84 15 35 16 89 17 83 18 85 19 36 20 88 21 82 22
REMARK SMILES IDX 81 23 37 25 69 26 49 27 68 28 50 29 53 30 67 31 86 32 51 33
REMARK SMILES IDX 52 34 66 36 87 37 54 38 38 39 39 40 47 41 40 42 42 43 48 44
REMARK SMILES IDX 41 45 43 46 44 47 45 48 46 49 70 50 71 51 79 52 72 53 74 54
REMARK SMILES IDX 80 55 73 56 75 57 76 58 77 59 78 60 55 61 56 62 64 63 57 64
REMARK SMILES IDX 59 65 65 66 58 67 60 68 61 69 62 70 63 71 7 72 8 73 9 74
REMARK SMILES IDX 10 75 11 76 12 77 21 78 22 79 23 80 28 81 24 82 26 83 25 84
REMARK SMILES IDX 27 85 13 86 14 87 15 88 20 89 16 90 18 91 17 92 19 93
REMARK H PARENT 85 24 53 35 19 94
REMARK Flexibility Score: inf
ROOT
ATOM      1  O   UNL A   1      35.094  22.086  24.771  1.00  0.00    -0.374 OA
ENDROOT
BRANCH   1   2
ATOM      2  C   UNL A   1      36.223  21.960  25.626  1.00  0.00     0.202 C 
BRANCH   2   3
ATOM      3  C   UNL A   1      37.304  20.891  25.342  1.00  0.00     0.261 C 
BRANCH   3   4
ATOM      4  O   UNL A   1      38.657  21.388  25.203  1.00  0.00    -0.460 OA
BRANCH   4   5
ATOM      5  C   UNL A   1      39.616  21.310  26.178  1.00  0.00     0.338 C 
ATOM      6  O   UNL A   1      40.217  20.281  26.420  1.00  0.00    -0.246 OA
BRANCH   5   7
ATOM      7  C   UNL A   1      39.895  22.562  26.910  1.00  0.00     0.060 A 
ATOM      8  C   UNL A   1      39.210  23.701  26.531  1.00  0.00     0.016 A 
ATOM      9  C   UNL A   1      40.927  22.650  27.839  1.00  0.00     0.016 A 
ATOM     10  C   UNL A   1      39.778  24.935  26.751  1.00  0.00     0.010 A 
ATOM     11  C   UNL A   1      41.334  23.917  28.276  1.00  0.00     0.010 A 
ATOM     12  C   UNL A   1      40.816  25.078  27.672  1.00  0.00    -0.014 A 
BRANCH  12  13
ATOM     13  C   UNL A   1      41.337  26.442  27.962  1.00  0.00     0.031 A 
ATOM     14  C   UNL A   1      42.716  26.834  27.506  1.00  0.00     0.074 A 
ATOM     15  C   UNL A   1      40.550  27.343  28.591  1.00  0.00     0.049 A 
ATOM     16  N   UNL A   1      43.430  27.870  27.856  1.00  0.00    -0.248 NA
ATOM     17  C   UNL A   1      43.400  25.938  26.554  1.00  0.00     0.031 C 
ATOM     18  C   UNL A   1      39.172  27.101  29.040  1.00  0.00     0.029 A 
ATOM     19  N   UNL A   1      40.769  28.651  28.943  1.00  0.00    -0.354 N 
ATOM     20  C   UNL A   1      44.678  27.686  27.273  1.00  0.00     0.074 A 
ATOM     21  C   UNL A   1      44.616  26.465  26.503  1.00  0.00     0.031 C 
ATOM     22  C   UNL A   1      38.642  28.237  29.505  1.00  0.00     0.029 A 
ATOM     23  C   UNL A   1      39.689  29.242  29.563  1.00  0.00     0.049 A 
ATOM     24  H   UNL A   1      41.616  29.122  28.769  1.00  0.00     0.167 HD
ATOM     25  C   UNL A   1      45.775  28.468  27.391  1.00  0.00     0.034 A 
ATOM     26  C   UNL A   1      39.568  30.428  30.187  1.00  0.00     0.034 A 
ATOM     27  C   UNL A   1      45.772  29.727  28.084  1.00  0.00     0.049 A 
ATOM     28  C   UNL A   1      40.791  31.290  30.278  1.00  0.00     0.074 A 
ATOM     29  C   UNL A   1      46.818  30.609  28.273  1.00  0.00     0.029 A 
ATOM     30  N   UNL A   1      44.652  30.293  28.679  1.00  0.00    -0.354 N 
ATOM     31  N   UNL A   1      41.979  31.080  29.764  1.00  0.00    -0.248 NA
ATOM     32  C   UNL A   1      40.673  32.533  31.047  1.00  0.00     0.031 C 
ATOM     33  C   UNL A   1      46.333  31.706  28.991  1.00  0.00     0.029 A 
ATOM     34  C   UNL A   1      44.980  31.517  29.231  1.00  0.00     0.049 A 
ATOM     35  H   UNL A   1      43.757  29.883  28.705  1.00  0.00     0.167 HD
ATOM     36  C   UNL A   1      42.755  32.162  30.149  1.00  0.00     0.074 A 
ATOM     37  C   UNL A   1      41.889  33.046  30.906  1.00  0.00     0.031 C 
ATOM     38  C   UNL A   1      44.071  32.391  29.928  1.00  0.00     0.034 A 
BRANCH  25  39
ATOM     39  C   UNL A   1      47.064  27.993  26.774  1.00  0.00     0.023 A 
ATOM     40  C   UNL A   1      48.060  27.404  27.575  1.00  0.00     0.012 A 
ATOM     41  C   UNL A   1      47.256  28.073  25.379  1.00  0.00     0.148 A 
ATOM     42  C   UNL A   1      49.237  26.920  27.002  1.00  0.00     0.002 A 
ATOM     43  C   UNL A   1      48.414  27.555  24.810  1.00  0.00     0.091 A 
ATOM     44  F   UNL A   1      46.301  28.652  24.638  1.00  0.00    -0.205 F 
ATOM     45  C   UNL A   1      49.409  26.987  25.620  1.00  0.00     0.022 A 
BRANCH  43  46
ATOM     46  S   UNL A   1      48.704  27.535  23.037  1.00  0.00     0.127 S 
ATOM     47  O   UNL A   1      48.433  26.135  22.711  1.00  0.00    -0.237 OA
ATOM     48  O   UNL A   1      47.698  28.478  22.552  1.00  0.00    -0.237 OA
ATOM     49  O   UNL A   1      50.084  27.957  22.847  1.00  0.00    -0.744 OA
ENDBRANCH  43  46
ENDBRANCH  25  39
BRANCH  26  50
ATOM     50  C   UNL A   1      38.262  30.826  30.794  1.00  0.00     0.023 A 
ATOM     51  C   UNL A   1      38.035  30.594  32.163  1.00  0.00     0.012 A 
ATOM     52  C   UNL A   1      37.282  31.514  30.049  1.00  0.00     0.148 A 
ATOM     53  C   UNL A   1      36.860  31.038  32.775  1.00  0.00     0.002 A 
ATOM     54  C   UNL A   1      36.151  32.020  30.679  1.00  0.00     0.091 A 
ATOM     55  F   UNL A   1      37.491  31.700  28.736  1.00  0.00    -0.205 F 
ATOM     56  C   UNL A   1      35.929  31.768  32.040  1.00  0.00     0.022 A 
BRANCH  54  57
ATOM     57  S   UNL A   1      35.011  33.126  29.838  1.00  0.00     0.127 S 
ATOM     58  O   UNL A   1      34.418  32.244  28.837  1.00  0.00    -0.237 OA
ATOM     59  O   UNL A   1      34.110  33.526  30.920  1.00  0.00    -0.237 OA
ATOM     60  O   UNL A   1      35.838  34.211  29.327  1.00  0.00    -0.744 OA
ENDBRANCH  54  57
ENDBRANCH  26  50
BRANCH  38  61
ATOM     61  C   UNL A   1      44.656  33.651  30.493  1.00  0.00     0.023 A 
ATOM     62  C   UNL A   1      44.530  34.855  29.773  1.00  0.00     0.012 A 
ATOM     63  C   UNL A   1      45.202  33.662  31.790  1.00  0.00     0.148 A 
ATOM     64  C   UNL A   1      44.946  36.056  30.339  1.00  0.00     0.002 A 
ATOM     65  C   UNL A   1      45.569  34.870  32.365  1.00  0.00     0.091 A 
ATOM     66  F   UNL A   1      45.326  32.495  32.440  1.00  0.00    -0.205 F 
ATOM     67  C   UNL A   1      45.450  36.066  31.639  1.00  0.00     0.022 A 
BRANCH  65  68
ATOM     68  S   UNL A   1      46.120  34.990  34.069  1.00  0.00     0.127 S 
ATOM     69  O   UNL A   1      47.441  35.596  33.912  1.00  0.00    -0.237 OA
ATOM     70  O   UNL A   1      45.110  35.867  34.659  1.00  0.00    -0.237 OA
ATOM     71  O   UNL A   1      46.118  33.629  34.589  1.00  0.00    -0.744 OA
ENDBRANCH  65  68
ENDBRANCH  38  61
ENDBRANCH  12  13
ENDBRANCH   5   7
ENDBRANCH   4   5
ENDBRANCH   3   4
ENDBRANCH   2   3
ENDBRANCH   1   2
BRANCH   1  72
ATOM     72  C   UNL A   1      34.202  23.175  25.016  1.00  0.00     0.202 C 
BRANCH  72  73
ATOM     73  C   UNL A   1      33.457  23.582  23.749  1.00  0.00     0.261 C 
BRANCH  73  74
ATOM     74  O   UNL A   1      32.446  24.530  24.135  1.00  0.00    -0.463 OA
BRANCH  74  75
ATOM     75  C   UNL A   1      31.933  25.286  23.133  1.00  0.00     0.309 C 
ATOM     76  O   UNL A   1      32.193  25.120  21.949  1.00  0.00    -0.252 OA
BRANCH  75  77
ATOM     77  C   UNL A   1      30.990  26.377  23.654  1.00  0.00     0.108 C 
BRANCH  77  78
ATOM     78  C   UNL A   1      31.221  26.428  25.186  1.00  0.00     0.051 C 
BRANCH  78  79
ATOM     79  C   UNL A   1      32.046  27.563  25.743  1.00  0.00    -0.044 A 
ATOM     80  C   UNL A   1      33.375  27.315  26.130  1.00  0.00     0.004 A 
ATOM     81  C   UNL A   1      31.536  28.858  25.888  1.00  0.00     0.043 A 
ATOM     82  C   UNL A   1      34.200  28.356  26.562  1.00  0.00     0.003 A 
ATOM     83  C   UNL A   1      32.368  29.888  26.311  1.00  0.00     0.123 A 
ATOM     84  C   UNL A   1      33.697  29.651  26.636  1.00  0.00     0.039 A 
ATOM     85  F   UNL A   1      31.880  31.134  26.393  1.00  0.00    -0.207 F 
ENDBRANCH  78  79
ENDBRANCH  77  78
BRANCH  77  86
ATOM     86  C   UNL A   1      31.139  27.708  22.849  1.00  0.00     0.051 C 
BRANCH  86  87
ATOM     87  C   UNL A   1      29.948  28.611  22.629  1.00  0.00    -0.043 A 
ATOM     88  C   UNL A   1      30.079  29.878  22.035  1.00  0.00     0.004 A 
ATOM     89  C   UNL A   1      28.667  28.179  22.990  1.00  0.00     0.049 A 
ATOM     90  C   UNL A   1      28.973  30.715  21.865  1.00  0.00     0.004 A 
ATOM     91  C   UNL A   1      27.568  29.015  22.811  1.00  0.00     0.115 A 
ATOM     92  C   UNL A   1      27.711  30.285  22.261  1.00  0.00     0.046 A 
BRANCH  91  93
ATOM     93  O   UNL A   1      26.347  28.547  23.201  1.00  0.00    -0.508 OA
ATOM     94  H   UNL A   1      25.614  28.614  22.623  1.00  0.00     0.293 HD
ENDBRANCH  91  93
ENDBRANCH  86  87
ENDBRANCH  77  86
ENDBRANCH  75  77
ENDBRANCH  74  75
ENDBRANCH  73  74
ENDBRANCH  72  73
ENDBRANCH   1  72
TORSDOF 22
ENDMDL
MODEL 3
REMARK VINA RESULT:     -10.1      5.505      8.848
REMARK SMILES O=C(OCCOCCOC(=O)[C@H](Cc1cccc(O)c1)Cc1cccc(F)c1)c1ccc(-c2c3nc(c(-c4cccc(S(=O)(=O)[O-])c4F)c4ccc([nH]4)c(-c4cccc(S(=O)(=O)[O-])c4F)c4nc(c(-c5cccc(S(=O)(=O)[O-])c5F)c5ccc2[nH]5)C=C4)C=C3)cc1
REMARK SMILES IDX 6 1 5 2 4 3 3 4 2 5 1 6 29 7 30 8 91 9 31 10 90 11 32 12
REMARK SMILES IDX 33 13 34 14 84 15 35 16 89 17 83 18 85 19 36 20 88 21 82 22
REMARK SMILES IDX 81 23 37 25 69 26 49 27 68 28 50 29 53 30 67 31 86 32 51 33
REMARK SMILES IDX 52 34 66 36 87 37 54 38 38 39 39 40 47 41 40 42 42 43 48 44
REMARK SMILES IDX 41 45 43 46 44 47 45 48 46 49 70 50 71 51 79 52 72 53 74 54
REMARK SMILES IDX 80 55 73 56 75 57 76 58 77 59 78 60 55 61 56 62 64 63 57 64
REMARK SMILES IDX 59 65 65 66 58 67 60 68 61 69 62 70 63 71 7 72 8 73 9 74
REMARK SMILES IDX 10 75 11 76 12 77 21 78 22 79 23 80 28 81 24 82 26 83 25 84
REMARK SMILES IDX 27 85 13 86 14 87 15 88 20 89 16 90 18 91 17 92 19 93
REMARK H PARENT 85 24 53 35 19 94
REMARK Flexibility Score: inf
ROOT
ATOM      1  O   UNL A   1      33.717  29.848  26.703  1.00  0.00    -0.374 OA
ENDROOT
BRANCH   1   2
ATOM      2  C   UNL A   1      33.210  31.041  27.285  1.00  0.00     0.202 C 
BRANCH   2   3
ATOM      3  C   UNL A   1      34.168  32.196  27.664  1.00  0.00     0.261 C 
BRANCH   3   4
ATOM      4  O   UNL A   1      33.543  33.484  27.879  1.00  0.00    -0.460 OA
BRANCH   4   5
ATOM      5  C   UNL A   1      33.515  34.142  29.080  1.00  0.00     0.338 C 
ATOM      6  O   UNL A   1      32.608  34.891  29.392  1.00  0.00    -0.246 OA
BRANCH   5   7
ATOM      7  C   UNL A   1      34.644  33.872  29.991  1.00  0.00     0.060 A 
ATOM      8  C   UNL A   1      35.858  34.472  29.713  1.00  0.00     0.016 A 
ATOM      9  C   UNL A   1      34.557  32.920  31.002  1.00  0.00     0.016 A 
ATOM     10  C   UNL A   1      37.021  33.872  30.139  1.00  0.00     0.010 A 
ATOM     11  C   UNL A   1      35.733  32.498  31.635  1.00  0.00     0.010 A 
ATOM     12  C   UNL A   1      36.988  32.912  31.151  1.00  0.00    -0.014 A 
BRANCH  12  13
ATOM     13  C   UNL A   1      38.273  32.358  31.660  1.00  0.00     0.031 A 
ATOM     14  C   UNL A   1      38.984  31.277  30.892  1.00  0.00     0.074 A 
ATOM     15  C   UNL A   1      38.824  32.864  32.786  1.00  0.00     0.049 A 
ATOM     16  N   UNL A   1      39.971  30.514  31.278  1.00  0.00    -0.248 NA
ATOM     17  C   UNL A   1      38.516  30.993  29.522  1.00  0.00     0.031 C 
ATOM     18  C   UNL A   1      38.257  33.951  33.596  1.00  0.00     0.029 A 
ATOM     19  N   UNL A   1      39.992  32.563  33.439  1.00  0.00    -0.354 N 
ATOM     20  C   UNL A   1      40.154  29.586  30.259  1.00  0.00     0.074 A 
ATOM     21  C   UNL A   1      39.213  29.908  29.212  1.00  0.00     0.031 C 
ATOM     22  C   UNL A   1      39.116  34.291  34.561  1.00  0.00     0.029 A 
ATOM     23  C   UNL A   1      40.208  33.333  34.562  1.00  0.00     0.049 A 
ATOM     24  H   UNL A   1      40.616  31.865  33.136  1.00  0.00     0.167 HD
ATOM     25  C   UNL A   1      41.027  28.553  30.222  1.00  0.00     0.034 A 
ATOM     26  C   UNL A   1      41.131  33.236  35.537  1.00  0.00     0.034 A 
ATOM     27  C   UNL A   1      42.016  28.323  31.238  1.00  0.00     0.049 A 
ATOM     28  C   UNL A   1      42.105  32.100  35.456  1.00  0.00     0.074 A 
ATOM     29  C   UNL A   1      42.955  27.311  31.314  1.00  0.00     0.029 A 
ATOM     30  N   UNL A   1      42.210  29.138  32.345  1.00  0.00    -0.354 N 
ATOM     31  N   UNL A   1      42.235  31.200  34.511  1.00  0.00    -0.248 NA
ATOM     32  C   UNL A   1      43.041  31.945  36.575  1.00  0.00     0.031 C 
ATOM     33  C   UNL A   1      43.711  27.510  32.472  1.00  0.00     0.029 A 
ATOM     34  C   UNL A   1      43.257  28.657  33.107  1.00  0.00     0.049 A 
ATOM     35  H   UNL A   1      41.679  29.941  32.556  1.00  0.00     0.167 HD
ATOM     36  C   UNL A   1      43.265  30.367  34.920  1.00  0.00     0.074 A 
ATOM     37  C   UNL A   1      43.750  30.896  36.180  1.00  0.00     0.031 C 
ATOM     38  C   UNL A   1      43.745  29.248  34.328  1.00  0.00     0.034 A 
BRANCH  25  39
ATOM     39  C   UNL A   1      40.951  27.593  29.065  1.00  0.00     0.023 A 
ATOM     40  C   UNL A   1      39.983  26.570  29.052  1.00  0.00     0.012 A 
ATOM     41  C   UNL A   1      41.804  27.752  27.953  1.00  0.00     0.148 A 
ATOM     42  C   UNL A   1      39.879  25.707  27.960  1.00  0.00     0.002 A 
ATOM     43  C   UNL A   1      41.670  26.912  26.853  1.00  0.00     0.091 A 
ATOM     44  F   UNL A   1      42.728  28.722  27.993  1.00  0.00    -0.205 F 
ATOM     45  C   UNL A   1      40.714  25.883  26.859  1.00  0.00     0.022 A 
BRANCH  43  46
ATOM     46  S   UNL A   1      42.653  27.095  25.360  1.00  0.00     0.127 S 
ATOM     47  O   UNL A   1      42.286  25.889  24.618  1.00  0.00    -0.237 OA
ATOM     48  O   UNL A   1      42.127  28.339  24.800  1.00  0.00    -0.237 OA
ATOM     49  O   UNL A   1      44.041  27.154  25.794  1.00  0.00    -0.744 OA
ENDBRANCH  43  46
ENDBRANCH  25  39
BRANCH  26  50
ATOM     50  C   UNL A   1      41.134  34.214  36.666  1.00  0.00     0.023 A 
ATOM     51  C   UNL A   1      41.563  35.535  36.438  1.00  0.00     0.012 A 
ATOM     52  C   UNL A   1      40.628  33.874  37.937  1.00  0.00     0.148 A 
ATOM     53  C   UNL A   1      41.490  36.493  37.452  1.00  0.00     0.002 A 
ATOM     54  C   UNL A   1      40.486  34.849  38.918  1.00  0.00     0.091 A 
ATOM     55  F   UNL A   1      40.253  32.604  38.156  1.00  0.00    -0.205 F 
ATOM     56  C   UNL A   1      40.934  36.156  38.684  1.00  0.00     0.022 A 
BRANCH  54  57
ATOM     57  S   UNL A   1      39.606  34.530  40.453  1.00  0.00     0.127 S 
ATOM     58  O   UNL A   1      40.346  35.356  41.402  1.00  0.00    -0.237 OA
ATOM     59  O   UNL A   1      38.257  35.005  40.142  1.00  0.00    -0.237 OA
ATOM     60  O   UNL A   1      39.693  33.089  40.651  1.00  0.00    -0.744 OA
ENDBRANCH  54  57
ENDBRANCH  26  50
BRANCH  38  61
ATOM     61  C   UNL A   1      44.862  28.526  35.020  1.00  0.00     0.023 A 
ATOM     62  C   UNL A   1      46.195  28.870  34.725  1.00  0.00     0.012 A 
ATOM     63  C   UNL A   1      44.584  27.614  36.056  1.00  0.00     0.148 A 
ATOM     64  C   UNL A   1      47.241  28.308  35.452  1.00  0.00     0.002 A 
ATOM     65  C   UNL A   1      45.630  27.096  36.806  1.00  0.00     0.091 A 
ATOM     66  F   UNL A   1      43.304  27.293  36.297  1.00  0.00    -0.205 F 
ATOM     67  C   UNL A   1      46.958  27.435  36.501  1.00  0.00     0.022 A 
BRANCH  65  68
ATOM     68  S   UNL A   1      45.352  26.057  38.243  1.00  0.00     0.127 S 
ATOM     69  O   UNL A   1      44.470  26.897  39.051  1.00  0.00    -0.237 OA
ATOM     70  O   UNL A   1      44.709  24.882  37.654  1.00  0.00    -0.237 OA
ATOM     71  O   UNL A   1      46.668  25.803  38.816  1.00  0.00    -0.744 OA
ENDBRANCH  65  68
ENDBRANCH  38  61
ENDBRANCH  12  13
ENDBRANCH   5   7
ENDBRANCH   4   5
ENDBRANCH   3   4
ENDBRANCH   2   3
ENDBRANCH   1   2
BRANCH   1  72
ATOM     72  C   UNL A   1      33.042  29.341  25.549  1.00  0.00     0.202 C 
BRANCH  72  73
ATOM     73  C   UNL A   1      31.983  28.311  25.931  1.00  0.00     0.261 C 
BRANCH  73  74
ATOM     74  O   UNL A   1      32.320  27.085  25.258  1.00  0.00    -0.463 OA
BRANCH  74  75
ATOM     75  C   UNL A   1      31.834  25.951  25.819  1.00  0.00     0.309 C 
ATOM     76  O   UNL A   1      30.955  25.932  26.671  1.00  0.00    -0.252 OA
BRANCH  75  77
ATOM     77  C   UNL A   1      32.510  24.692  25.264  1.00  0.00     0.108 C 
BRANCH  77  78
ATOM     78  C   UNL A   1      33.925  24.669  25.896  1.00  0.00     0.051 C 
BRANCH  78  79
ATOM     79  C   UNL A   1      34.979  23.800  25.251  1.00  0.00    -0.044 A 
ATOM     80  C   UNL A   1      34.997  23.678  23.850  1.00  0.00     0.004 A 
ATOM     81  C   UNL A   1      35.941  23.112  25.997  1.00  0.00     0.043 A 
ATOM     82  C   UNL A   1      36.010  22.962  23.208  1.00  0.00     0.003 A 
ATOM     83  C   UNL A   1      36.949  22.409  25.348  1.00  0.00     0.123 A 
ATOM     84  C   UNL A   1      37.000  22.339  23.962  1.00  0.00     0.039 A 
ATOM     85  F   UNL A   1      37.897  21.800  26.075  1.00  0.00    -0.207 F 
ENDBRANCH  78  79
ENDBRANCH  77  78
BRANCH  77  86
ATOM     86  C   UNL A   1      31.612  23.425  25.437  1.00  0.00     0.051 C 
BRANCH  86  87
ATOM     87  C   UNL A   1      31.910  22.160  24.667  1.00  0.00    -0.043 A 
ATOM     88  C   UNL A   1      32.378  20.998  25.304  1.00  0.00     0.004 A 
ATOM     89  C   UNL A   1      31.688  22.114  23.286  1.00  0.00     0.049 A 
ATOM     90  C   UNL A   1      32.677  19.844  24.574  1.00  0.00     0.004 A 
ATOM     91  C   UNL A   1      31.982  20.958  22.567  1.00  0.00     0.115 A 
ATOM     92  C   UNL A   1      32.485  19.825  23.197  1.00  0.00     0.046 A 
BRANCH  91  93
ATOM     93  O   UNL A   1      31.765  20.980  21.219  1.00  0.00    -0.508 OA
ATOM     94  H   UNL A   1      31.645  21.797  20.778  1.00  0.00     0.293 HD
ENDBRANCH  91  93
ENDBRANCH  86  87
ENDBRANCH  77  86
ENDBRANCH  75  77
ENDBRANCH  74  75
ENDBRANCH  73  74
ENDBRANCH  72  73
ENDBRANCH   1  72
TORSDOF 22
ENDMDL
