MODEL 1
REMARK VINA RESULT:     -10.1      0.000      0.000
REMARK SMILES COc1ccc(C(=O)N2CSC[C@H]2C(=O)OCCOCCOC(=O)c2ccc(-c3c4nc(c(-c5cccc(S(=O)(=O)[O-])c5F)c5ccc([nH]5)c(-c5cccc(S(=O)(=O)[O-])c5F)c5nc(c(-c6cccc(S(=O)(=O)[O-])c6F)c6ccc3[nH]6)C=C5)C=C4)cc2)cc1C#N
REMARK SMILES IDX 19 1 18 2 17 3 16 4 14 5 15 6 13 7 9 8 10 9 11 10 12 11 7 12
REMARK SMILES IDX 8 13 6 14 3 15 4 16 89 17 5 18 88 19 2 20 1 21 90 22 91 23
REMARK SMILES IDX 20 24 21 25 22 26 23 27 24 28 25 29 26 30 87 31 27 32 86 33
REMARK SMILES IDX 28 34 29 35 30 36 80 37 31 38 85 39 79 40 81 41 32 42 84 43
REMARK SMILES IDX 78 44 77 45 33 47 65 48 45 49 64 50 46 51 49 52 63 53 82 54
REMARK SMILES IDX 47 55 48 56 62 58 83 59 50 60 34 61 35 62 43 63 36 64 38 65
REMARK SMILES IDX 44 66 37 67 39 68 40 69 41 70 42 71 66 72 67 73 75 74 68 75
REMARK SMILES IDX 70 76 76 77 69 78 71 79 72 80 73 81 74 82 51 83 52 84 60 85
REMARK SMILES IDX 53 86 55 87 61 88 54 89 56 90 57 91 58 92 59 93
REMARK H PARENT 81 46 49 57
REMARK Flexibility Score: inf
ROOT
ATOM      1  O   UNL A   1      31.595  31.095  26.604  1.00  0.00    -0.374 OA
ENDROOT
BRANCH   1   2
ATOM      2  C   UNL A   1      31.944  29.744  26.883  1.00  0.00     0.202 C 
BRANCH   2   3
ATOM      3  C   UNL A   1      31.869  28.694  25.770  1.00  0.00     0.261 C 
BRANCH   3   4
ATOM      4  O   UNL A   1      31.404  29.213  24.511  1.00  0.00    -0.462 OA
BRANCH   4   5
ATOM      5  C   UNL A   1      31.990  28.646  23.424  1.00  0.00     0.329 C 
ATOM      6  O   UNL A   1      33.021  29.054  22.895  1.00  0.00    -0.250 OA
BRANCH   5   7
ATOM      7  C   UNL A   1      31.189  27.503  22.802  1.00  0.00     0.206 C 
ATOM      8  N   UNL A   1      31.283  26.112  23.274  1.00  0.00    -0.315 N 
ATOM      9  C   UNL A   1      30.303  25.776  24.281  1.00  0.00     0.191 C 
ATOM     10  S   UNL A   1      28.807  26.624  23.741  1.00  0.00    -0.138 SA
ATOM     11  C   UNL A   1      29.717  27.935  22.873  1.00  0.00     0.108 C 
BRANCH   8  12
ATOM     12  C   UNL A   1      32.086  25.226  22.571  1.00  0.00     0.255 C 
ATOM     13  O   UNL A   1      31.995  25.086  21.353  1.00  0.00    -0.269 OA
BRANCH  12  14
ATOM     14  C   UNL A   1      32.954  24.254  23.295  1.00  0.00     0.041 A 
ATOM     15  C   UNL A   1      34.661  22.179  24.139  1.00  0.00     0.136 A 
ATOM     16  C   UNL A   1      35.180  23.439  23.814  1.00  0.00     0.048 A 
ATOM     17  C   UNL A   1      33.277  21.974  24.106  1.00  0.00     0.095 A 
ATOM     18  C   UNL A   1      34.333  24.469  23.379  1.00  0.00     0.018 A 
ATOM     19  C   UNL A   1      32.436  23.005  23.660  1.00  0.00     0.037 A 
BRANCH  15  20
ATOM     20  O   UNL A   1      35.579  21.236  24.525  1.00  0.00    -0.495 OA
ATOM     21  C   UNL A   1      36.028  21.387  25.875  1.00  0.00     0.278 C 
ENDBRANCH  15  20
BRANCH  17  22
ATOM     22  C   UNL A   1      32.663  20.736  24.493  1.00  0.00     0.103 C 
ATOM     23  N   UNL A   1      32.130  19.762  24.821  1.00  0.00    -0.192 NA
ENDBRANCH  17  22
ENDBRANCH  12  14
ENDBRANCH   8  12
ENDBRANCH   5   7
ENDBRANCH   4   5
ENDBRANCH   3   4
ENDBRANCH   2   3
ENDBRANCH   1   2
BRANCH   1  24
ATOM     24  C   UNL A   1      32.542  32.129  26.856  1.00  0.00     0.202 C 
BRANCH  24  25
ATOM     25  C   UNL A   1      32.067  33.532  27.272  1.00  0.00     0.261 C 
BRANCH  25  26
ATOM     26  O   UNL A   1      33.101  34.464  27.604  1.00  0.00    -0.460 OA
BRANCH  26  27
ATOM     27  C   UNL A   1      33.426  34.459  28.920  1.00  0.00     0.338 C 
ATOM     28  O   UNL A   1      32.791  34.945  29.843  1.00  0.00    -0.246 OA
BRANCH  27  29
ATOM     29  C   UNL A   1      34.614  33.625  29.135  1.00  0.00     0.060 A 
ATOM     30  C   UNL A   1      34.424  32.359  29.703  1.00  0.00     0.016 A 
ATOM     31  C   UNL A   1      35.895  34.129  28.906  1.00  0.00     0.016 A 
ATOM     32  C   UNL A   1      35.522  31.621  30.119  1.00  0.00     0.010 A 
ATOM     33  C   UNL A   1      36.997  33.384  29.324  1.00  0.00     0.010 A 
ATOM     34  C   UNL A   1      36.808  32.158  29.987  1.00  0.00    -0.014 A 
BRANCH  34  35
ATOM     35  C   UNL A   1      37.922  31.517  30.720  1.00  0.00     0.031 A 
ATOM     36  C   UNL A   1      38.820  30.559  29.983  1.00  0.00     0.074 A 
ATOM     37  C   UNL A   1      38.161  31.833  32.003  1.00  0.00     0.049 A 
ATOM     38  N   UNL A   1      39.862  29.902  30.420  1.00  0.00    -0.248 NA
ATOM     39  C   UNL A   1      38.498  30.302  28.569  1.00  0.00     0.031 C 
ATOM     40  C   UNL A   1      37.366  32.762  32.806  1.00  0.00     0.029 A 
ATOM     41  N   UNL A   1      39.140  31.398  32.858  1.00  0.00    -0.354 N 
ATOM     42  C   UNL A   1      40.298  29.130  29.349  1.00  0.00     0.074 A 
ATOM     43  C   UNL A   1      39.396  29.383  28.248  1.00  0.00     0.031 C 
ATOM     44  C   UNL A   1      37.882  32.819  34.044  1.00  0.00     0.029 A 
ATOM     45  C   UNL A   1      39.020  31.907  34.129  1.00  0.00     0.049 A 
ATOM     46  H   UNL A   1      39.859  30.782  32.588  1.00  0.00     0.167 HD
ATOM     47  C   UNL A   1      41.362  28.297  29.284  1.00  0.00     0.034 A 
ATOM     48  C   UNL A   1      39.734  31.642  35.239  1.00  0.00     0.034 A 
ATOM     49  C   UNL A   1      42.260  28.061  30.383  1.00  0.00     0.049 A 
ATOM     50  C   UNL A   1      40.894  30.688  35.147  1.00  0.00     0.074 A 
ATOM     51  C   UNL A   1      43.390  27.265  30.414  1.00  0.00     0.029 A 
ATOM     52  N   UNL A   1      42.116  28.605  31.651  1.00  0.00    -0.354 N 
ATOM     53  N   UNL A   1      41.345  30.029  34.106  1.00  0.00    -0.248 NA
ATOM     54  C   UNL A   1      41.670  30.473  36.376  1.00  0.00     0.031 C 
ATOM     55  C   UNL A   1      43.899  27.284  31.717  1.00  0.00     0.029 A 
ATOM     56  C   UNL A   1      43.129  28.149  32.477  1.00  0.00     0.049 A 
ATOM     57  H   UNL A   1      41.400  29.222  31.923  1.00  0.00     0.167 HD
ATOM     58  C   UNL A   1      42.485  29.363  34.542  1.00  0.00     0.074 A 
ATOM     59  C   UNL A   1      42.662  29.712  35.937  1.00  0.00     0.031 C 
ATOM     60  C   UNL A   1      43.312  28.537  33.853  1.00  0.00     0.034 A 
BRANCH  47  61
ATOM     61  C   UNL A   1      41.607  27.571  27.986  1.00  0.00     0.023 A 
ATOM     62  C   UNL A   1      42.093  28.267  26.860  1.00  0.00     0.012 A 
ATOM     63  C   UNL A   1      41.395  26.181  27.897  1.00  0.00     0.148 A 
ATOM     64  C   UNL A   1      42.324  27.600  25.657  1.00  0.00     0.002 A 
ATOM     65  C   UNL A   1      41.679  25.514  26.712  1.00  0.00     0.091 A 
ATOM     66  F   UNL A   1      40.912  25.539  28.971  1.00  0.00    -0.205 F 
ATOM     67  C   UNL A   1      42.127  26.224  25.587  1.00  0.00     0.022 A 
BRANCH  65  68
ATOM     68  S   UNL A   1      41.538  23.732  26.547  1.00  0.00     0.127 S 
ATOM     69  O   UNL A   1      42.297  23.489  25.320  1.00  0.00    -0.237 OA
ATOM     70  O   UNL A   1      42.187  23.261  27.769  1.00  0.00    -0.237 OA
ATOM     71  O   UNL A   1      40.112  23.444  26.462  1.00  0.00    -0.744 OA
ENDBRANCH  65  68
ENDBRANCH  47  61
BRANCH  48  72
ATOM     72  C   UNL A   1      39.385  32.302  36.526  1.00  0.00     0.023 A 
ATOM     73  C   UNL A   1      40.119  33.419  36.968  1.00  0.00     0.012 A 
ATOM     74  C   UNL A   1      38.322  31.822  37.314  1.00  0.00     0.148 A 
ATOM     75  C   UNL A   1      39.829  34.019  38.194  1.00  0.00     0.002 A 
ATOM     76  C   UNL A   1      37.998  32.462  38.503  1.00  0.00     0.091 A 
ATOM     77  F   UNL A   1      37.639  30.754  36.877  1.00  0.00    -0.205 F 
ATOM     78  C   UNL A   1      38.764  33.547  38.957  1.00  0.00     0.022 A 
BRANCH  76  79
ATOM     79  S   UNL A   1      36.569  32.000  39.486  1.00  0.00     0.127 S 
ATOM     80  O   UNL A   1      36.456  30.573  39.197  1.00  0.00    -0.237 OA
ATOM     81  O   UNL A   1      37.023  32.323  40.839  1.00  0.00    -0.237 OA
ATOM     82  O   UNL A   1      35.471  32.828  39.004  1.00  0.00    -0.744 OA
ENDBRANCH  76  79
ENDBRANCH  48  72
BRANCH  60  83
ATOM     83  C   UNL A   1      44.531  28.018  34.571  1.00  0.00     0.023 A 
ATOM     84  C   UNL A   1      45.737  28.749  34.567  1.00  0.00     0.012 A 
ATOM     85  C   UNL A   1      44.463  26.805  35.286  1.00  0.00     0.148 A 
ATOM     86  C   UNL A   1      46.869  28.249  35.211  1.00  0.00     0.002 A 
ATOM     87  C   UNL A   1      45.576  26.347  35.978  1.00  0.00     0.091 A 
ATOM     88  F   UNL A   1      43.313  26.116  35.268  1.00  0.00    -0.205 F 
ATOM     89  C   UNL A   1      46.786  27.055  35.923  1.00  0.00     0.022 A 
BRANCH  87  90
ATOM     90  S   UNL A   1      45.527  24.876  37.007  1.00  0.00     0.127 S 
ATOM     91  O   UNL A   1      44.278  25.069  37.741  1.00  0.00    -0.237 OA
ATOM     92  O   UNL A   1      45.490  23.804  36.012  1.00  0.00    -0.237 OA
ATOM     93  O   UNL A   1      46.738  24.909  37.816  1.00  0.00    -0.744 OA
ENDBRANCH  87  90
ENDBRANCH  60  83
ENDBRANCH  34  35
ENDBRANCH  27  29
ENDBRANCH  26  27
ENDBRANCH  25  26
ENDBRANCH  24  25
ENDBRANCH   1  24
TORSDOF 21
ENDMDL
MODEL 2
REMARK VINA RESULT:      -9.9      2.137      2.486
REMARK SMILES COc1ccc(C(=O)N2CSC[C@H]2C(=O)OCCOCCOC(=O)c2ccc(-c3c4nc(c(-c5cccc(S(=O)(=O)[O-])c5F)c5ccc([nH]5)c(-c5cccc(S(=O)(=O)[O-])c5F)c5nc(c(-c6cccc(S(=O)(=O)[O-])c6F)c6ccc3[nH]6)C=C5)C=C4)cc2)cc1C#N
REMARK SMILES IDX 19 1 18 2 17 3 16 4 14 5 15 6 13 7 9 8 10 9 11 10 12 11 7 12
REMARK SMILES IDX 8 13 6 14 3 15 4 16 89 17 5 18 88 19 2 20 1 21 90 22 91 23
REMARK SMILES IDX 20 24 21 25 22 26 23 27 24 28 25 29 26 30 87 31 27 32 86 33
REMARK SMILES IDX 28 34 29 35 30 36 80 37 31 38 85 39 79 40 81 41 32 42 84 43
REMARK SMILES IDX 78 44 77 45 33 47 65 48 45 49 64 50 46 51 49 52 63 53 82 54
REMARK SMILES IDX 47 55 48 56 62 58 83 59 50 60 34 61 35 62 43 63 36 64 38 65
REMARK SMILES IDX 44 66 37 67 39 68 40 69 41 70 42 71 66 72 67 73 75 74 68 75
REMARK SMILES IDX 70 76 76 77 69 78 71 79 72 80 73 81 74 82 51 83 52 84 60 85
REMARK SMILES IDX 53 86 55 87 61 88 54 89 56 90 57 91 58 92 59 93
REMARK H PARENT 81 46 49 57
REMARK Flexibility Score: inf
ROOT
ATOM      1  O   UNL A   1      32.481  31.167  26.772  1.00  0.00    -0.374 OA
ENDROOT
BRANCH   1   2
ATOM      2  C   UNL A   1      32.983  29.849  26.953  1.00  0.00     0.202 C 
BRANCH   2   3
ATOM      3  C   UNL A   1      33.553  29.081  25.756  1.00  0.00     0.261 C 
BRANCH   3   4
ATOM      4  O   UNL A   1      32.958  29.445  24.496  1.00  0.00    -0.462 OA
BRANCH   4   5
ATOM      5  C   UNL A   1      33.435  28.745  23.433  1.00  0.00     0.329 C 
ATOM      6  O   UNL A   1      34.467  29.018  22.824  1.00  0.00    -0.250 OA
BRANCH   5   7
ATOM      7  C   UNL A   1      32.510  27.632  22.946  1.00  0.00     0.206 C 
ATOM      8  N   UNL A   1      32.676  26.223  23.341  1.00  0.00    -0.315 N 
ATOM      9  C   UNL A   1      31.913  25.858  24.513  1.00  0.00     0.191 C 
ATOM     10  S   UNL A   1      30.352  26.736  24.314  1.00  0.00    -0.138 SA
ATOM     11  C   UNL A   1      31.088  28.071  23.326  1.00  0.00     0.108 C 
BRANCH   8  12
ATOM     12  C   UNL A   1      33.309  25.358  22.461  1.00  0.00     0.255 C 
ATOM     13  O   UNL A   1      33.471  25.636  21.274  1.00  0.00    -0.269 OA
BRANCH  12  14
ATOM     14  C   UNL A   1      33.635  23.963  22.874  1.00  0.00     0.041 A 
ATOM     15  C   UNL A   1      33.985  21.475  24.146  1.00  0.00     0.136 A 
ATOM     16  C   UNL A   1      32.889  21.694  23.303  1.00  0.00     0.048 A 
ATOM     17  C   UNL A   1      34.947  22.481  24.303  1.00  0.00     0.095 A 
ATOM     18  C   UNL A   1      32.704  22.937  22.680  1.00  0.00     0.018 A 
ATOM     19  C   UNL A   1      34.751  23.726  23.685  1.00  0.00     0.037 A 
BRANCH  15  20
ATOM     20  O   UNL A   1      34.055  20.235  24.727  1.00  0.00    -0.495 OA
ATOM     21  C   UNL A   1      32.778  19.627  24.942  1.00  0.00     0.278 C 
ENDBRANCH  15  20
BRANCH  17  22
ATOM     22  C   UNL A   1      36.133  22.309  25.091  1.00  0.00     0.103 C 
ATOM     23  N   UNL A   1      37.105  22.214  25.712  1.00  0.00    -0.192 NA
ENDBRANCH  17  22
ENDBRANCH  12  14
ENDBRANCH   8  12
ENDBRANCH   5   7
ENDBRANCH   4   5
ENDBRANCH   3   4
ENDBRANCH   2   3
ENDBRANCH   1   2
BRANCH   1  24
ATOM     24  C   UNL A   1      33.179  32.267  27.348  1.00  0.00     0.202 C 
BRANCH  24  25
ATOM     25  C   UNL A   1      32.437  33.575  27.673  1.00  0.00     0.261 C 
BRANCH  25  26
ATOM     26  O   UNL A   1      33.252  34.651  28.148  1.00  0.00    -0.460 OA
BRANCH  26  27
ATOM     27  C   UNL A   1      33.482  34.601  29.483  1.00  0.00     0.338 C 
ATOM     28  O   UNL A   1      32.803  35.089  30.372  1.00  0.00    -0.246 OA
BRANCH  27  29
ATOM     29  C   UNL A   1      34.619  33.714  29.758  1.00  0.00     0.060 A 
ATOM     30  C   UNL A   1      34.406  32.635  30.625  1.00  0.00     0.016 A 
ATOM     31  C   UNL A   1      35.895  34.015  29.279  1.00  0.00     0.016 A 
ATOM     32  C   UNL A   1      35.488  31.896  31.081  1.00  0.00     0.010 A 
ATOM     33  C   UNL A   1      36.980  33.270  29.738  1.00  0.00     0.010 A 
ATOM     34  C   UNL A   1      36.784  32.250  30.687  1.00  0.00    -0.014 A 
BRANCH  34  35
ATOM     35  C   UNL A   1      37.929  31.674  31.425  1.00  0.00     0.031 A 
ATOM     36  C   UNL A   1      38.740  30.586  30.773  1.00  0.00     0.074 A 
ATOM     37  C   UNL A   1      38.274  32.159  32.629  1.00  0.00     0.049 A 
ATOM     38  N   UNL A   1      39.792  29.956  31.226  1.00  0.00    -0.248 NA
ATOM     39  C   UNL A   1      38.305  30.145  29.436  1.00  0.00     0.031 C 
ATOM     40  C   UNL A   1      37.569  33.223  33.344  1.00  0.00     0.029 A 
ATOM     41  N   UNL A   1      39.300  31.809  33.467  1.00  0.00    -0.354 N 
ATOM     42  C   UNL A   1      40.123  29.024  30.248  1.00  0.00     0.074 A 
ATOM     43  C   UNL A   1      39.149  29.154  29.189  1.00  0.00     0.031 C 
ATOM     44  C   UNL A   1      38.179  33.434  34.522  1.00  0.00     0.029 A 
ATOM     45  C   UNL A   1      39.291  32.497  34.657  1.00  0.00     0.049 A 
ATOM     46  H   UNL A   1      39.978  31.133  33.239  1.00  0.00     0.167 HD
ATOM     47  C   UNL A   1      41.154  28.147  30.230  1.00  0.00     0.034 A 
ATOM     48  C   UNL A   1      40.079  32.364  35.741  1.00  0.00     0.034 A 
ATOM     49  C   UNL A   1      42.124  28.033  31.286  1.00  0.00     0.049 A 
ATOM     50  C   UNL A   1      41.200  31.360  35.706  1.00  0.00     0.074 A 
ATOM     51  C   UNL A   1      43.229  27.204  31.352  1.00  0.00     0.029 A 
ATOM     52  N   UNL A   1      42.093  28.755  32.469  1.00  0.00    -0.354 N 
ATOM     53  N   UNL A   1      41.551  30.543  34.742  1.00  0.00    -0.248 NA
ATOM     54  C   UNL A   1      42.059  31.289  36.896  1.00  0.00     0.031 C 
ATOM     55  C   UNL A   1      43.835  27.386  32.599  1.00  0.00     0.029 A 
ATOM     56  C   UNL A   1      43.150  28.380  33.279  1.00  0.00     0.049 A 
ATOM     57  H   UNL A   1      41.417  29.434  32.699  1.00  0.00     0.167 HD
ATOM     58  C   UNL A   1      42.700  29.899  35.188  1.00  0.00     0.074 A 
ATOM     59  C   UNL A   1      42.991  30.434  36.502  1.00  0.00     0.031 C 
ATOM     60  C   UNL A   1      43.448  28.952  34.569  1.00  0.00     0.034 A 
BRANCH  47  61
ATOM     61  C   UNL A   1      41.279  27.236  29.036  1.00  0.00     0.023 A 
ATOM     62  C   UNL A   1      40.554  26.027  28.983  1.00  0.00     0.012 A 
ATOM     63  C   UNL A   1      42.087  27.603  27.942  1.00  0.00     0.148 A 
ATOM     64  C   UNL A   1      40.664  25.181  27.880  1.00  0.00     0.002 A 
ATOM     65  C   UNL A   1      42.150  26.781  26.824  1.00  0.00     0.091 A 
ATOM     66  F   UNL A   1      42.786  28.744  28.020  1.00  0.00    -0.205 F 
ATOM     67  C   UNL A   1      41.452  25.563  26.798  1.00  0.00     0.022 A 
BRANCH  65  68
ATOM     68  S   UNL A   1      43.070  27.224  25.347  1.00  0.00     0.127 S 
ATOM     69  O   UNL A   1      44.369  27.594  25.910  1.00  0.00    -0.237 OA
ATOM     70  O   UNL A   1      43.065  25.968  24.598  1.00  0.00    -0.237 OA
ATOM     71  O   UNL A   1      42.332  28.312  24.720  1.00  0.00    -0.744 OA
ENDBRANCH  65  68
ENDBRANCH  47  61
BRANCH  48  72
ATOM     72  C   UNL A   1      39.847  33.212  36.941  1.00  0.00     0.023 A 
ATOM     73  C   UNL A   1      38.941  32.794  37.935  1.00  0.00     0.012 A 
ATOM     74  C   UNL A   1      40.527  34.434  37.099  1.00  0.00     0.148 A 
ATOM     75  C   UNL A   1      38.684  33.602  39.044  1.00  0.00     0.002 A 
ATOM     76  C   UNL A   1      40.312  35.204  38.235  1.00  0.00     0.091 A 
ATOM     77  F   UNL A   1      41.381  34.814  36.138  1.00  0.00    -0.205 F 
ATOM     78  C   UNL A   1      39.375  34.801  39.198  1.00  0.00     0.022 A 
BRANCH  76  79
ATOM     79  S   UNL A   1      41.247  36.697  38.577  1.00  0.00     0.127 S 
ATOM     80  O   UNL A   1      42.026  36.301  39.747  1.00  0.00    -0.237 OA
ATOM     81  O   UNL A   1      42.020  36.851  37.344  1.00  0.00    -0.237 OA
ATOM     82  O   UNL A   1      40.258  37.742  38.803  1.00  0.00    -0.744 OA
ENDBRANCH  76  79
ENDBRANCH  48  72
BRANCH  60  83
ATOM     83  C   UNL A   1      44.701  28.490  35.267  1.00  0.00     0.023 A 
ATOM     84  C   UNL A   1      45.882  29.258  35.213  1.00  0.00     0.012 A 
ATOM     85  C   UNL A   1      44.691  27.294  36.014  1.00  0.00     0.148 A 
ATOM     86  C   UNL A   1      47.046  28.812  35.839  1.00  0.00     0.002 A 
ATOM     87  C   UNL A   1      45.836  26.890  36.686  1.00  0.00     0.091 A 
ATOM     88  F   UNL A   1      43.564  26.569  36.043  1.00  0.00    -0.205 F 
ATOM     89  C   UNL A   1      47.020  27.635  36.583  1.00  0.00     0.022 A 
BRANCH  87  90
ATOM     90  S   UNL A   1      45.861  25.445  37.753  1.00  0.00     0.127 S 
ATOM     91  O   UNL A   1      44.833  25.783  38.735  1.00  0.00    -0.237 OA
ATOM     92  O   UNL A   1      45.493  24.373  36.828  1.00  0.00    -0.237 OA
ATOM     93  O   UNL A   1      47.218  25.353  38.275  1.00  0.00    -0.744 OA
ENDBRANCH  87  90
ENDBRANCH  60  83
ENDBRANCH  34  35
ENDBRANCH  27  29
ENDBRANCH  26  27
ENDBRANCH  25  26
ENDBRANCH  24  25
ENDBRANCH   1  24
TORSDOF 21
ENDMDL
MODEL 3
REMARK VINA RESULT:      -9.8      1.760      7.732
REMARK SMILES COc1ccc(C(=O)N2CSC[C@H]2C(=O)OCCOCCOC(=O)c2ccc(-c3c4nc(c(-c5cccc(S(=O)(=O)[O-])c5F)c5ccc([nH]5)c(-c5cccc(S(=O)(=O)[O-])c5F)c5nc(c(-c6cccc(S(=O)(=O)[O-])c6F)c6ccc3[nH]6)C=C5)C=C4)cc2)cc1C#N
REMARK SMILES IDX 19 1 18 2 17 3 16 4 14 5 15 6 13 7 9 8 10 9 11 10 12 11 7 12
REMARK SMILES IDX 8 13 6 14 3 15 4 16 89 17 5 18 88 19 2 20 1 21 90 22 91 23
REMARK SMILES IDX 20 24 21 25 22 26 23 27 24 28 25 29 26 30 87 31 27 32 86 33
REMARK SMILES IDX 28 34 29 35 30 36 80 37 31 38 85 39 79 40 81 41 32 42 84 43
REMARK SMILES IDX 78 44 77 45 33 47 65 48 45 49 64 50 46 51 49 52 63 53 82 54
REMARK SMILES IDX 47 55 48 56 62 58 83 59 50 60 34 61 35 62 43 63 36 64 38 65
REMARK SMILES IDX 44 66 37 67 39 68 40 69 41 70 42 71 66 72 67 73 75 74 68 75
REMARK SMILES IDX 70 76 76 77 69 78 71 79 72 80 73 81 74 82 51 83 52 84 60 85
REMARK SMILES IDX 53 86 55 87 61 88 54 89 56 90 57 91 58 92 59 93
REMARK H PARENT 81 46 49 57
REMARK Flexibility Score: inf
ROOT
ATOM      1  O   UNL A   1      31.618  30.675  26.784  1.00  0.00    -0.374 OA
ENDROOT
BRANCH   1   2
ATOM      2  C   UNL A   1      31.776  29.282  27.026  1.00  0.00     0.202 C 
BRANCH   2   3
ATOM      3  C   UNL A   1      31.504  28.279  25.901  1.00  0.00     0.261 C 
BRANCH   3   4
ATOM      4  O   UNL A   1      30.800  28.840  24.779  1.00  0.00    -0.462 OA
BRANCH   4   5
ATOM      5  C   UNL A   1      30.676  27.997  23.720  1.00  0.00     0.329 C 
ATOM      6  O   UNL A   1      29.736  28.004  22.929  1.00  0.00    -0.250 OA
BRANCH   5   7
ATOM      7  C   UNL A   1      31.756  26.919  23.644  1.00  0.00     0.206 C 
ATOM      8  N   UNL A   1      31.508  25.575  23.098  1.00  0.00    -0.315 N 
ATOM      9  C   UNL A   1      31.798  25.461  21.687  1.00  0.00     0.191 C 
ATOM     10  S   UNL A   1      33.289  26.449  21.463  1.00  0.00    -0.138 SA
ATOM     11  C   UNL A   1      32.920  27.546  22.863  1.00  0.00     0.108 C 
BRANCH   8  12
ATOM     12  C   UNL A   1      31.276  24.532  23.983  1.00  0.00     0.255 C 
ATOM     13  O   UNL A   1      30.413  24.597  24.858  1.00  0.00    -0.269 OA
BRANCH  12  14
ATOM     14  C   UNL A   1      32.206  23.370  24.044  1.00  0.00     0.041 A 
ATOM     15  C   UNL A   1      33.980  21.290  24.725  1.00  0.00     0.136 A 
ATOM     16  C   UNL A   1      32.602  21.052  24.643  1.00  0.00     0.048 A 
ATOM     17  C   UNL A   1      34.481  22.556  24.400  1.00  0.00     0.095 A 
ATOM     18  C   UNL A   1      31.715  22.089  24.319  1.00  0.00     0.018 A 
ATOM     19  C   UNL A   1      33.588  23.593  24.087  1.00  0.00     0.037 A 
BRANCH  15  20
ATOM     20  O   UNL A   1      34.753  20.214  25.077  1.00  0.00    -0.495 OA
ATOM     21  C   UNL A   1      34.219  18.956  24.652  1.00  0.00     0.278 C 
ENDBRANCH  15  20
BRANCH  17  22
ATOM     22  C   UNL A   1      35.883  22.860  24.389  1.00  0.00     0.103 C 
ATOM     23  N   UNL A   1      37.020  23.075  24.417  1.00  0.00    -0.192 NA
ENDBRANCH  17  22
ENDBRANCH  12  14
ENDBRANCH   8  12
ENDBRANCH   5   7
ENDBRANCH   4   5
ENDBRANCH   3   4
ENDBRANCH   2   3
ENDBRANCH   1   2
BRANCH   1  24
ATOM     24  C   UNL A   1      32.694  31.562  27.073  1.00  0.00     0.202 C 
BRANCH  24  25
ATOM     25  C   UNL A   1      32.430  33.065  27.272  1.00  0.00     0.261 C 
BRANCH  25  26
ATOM     26  O   UNL A   1      33.589  33.879  27.472  1.00  0.00    -0.460 OA
BRANCH  26  27
ATOM     27  C   UNL A   1      34.040  33.866  28.751  1.00  0.00     0.338 C 
ATOM     28  O   UNL A   1      33.514  34.371  29.729  1.00  0.00    -0.246 OA
BRANCH  27  29
ATOM     29  C   UNL A   1      35.218  32.995  28.853  1.00  0.00     0.060 A 
ATOM     30  C   UNL A   1      35.035  31.717  29.394  1.00  0.00     0.016 A 
ATOM     31  C   UNL A   1      36.492  33.476  28.547  1.00  0.00     0.016 A 
ATOM     32  C   UNL A   1      36.140  30.939  29.706  1.00  0.00     0.010 A 
ATOM     33  C   UNL A   1      37.601  32.690  28.861  1.00  0.00     0.010 A 
ATOM     34  C   UNL A   1      37.428  31.448  29.497  1.00  0.00    -0.014 A 
BRANCH  34  35
ATOM     35  C   UNL A   1      38.573  30.756  30.127  1.00  0.00     0.031 A 
ATOM     36  C   UNL A   1      38.904  31.059  31.564  1.00  0.00     0.074 A 
ATOM     37  C   UNL A   1      39.265  29.829  29.444  1.00  0.00     0.049 A 
ATOM     38  N   UNL A   1      39.846  30.558  32.318  1.00  0.00    -0.248 NA
ATOM     39  C   UNL A   1      38.066  32.064  32.240  1.00  0.00     0.031 C 
ATOM     40  C   UNL A   1      39.018  29.446  28.054  1.00  0.00     0.029 A 
ATOM     41  N   UNL A   1      40.325  29.050  29.828  1.00  0.00    -0.354 N 
ATOM     42  C   UNL A   1      39.737  31.208  33.542  1.00  0.00     0.074 A 
ATOM     43  C   UNL A   1      38.653  32.156  33.423  1.00  0.00     0.031 C 
ATOM     44  C   UNL A   1      39.911  28.509  27.696  1.00  0.00     0.029 A 
ATOM     45  C   UNL A   1      40.811  28.254  28.818  1.00  0.00     0.049 A 
ATOM     46  H   UNL A   1      40.701  29.059  30.738  1.00  0.00     0.167 HD
ATOM     47  C   UNL A   1      40.467  31.023  34.666  1.00  0.00     0.034 A 
ATOM     48  C   UNL A   1      41.878  27.434  28.799  1.00  0.00     0.034 A 
ATOM     49  C   UNL A   1      41.538  30.070  34.776  1.00  0.00     0.049 A 
ATOM     50  C   UNL A   1      42.691  27.269  30.055  1.00  0.00     0.074 A 
ATOM     51  C   UNL A   1      42.318  29.774  35.879  1.00  0.00     0.029 A 
ATOM     52  N   UNL A   1      41.993  29.270  33.738  1.00  0.00    -0.354 N 
ATOM     53  N   UNL A   1      42.526  27.830  31.229  1.00  0.00    -0.248 NA
ATOM     54  C   UNL A   1      43.816  26.325  29.993  1.00  0.00     0.031 C 
ATOM     55  C   UNL A   1      43.280  28.837  35.494  1.00  0.00     0.029 A 
ATOM     56  C   UNL A   1      43.053  28.493  34.171  1.00  0.00     0.049 A 
ATOM     57  H   UNL A   1      41.618  29.258  32.828  1.00  0.00     0.167 HD
ATOM     58  C   UNL A   1      43.491  27.269  32.058  1.00  0.00     0.074 A 
ATOM     59  C   UNL A   1      44.226  26.315  31.253  1.00  0.00     0.031 C 
ATOM     60  C   UNL A   1      43.748  27.519  33.367  1.00  0.00     0.034 A 
BRANCH  47  61
ATOM     61  C   UNL A   1      40.138  31.877  35.864  1.00  0.00     0.023 A 
ATOM     62  C   UNL A   1      40.885  33.041  36.136  1.00  0.00     0.012 A 
ATOM     63  C   UNL A   1      39.054  31.543  36.700  1.00  0.00     0.148 A 
ATOM     64  C   UNL A   1      40.584  33.836  37.242  1.00  0.00     0.002 A 
ATOM     65  C   UNL A   1      38.726  32.369  37.768  1.00  0.00     0.091 A 
ATOM     66  F   UNL A   1      38.369  30.420  36.440  1.00  0.00    -0.205 F 
ATOM     67  C   UNL A   1      39.500  33.506  38.050  1.00  0.00     0.022 A 
BRANCH  65  68
ATOM     68  S   UNL A   1      37.299  32.075  38.817  1.00  0.00     0.127 S 
ATOM     69  O   UNL A   1      37.847  32.350  40.145  1.00  0.00    -0.237 OA
ATOM     70  O   UNL A   1      36.352  33.076  38.329  1.00  0.00    -0.237 OA
ATOM     71  O   UNL A   1      36.902  30.693  38.583  1.00  0.00    -0.744 OA
ENDBRANCH  65  68
ENDBRANCH  47  61
BRANCH  48  72
ATOM     72  C   UNL A   1      42.229  26.695  27.557  1.00  0.00     0.023 A 
ATOM     73  C   UNL A   1      42.789  27.381  26.462  1.00  0.00     0.012 A 
ATOM     74  C   UNL A   1      42.010  25.308  27.460  1.00  0.00     0.148 A 
ATOM     75  C   UNL A   1      43.082  26.706  25.276  1.00  0.00     0.002 A 
ATOM     76  C   UNL A   1      42.361  24.631  26.299  1.00  0.00     0.091 A 
ATOM     77  F   UNL A   1      41.471  24.676  28.512  1.00  0.00    -0.205 F 
ATOM     78  C   UNL A   1      42.877  25.331  25.198  1.00  0.00     0.022 A 
BRANCH  76  79
ATOM     79  S   UNL A   1      42.248  22.846  26.155  1.00  0.00     0.127 S 
ATOM     80  O   UNL A   1      43.075  22.402  27.274  1.00  0.00    -0.237 OA
ATOM     81  O   UNL A   1      40.811  22.625  26.324  1.00  0.00    -0.237 OA
ATOM     82  O   UNL A   1      42.756  22.521  24.829  1.00  0.00    -0.744 OA
ENDBRANCH  76  79
ENDBRANCH  48  72
BRANCH  60  83
ATOM     83  C   UNL A   1      44.815  26.691  34.036  1.00  0.00     0.023 A 
ATOM     84  C   UNL A   1      44.496  25.464  34.651  1.00  0.00     0.012 A 
ATOM     85  C   UNL A   1      46.156  27.126  34.019  1.00  0.00     0.148 A 
ATOM     86  C   UNL A   1      45.483  24.715  35.291  1.00  0.00     0.002 A 
ATOM     87  C   UNL A   1      47.143  26.344  34.604  1.00  0.00     0.091 A 
ATOM     88  F   UNL A   1      46.440  28.302  33.442  1.00  0.00    -0.205 F 
ATOM     89  C   UNL A   1      46.807  25.150  35.259  1.00  0.00     0.022 A 
BRANCH  87  90
ATOM     90  S   UNL A   1      48.884  26.774  34.516  1.00  0.00     0.127 S 
ATOM     91  O   UNL A   1      48.913  28.045  35.238  1.00  0.00    -0.237 OA
ATOM     92  O   UNL A   1      49.513  25.657  35.223  1.00  0.00    -0.237 OA
ATOM     93  O   UNL A   1      49.210  26.853  33.099  1.00  0.00    -0.744 OA
ENDBRANCH  87  90
ENDBRANCH  60  83
ENDBRANCH  34  35
ENDBRANCH  27  29
ENDBRANCH  26  27
ENDBRANCH  25  26
ENDBRANCH  24  25
ENDBRANCH   1  24
TORSDOF 21
ENDMDL
