MODEL 1
REMARK VINA RESULT:      -9.6      0.000      0.000
REMARK SMILES CC[C@@H](C)CN(CC)C(=O)Nc1c(Br)cccc1C(=O)OCCOCCOC(=O)c1ccc(-c2c3nc(c(-c4cccc(S(=O)(=O)[O-])c4F)c4ccc([nH]4)c(-c4cccc(S(=O)(=O)[O-])c4F)c4nc(c(-c5cccc(S(=O)(=O)[O-])c5F)c5ccc2[nH]5)C=C4)C=C3)cc1
REMARK SMILES IDX 23 1 22 2 21 3 19 4 20 5 18 6 12 7 13 8 14 9 15 10 17 11
REMARK SMILES IDX 16 12 11 13 9 14 10 15 6 17 5 18 3 19 4 20 2 21 1 22 7 23
REMARK SMILES IDX 8 24 24 25 25 26 26 27 27 28 28 29 29 30 30 31 31 32 92 33
REMARK SMILES IDX 32 34 91 35 33 36 34 37 35 38 85 39 36 40 90 41 84 42 86 43
REMARK SMILES IDX 37 44 89 45 83 46 82 47 38 49 70 50 50 51 69 52 51 53 54 54
REMARK SMILES IDX 68 55 87 56 52 57 53 58 67 60 88 61 55 62 39 63 40 64 48 65
REMARK SMILES IDX 41 66 43 67 49 68 42 69 44 70 45 71 46 72 47 73 71 74 72 75
REMARK SMILES IDX 80 76 73 77 75 78 81 79 74 80 76 81 77 82 78 83 79 84 56 85
REMARK SMILES IDX 57 86 65 87 58 88 60 89 66 90 59 91 61 92 62 93 63 94 64 95
REMARK H PARENT 11 16 86 48 54 59
REMARK Flexibility Score: inf
ROOT
ATOM      1  C   UNL A   1      32.206  29.452  26.869  1.00  0.00     0.202 C 
ENDROOT
BRANCH   1   2
ATOM      2  C   UNL A   1      33.283  28.429  27.238  1.00  0.00     0.261 C 
BRANCH   2   3
ATOM      3  O   UNL A   1      32.940  27.100  26.803  1.00  0.00    -0.460 OA
BRANCH   3   4
ATOM      4  C   UNL A   1      33.651  26.689  25.728  1.00  0.00     0.340 C 
ATOM      5  O   UNL A   1      34.569  25.881  25.751  1.00  0.00    -0.246 OA
BRANCH   4   6
ATOM      6  C   UNL A   1      33.175  27.257  24.439  1.00  0.00     0.084 A 
ATOM      7  C   UNL A   1      31.963  26.969  23.795  1.00  0.00     0.071 A 
ATOM      8  C   UNL A   1      31.433  27.979  22.982  1.00  0.00     0.042 A 
ATOM      9  Br  UNL A   1      29.545  28.194  22.789  1.00  0.00    -0.049 Br
ATOM     10  C   UNL A   1      32.249  29.004  22.487  1.00  0.00     0.018 A 
ATOM     11  C   UNL A   1      34.014  28.256  23.907  1.00  0.00     0.018 A 
ATOM     12  C   UNL A   1      33.579  29.079  22.879  1.00  0.00     0.002 A 
BRANCH   7  13
ATOM     13  N   UNL A   1      31.339  25.716  23.946  1.00  0.00    -0.306 N 
ATOM     14  C   UNL A   1      31.281  24.608  23.150  1.00  0.00     0.321 C 
ATOM     15  O   UNL A   1      30.240  23.951  23.235  1.00  0.00    -0.248 OA
ATOM     16  H   UNL A   1      30.847  25.619  24.793  1.00  0.00     0.171 HD
BRANCH  14  17
ATOM     17  N   UNL A   1      32.370  24.151  22.417  1.00  0.00    -0.325 N 
BRANCH  17  18
ATOM     18  C   UNL A   1      32.861  22.789  22.730  1.00  0.00     0.124 C 
BRANCH  18  19
ATOM     19  C   UNL A   1      33.895  22.721  23.892  1.00  0.00     0.005 C 
ATOM     20  C   UNL A   1      35.308  22.981  23.349  1.00  0.00     0.009 C 
BRANCH  19  21
ATOM     21  C   UNL A   1      33.804  21.365  24.622  1.00  0.00     0.002 C 
ATOM     22  C   UNL A   1      35.126  20.725  25.005  1.00  0.00     0.004 C 
ENDBRANCH  19  21
ENDBRANCH  18  19
ENDBRANCH  17  18
BRANCH  17  23
ATOM     23  C   UNL A   1      33.216  24.903  21.480  1.00  0.00     0.118 C 
ATOM     24  C   UNL A   1      32.430  25.576  20.351  1.00  0.00     0.027 C 
ENDBRANCH  17  23
ENDBRANCH  14  17
ENDBRANCH   7  13
ENDBRANCH   4   6
ENDBRANCH   3   4
ENDBRANCH   2   3
ENDBRANCH   1   2
BRANCH   1  25
ATOM     25  O   UNL A   1      32.463  30.827  27.155  1.00  0.00    -0.374 OA
BRANCH  25  26
ATOM     26  C   UNL A   1      31.524  31.789  26.678  1.00  0.00     0.202 C 
BRANCH  26  27
ATOM     27  C   UNL A   1      31.771  33.268  27.003  1.00  0.00     0.261 C 
BRANCH  27  28
ATOM     28  O   UNL A   1      33.135  33.550  27.345  1.00  0.00    -0.460 OA
BRANCH  28  29
ATOM     29  C   UNL A   1      33.296  34.305  28.464  1.00  0.00     0.338 C 
ATOM     30  O   UNL A   1      32.548  35.167  28.884  1.00  0.00    -0.246 OA
BRANCH  29  31
ATOM     31  C   UNL A   1      34.459  33.806  29.219  1.00  0.00     0.060 A 
ATOM     32  C   UNL A   1      35.747  34.211  28.840  1.00  0.00     0.016 A 
ATOM     33  C   UNL A   1      34.280  32.888  30.246  1.00  0.00     0.016 A 
ATOM     34  C   UNL A   1      36.869  33.684  29.486  1.00  0.00     0.010 A 
ATOM     35  C   UNL A   1      35.408  32.353  30.870  1.00  0.00     0.010 A 
ATOM     36  C   UNL A   1      36.709  32.728  30.495  1.00  0.00    -0.014 A 
BRANCH  36  37
ATOM     37  C   UNL A   1      37.870  32.008  31.090  1.00  0.00     0.031 A 
ATOM     38  C   UNL A   1      38.473  32.531  32.371  1.00  0.00     0.074 A 
ATOM     39  C   UNL A   1      38.430  30.949  30.471  1.00  0.00     0.049 A 
ATOM     40  N   UNL A   1      39.551  32.144  33.001  1.00  0.00    -0.248 NA
ATOM     41  C   UNL A   1      37.787  33.670  33.009  1.00  0.00     0.031 C 
ATOM     42  C   UNL A   1      37.986  30.372  29.202  1.00  0.00     0.029 A 
ATOM     43  N   UNL A   1      39.521  30.187  30.817  1.00  0.00    -0.354 N 
ATOM     44  C   UNL A   1      39.698  33.019  34.072  1.00  0.00     0.074 A 
ATOM     45  C   UNL A   1      38.625  33.983  33.983  1.00  0.00     0.031 C 
ATOM     46  C   UNL A   1      38.796  29.350  28.876  1.00  0.00     0.029 A 
ATOM     47  C   UNL A   1      39.836  29.217  29.893  1.00  0.00     0.049 A 
ATOM     48  H   UNL A   1      40.029  30.323  31.649  1.00  0.00     0.167 HD
ATOM     49  C   UNL A   1      40.619  33.005  35.066  1.00  0.00     0.034 A 
ATOM     50  C   UNL A   1      40.855  28.333  29.866  1.00  0.00     0.034 A 
ATOM     51  C   UNL A   1      41.649  32.011  35.193  1.00  0.00     0.049 A 
ATOM     52  C   UNL A   1      41.851  28.321  31.000  1.00  0.00     0.074 A 
ATOM     53  C   UNL A   1      42.581  31.865  36.203  1.00  0.00     0.029 A 
ATOM     54  N   UNL A   1      41.878  30.990  34.284  1.00  0.00    -0.354 N 
ATOM     55  N   UNL A   1      41.895  29.073  32.073  1.00  0.00    -0.248 NA
ATOM     56  C   UNL A   1      42.920  27.312  30.937  1.00  0.00     0.031 C 
ATOM     57  C   UNL A   1      43.388  30.765  35.896  1.00  0.00     0.029 A 
ATOM     58  C   UNL A   1      42.935  30.208  34.711  1.00  0.00     0.049 A 
ATOM     59  H   UNL A   1      41.364  30.844  33.457  1.00  0.00     0.167 HD
ATOM     60  C   UNL A   1      42.960  28.598  32.831  1.00  0.00     0.074 A 
ATOM     61  C   UNL A   1      43.524  27.481  32.105  1.00  0.00     0.031 C 
ATOM     62  C   UNL A   1      43.439  29.052  34.016  1.00  0.00     0.034 A 
BRANCH  49  63
ATOM     63  C   UNL A   1      40.515  34.064  36.134  1.00  0.00     0.023 A 
ATOM     64  C   UNL A   1      40.910  35.386  35.841  1.00  0.00     0.012 A 
ATOM     65  C   UNL A   1      39.975  33.768  37.400  1.00  0.00     0.148 A 
ATOM     66  C   UNL A   1      40.807  36.388  36.804  1.00  0.00     0.002 A 
ATOM     67  C   UNL A   1      39.826  34.784  38.338  1.00  0.00     0.091 A 
ATOM     68  F   UNL A   1      39.618  32.504  37.665  1.00  0.00    -0.205 F 
ATOM     69  C   UNL A   1      40.256  36.090  38.046  1.00  0.00     0.022 A 
BRANCH  67  70
ATOM     70  S   UNL A   1      39.050  34.527  39.937  1.00  0.00     0.127 S 
ATOM     71  O   UNL A   1      38.861  35.903  40.397  1.00  0.00    -0.237 OA
ATOM     72  O   UNL A   1      37.817  33.832  39.570  1.00  0.00    -0.237 OA
ATOM     73  O   UNL A   1      39.988  33.736  40.719  1.00  0.00    -0.744 OA
ENDBRANCH  67  70
ENDBRANCH  49  63
BRANCH  50  74
ATOM     74  C   UNL A   1      40.968  27.334  28.762  1.00  0.00     0.023 A 
ATOM     75  C   UNL A   1      40.147  26.187  28.785  1.00  0.00     0.012 A 
ATOM     76  C   UNL A   1      41.896  27.489  27.713  1.00  0.00     0.148 A 
ATOM     77  C   UNL A   1      40.282  25.192  27.816  1.00  0.00     0.002 A 
ATOM     78  C   UNL A   1      41.987  26.520  26.720  1.00  0.00     0.091 A 
ATOM     79  F   UNL A   1      42.678  28.578  27.713  1.00  0.00    -0.205 F 
ATOM     80  C   UNL A   1      41.196  25.361  26.781  1.00  0.00     0.022 A 
BRANCH  78  81
ATOM     81  S   UNL A   1      43.054  26.697  25.287  1.00  0.00     0.127 S 
ATOM     82  O   UNL A   1      44.367  26.851  25.909  1.00  0.00    -0.237 OA
ATOM     83  O   UNL A   1      42.846  25.423  24.598  1.00  0.00    -0.237 OA
ATOM     84  O   UNL A   1      42.555  27.859  24.567  1.00  0.00    -0.744 OA
ENDBRANCH  78  81
ENDBRANCH  50  74
BRANCH  62  85
ATOM     85  C   UNL A   1      44.586  28.307  34.649  1.00  0.00     0.023 A 
ATOM     86  C   UNL A   1      45.911  28.743  34.446  1.00  0.00     0.012 A 
ATOM     87  C   UNL A   1      44.340  27.224  35.516  1.00  0.00     0.148 A 
ATOM     88  C   UNL A   1      46.974  28.091  35.069  1.00  0.00     0.002 A 
ATOM     89  C   UNL A   1      45.400  26.613  36.176  1.00  0.00     0.091 A 
ATOM     90  F   UNL A   1      43.074  26.815  35.685  1.00  0.00    -0.205 F 
ATOM     91  C   UNL A   1      46.718  27.036  35.943  1.00  0.00     0.022 A 
BRANCH  89  92
ATOM     92  S   UNL A   1      45.158  25.316  37.395  1.00  0.00     0.127 S 
ATOM     93  O   UNL A   1      44.944  24.146  36.546  1.00  0.00    -0.237 OA
ATOM     94  O   UNL A   1      46.434  25.325  38.112  1.00  0.00    -0.237 OA
ATOM     95  O   UNL A   1      44.012  25.724  38.196  1.00  0.00    -0.744 OA
ENDBRANCH  89  92
ENDBRANCH  62  85
ENDBRANCH  36  37
ENDBRANCH  29  31
ENDBRANCH  28  29
ENDBRANCH  27  28
ENDBRANCH  26  27
ENDBRANCH  25  26
ENDBRANCH   1  25
TORSDOF 23
ENDMDL
MODEL 2
REMARK VINA RESULT:      -9.5      1.408      7.824
REMARK SMILES CC[C@@H](C)CN(CC)C(=O)Nc1c(Br)cccc1C(=O)OCCOCCOC(=O)c1ccc(-c2c3nc(c(-c4cccc(S(=O)(=O)[O-])c4F)c4ccc([nH]4)c(-c4cccc(S(=O)(=O)[O-])c4F)c4nc(c(-c5cccc(S(=O)(=O)[O-])c5F)c5ccc2[nH]5)C=C4)C=C3)cc1
REMARK SMILES IDX 23 1 22 2 21 3 19 4 20 5 18 6 12 7 13 8 14 9 15 10 17 11
REMARK SMILES IDX 16 12 11 13 9 14 10 15 6 17 5 18 3 19 4 20 2 21 1 22 7 23
REMARK SMILES IDX 8 24 24 25 25 26 26 27 27 28 28 29 29 30 30 31 31 32 92 33
REMARK SMILES IDX 32 34 91 35 33 36 34 37 35 38 85 39 36 40 90 41 84 42 86 43
REMARK SMILES IDX 37 44 89 45 83 46 82 47 38 49 70 50 50 51 69 52 51 53 54 54
REMARK SMILES IDX 68 55 87 56 52 57 53 58 67 60 88 61 55 62 39 63 40 64 48 65
REMARK SMILES IDX 41 66 43 67 49 68 42 69 44 70 45 71 46 72 47 73 71 74 72 75
REMARK SMILES IDX 80 76 73 77 75 78 81 79 74 80 76 81 77 82 78 83 79 84 56 85
REMARK SMILES IDX 57 86 65 87 58 88 60 89 66 90 59 91 61 92 62 93 63 94 64 95
REMARK H PARENT 11 16 86 48 54 59
REMARK Flexibility Score: inf
ROOT
ATOM      1  C   UNL A   1      31.971  30.228  26.893  1.00  0.00     0.202 C 
ENDROOT
BRANCH   1   2
ATOM      2  C   UNL A   1      31.524  28.815  26.514  1.00  0.00     0.261 C 
BRANCH   2   3
ATOM      3  O   UNL A   1      31.026  28.746  25.165  1.00  0.00    -0.460 OA
BRANCH   3   4
ATOM      4  C   UNL A   1      30.997  27.487  24.670  1.00  0.00     0.340 C 
ATOM      5  O   UNL A   1      30.127  26.656  24.893  1.00  0.00    -0.246 OA
BRANCH   4   6
ATOM      6  C   UNL A   1      32.109  27.183  23.731  1.00  0.00     0.084 A 
ATOM      7  C   UNL A   1      32.160  26.129  22.808  1.00  0.00     0.071 A 
ATOM      8  C   UNL A   1      32.933  26.342  21.660  1.00  0.00     0.042 A 
ATOM      9  Br  UNL A   1      32.449  25.552  19.990  1.00  0.00    -0.049 Br
ATOM     10  C   UNL A   1      33.931  27.324  21.639  1.00  0.00     0.018 A 
ATOM     11  C   UNL A   1      33.142  28.141  23.737  1.00  0.00     0.018 A 
ATOM     12  C   UNL A   1      34.099  28.164  22.732  1.00  0.00     0.002 A 
BRANCH   7  13
ATOM     13  N   UNL A   1      31.487  24.917  23.050  1.00  0.00    -0.306 N 
ATOM     14  C   UNL A   1      31.834  23.782  23.726  1.00  0.00     0.321 C 
ATOM     15  O   UNL A   1      31.354  22.736  23.283  1.00  0.00    -0.248 OA
ATOM     16  H   UNL A   1      30.586  24.879  22.655  1.00  0.00     0.171 HD
BRANCH  14  17
ATOM     17  N   UNL A   1      32.544  23.807  24.921  1.00  0.00    -0.325 N 
BRANCH  17  18
ATOM     18  C   UNL A   1      34.019  23.717  24.823  1.00  0.00     0.124 C 
BRANCH  18  19
ATOM     19  C   UNL A   1      34.542  22.593  23.881  1.00  0.00     0.005 C 
ATOM     20  C   UNL A   1      34.330  21.221  24.538  1.00  0.00     0.009 C 
BRANCH  19  21
ATOM     21  C   UNL A   1      36.023  22.831  23.519  1.00  0.00     0.002 C 
ATOM     22  C   UNL A   1      36.891  23.419  24.618  1.00  0.00     0.004 C 
ENDBRANCH  19  21
ENDBRANCH  18  19
ENDBRANCH  17  18
BRANCH  17  23
ATOM     23  C   UNL A   1      32.020  23.739  26.293  1.00  0.00     0.118 C 
ATOM     24  C   UNL A   1      33.038  23.220  27.311  1.00  0.00     0.027 C 
ENDBRANCH  17  23
ENDBRANCH  14  17
ENDBRANCH   7  13
ENDBRANCH   4   6
ENDBRANCH   3   4
ENDBRANCH   2   3
ENDBRANCH   1   2
BRANCH   1  25
ATOM     25  O   UNL A   1      33.201  30.374  27.601  1.00  0.00    -0.374 OA
BRANCH  25  26
ATOM     26  C   UNL A   1      33.768  31.681  27.682  1.00  0.00     0.202 C 
BRANCH  26  27
ATOM     27  C   UNL A   1      32.881  32.881  27.328  1.00  0.00     0.261 C 
BRANCH  27  28
ATOM     28  O   UNL A   1      32.402  33.588  28.481  1.00  0.00    -0.460 OA
BRANCH  28  29
ATOM     29  C   UNL A   1      33.099  34.714  28.787  1.00  0.00     0.338 C 
ATOM     30  O   UNL A   1      32.765  35.865  28.583  1.00  0.00    -0.246 OA
BRANCH  29  31
ATOM     31  C   UNL A   1      34.284  34.345  29.582  1.00  0.00     0.060 A 
ATOM     32  C   UNL A   1      35.561  34.523  29.030  1.00  0.00     0.016 A 
ATOM     33  C   UNL A   1      34.130  33.761  30.833  1.00  0.00     0.016 A 
ATOM     34  C   UNL A   1      36.695  34.101  29.731  1.00  0.00     0.010 A 
ATOM     35  C   UNL A   1      35.267  33.324  31.513  1.00  0.00     0.010 A 
ATOM     36  C   UNL A   1      36.556  33.474  30.973  1.00  0.00    -0.014 A 
BRANCH  36  37
ATOM     37  C   UNL A   1      37.712  32.850  31.676  1.00  0.00     0.031 A 
ATOM     38  C   UNL A   1      38.410  31.677  31.031  1.00  0.00     0.074 A 
ATOM     39  C   UNL A   1      38.094  33.264  32.901  1.00  0.00     0.049 A 
ATOM     40  N   UNL A   1      39.352  30.906  31.507  1.00  0.00    -0.248 NA
ATOM     41  C   UNL A   1      37.961  31.303  29.677  1.00  0.00     0.031 C 
ATOM     42  C   UNL A   1      37.474  34.346  33.666  1.00  0.00     0.029 A 
ATOM     43  N   UNL A   1      39.085  32.797  33.732  1.00  0.00    -0.354 N 
ATOM     44  C   UNL A   1      39.569  29.931  30.539  1.00  0.00     0.074 A 
ATOM     45  C   UNL A   1      38.631  30.182  29.467  1.00  0.00     0.031 C 
ATOM     46  C   UNL A   1      38.096  34.459  34.853  1.00  0.00     0.029 A 
ATOM     47  C   UNL A   1      39.137  33.439  34.949  1.00  0.00     0.049 A 
ATOM     48  H   UNL A   1      39.699  32.070  33.480  1.00  0.00     0.167 HD
ATOM     49  C   UNL A   1      40.488  28.936  30.519  1.00  0.00     0.034 A 
ATOM     50  C   UNL A   1      39.926  33.219  36.020  1.00  0.00     0.034 A 
ATOM     51  C   UNL A   1      41.462  28.723  31.553  1.00  0.00     0.049 A 
ATOM     52  C   UNL A   1      40.961  32.121  35.961  1.00  0.00     0.074 A 
ATOM     53  C   UNL A   1      42.484  27.792  31.591  1.00  0.00     0.029 A 
ATOM     54  N   UNL A   1      41.541  29.453  32.727  1.00  0.00    -0.354 N 
ATOM     55  N   UNL A   1      41.237  31.295  34.982  1.00  0.00    -0.248 NA
ATOM     56  C   UNL A   1      41.818  31.949  37.145  1.00  0.00     0.031 C 
ATOM     57  C   UNL A   1      43.170  27.947  32.799  1.00  0.00     0.029 A 
ATOM     58  C   UNL A   1      42.595  28.997  33.496  1.00  0.00     0.049 A 
ATOM     59  H   UNL A   1      40.935  30.188  32.978  1.00  0.00     0.167 HD
ATOM     60  C   UNL A   1      42.327  30.543  35.411  1.00  0.00     0.074 A 
ATOM     61  C   UNL A   1      42.672  31.023  36.732  1.00  0.00     0.031 C 
ATOM     62  C   UNL A   1      42.976  29.535  34.777  1.00  0.00     0.034 A 
BRANCH  49  63
ATOM     63  C   UNL A   1      40.525  28.039  29.308  1.00  0.00     0.023 A 
ATOM     64  C   UNL A   1      39.602  26.977  29.202  1.00  0.00     0.012 A 
ATOM     65  C   UNL A   1      41.426  28.279  28.254  1.00  0.00     0.148 A 
ATOM     66  C   UNL A   1      39.603  26.145  28.085  1.00  0.00     0.002 A 
ATOM     67  C   UNL A   1      41.386  27.476  27.119  1.00  0.00     0.091 A 
ATOM     68  F   UNL A   1      42.305  29.283  28.378  1.00  0.00    -0.205 F 
ATOM     69  C   UNL A   1      40.485  26.400  27.041  1.00  0.00     0.022 A 
BRANCH  67  70
ATOM     70  S   UNL A   1      42.420  27.770  25.681  1.00  0.00     0.127 S 
ATOM     71  O   UNL A   1      42.178  26.562  24.892  1.00  0.00    -0.237 OA
ATOM     72  O   UNL A   1      41.831  28.989  25.126  1.00  0.00    -0.237 OA
ATOM     73  O   UNL A   1      43.778  27.921  26.182  1.00  0.00    -0.744 OA
ENDBRANCH  67  70
ENDBRANCH  49  63
BRANCH  50  74
ATOM     74  C   UNL A   1      39.825  34.085  37.233  1.00  0.00     0.023 A 
ATOM     75  C   UNL A   1      40.474  35.337  37.238  1.00  0.00     0.012 A 
ATOM     76  C   UNL A   1      39.126  33.672  38.384  1.00  0.00     0.148 A 
ATOM     77  C   UNL A   1      40.471  36.139  38.381  1.00  0.00     0.002 A 
ATOM     78  C   UNL A   1      39.082  34.500  39.501  1.00  0.00     0.091 A 
ATOM     79  F   UNL A   1      38.527  32.473  38.367  1.00  0.00    -0.205 F 
ATOM     80  C   UNL A   1      39.770  35.724  39.508  1.00  0.00     0.022 A 
BRANCH  78  81
ATOM     81  S   UNL A   1      38.116  34.105  40.962  1.00  0.00     0.127 S 
ATOM     82  O   UNL A   1      37.017  33.328  40.393  1.00  0.00    -0.237 OA
ATOM     83  O   UNL A   1      39.072  33.330  41.754  1.00  0.00    -0.237 OA
ATOM     84  O   UNL A   1      37.748  35.386  41.547  1.00  0.00    -0.744 OA
ENDBRANCH  78  81
ENDBRANCH  50  74
BRANCH  62  85
ATOM     85  C   UNL A   1      44.172  28.922  35.459  1.00  0.00     0.023 A 
ATOM     86  C   UNL A   1      45.461  29.446  35.233  1.00  0.00     0.012 A 
ATOM     87  C   UNL A   1      44.004  27.879  36.391  1.00  0.00     0.148 A 
ATOM     88  C   UNL A   1      46.566  28.918  35.899  1.00  0.00     0.002 A 
ATOM     89  C   UNL A   1      45.102  27.394  37.090  1.00  0.00     0.091 A 
ATOM     90  F   UNL A   1      42.772  27.384  36.580  1.00  0.00    -0.205 F 
ATOM     91  C   UNL A   1      46.385  27.902  36.836  1.00  0.00     0.022 A 
BRANCH  89  92
ATOM     92  S   UNL A   1      44.951  26.160  38.388  1.00  0.00     0.127 S 
ATOM     93  O   UNL A   1      44.693  24.946  37.615  1.00  0.00    -0.237 OA
ATOM     94  O   UNL A   1      46.271  26.212  39.019  1.00  0.00    -0.237 OA
ATOM     95  O   UNL A   1      43.855  26.602  39.240  1.00  0.00    -0.744 OA
ENDBRANCH  89  92
ENDBRANCH  62  85
ENDBRANCH  36  37
ENDBRANCH  29  31
ENDBRANCH  28  29
ENDBRANCH  27  28
ENDBRANCH  26  27
ENDBRANCH  25  26
ENDBRANCH   1  25
TORSDOF 23
ENDMDL
MODEL 3
REMARK VINA RESULT:      -8.6      2.900      4.515
REMARK SMILES CC[C@@H](C)CN(CC)C(=O)Nc1c(Br)cccc1C(=O)OCCOCCOC(=O)c1ccc(-c2c3nc(c(-c4cccc(S(=O)(=O)[O-])c4F)c4ccc([nH]4)c(-c4cccc(S(=O)(=O)[O-])c4F)c4nc(c(-c5cccc(S(=O)(=O)[O-])c5F)c5ccc2[nH]5)C=C4)C=C3)cc1
REMARK SMILES IDX 23 1 22 2 21 3 19 4 20 5 18 6 12 7 13 8 14 9 15 10 17 11
REMARK SMILES IDX 16 12 11 13 9 14 10 15 6 17 5 18 3 19 4 20 2 21 1 22 7 23
REMARK SMILES IDX 8 24 24 25 25 26 26 27 27 28 28 29 29 30 30 31 31 32 92 33
REMARK SMILES IDX 32 34 91 35 33 36 34 37 35 38 85 39 36 40 90 41 84 42 86 43
REMARK SMILES IDX 37 44 89 45 83 46 82 47 38 49 70 50 50 51 69 52 51 53 54 54
REMARK SMILES IDX 68 55 87 56 52 57 53 58 67 60 88 61 55 62 39 63 40 64 48 65
REMARK SMILES IDX 41 66 43 67 49 68 42 69 44 70 45 71 46 72 47 73 71 74 72 75
REMARK SMILES IDX 80 76 73 77 75 78 81 79 74 80 76 81 77 82 78 83 79 84 56 85
REMARK SMILES IDX 57 86 65 87 58 88 60 89 66 90 59 91 61 92 62 93 63 94 64 95
REMARK H PARENT 11 16 86 48 54 59
REMARK Flexibility Score: inf
ROOT
ATOM      1  C   UNL A   1      32.846  29.108  26.287  1.00  0.00     0.202 C 
ENDROOT
BRANCH   1   2
ATOM      2  C   UNL A   1      33.471  27.898  25.590  1.00  0.00     0.261 C 
BRANCH   2   3
ATOM      3  O   UNL A   1      33.420  26.714  26.409  1.00  0.00    -0.460 OA
BRANCH   3   4
ATOM      4  C   UNL A   1      33.798  25.593  25.752  1.00  0.00     0.340 C 
ATOM      5  O   UNL A   1      34.946  25.307  25.439  1.00  0.00    -0.246 OA
BRANCH   4   6
ATOM      6  C   UNL A   1      32.683  24.648  25.484  1.00  0.00     0.084 A 
ATOM      7  C   UNL A   1      32.244  24.208  24.226  1.00  0.00     0.071 A 
ATOM      8  C   UNL A   1      31.650  22.941  24.181  1.00  0.00     0.042 A 
ATOM      9  Br  UNL A   1      31.826  21.829  22.639  1.00  0.00    -0.049 Br
ATOM     10  C   UNL A   1      31.124  22.353  25.338  1.00  0.00     0.018 A 
ATOM     11  C   UNL A   1      32.115  24.086  26.644  1.00  0.00     0.018 A 
ATOM     12  C   UNL A   1      31.273  22.986  26.565  1.00  0.00     0.002 A 
BRANCH   7  13
ATOM     13  N   UNL A   1      32.374  25.022  23.085  1.00  0.00    -0.306 N 
ATOM     14  C   UNL A   1      31.566  25.969  22.524  1.00  0.00     0.321 C 
ATOM     15  O   UNL A   1      31.633  26.060  21.296  1.00  0.00    -0.248 OA
ATOM     16  H   UNL A   1      33.215  24.881  22.593  1.00  0.00     0.171 HD
BRANCH  14  17
ATOM     17  N   UNL A   1      30.839  26.880  23.282  1.00  0.00    -0.325 N 
BRANCH  17  18
ATOM     18  C   UNL A   1      30.888  28.297  22.850  1.00  0.00     0.124 C 
BRANCH  18  19
ATOM     19  C   UNL A   1      29.639  29.140  23.238  1.00  0.00     0.005 C 
ATOM     20  C   UNL A   1      28.759  29.369  22.000  1.00  0.00     0.009 C 
BRANCH  19  21
ATOM     21  C   UNL A   1      30.062  30.471  23.892  1.00  0.00     0.002 C 
ATOM     22  C   UNL A   1      29.026  31.581  23.876  1.00  0.00     0.004 C 
ENDBRANCH  19  21
ENDBRANCH  18  19
ENDBRANCH  17  18
BRANCH  17  23
ATOM     23  C   UNL A   1      30.156  26.659  24.564  1.00  0.00     0.118 C 
ATOM     24  C   UNL A   1      28.899  25.792  24.445  1.00  0.00     0.027 C 
ENDBRANCH  17  23
ENDBRANCH  14  17
ENDBRANCH   7  13
ENDBRANCH   4   6
ENDBRANCH   3   4
ENDBRANCH   2   3
ENDBRANCH   1   2
BRANCH   1  25
ATOM     25  O   UNL A   1      33.722  30.055  26.897  1.00  0.00    -0.374 OA
BRANCH  25  26
ATOM     26  C   UNL A   1      33.221  31.373  27.120  1.00  0.00     0.202 C 
BRANCH  26  27
ATOM     27  C   UNL A   1      34.020  32.308  28.037  1.00  0.00     0.261 C 
BRANCH  27  28
ATOM     28  O   UNL A   1      34.649  31.625  29.131  1.00  0.00    -0.460 OA
BRANCH  28  29
ATOM     29  C   UNL A   1      35.201  32.439  30.068  1.00  0.00     0.338 C 
ATOM     30  O   UNL A   1      34.675  33.384  30.624  1.00  0.00    -0.246 OA
BRANCH  29  31
ATOM     31  C   UNL A   1      36.518  31.903  30.456  1.00  0.00     0.060 A 
ATOM     32  C   UNL A   1      37.671  32.399  29.832  1.00  0.00     0.016 A 
ATOM     33  C   UNL A   1      36.603  30.868  31.379  1.00  0.00     0.016 A 
ATOM     34  C   UNL A   1      38.922  31.846  30.123  1.00  0.00     0.010 A 
ATOM     35  C   UNL A   1      37.853  30.309  31.645  1.00  0.00     0.010 A 
ATOM     36  C   UNL A   1      39.021  30.776  31.018  1.00  0.00    -0.014 A 
BRANCH  36  37
ATOM     37  C   UNL A   1      40.299  30.038  31.226  1.00  0.00     0.031 A 
ATOM     38  C   UNL A   1      41.217  30.473  32.342  1.00  0.00     0.074 A 
ATOM     39  C   UNL A   1      40.678  29.044  30.398  1.00  0.00     0.049 A 
ATOM     40  N   UNL A   1      42.424  30.063  32.633  1.00  0.00    -0.248 NA
ATOM     41  C   UNL A   1      40.721  31.542  33.229  1.00  0.00     0.031 C 
ATOM     42  C   UNL A   1      39.916  28.558  29.247  1.00  0.00     0.029 A 
ATOM     43  N   UNL A   1      41.823  28.283  30.382  1.00  0.00    -0.354 N 
ATOM     44  C   UNL A   1      42.847  30.854  33.696  1.00  0.00     0.074 A 
ATOM     45  C   UNL A   1      41.786  31.797  33.971  1.00  0.00     0.031 C 
ATOM     46  C   UNL A   1      40.614  27.584  28.637  1.00  0.00     0.029 A 
ATOM     47  C   UNL A   1      41.885  27.396  29.331  1.00  0.00     0.049 A 
ATOM     48  H   UNL A   1      42.531  28.365  31.059  1.00  0.00     0.167 HD
ATOM     49  C   UNL A   1      43.997  30.784  34.409  1.00  0.00     0.034 A 
ATOM     50  C   UNL A   1      42.862  26.541  28.966  1.00  0.00     0.034 A 
ATOM     51  C   UNL A   1      45.025  29.807  34.179  1.00  0.00     0.049 A 
ATOM     52  C   UNL A   1      44.122  26.463  29.794  1.00  0.00     0.074 A 
ATOM     53  C   UNL A   1      46.191  29.604  34.894  1.00  0.00     0.029 A 
ATOM     54  N   UNL A   1      45.008  28.867  33.162  1.00  0.00    -0.354 N 
ATOM     55  N   UNL A   1      44.445  27.130  30.875  1.00  0.00    -0.248 NA
ATOM     56  C   UNL A   1      45.139  25.487  29.370  1.00  0.00     0.031 C 
ATOM     57  C   UNL A   1      46.890  28.551  34.298  1.00  0.00     0.029 A 
ATOM     58  C   UNL A   1      46.142  28.078  33.232  1.00  0.00     0.049 A 
ATOM     59  H   UNL A   1      44.295  28.774  32.490  1.00  0.00     0.167 HD
ATOM     60  C   UNL A   1      45.674  26.621  31.286  1.00  0.00     0.074 A 
ATOM     61  C   UNL A   1      46.029  25.578  30.348  1.00  0.00     0.031 C 
ATOM     62  C   UNL A   1      46.447  26.992  32.337  1.00  0.00     0.034 A 
BRANCH  49  63
ATOM     63  C   UNL A   1      44.175  31.753  35.549  1.00  0.00     0.023 A 
ATOM     64  C   UNL A   1      44.875  32.959  35.333  1.00  0.00     0.012 A 
ATOM     65  C   UNL A   1      43.605  31.502  36.812  1.00  0.00     0.148 A 
ATOM     66  C   UNL A   1      45.039  33.880  36.365  1.00  0.00     0.002 A 
ATOM     67  C   UNL A   1      43.728  32.450  37.822  1.00  0.00     0.091 A 
ATOM     68  F   UNL A   1      42.957  30.345  37.004  1.00  0.00    -0.205 F 
ATOM     69  C   UNL A   1      44.457  33.631  37.604  1.00  0.00     0.022 A 
BRANCH  67  70
ATOM     70  S   UNL A   1      42.946  32.269  39.428  1.00  0.00     0.127 S 
ATOM     71  O   UNL A   1      43.729  31.184  40.018  1.00  0.00    -0.237 OA
ATOM     72  O   UNL A   1      43.175  33.583  40.029  1.00  0.00    -0.237 OA
ATOM     73  O   UNL A   1      41.550  31.953  39.165  1.00  0.00    -0.744 OA
ENDBRANCH  67  70
ENDBRANCH  49  63
BRANCH  50  74
ATOM     74  C   UNL A   1      42.683  25.634  27.792  1.00  0.00     0.023 A 
ATOM     75  C   UNL A   1      42.998  26.109  26.502  1.00  0.00     0.012 A 
ATOM     76  C   UNL A   1      42.176  24.328  27.935  1.00  0.00     0.148 A 
ATOM     77  C   UNL A   1      42.767  25.320  25.374  1.00  0.00     0.002 A 
ATOM     78  C   UNL A   1      41.999  23.527  26.812  1.00  0.00     0.091 A 
ATOM     79  F   UNL A   1      41.868  23.897  29.166  1.00  0.00    -0.205 F 
ATOM     80  C   UNL A   1      42.274  24.029  25.529  1.00  0.00     0.022 A 
BRANCH  78  81
ATOM     81  S   UNL A   1      41.474  21.813  26.915  1.00  0.00     0.127 S 
ATOM     82  O   UNL A   1      40.109  21.948  27.418  1.00  0.00    -0.237 OA
ATOM     83  O   UNL A   1      41.576  21.383  25.520  1.00  0.00    -0.237 OA
ATOM     84  O   UNL A   1      42.418  21.167  27.815  1.00  0.00    -0.744 OA
ENDBRANCH  78  81
ENDBRANCH  50  74
BRANCH  62  85
ATOM     85  C   UNL A   1      47.721  26.227  32.583  1.00  0.00     0.023 A 
ATOM     86  C   UNL A   1      48.927  26.649  31.988  1.00  0.00     0.012 A 
ATOM     87  C   UNL A   1      47.737  25.137  33.476  1.00  0.00     0.148 A 
ATOM     88  C   UNL A   1      50.120  25.978  32.251  1.00  0.00     0.002 A 
ATOM     89  C   UNL A   1      48.938  24.506  33.776  1.00  0.00     0.091 A 
ATOM     90  F   UNL A   1      46.577  24.741  34.021  1.00  0.00    -0.205 F 
ATOM     91  C   UNL A   1      50.128  24.916  33.154  1.00  0.00     0.022 A 
BRANCH  89  92
ATOM     92  S   UNL A   1      49.062  23.199  35.002  1.00  0.00     0.127 S 
ATOM     93  O   UNL A   1      48.236  22.151  34.404  1.00  0.00    -0.237 OA
ATOM     94  O   UNL A   1      50.498  22.915  35.007  1.00  0.00    -0.237 OA
ATOM     95  O   UNL A   1      48.552  23.762  36.245  1.00  0.00    -0.744 OA
ENDBRANCH  89  92
ENDBRANCH  62  85
ENDBRANCH  36  37
ENDBRANCH  29  31
ENDBRANCH  28  29
ENDBRANCH  27  28
ENDBRANCH  26  27
ENDBRANCH  25  26
ENDBRANCH   1  25
TORSDOF 23
ENDMDL
