MODEL 1
REMARK VINA RESULT:      -8.8      0.000      0.000
REMARK SMILES C[C@H]1[C@H](C)CC[C@@]2(C(=O)OCCOCCOC(=O)c3ccc(-c4c5nc(c(-c6cccc(S(=O)(=O)[O-])c6F)c6ccc([nH]6)c(-c6cccc(S(=O)(=O)[O-])c6F)c6nc(c(-c7cccc(S(=O)(=O)[O-])c7F)c7ccc4[nH]7)C=C6)C=C5)cc3)CC[C@@]3(C)C(=CC[C@@H]4[C@@]5(C)CC[C@H](O)C(C)(C)[C@@H]5CC[C@]43C)[C@H]12
REMARK SMILES IDX 14 1 13 2 12 3 11 4 10 5 8 6 9 7 7 8 1 9 2 10 3 11 104 12
REMARK SMILES IDX 4 13 5 14 86 15 6 16 82 17 84 18 87 19 83 20 85 21 102 22
REMARK SMILES IDX 88 23 89 24 101 25 103 26 90 27 100 28 91 29 92 30 99 31
REMARK SMILES IDX 93 32 96 33 94 34 97 35 98 36 95 37 15 39 16 40 17 41 18 42
REMARK SMILES IDX 19 43 20 44 81 45 21 46 80 47 22 48 23 49 24 50 74 51 25 52
REMARK SMILES IDX 79 53 73 54 75 55 26 56 78 57 72 58 71 59 27 61 59 62 39 63
REMARK SMILES IDX 58 64 40 65 43 66 57 67 76 68 41 69 42 70 56 72 77 73 44 74
REMARK SMILES IDX 28 75 29 76 37 77 30 78 32 79 38 80 31 81 33 82 34 83 35 84
REMARK SMILES IDX 36 85 60 86 61 87 69 88 62 89 64 90 70 91 63 92 65 93 66 94
REMARK SMILES IDX 67 95 68 96 45 97 46 98 54 99 47 100 49 101 55 102 48 103
REMARK SMILES IDX 50 104 51 105 52 106 53 107
REMARK H PARENT 95 38 75 60 43 71
REMARK Flexibility Score: inf
ROOT
ATOM      1  C   UNL A   1      37.648  34.286  34.368  1.00  0.00     0.202 C 
ENDROOT
BRANCH   1   2
ATOM      2  O   UNL A   1      37.719  34.787  33.052  1.00  0.00    -0.374 OA
BRANCH   2   3
ATOM      3  C   UNL A   1      38.919  34.529  32.353  1.00  0.00     0.202 C 
BRANCH   3   4
ATOM      4  C   UNL A   1      40.344  34.655  32.945  1.00  0.00     0.261 C 
BRANCH   4   5
ATOM      5  O   UNL A   1      40.953  33.677  33.825  1.00  0.00    -0.463 OA
BRANCH   5   6
ATOM      6  C   UNL A   1      40.919  33.639  35.177  1.00  0.00     0.312 C 
ATOM      7  O   UNL A   1      40.447  32.638  35.722  1.00  0.00    -0.252 OA
BRANCH   6   8
ATOM      8  C   UNL A   1      41.798  34.632  36.000  1.00  0.00     0.075 C 
ATOM      9  C   UNL A   1      41.644  33.815  39.871  1.00  0.00     0.008 C 
ATOM     10  C   UNL A   1      41.143  34.174  38.465  1.00  0.00    -0.003 C 
ATOM     11  C   UNL A   1      40.359  35.534  38.483  1.00  0.00    -0.011 C 
ATOM     12  C   UNL A   1      42.311  34.112  37.377  1.00  0.00     0.036 C 
ATOM     13  C   UNL A   1      39.054  35.482  39.306  1.00  0.00     0.008 C 
ATOM     14  C   UNL A   1      39.934  36.002  37.090  1.00  0.00     0.005 C 
ATOM     15  C   UNL A   1      43.141  32.810  37.057  1.00  0.00    -0.063 C 
ATOM     16  C   UNL A   1      41.069  35.987  36.103  1.00  0.00     0.020 C 
ATOM     17  C   UNL A   1      43.057  34.976  35.137  1.00  0.00     0.020 C 
ATOM     18  C   UNL A   1      44.344  32.921  36.033  1.00  0.00    -0.006 C 
ATOM     19  C   UNL A   1      42.777  31.591  37.499  1.00  0.00    -0.027 C 
ATOM     20  C   UNL A   1      43.927  33.773  34.809  1.00  0.00     0.013 C 
ATOM     21  C   UNL A   1      45.495  33.676  36.747  1.00  0.00     0.017 C 
ATOM     22  C   UNL A   1      44.876  31.449  35.511  1.00  0.00    -0.020 C 
ATOM     23  C   UNL A   1      43.059  30.315  36.746  1.00  0.00     0.032 C 
ATOM     24  C   UNL A   1      43.580  30.582  35.304  1.00  0.00     0.006 C 
ATOM     25  C   UNL A   1      45.705  31.502  34.204  1.00  0.00     0.008 C 
ATOM     26  C   UNL A   1      45.832  30.806  36.568  1.00  0.00     0.012 C 
ATOM     27  C   UNL A   1      43.620  29.316  34.316  1.00  0.00    -0.025 C 
ATOM     28  C   UNL A   1      45.978  30.110  33.613  1.00  0.00     0.005 C 
ATOM     29  C   UNL A   1      43.786  28.035  35.159  1.00  0.00     0.012 C 
ATOM     30  C   UNL A   1      42.252  29.195  33.557  1.00  0.00     0.010 C 
ATOM     31  C   UNL A   1      44.659  29.492  33.143  1.00  0.00     0.003 C 
ATOM     32  C   UNL A   1      42.193  28.058  32.525  1.00  0.00     0.033 C 
ATOM     33  C   UNL A   1      44.780  28.263  32.154  1.00  0.00    -0.006 C 
ATOM     34  C   UNL A   1      43.366  28.025  31.536  1.00  0.00     0.120 C 
ATOM     35  C   UNL A   1      45.375  26.981  32.780  1.00  0.00     0.014 C 
ATOM     36  C   UNL A   1      45.738  28.597  30.975  1.00  0.00     0.014 C 
BRANCH  34  37
ATOM     37  O   UNL A   1      43.326  26.803  30.795  1.00  0.00    -0.393 OA
ATOM     38  H   UNL A   1      42.403  26.559  30.620  1.00  0.00     0.210 HD
ENDBRANCH  34  37
ENDBRANCH   6   8
ENDBRANCH   5   6
ENDBRANCH   4   5
ENDBRANCH   3   4
ENDBRANCH   2   3
ENDBRANCH   1   2
BRANCH   1  39
ATOM     39  C   UNL A   1      36.246  33.746  34.682  1.00  0.00     0.261 C 
BRANCH  39  40
ATOM     40  O   UNL A   1      36.022  32.394  34.232  1.00  0.00    -0.460 OA
BRANCH  40  41
ATOM     41  C   UNL A   1      35.646  32.261  32.941  1.00  0.00     0.338 C 
ATOM     42  O   UNL A   1      34.791  32.915  32.341  1.00  0.00    -0.246 OA
BRANCH  41  43
ATOM     43  C   UNL A   1      36.494  31.265  32.266  1.00  0.00     0.060 A 
ATOM     44  C   UNL A   1      37.525  30.650  32.992  1.00  0.00     0.016 A 
ATOM     45  C   UNL A   1      36.346  31.025  30.899  1.00  0.00     0.016 A 
ATOM     46  C   UNL A   1      38.458  29.850  32.338  1.00  0.00     0.010 A 
ATOM     47  C   UNL A   1      37.307  30.259  30.234  1.00  0.00     0.010 A 
ATOM     48  C   UNL A   1      38.397  29.728  30.946  1.00  0.00    -0.014 A 
BRANCH  48  49
ATOM     49  C   UNL A   1      39.623  29.318  30.225  1.00  0.00     0.031 A 
ATOM     50  C   UNL A   1      40.730  30.333  30.103  1.00  0.00     0.074 A 
ATOM     51  C   UNL A   1      39.763  28.074  29.740  1.00  0.00     0.049 A 
ATOM     52  N   UNL A   1      41.881  30.237  29.496  1.00  0.00    -0.248 NA
ATOM     53  C   UNL A   1      40.506  31.634  30.762  1.00  0.00     0.031 C 
ATOM     54  C   UNL A   1      38.770  27.008  29.850  1.00  0.00     0.029 A 
ATOM     55  N   UNL A   1      40.797  27.507  29.041  1.00  0.00    -0.354 N 
ATOM     56  C   UNL A   1      42.501  31.470  29.668  1.00  0.00     0.074 A 
ATOM     57  C   UNL A   1      41.602  32.300  30.434  1.00  0.00     0.031 C 
ATOM     58  C   UNL A   1      39.228  25.920  29.206  1.00  0.00     0.029 A 
ATOM     59  C   UNL A   1      40.529  26.228  28.615  1.00  0.00     0.049 A 
ATOM     60  H   UNL A   1      41.646  27.970  28.861  1.00  0.00     0.167 HD
ATOM     61  C   UNL A   1      43.718  31.872  29.231  1.00  0.00     0.034 A 
ATOM     62  C   UNL A   1      41.246  25.418  27.813  1.00  0.00     0.034 A 
ATOM     63  C   UNL A   1      44.605  31.028  28.478  1.00  0.00     0.049 A 
ATOM     64  C   UNL A   1      42.581  25.900  27.307  1.00  0.00     0.074 A 
ATOM     65  C   UNL A   1      45.868  31.318  27.997  1.00  0.00     0.029 A 
ATOM     66  N   UNL A   1      44.313  29.729  28.091  1.00  0.00    -0.354 N 
ATOM     67  N   UNL A   1      43.189  27.041  27.537  1.00  0.00    -0.248 NA
ATOM     68  C   UNL A   1      43.346  24.974  26.462  1.00  0.00     0.031 C 
ATOM     69  C   UNL A   1      46.327  30.202  27.289  1.00  0.00     0.029 A 
ATOM     70  C   UNL A   1      45.368  29.203  27.369  1.00  0.00     0.049 A 
ATOM     71  H   UNL A   1      43.478  29.251  28.300  1.00  0.00     0.167 HD
ATOM     72  C   UNL A   1      44.422  26.952  26.901  1.00  0.00     0.074 A 
ATOM     73  C   UNL A   1      44.480  25.639  26.291  1.00  0.00     0.031 C 
ATOM     74  C   UNL A   1      45.416  27.872  26.821  1.00  0.00     0.034 A 
BRANCH  61  75
ATOM     75  C   UNL A   1      44.153  33.278  29.552  1.00  0.00     0.023 A 
ATOM     76  C   UNL A   1      44.679  33.582  30.824  1.00  0.00     0.012 A 
ATOM     77  C   UNL A   1      44.084  34.291  28.574  1.00  0.00     0.148 A 
ATOM     78  C   UNL A   1      45.099  34.877  31.128  1.00  0.00     0.002 A 
ATOM     79  C   UNL A   1      44.549  35.566  28.869  1.00  0.00     0.091 A 
ATOM     80  F   UNL A   1      43.557  33.988  27.379  1.00  0.00    -0.205 F 
ATOM     81  C   UNL A   1      45.044  35.865  30.148  1.00  0.00     0.022 A 
BRANCH  79  82
ATOM     82  S   UNL A   1      44.594  36.887  27.653  1.00  0.00     0.127 S 
ATOM     83  O   UNL A   1      43.186  36.987  27.271  1.00  0.00    -0.237 OA
ATOM     84  O   UNL A   1      45.094  38.013  28.443  1.00  0.00    -0.237 OA
ATOM     85  O   UNL A   1      45.492  36.436  26.599  1.00  0.00    -0.744 OA
ENDBRANCH  79  82
ENDBRANCH  61  75
BRANCH  62  86
ATOM     86  C   UNL A   1      40.725  24.069  27.452  1.00  0.00     0.023 A 
ATOM     87  C   UNL A   1      41.341  22.916  27.975  1.00  0.00     0.012 A 
ATOM     88  C   UNL A   1      39.608  23.925  26.606  1.00  0.00     0.148 A 
ATOM     89  C   UNL A   1      40.877  21.644  27.634  1.00  0.00     0.002 A 
ATOM     90  C   UNL A   1      39.114  22.659  26.316  1.00  0.00     0.091 A 
ATOM     91  F   UNL A   1      39.045  25.033  26.103  1.00  0.00    -0.205 F 
ATOM     92  C   UNL A   1      39.758  21.515  26.814  1.00  0.00     0.022 A 
BRANCH  90  93
ATOM     93  S   UNL A   1      37.601  22.408  25.382  1.00  0.00     0.127 S 
ATOM     94  O   UNL A   1      37.625  23.542  24.463  1.00  0.00    -0.237 OA
ATOM     95  O   UNL A   1      37.844  21.105  24.759  1.00  0.00    -0.237 OA
ATOM     96  O   UNL A   1      36.527  22.410  26.365  1.00  0.00    -0.744 OA
ENDBRANCH  90  93
ENDBRANCH  62  86
BRANCH  74  97
ATOM     97  C   UNL A   1      46.676  27.471  26.100  1.00  0.00     0.023 A 
ATOM     98  C   UNL A   1      46.774  27.627  24.703  1.00  0.00     0.012 A 
ATOM     99  C   UNL A   1      47.791  27.008  26.827  1.00  0.00     0.148 A 
ATOM    100  C   UNL A   1      47.949  27.287  24.037  1.00  0.00     0.002 A 
ATOM    101  C   UNL A   1      48.976  26.725  26.162  1.00  0.00     0.091 A 
ATOM    102  F   UNL A   1      47.671  26.853  28.154  1.00  0.00    -0.205 F 
ATOM    103  C   UNL A   1      49.053  26.849  24.766  1.00  0.00     0.022 A 
BRANCH 101 104
ATOM    104  S   UNL A   1      50.476  26.256  27.032  1.00  0.00     0.127 S 
ATOM    105  O   UNL A   1      50.446  24.799  26.912  1.00  0.00    -0.237 OA
ATOM    106  O   UNL A   1      51.514  26.913  26.236  1.00  0.00    -0.237 OA
ATOM    107  O   UNL A   1      50.334  26.776  28.386  1.00  0.00    -0.744 OA
ENDBRANCH 101 104
ENDBRANCH  74  97
ENDBRANCH  48  49
ENDBRANCH  41  43
ENDBRANCH  40  41
ENDBRANCH  39  40
ENDBRANCH   1  39
TORSDOF 18
ENDMDL
MODEL 2
REMARK VINA RESULT:      -8.7      5.658     10.790
REMARK SMILES C[C@H]1[C@H](C)CC[C@@]2(C(=O)OCCOCCOC(=O)c3ccc(-c4c5nc(c(-c6cccc(S(=O)(=O)[O-])c6F)c6ccc([nH]6)c(-c6cccc(S(=O)(=O)[O-])c6F)c6nc(c(-c7cccc(S(=O)(=O)[O-])c7F)c7ccc4[nH]7)C=C6)C=C5)cc3)CC[C@@]3(C)C(=CC[C@@H]4[C@@]5(C)CC[C@H](O)C(C)(C)[C@@H]5CC[C@]43C)[C@H]12
REMARK SMILES IDX 14 1 13 2 12 3 11 4 10 5 8 6 9 7 7 8 1 9 2 10 3 11 104 12
REMARK SMILES IDX 4 13 5 14 86 15 6 16 82 17 84 18 87 19 83 20 85 21 102 22
REMARK SMILES IDX 88 23 89 24 101 25 103 26 90 27 100 28 91 29 92 30 99 31
REMARK SMILES IDX 93 32 96 33 94 34 97 35 98 36 95 37 15 39 16 40 17 41 18 42
REMARK SMILES IDX 19 43 20 44 81 45 21 46 80 47 22 48 23 49 24 50 74 51 25 52
REMARK SMILES IDX 79 53 73 54 75 55 26 56 78 57 72 58 71 59 27 61 59 62 39 63
REMARK SMILES IDX 58 64 40 65 43 66 57 67 76 68 41 69 42 70 56 72 77 73 44 74
REMARK SMILES IDX 28 75 29 76 37 77 30 78 32 79 38 80 31 81 33 82 34 83 35 84
REMARK SMILES IDX 36 85 60 86 61 87 69 88 62 89 64 90 70 91 63 92 65 93 66 94
REMARK SMILES IDX 67 95 68 96 45 97 46 98 54 99 47 100 49 101 55 102 48 103
REMARK SMILES IDX 50 104 51 105 52 106 53 107
REMARK H PARENT 95 38 75 60 43 71
REMARK Flexibility Score: inf
ROOT
ATOM      1  C   UNL A   1      50.386  29.055  36.066  1.00  0.00     0.202 C 
ENDROOT
BRANCH   1   2
ATOM      2  O   UNL A   1      49.981  27.777  35.633  1.00  0.00    -0.374 OA
BRANCH   2   3
ATOM      3  C   UNL A   1      49.980  26.760  36.614  1.00  0.00     0.202 C 
BRANCH   3   4
ATOM      4  C   UNL A   1      49.158  25.450  36.545  1.00  0.00     0.261 C 
BRANCH   4   5
ATOM      5  O   UNL A   1      48.129  25.080  37.495  1.00  0.00    -0.463 OA
BRANCH   5   6
ATOM      6  C   UNL A   1      48.141  24.055  38.379  1.00  0.00     0.312 C 
ATOM      7  O   UNL A   1      49.034  24.029  39.230  1.00  0.00    -0.252 OA
BRANCH   6   8
ATOM      8  C   UNL A   1      46.862  23.181  38.565  1.00  0.00     0.075 C 
ATOM      9  C   UNL A   1      44.046  24.186  35.968  1.00  0.00     0.008 C 
ATOM     10  C   UNL A   1      45.071  24.348  37.101  1.00  0.00    -0.003 C 
ATOM     11  C   UNL A   1      44.376  24.869  38.409  1.00  0.00    -0.011 C 
ATOM     12  C   UNL A   1      45.948  23.029  37.312  1.00  0.00     0.036 C 
ATOM     13  C   UNL A   1      43.793  26.292  38.271  1.00  0.00     0.008 C 
ATOM     14  C   UNL A   1      45.327  24.942  39.606  1.00  0.00     0.005 C 
ATOM     15  C   UNL A   1      46.862  22.398  36.193  1.00  0.00    -0.063 C 
ATOM     16  C   UNL A   1      46.096  23.666  39.812  1.00  0.00     0.020 C 
ATOM     17  C   UNL A   1      47.326  21.744  38.975  1.00  0.00     0.020 C 
ATOM     18  C   UNL A   1      47.590  21.027  36.505  1.00  0.00    -0.006 C 
ATOM     19  C   UNL A   1      47.164  23.047  35.052  1.00  0.00    -0.027 C 
ATOM     20  C   UNL A   1      48.191  21.055  37.932  1.00  0.00     0.013 C 
ATOM     21  C   UNL A   1      46.512  19.913  36.483  1.00  0.00     0.017 C 
ATOM     22  C   UNL A   1      48.783  20.677  35.422  1.00  0.00    -0.020 C 
ATOM     23  C   UNL A   1      48.463  22.861  34.309  1.00  0.00     0.032 C 
ATOM     24  C   UNL A   1      49.503  22.044  35.130  1.00  0.00     0.006 C 
ATOM     25  C   UNL A   1      49.805  19.626  35.923  1.00  0.00     0.008 C 
ATOM     26  C   UNL A   1      48.177  20.060  34.119  1.00  0.00     0.012 C 
ATOM     27  C   UNL A   1      51.010  22.048  34.574  1.00  0.00    -0.025 C 
ATOM     28  C   UNL A   1      51.030  19.498  35.004  1.00  0.00     0.005 C 
ATOM     29  C   UNL A   1      50.975  22.269  33.048  1.00  0.00     0.012 C 
ATOM     30  C   UNL A   1      51.800  23.253  35.197  1.00  0.00     0.010 C 
ATOM     31  C   UNL A   1      51.839  20.797  35.057  1.00  0.00     0.003 C 
ATOM     32  C   UNL A   1      53.281  23.321  34.794  1.00  0.00     0.033 C 
ATOM     33  C   UNL A   1      53.322  20.715  34.512  1.00  0.00    -0.006 C 
ATOM     34  C   UNL A   1      54.059  22.011  34.978  1.00  0.00     0.120 C 
ATOM     35  C   UNL A   1      53.443  20.481  32.989  1.00  0.00     0.014 C 
ATOM     36  C   UNL A   1      54.077  19.513  35.149  1.00  0.00     0.014 C 
BRANCH  34  37
ATOM     37  O   UNL A   1      55.339  22.129  34.353  1.00  0.00    -0.393 OA
ATOM     38  H   UNL A   1      56.022  21.768  34.940  1.00  0.00     0.210 HD
ENDBRANCH  34  37
ENDBRANCH   6   8
ENDBRANCH   5   6
ENDBRANCH   4   5
ENDBRANCH   3   4
ENDBRANCH   2   3
ENDBRANCH   1   2
BRANCH   1  39
ATOM     39  C   UNL A   1      49.598  29.498  37.306  1.00  0.00     0.261 C 
BRANCH  39  40
ATOM     40  O   UNL A   1      48.237  29.889  37.030  1.00  0.00    -0.460 OA
BRANCH  40  41
ATOM     41  C   UNL A   1      47.310  28.916  37.161  1.00  0.00     0.338 C 
ATOM     42  O   UNL A   1      47.085  28.227  38.159  1.00  0.00    -0.246 OA
BRANCH  41  43
ATOM     43  C   UNL A   1      46.481  28.839  35.947  1.00  0.00     0.060 A 
ATOM     44  C   UNL A   1      46.564  29.874  35.003  1.00  0.00     0.016 A 
ATOM     45  C   UNL A   1      45.548  27.811  35.796  1.00  0.00     0.016 A 
ATOM     46  C   UNL A   1      45.663  29.925  33.944  1.00  0.00     0.010 A 
ATOM     47  C   UNL A   1      44.615  27.887  34.759  1.00  0.00     0.010 A 
ATOM     48  C   UNL A   1      44.635  28.979  33.874  1.00  0.00    -0.014 A 
BRANCH  48  49
ATOM     49  C   UNL A   1      43.430  29.312  33.082  1.00  0.00     0.031 A 
ATOM     50  C   UNL A   1      42.345  30.103  33.765  1.00  0.00     0.074 A 
ATOM     51  C   UNL A   1      43.328  28.964  31.789  1.00  0.00     0.049 A 
ATOM     52  N   UNL A   1      41.185  30.490  33.307  1.00  0.00    -0.248 NA
ATOM     53  C   UNL A   1      42.609  30.518  35.156  1.00  0.00     0.031 C 
ATOM     54  C   UNL A   1      44.343  28.241  31.027  1.00  0.00     0.029 A 
ATOM     55  N   UNL A   1      42.307  29.162  30.896  1.00  0.00    -0.354 N 
ATOM     56  C   UNL A   1      40.569  31.159  34.360  1.00  0.00     0.074 A 
ATOM     57  C   UNL A   1      41.479  31.127  35.480  1.00  0.00     0.031 C 
ATOM     58  C   UNL A   1      43.879  28.022  29.784  1.00  0.00     0.029 A 
ATOM     59  C   UNL A   1      42.525  28.563  29.678  1.00  0.00     0.049 A 
ATOM     60  H   UNL A   1      41.498  29.681  31.106  1.00  0.00     0.167 HD
ATOM     61  C   UNL A   1      39.354  31.754  34.386  1.00  0.00     0.034 A 
ATOM     62  C   UNL A   1      41.704  28.442  28.617  1.00  0.00     0.034 A 
ATOM     63  C   UNL A   1      38.466  31.786  33.257  1.00  0.00     0.049 A 
ATOM     64  C   UNL A   1      40.341  29.081  28.682  1.00  0.00     0.074 A 
ATOM     65  C   UNL A   1      37.219  32.375  33.158  1.00  0.00     0.029 A 
ATOM     66  N   UNL A   1      38.732  31.195  32.031  1.00  0.00    -0.354 N 
ATOM     67  N   UNL A   1      39.799  29.773  29.657  1.00  0.00    -0.248 NA
ATOM     68  C   UNL A   1      39.490  28.954  27.492  1.00  0.00     0.031 C 
ATOM     69  C   UNL A   1      36.716  32.109  31.880  1.00  0.00     0.029 A 
ATOM     70  C   UNL A   1      37.670  31.395  31.169  1.00  0.00     0.049 A 
ATOM     71  H   UNL A   1      39.556  30.704  31.807  1.00  0.00     0.167 HD
ATOM     72  C   UNL A   1      38.563  30.199  29.182  1.00  0.00     0.074 A 
ATOM     73  C   UNL A   1      38.446  29.700  27.827  1.00  0.00     0.031 C 
ATOM     74  C   UNL A   1      37.607  30.930  29.808  1.00  0.00     0.034 A 
BRANCH  61  75
ATOM     75  C   UNL A   1      38.918  32.411  35.669  1.00  0.00     0.023 A 
ATOM     76  C   UNL A   1      39.116  33.794  35.859  1.00  0.00     0.012 A 
ATOM     77  C   UNL A   1      38.270  31.664  36.673  1.00  0.00     0.148 A 
ATOM     78  C   UNL A   1      38.703  34.416  37.037  1.00  0.00     0.002 A 
ATOM     79  C   UNL A   1      37.819  32.300  37.823  1.00  0.00     0.091 A 
ATOM     80  F   UNL A   1      38.115  30.346  36.486  1.00  0.00    -0.205 F 
ATOM     81  C   UNL A   1      38.045  33.672  38.013  1.00  0.00     0.022 A 
BRANCH  79  82
ATOM     82  S   UNL A   1      36.893  31.446  39.104  1.00  0.00     0.127 S 
ATOM     83  O   UNL A   1      37.804  31.541  40.243  1.00  0.00    -0.237 OA
ATOM     84  O   UNL A   1      35.690  32.272  39.213  1.00  0.00    -0.237 OA
ATOM     85  O   UNL A   1      36.662  30.097  38.605  1.00  0.00    -0.744 OA
ENDBRANCH  79  82
ENDBRANCH  61  75
BRANCH  62  86
ATOM     86  C   UNL A   1      42.153  27.701  27.404  1.00  0.00     0.023 A 
ATOM     87  C   UNL A   1      42.642  28.410  26.291  1.00  0.00     0.012 A 
ATOM     88  C   UNL A   1      42.113  26.294  27.357  1.00  0.00     0.148 A 
ATOM     89  C   UNL A   1      43.051  27.733  25.140  1.00  0.00     0.002 A 
ATOM     90  C   UNL A   1      42.576  25.623  26.232  1.00  0.00     0.091 A 
ATOM     91  F   UNL A   1      41.628  25.637  28.419  1.00  0.00    -0.205 F 
ATOM     92  C   UNL A   1      43.028  26.340  25.114  1.00  0.00     0.022 A 
BRANCH  90  93
ATOM     93  S   UNL A   1      42.707  23.833  26.166  1.00  0.00     0.127 S 
ATOM     94  O   UNL A   1      41.338  23.421  26.462  1.00  0.00    -0.237 OA
ATOM     95  O   UNL A   1      43.132  23.612  24.782  1.00  0.00    -0.237 OA
ATOM     96  O   UNL A   1      43.707  23.476  27.162  1.00  0.00    -0.744 OA
ENDBRANCH  90  93
ENDBRANCH  62  86
BRANCH  74  97
ATOM     97  C   UNL A   1      36.378  31.289  29.015  1.00  0.00     0.023 A 
ATOM     98  C   UNL A   1      36.094  32.637  28.718  1.00  0.00     0.012 A 
ATOM     99  C   UNL A   1      35.545  30.275  28.501  1.00  0.00     0.148 A 
ATOM    100  C   UNL A   1      34.976  32.971  27.958  1.00  0.00     0.002 A 
ATOM    101  C   UNL A   1      34.465  30.614  27.698  1.00  0.00     0.091 A 
ATOM    102  F   UNL A   1      35.825  29.000  28.809  1.00  0.00    -0.205 F 
ATOM    103  C   UNL A   1      34.169  31.961  27.438  1.00  0.00     0.022 A 
BRANCH 101 104
ATOM    104  S   UNL A   1      33.436  29.375  26.901  1.00  0.00     0.127 S 
ATOM    105  O   UNL A   1      32.496  30.207  26.152  1.00  0.00    -0.237 OA
ATOM    106  O   UNL A   1      34.404  28.652  26.076  1.00  0.00    -0.237 OA
ATOM    107  O   UNL A   1      32.852  28.586  27.979  1.00  0.00    -0.744 OA
ENDBRANCH 101 104
ENDBRANCH  74  97
ENDBRANCH  48  49
ENDBRANCH  41  43
ENDBRANCH  40  41
ENDBRANCH  39  40
ENDBRANCH   1  39
TORSDOF 18
ENDMDL
MODEL 3
REMARK VINA RESULT:      -8.6      4.821     11.817
REMARK SMILES C[C@H]1[C@H](C)CC[C@@]2(C(=O)OCCOCCOC(=O)c3ccc(-c4c5nc(c(-c6cccc(S(=O)(=O)[O-])c6F)c6ccc([nH]6)c(-c6cccc(S(=O)(=O)[O-])c6F)c6nc(c(-c7cccc(S(=O)(=O)[O-])c7F)c7ccc4[nH]7)C=C6)C=C5)cc3)CC[C@@]3(C)C(=CC[C@@H]4[C@@]5(C)CC[C@H](O)C(C)(C)[C@@H]5CC[C@]43C)[C@H]12
REMARK SMILES IDX 14 1 13 2 12 3 11 4 10 5 8 6 9 7 7 8 1 9 2 10 3 11 104 12
REMARK SMILES IDX 4 13 5 14 86 15 6 16 82 17 84 18 87 19 83 20 85 21 102 22
REMARK SMILES IDX 88 23 89 24 101 25 103 26 90 27 100 28 91 29 92 30 99 31
REMARK SMILES IDX 93 32 96 33 94 34 97 35 98 36 95 37 15 39 16 40 17 41 18 42
REMARK SMILES IDX 19 43 20 44 81 45 21 46 80 47 22 48 23 49 24 50 74 51 25 52
REMARK SMILES IDX 79 53 73 54 75 55 26 56 78 57 72 58 71 59 27 61 59 62 39 63
REMARK SMILES IDX 58 64 40 65 43 66 57 67 76 68 41 69 42 70 56 72 77 73 44 74
REMARK SMILES IDX 28 75 29 76 37 77 30 78 32 79 38 80 31 81 33 82 34 83 35 84
REMARK SMILES IDX 36 85 60 86 61 87 69 88 62 89 64 90 70 91 63 92 65 93 66 94
REMARK SMILES IDX 67 95 68 96 45 97 46 98 54 99 47 100 49 101 55 102 48 103
REMARK SMILES IDX 50 104 51 105 52 106 53 107
REMARK H PARENT 95 38 75 60 43 71
REMARK Flexibility Score: inf
ROOT
ATOM      1  C   UNL A   1      46.393  32.287  26.914  1.00  0.00     0.202 C 
ENDROOT
BRANCH   1   2
ATOM      2  O   UNL A   1      46.005  31.898  28.213  1.00  0.00    -0.374 OA
BRANCH   2   3
ATOM      3  C   UNL A   1      46.167  30.530  28.525  1.00  0.00     0.202 C 
BRANCH   3   4
ATOM      4  C   UNL A   1      45.096  29.630  29.188  1.00  0.00     0.261 C 
BRANCH   4   5
ATOM      5  O   UNL A   1      43.729  29.509  28.722  1.00  0.00    -0.463 OA
BRANCH   5   6
ATOM      6  C   UNL A   1      43.290  28.980  27.557  1.00  0.00     0.312 C 
ATOM      7  O   UNL A   1      43.349  29.676  26.540  1.00  0.00    -0.252 OA
BRANCH   6   8
ATOM      8  C   UNL A   1      43.102  27.435  27.432  1.00  0.00     0.075 C 
ATOM      9  C   UNL A   1      44.299  25.575  30.717  1.00  0.00     0.008 C 
ATOM     10  C   UNL A   1      44.378  26.470  29.471  1.00  0.00    -0.003 C 
ATOM     11  C   UNL A   1      45.506  25.973  28.499  1.00  0.00    -0.011 C 
ATOM     12  C   UNL A   1      42.953  26.653  28.772  1.00  0.00     0.036 C 
ATOM     13  C   UNL A   1      46.926  26.091  29.093  1.00  0.00     0.008 C 
ATOM     14  C   UNL A   1      45.556  26.757  27.186  1.00  0.00     0.005 C 
ATOM     15  C   UNL A   1      41.699  27.282  29.493  1.00  0.00    -0.063 C 
ATOM     16  C   UNL A   1      44.210  26.864  26.524  1.00  0.00     0.020 C 
ATOM     17  C   UNL A   1      41.801  27.182  26.601  1.00  0.00     0.020 C 
ATOM     18  C   UNL A   1      40.320  27.302  28.716  1.00  0.00    -0.006 C 
ATOM     19  C   UNL A   1      41.789  27.932  30.669  1.00  0.00    -0.027 C 
ATOM     20  C   UNL A   1      40.541  27.735  27.246  1.00  0.00     0.013 C 
ATOM     21  C   UNL A   1      39.780  25.848  28.689  1.00  0.00     0.017 C 
ATOM     22  C   UNL A   1      39.208  28.302  29.413  1.00  0.00    -0.020 C 
ATOM     23  C   UNL A   1      40.882  29.071  31.062  1.00  0.00     0.032 C 
ATOM     24  C   UNL A   1      40.013  29.572  29.872  1.00  0.00     0.006 C 
ATOM     25  C   UNL A   1      38.045  28.709  28.474  1.00  0.00     0.008 C 
ATOM     26  C   UNL A   1      38.518  27.593  30.625  1.00  0.00     0.012 C 
ATOM     27  C   UNL A   1      39.244  30.965  30.090  1.00  0.00    -0.025 C 
ATOM     28  C   UNL A   1      37.164  29.822  29.063  1.00  0.00     0.005 C 
ATOM     29  C   UNL A   1      38.981  31.156  31.598  1.00  0.00     0.012 C 
ATOM     30  C   UNL A   1      40.161  32.153  29.628  1.00  0.00     0.010 C 
ATOM     31  C   UNL A   1      37.980  31.114  29.159  1.00  0.00     0.003 C 
ATOM     32  C   UNL A   1      39.504  33.539  29.722  1.00  0.00     0.033 C 
ATOM     33  C   UNL A   1      37.150  32.448  29.352  1.00  0.00    -0.006 C 
ATOM     34  C   UNL A   1      38.118  33.640  29.071  1.00  0.00     0.120 C 
ATOM     35  C   UNL A   1      36.432  32.576  30.715  1.00  0.00     0.014 C 
ATOM     36  C   UNL A   1      36.005  32.539  28.302  1.00  0.00     0.014 C 
BRANCH  34  37
ATOM     37  O   UNL A   1      37.517  34.887  29.429  1.00  0.00    -0.393 OA
ATOM     38  H   UNL A   1      37.664  35.060  30.372  1.00  0.00     0.210 HD
ENDBRANCH  34  37
ENDBRANCH   6   8
ENDBRANCH   5   6
ENDBRANCH   4   5
ENDBRANCH   3   4
ENDBRANCH   2   3
ENDBRANCH   1   2
BRANCH   1  39
ATOM     39  C   UNL A   1      45.173  32.642  26.053  1.00  0.00     0.261 C 
BRANCH  39  40
ATOM     40  O   UNL A   1      45.134  34.019  25.627  1.00  0.00    -0.460 OA
BRANCH  40  41
ATOM     41  C   UNL A   1      43.943  34.642  25.768  1.00  0.00     0.338 C 
ATOM     42  O   UNL A   1      42.992  34.623  24.984  1.00  0.00    -0.246 OA
BRANCH  41  43
ATOM     43  C   UNL A   1      43.866  35.294  27.085  1.00  0.00     0.060 A 
ATOM     44  C   UNL A   1      45.035  35.411  27.853  1.00  0.00     0.016 A 
ATOM     45  C   UNL A   1      42.630  35.685  27.606  1.00  0.00     0.016 A 
ATOM     46  C   UNL A   1      44.962  35.849  29.172  1.00  0.00     0.010 A 
ATOM     47  C   UNL A   1      42.551  36.081  28.943  1.00  0.00     0.010 A 
ATOM     48  C   UNL A   1      43.708  36.100  29.741  1.00  0.00    -0.014 A 
BRANCH  48  49
ATOM     49  C   UNL A   1      43.591  36.072  31.216  1.00  0.00     0.031 A 
ATOM     50  C   UNL A   1      43.862  37.353  31.960  1.00  0.00     0.074 A 
ATOM     51  C   UNL A   1      43.212  34.958  31.864  1.00  0.00     0.049 A 
ATOM     52  N   UNL A   1      43.861  37.584  33.245  1.00  0.00    -0.248 NA
ATOM     53  C   UNL A   1      44.172  38.539  31.139  1.00  0.00     0.031 C 
ATOM     54  C   UNL A   1      42.882  33.684  31.230  1.00  0.00     0.029 A 
ATOM     55  N   UNL A   1      43.057  34.722  33.205  1.00  0.00    -0.354 N 
ATOM     56  C   UNL A   1      44.203  38.924  33.387  1.00  0.00     0.074 A 
ATOM     57  C   UNL A   1      44.406  39.459  32.061  1.00  0.00     0.031 C 
ATOM     58  C   UNL A   1      42.597  32.783  32.187  1.00  0.00     0.029 A 
ATOM     59  C   UNL A   1      42.757  33.413  33.497  1.00  0.00     0.049 A 
ATOM     60  H   UNL A   1      43.153  35.421  33.891  1.00  0.00     0.167 HD
ATOM     61  C   UNL A   1      44.330  39.647  34.524  1.00  0.00     0.034 A 
ATOM     62  C   UNL A   1      42.656  32.796  34.690  1.00  0.00     0.034 A 
ATOM     63  C   UNL A   1      44.113  39.102  35.835  1.00  0.00     0.049 A 
ATOM     64  C   UNL A   1      42.837  33.613  35.943  1.00  0.00     0.074 A 
ATOM     65  C   UNL A   1      44.193  39.741  37.059  1.00  0.00     0.029 A 
ATOM     66  N   UNL A   1      43.780  37.780  36.091  1.00  0.00    -0.354 N 
ATOM     67  N   UNL A   1      43.089  34.896  36.063  1.00  0.00    -0.248 NA
ATOM     68  C   UNL A   1      42.687  32.909  37.223  1.00  0.00     0.031 C 
ATOM     69  C   UNL A   1      43.942  38.794  38.058  1.00  0.00     0.029 A 
ATOM     70  C   UNL A   1      43.659  37.578  37.453  1.00  0.00     0.049 A 
ATOM     71  H   UNL A   1      43.649  37.087  35.404  1.00  0.00     0.167 HD
ATOM     72  C   UNL A   1      43.085  35.160  37.428  1.00  0.00     0.074 A 
ATOM     73  C   UNL A   1      42.789  33.906  38.092  1.00  0.00     0.031 C 
ATOM     74  C   UNL A   1      43.311  36.329  38.079  1.00  0.00     0.034 A 
BRANCH  61  75
ATOM     75  C   UNL A   1      44.721  41.097  34.398  1.00  0.00     0.023 A 
ATOM     76  C   UNL A   1      46.075  41.476  34.508  1.00  0.00     0.012 A 
ATOM     77  C   UNL A   1      43.750  42.081  34.125  1.00  0.00     0.148 A 
ATOM     78  C   UNL A   1      46.451  42.813  34.379  1.00  0.00     0.002 A 
ATOM     79  C   UNL A   1      44.139  43.403  33.950  1.00  0.00     0.091 A 
ATOM     80  F   UNL A   1      42.466  41.705  34.050  1.00  0.00    -0.205 F 
ATOM     81  C   UNL A   1      45.486  43.773  34.089  1.00  0.00     0.022 A 
BRANCH  79  82
ATOM     82  S   UNL A   1      42.984  44.701  33.497  1.00  0.00     0.127 S 
ATOM     83  O   UNL A   1      41.928  44.520  34.492  1.00  0.00    -0.237 OA
ATOM     84  O   UNL A   1      43.793  45.907  33.678  1.00  0.00    -0.237 OA
ATOM     85  O   UNL A   1      42.592  44.432  32.121  1.00  0.00    -0.744 OA
ENDBRANCH  79  82
ENDBRANCH  61  75
BRANCH  62  86
ATOM     86  C   UNL A   1      42.356  31.337  34.756  1.00  0.00     0.023 A 
ATOM     87  C   UNL A   1      41.020  30.898  34.815  1.00  0.00     0.012 A 
ATOM     88  C   UNL A   1      43.391  30.382  34.741  1.00  0.00     0.148 A 
ATOM     89  C   UNL A   1      40.721  29.536  34.894  1.00  0.00     0.002 A 
ATOM     90  C   UNL A   1      43.087  29.027  34.760  1.00  0.00     0.091 A 
ATOM     91  F   UNL A   1      44.658  30.820  34.701  1.00  0.00    -0.205 F 
ATOM     92  C   UNL A   1      41.753  28.601  34.856  1.00  0.00     0.022 A 
BRANCH  90  93
ATOM     93  S   UNL A   1      44.343  27.756  34.579  1.00  0.00     0.127 S 
ATOM     94  O   UNL A   1      44.893  28.065  33.262  1.00  0.00    -0.237 OA
ATOM     95  O   UNL A   1      45.234  28.050  35.704  1.00  0.00    -0.237 OA
ATOM     96  O   UNL A   1      43.637  26.488  34.691  1.00  0.00    -0.744 OA
ENDBRANCH  90  93
ENDBRANCH  62  86
BRANCH  74  97
ATOM     97  C   UNL A   1      43.187  36.323  39.580  1.00  0.00     0.023 A 
ATOM     98  C   UNL A   1      44.282  35.943  40.380  1.00  0.00     0.012 A 
ATOM     99  C   UNL A   1      42.000  36.769  40.194  1.00  0.00     0.148 A 
ATOM    100  C   UNL A   1      44.182  35.966  41.770  1.00  0.00     0.002 A 
ATOM    101  C   UNL A   1      41.928  36.844  41.578  1.00  0.00     0.091 A 
ATOM    102  F   UNL A   1      40.965  37.112  39.413  1.00  0.00    -0.205 F 
ATOM    103  C   UNL A   1      43.011  36.428  42.368  1.00  0.00     0.022 A 
BRANCH 101 104
ATOM    104  S   UNL A   1      40.499  37.523  42.430  1.00  0.00     0.127 S 
ATOM    105  O   UNL A   1      39.418  36.690  41.907  1.00  0.00    -0.237 OA
ATOM    106  O   UNL A   1      40.832  37.281  43.834  1.00  0.00    -0.237 OA
ATOM    107  O   UNL A   1      40.442  38.931  42.057  1.00  0.00    -0.744 OA
ENDBRANCH 101 104
ENDBRANCH  74  97
ENDBRANCH  48  49
ENDBRANCH  41  43
ENDBRANCH  40  41
ENDBRANCH  39  40
ENDBRANCH   1  39
TORSDOF 18
ENDMDL
