MODEL 1
REMARK VINA RESULT:     -10.8      0.000      0.000
REMARK SMILES COCCN1C(=O)C[C@H](C(=O)OCCOCCOC(=O)c2ccc(-c3c4nc(c(-c5cccc(S(=O)(=O)[O-])c5F)c5ccc([nH]5)c(-c5cccc(S(=O)(=O)[O-])c5F)c5nc(c(-c6cccc(S(=O)(=O)[O-])c6F)c6ccc3[nH]6)C=C5)C=C4)cc2)[C@@H]1c1ccccc1N1CCOCC1
REMARK SMILES IDX 15 1 14 2 13 3 12 4 10 5 11 6 9 7 5 8 6 9 84 10 7 11 8 12
REMARK SMILES IDX 4 13 3 14 2 15 1 16 85 17 86 18 90 19 87 20 89 21 88 22
REMARK SMILES IDX 91 23 92 24 96 25 93 26 95 27 94 28 16 29 17 30 18 31 19 32
REMARK SMILES IDX 20 33 21 34 22 35 83 36 23 37 82 38 24 39 25 40 26 41 76 42
REMARK SMILES IDX 27 43 81 44 75 45 77 46 28 47 80 48 74 49 73 50 29 52 61 53
REMARK SMILES IDX 41 54 60 55 42 56 45 57 59 58 78 59 43 60 44 61 58 63 79 64
REMARK SMILES IDX 46 65 30 66 31 67 39 68 32 69 34 70 40 71 33 72 35 73 36 74
REMARK SMILES IDX 37 75 38 76 62 77 63 78 71 79 64 80 66 81 72 82 65 83 67 84
REMARK SMILES IDX 68 85 69 86 70 87 47 88 48 89 56 90 49 91 51 92 57 93 50 94
REMARK SMILES IDX 52 95 53 96 54 97 55 98
REMARK H PARENT 77 51 45 62
REMARK Flexibility Score: inf
ROOT
ATOM      1  O   UNL A   1      31.953  30.767  26.651  1.00  0.00    -0.374 OA
ENDROOT
BRANCH   1   2
ATOM      2  C   UNL A   1      33.350  30.534  26.692  1.00  0.00     0.202 C 
BRANCH   2   3
ATOM      3  C   UNL A   1      33.910  29.159  27.081  1.00  0.00     0.261 C 
BRANCH   3   4
ATOM      4  O   UNL A   1      34.122  28.199  26.052  1.00  0.00    -0.463 OA
BRANCH   4   5
ATOM      5  C   UNL A   1      33.001  27.717  25.460  1.00  0.00     0.312 C 
ATOM      6  O   UNL A   1      32.582  28.055  24.361  1.00  0.00    -0.252 OA
BRANCH   5   7
ATOM      7  C   UNL A   1      32.375  26.595  26.222  1.00  0.00     0.136 C 
ATOM      8  N   UNL A   1      31.476  24.485  26.309  1.00  0.00    -0.332 N 
ATOM      9  C   UNL A   1      30.393  25.326  26.497  1.00  0.00     0.224 C 
ATOM     10  C   UNL A   1      32.628  25.182  25.692  1.00  0.00     0.132 C 
ATOM     11  O   UNL A   1      29.242  25.003  26.751  1.00  0.00    -0.275 OA
ATOM     12  C   UNL A   1      30.861  26.737  26.370  1.00  0.00     0.118 C 
BRANCH   8  13
ATOM     13  C   UNL A   1      31.406  23.045  26.548  1.00  0.00     0.148 C 
BRANCH  13  14
ATOM     14  C   UNL A   1      32.772  22.386  26.812  1.00  0.00     0.181 C 
BRANCH  14  15
ATOM     15  O   UNL A   1      32.916  21.046  26.338  1.00  0.00    -0.383 OA
ATOM     16  C   UNL A   1      32.841  20.891  24.931  1.00  0.00     0.194 C 
ENDBRANCH  14  15
ENDBRANCH  13  14
ENDBRANCH   8  13
BRANCH  10  17
ATOM     17  C   UNL A   1      32.722  25.016  24.162  1.00  0.00    -0.001 A 
ATOM     18  C   UNL A   1      31.699  25.622  23.377  1.00  0.00     0.008 A 
ATOM     19  C   UNL A   1      33.788  24.349  23.473  1.00  0.00     0.042 A 
ATOM     20  C   UNL A   1      31.702  25.610  21.985  1.00  0.00     0.001 A 
ATOM     21  C   UNL A   1      33.745  24.365  22.054  1.00  0.00     0.026 A 
ATOM     22  C   UNL A   1      32.735  24.988  21.321  1.00  0.00     0.002 A 
BRANCH  19  23
ATOM     23  N   UNL A   1      34.898  23.759  24.095  1.00  0.00    -0.367 N 
ATOM     24  C   UNL A   1      35.883  22.982  23.318  1.00  0.00     0.145 C 
ATOM     25  C   UNL A   1      35.575  24.480  25.212  1.00  0.00     0.145 C 
ATOM     26  C   UNL A   1      36.711  22.068  24.253  1.00  0.00     0.181 C 
ATOM     27  C   UNL A   1      36.377  23.507  26.092  1.00  0.00     0.181 C 
ATOM     28  O   UNL A   1      37.353  22.798  25.313  1.00  0.00    -0.378 OA
ENDBRANCH  19  23
ENDBRANCH  10  17
ENDBRANCH   5   7
ENDBRANCH   4   5
ENDBRANCH   3   4
ENDBRANCH   2   3
ENDBRANCH   1   2
BRANCH   1  29
ATOM     29  C   UNL A   1      31.440  32.069  26.918  1.00  0.00     0.202 C 
BRANCH  29  30
ATOM     30  C   UNL A   1      32.398  33.259  26.946  1.00  0.00     0.261 C 
BRANCH  30  31
ATOM     31  O   UNL A   1      32.524  33.825  28.260  1.00  0.00    -0.460 OA
BRANCH  31  32
ATOM     32  C   UNL A   1      33.710  34.435  28.491  1.00  0.00     0.338 C 
ATOM     33  O   UNL A   1      33.898  35.620  28.719  1.00  0.00    -0.246 OA
BRANCH  32  34
ATOM     34  C   UNL A   1      34.772  33.431  28.645  1.00  0.00     0.060 A 
ATOM     35  C   UNL A   1      34.478  32.289  29.402  1.00  0.00     0.016 A 
ATOM     36  C   UNL A   1      36.062  33.667  28.169  1.00  0.00     0.016 A 
ATOM     37  C   UNL A   1      35.493  31.411  29.755  1.00  0.00     0.010 A 
ATOM     38  C   UNL A   1      37.085  32.793  28.539  1.00  0.00     0.010 A 
ATOM     39  C   UNL A   1      36.809  31.699  29.379  1.00  0.00    -0.014 A 
BRANCH  39  40
ATOM     40  C   UNL A   1      37.916  30.992  30.058  1.00  0.00     0.031 A 
ATOM     41  C   UNL A   1      38.237  31.368  31.477  1.00  0.00     0.074 A 
ATOM     42  C   UNL A   1      38.603  30.024  29.429  1.00  0.00     0.049 A 
ATOM     43  N   UNL A   1      39.188  30.930  32.257  1.00  0.00    -0.248 NA
ATOM     44  C   UNL A   1      37.366  32.382  32.100  1.00  0.00     0.031 C 
ATOM     45  C   UNL A   1      38.358  29.569  28.063  1.00  0.00     0.029 A 
ATOM     46  N   UNL A   1      39.670  29.276  29.854  1.00  0.00    -0.354 N 
ATOM     47  C   UNL A   1      39.052  31.632  33.449  1.00  0.00     0.074 A 
ATOM     48  C   UNL A   1      37.934  32.535  33.286  1.00  0.00     0.031 C 
ATOM     49  C   UNL A   1      39.283  28.648  27.742  1.00  0.00     0.029 A 
ATOM     50  C   UNL A   1      40.196  28.475  28.871  1.00  0.00     0.049 A 
ATOM     51  H   UNL A   1      40.022  29.310  30.772  1.00  0.00     0.167 HD
ATOM     52  C   UNL A   1      39.783  31.523  34.582  1.00  0.00     0.034 A 
ATOM     53  C   UNL A   1      41.311  27.721  28.875  1.00  0.00     0.034 A 
ATOM     54  C   UNL A   1      40.891  30.620  34.732  1.00  0.00     0.049 A 
ATOM     55  C   UNL A   1      42.135  27.641  30.133  1.00  0.00     0.074 A 
ATOM     56  C   UNL A   1      41.686  30.408  35.844  1.00  0.00     0.029 A 
ATOM     57  N   UNL A   1      41.371  29.789  33.731  1.00  0.00    -0.354 N 
ATOM     58  N   UNL A   1      41.940  28.235  31.286  1.00  0.00    -0.248 NA
ATOM     59  C   UNL A   1      43.311  26.760  30.104  1.00  0.00     0.031 C 
ATOM     60  C   UNL A   1      42.667  29.470  35.503  1.00  0.00     0.029 A 
ATOM     61  C   UNL A   1      42.459  29.069  34.193  1.00  0.00     0.049 A 
ATOM     62  H   UNL A   1      40.993  29.721  32.825  1.00  0.00     0.167 HD
ATOM     63  C   UNL A   1      42.948  27.777  32.130  1.00  0.00     0.074 A 
ATOM     64  C   UNL A   1      43.738  26.839  31.357  1.00  0.00     0.031 C 
ATOM     65  C   UNL A   1      43.204  28.108  33.420  1.00  0.00     0.034 A 
BRANCH  52  66
ATOM     66  C   UNL A   1      39.394  32.399  35.746  1.00  0.00     0.023 A 
ATOM     67  C   UNL A   1      39.882  33.720  35.821  1.00  0.00     0.012 A 
ATOM     68  C   UNL A   1      38.532  31.924  36.752  1.00  0.00     0.148 A 
ATOM     69  C   UNL A   1      39.550  34.541  36.900  1.00  0.00     0.002 A 
ATOM     70  C   UNL A   1      38.167  32.763  37.798  1.00  0.00     0.091 A 
ATOM     71  F   UNL A   1      38.098  30.657  36.678  1.00  0.00    -0.205 F 
ATOM     72  C   UNL A   1      38.686  34.065  37.882  1.00  0.00     0.022 A 
BRANCH  70  73
ATOM     73  S   UNL A   1      36.999  32.271  39.072  1.00  0.00     0.127 S 
ATOM     74  O   UNL A   1      37.457  33.060  40.214  1.00  0.00    -0.237 OA
ATOM     75  O   UNL A   1      35.723  32.706  38.503  1.00  0.00    -0.237 OA
ATOM     76  O   UNL A   1      37.141  30.829  39.211  1.00  0.00    -0.744 OA
ENDBRANCH  70  73
ENDBRANCH  52  66
BRANCH  53  77
ATOM     77  C   UNL A   1      41.701  26.977  27.645  1.00  0.00     0.023 A 
ATOM     78  C   UNL A   1      42.283  27.663  26.564  1.00  0.00     0.012 A 
ATOM     79  C   UNL A   1      41.535  25.580  27.564  1.00  0.00     0.148 A 
ATOM     80  C   UNL A   1      42.668  26.976  25.411  1.00  0.00     0.002 A 
ATOM     81  C   UNL A   1      41.976  24.894  26.440  1.00  0.00     0.091 A 
ATOM     82  F   UNL A   1      40.967  24.947  28.601  1.00  0.00    -0.205 F 
ATOM     83  C   UNL A   1      42.526  25.591  25.355  1.00  0.00     0.022 A 
BRANCH  81  84
ATOM     84  S   UNL A   1      41.968  23.101  26.341  1.00  0.00     0.127 S 
ATOM     85  O   UNL A   1      40.539  22.805  26.376  1.00  0.00    -0.237 OA
ATOM     86  O   UNL A   1      42.615  22.871  25.048  1.00  0.00    -0.237 OA
ATOM     87  O   UNL A   1      42.738  22.637  27.487  1.00  0.00    -0.744 OA
ENDBRANCH  81  84
ENDBRANCH  53  77
BRANCH  65  88
ATOM     88  C   UNL A   1      44.363  27.424  34.098  1.00  0.00     0.023 A 
ATOM     89  C   UNL A   1      45.641  28.019  34.082  1.00  0.00     0.012 A 
ATOM     90  C   UNL A   1      44.167  26.229  34.818  1.00  0.00     0.148 A 
ATOM     91  C   UNL A   1      46.711  27.415  34.740  1.00  0.00     0.002 A 
ATOM     92  C   UNL A   1      45.226  25.661  35.515  1.00  0.00     0.091 A 
ATOM     93  F   UNL A   1      42.947  25.671  34.808  1.00  0.00    -0.205 F 
ATOM     94  C   UNL A   1      46.502  26.245  35.464  1.00  0.00     0.022 A 
BRANCH  92  95
ATOM     95  S   UNL A   1      45.027  24.211  36.555  1.00  0.00     0.127 S 
ATOM     96  O   UNL A   1      46.418  23.832  36.806  1.00  0.00    -0.237 OA
ATOM     97  O   UNL A   1      44.325  24.756  37.716  1.00  0.00    -0.237 OA
ATOM     98  O   UNL A   1      44.254  23.257  35.773  1.00  0.00    -0.744 OA
ENDBRANCH  92  95
ENDBRANCH  65  88
ENDBRANCH  39  40
ENDBRANCH  32  34
ENDBRANCH  31  32
ENDBRANCH  30  31
ENDBRANCH  29  30
ENDBRANCH   1  29
TORSDOF 22
ENDMDL
MODEL 2
REMARK VINA RESULT:     -10.7      2.198      8.002
REMARK SMILES COCCN1C(=O)C[C@H](C(=O)OCCOCCOC(=O)c2ccc(-c3c4nc(c(-c5cccc(S(=O)(=O)[O-])c5F)c5ccc([nH]5)c(-c5cccc(S(=O)(=O)[O-])c5F)c5nc(c(-c6cccc(S(=O)(=O)[O-])c6F)c6ccc3[nH]6)C=C5)C=C4)cc2)[C@@H]1c1ccccc1N1CCOCC1
REMARK SMILES IDX 15 1 14 2 13 3 12 4 10 5 11 6 9 7 5 8 6 9 84 10 7 11 8 12
REMARK SMILES IDX 4 13 3 14 2 15 1 16 85 17 86 18 90 19 87 20 89 21 88 22
REMARK SMILES IDX 91 23 92 24 96 25 93 26 95 27 94 28 16 29 17 30 18 31 19 32
REMARK SMILES IDX 20 33 21 34 22 35 83 36 23 37 82 38 24 39 25 40 26 41 76 42
REMARK SMILES IDX 27 43 81 44 75 45 77 46 28 47 80 48 74 49 73 50 29 52 61 53
REMARK SMILES IDX 41 54 60 55 42 56 45 57 59 58 78 59 43 60 44 61 58 63 79 64
REMARK SMILES IDX 46 65 30 66 31 67 39 68 32 69 34 70 40 71 33 72 35 73 36 74
REMARK SMILES IDX 37 75 38 76 62 77 63 78 71 79 64 80 66 81 72 82 65 83 67 84
REMARK SMILES IDX 68 85 69 86 70 87 47 88 48 89 56 90 49 91 51 92 57 93 50 94
REMARK SMILES IDX 52 95 53 96 54 97 55 98
REMARK H PARENT 77 51 45 62
REMARK Flexibility Score: inf
ROOT
ATOM      1  O   UNL A   1      31.327  27.330  27.264  1.00  0.00    -0.374 OA
ENDROOT
BRANCH   1   2
ATOM      2  C   UNL A   1      30.972  26.995  25.933  1.00  0.00     0.202 C 
BRANCH   2   3
ATOM      3  C   UNL A   1      30.029  25.821  25.640  1.00  0.00     0.261 C 
BRANCH   3   4
ATOM      4  O   UNL A   1      30.590  24.607  25.155  1.00  0.00    -0.463 OA
BRANCH   4   5
ATOM      5  C   UNL A   1      30.870  23.672  26.097  1.00  0.00     0.312 C 
ATOM      6  O   UNL A   1      30.089  22.822  26.503  1.00  0.00    -0.252 OA
BRANCH   5   7
ATOM      7  C   UNL A   1      32.305  23.675  26.512  1.00  0.00     0.136 C 
ATOM      8  N   UNL A   1      34.475  22.985  26.229  1.00  0.00    -0.332 N 
ATOM      9  C   UNL A   1      34.059  22.339  27.380  1.00  0.00     0.224 C 
ATOM     10  C   UNL A   1      33.338  23.454  25.405  1.00  0.00     0.132 C 
ATOM     11  O   UNL A   1      34.736  21.643  28.123  1.00  0.00    -0.275 OA
ATOM     12  C   UNL A   1      32.618  22.656  27.606  1.00  0.00     0.118 C 
BRANCH   8  13
ATOM     13  C   UNL A   1      35.878  23.038  25.819  1.00  0.00     0.148 C 
BRANCH  13  14
ATOM     14  C   UNL A   1      36.287  21.921  24.842  1.00  0.00     0.181 C 
BRANCH  14  15
ATOM     15  O   UNL A   1      36.612  20.663  25.440  1.00  0.00    -0.383 OA
ATOM     16  C   UNL A   1      35.934  19.543  24.897  1.00  0.00     0.194 C 
ENDBRANCH  14  15
ENDBRANCH  13  14
ENDBRANCH   8  13
BRANCH  10  17
ATOM     17  C   UNL A   1      32.945  22.493  24.265  1.00  0.00    -0.001 A 
ATOM     18  C   UNL A   1      32.701  21.134  24.613  1.00  0.00     0.008 A 
ATOM     19  C   UNL A   1      32.754  22.878  22.897  1.00  0.00     0.042 A 
ATOM     20  C   UNL A   1      32.270  20.180  23.696  1.00  0.00     0.001 A 
ATOM     21  C   UNL A   1      32.315  21.869  22.000  1.00  0.00     0.026 A 
ATOM     22  C   UNL A   1      32.067  20.551  22.386  1.00  0.00     0.002 A 
BRANCH  19  23
ATOM     23  N   UNL A   1      32.893  24.186  22.406  1.00  0.00    -0.367 N 
ATOM     24  C   UNL A   1      33.702  25.188  23.125  1.00  0.00     0.145 C 
ATOM     25  C   UNL A   1      32.992  24.402  20.933  1.00  0.00     0.145 C 
ATOM     26  C   UNL A   1      33.324  26.618  22.668  1.00  0.00     0.181 C 
ATOM     27  C   UNL A   1      32.604  25.842  20.560  1.00  0.00     0.181 C 
ATOM     28  O   UNL A   1      33.437  26.791  21.245  1.00  0.00    -0.378 OA
ENDBRANCH  19  23
ENDBRANCH  10  17
ENDBRANCH   5   7
ENDBRANCH   4   5
ENDBRANCH   3   4
ENDBRANCH   2   3
ENDBRANCH   1   2
BRANCH   1  29
ATOM     29  C   UNL A   1      32.296  28.345  27.509  1.00  0.00     0.202 C 
BRANCH  29  30
ATOM     30  C   UNL A   1      32.134  29.710  26.842  1.00  0.00     0.261 C 
BRANCH  30  31
ATOM     31  O   UNL A   1      33.395  30.280  26.456  1.00  0.00    -0.460 OA
BRANCH  31  32
ATOM     32  C   UNL A   1      33.839  31.256  27.282  1.00  0.00     0.338 C 
ATOM     33  O   UNL A   1      33.184  32.165  27.769  1.00  0.00    -0.246 OA
BRANCH  32  34
ATOM     34  C   UNL A   1      35.216  30.969  27.708  1.00  0.00     0.060 A 
ATOM     35  C   UNL A   1      35.539  29.637  27.998  1.00  0.00     0.016 A 
ATOM     36  C   UNL A   1      36.128  31.999  27.942  1.00  0.00     0.016 A 
ATOM     37  C   UNL A   1      36.753  29.332  28.599  1.00  0.00     0.010 A 
ATOM     38  C   UNL A   1      37.340  31.694  28.562  1.00  0.00     0.010 A 
ATOM     39  C   UNL A   1      37.626  30.370  28.942  1.00  0.00    -0.014 A 
BRANCH  39  40
ATOM     40  C   UNL A   1      38.717  30.096  29.901  1.00  0.00     0.031 A 
ATOM     41  C   UNL A   1      39.750  29.070  29.527  1.00  0.00     0.074 A 
ATOM     42  C   UNL A   1      38.795  30.761  31.064  1.00  0.00     0.049 A 
ATOM     43  N   UNL A   1      40.765  28.623  30.218  1.00  0.00    -0.248 NA
ATOM     44  C   UNL A   1      39.619  28.462  28.191  1.00  0.00     0.031 C 
ATOM     45  C   UNL A   1      37.859  31.789  31.512  1.00  0.00     0.029 A 
ATOM     46  N   UNL A   1      39.691  30.641  32.094  1.00  0.00    -0.354 N 
ATOM     47  C   UNL A   1      41.373  27.664  29.419  1.00  0.00     0.074 A 
ATOM     48  C   UNL A   1      40.608  27.582  28.194  1.00  0.00     0.031 C 
ATOM     49  C   UNL A   1      38.203  32.176  32.752  1.00  0.00     0.029 A 
ATOM     50  C   UNL A   1      39.363  31.402  33.189  1.00  0.00     0.049 A 
ATOM     51  H   UNL A   1      40.491  30.068  32.053  1.00  0.00     0.167 HD
ATOM     52  C   UNL A   1      42.479  26.927  29.675  1.00  0.00     0.034 A 
ATOM     53  C   UNL A   1      39.916  31.434  34.417  1.00  0.00     0.034 A 
ATOM     54  C   UNL A   1      43.232  27.019  30.895  1.00  0.00     0.049 A 
ATOM     55  C   UNL A   1      41.124  30.579  34.697  1.00  0.00     0.074 A 
ATOM     56  C   UNL A   1      44.383  26.340  31.252  1.00  0.00     0.029 A 
ATOM     57  N   UNL A   1      42.898  27.832  31.968  1.00  0.00    -0.354 N 
ATOM     58  N   UNL A   1      41.749  29.747  33.900  1.00  0.00    -0.248 NA
ATOM     59  C   UNL A   1      41.724  30.693  36.034  1.00  0.00     0.031 C 
ATOM     60  C   UNL A   1      44.726  26.720  32.554  1.00  0.00     0.029 A 
ATOM     61  C   UNL A   1      43.813  27.666  32.993  1.00  0.00     0.049 A 
ATOM     62  H   UNL A   1      42.123  28.439  31.996  1.00  0.00     0.167 HD
ATOM     63  C   UNL A   1      42.834  29.262  34.623  1.00  0.00     0.074 A 
ATOM     64  C   UNL A   1      42.790  29.912  35.918  1.00  0.00     0.031 C 
ATOM     65  C   UNL A   1      43.775  28.355  34.258  1.00  0.00     0.034 A 
BRANCH  52  66
ATOM     66  C   UNL A   1      42.937  25.968  28.606  1.00  0.00     0.023 A 
ATOM     67  C   UNL A   1      42.299  24.719  28.465  1.00  0.00     0.012 A 
ATOM     68  C   UNL A   1      43.984  26.311  27.729  1.00  0.00     0.148 A 
ATOM     69  C   UNL A   1      42.721  23.809  27.495  1.00  0.00     0.002 A 
ATOM     70  C   UNL A   1      44.367  25.419  26.734  1.00  0.00     0.091 A 
ATOM     71  F   UNL A   1      44.598  27.492  27.893  1.00  0.00    -0.205 F 
ATOM     72  C   UNL A   1      43.748  24.163  26.624  1.00  0.00     0.022 A 
BRANCH  70  73
ATOM     73  S   UNL A   1      45.627  25.811  25.515  1.00  0.00     0.127 S 
ATOM     74  O   UNL A   1      46.835  25.847  26.338  1.00  0.00    -0.237 OA
ATOM     75  O   UNL A   1      45.543  24.667  24.607  1.00  0.00    -0.237 OA
ATOM     76  O   UNL A   1      45.233  27.083  24.925  1.00  0.00    -0.744 OA
ENDBRANCH  70  73
ENDBRANCH  52  66
BRANCH  53  77
ATOM     77  C   UNL A   1      39.332  32.318  35.464  1.00  0.00     0.023 A 
ATOM     78  C   UNL A   1      38.316  31.831  36.307  1.00  0.00     0.012 A 
ATOM     79  C   UNL A   1      39.815  33.627  35.653  1.00  0.00     0.148 A 
ATOM     80  C   UNL A   1      37.771  32.644  37.303  1.00  0.00     0.002 A 
ATOM     81  C   UNL A   1      39.312  34.409  36.685  1.00  0.00     0.091 A 
ATOM     82  F   UNL A   1      40.776  34.075  34.831  1.00  0.00    -0.205 F 
ATOM     83  C   UNL A   1      38.277  33.926  37.500  1.00  0.00     0.022 A 
BRANCH  81  84
ATOM     84  S   UNL A   1      40.003  36.012  37.106  1.00  0.00     0.127 S 
ATOM     85  O   UNL A   1      41.397  35.676  37.382  1.00  0.00    -0.237 OA
ATOM     86  O   UNL A   1      39.782  36.765  35.871  1.00  0.00    -0.237 OA
ATOM     87  O   UNL A   1      39.231  36.490  38.245  1.00  0.00    -0.744 OA
ENDBRANCH  81  84
ENDBRANCH  53  77
BRANCH  65  88
ATOM     88  C   UNL A   1      44.861  28.038  35.252  1.00  0.00     0.023 A 
ATOM     89  C   UNL A   1      46.109  28.686  35.165  1.00  0.00     0.012 A 
ATOM     90  C   UNL A   1      44.616  27.151  36.320  1.00  0.00     0.148 A 
ATOM     91  C   UNL A   1      47.107  28.430  36.104  1.00  0.00     0.002 A 
ATOM     92  C   UNL A   1      45.597  26.941  37.281  1.00  0.00     0.091 A 
ATOM     93  F   UNL A   1      43.428  26.532  36.376  1.00  0.00    -0.205 F 
ATOM     94  C   UNL A   1      46.848  27.567  37.166  1.00  0.00     0.022 A 
BRANCH  92  95
ATOM     95  S   UNL A   1      45.318  25.926  38.736  1.00  0.00     0.127 S 
ATOM     96  O   UNL A   1      44.985  24.633  38.138  1.00  0.00    -0.237 OA
ATOM     97  O   UNL A   1      46.620  25.973  39.401  1.00  0.00    -0.237 OA
ATOM     98  O   UNL A   1      44.238  26.567  39.473  1.00  0.00    -0.744 OA
ENDBRANCH  92  95
ENDBRANCH  65  88
ENDBRANCH  39  40
ENDBRANCH  32  34
ENDBRANCH  31  32
ENDBRANCH  30  31
ENDBRANCH  29  30
ENDBRANCH   1  29
TORSDOF 22
ENDMDL
MODEL 3
REMARK VINA RESULT:     -10.6      1.813      2.554
REMARK SMILES COCCN1C(=O)C[C@H](C(=O)OCCOCCOC(=O)c2ccc(-c3c4nc(c(-c5cccc(S(=O)(=O)[O-])c5F)c5ccc([nH]5)c(-c5cccc(S(=O)(=O)[O-])c5F)c5nc(c(-c6cccc(S(=O)(=O)[O-])c6F)c6ccc3[nH]6)C=C5)C=C4)cc2)[C@@H]1c1ccccc1N1CCOCC1
REMARK SMILES IDX 15 1 14 2 13 3 12 4 10 5 11 6 9 7 5 8 6 9 84 10 7 11 8 12
REMARK SMILES IDX 4 13 3 14 2 15 1 16 85 17 86 18 90 19 87 20 89 21 88 22
REMARK SMILES IDX 91 23 92 24 96 25 93 26 95 27 94 28 16 29 17 30 18 31 19 32
REMARK SMILES IDX 20 33 21 34 22 35 83 36 23 37 82 38 24 39 25 40 26 41 76 42
REMARK SMILES IDX 27 43 81 44 75 45 77 46 28 47 80 48 74 49 73 50 29 52 61 53
REMARK SMILES IDX 41 54 60 55 42 56 45 57 59 58 78 59 43 60 44 61 58 63 79 64
REMARK SMILES IDX 46 65 30 66 31 67 39 68 32 69 34 70 40 71 33 72 35 73 36 74
REMARK SMILES IDX 37 75 38 76 62 77 63 78 71 79 64 80 66 81 72 82 65 83 67 84
REMARK SMILES IDX 68 85 69 86 70 87 47 88 48 89 56 90 49 91 51 92 57 93 50 94
REMARK SMILES IDX 52 95 53 96 54 97 55 98
REMARK H PARENT 77 51 45 62
REMARK Flexibility Score: inf
ROOT
ATOM      1  O   UNL A   1      30.869  31.065  25.227  1.00  0.00    -0.374 OA
ENDROOT
BRANCH   1   2
ATOM      2  C   UNL A   1      29.888  31.175  24.210  1.00  0.00     0.202 C 
BRANCH   2   3
ATOM      3  C   UNL A   1      29.509  29.966  23.345  1.00  0.00     0.261 C 
BRANCH   3   4
ATOM      4  O   UNL A   1      29.492  28.679  23.951  1.00  0.00    -0.463 OA
BRANCH   4   5
ATOM      5  C   UNL A   1      29.915  27.656  23.168  1.00  0.00     0.312 C 
ATOM      6  O   UNL A   1      30.469  27.780  22.084  1.00  0.00    -0.252 OA
BRANCH   5   7
ATOM      7  C   UNL A   1      29.773  26.322  23.824  1.00  0.00     0.136 C 
ATOM      8  N   UNL A   1      30.535  24.703  25.262  1.00  0.00    -0.332 N 
ATOM      9  C   UNL A   1      30.719  24.156  24.005  1.00  0.00     0.224 C 
ATOM     10  C   UNL A   1      30.387  26.176  25.218  1.00  0.00     0.132 C 
ATOM     11  O   UNL A   1      31.105  23.028  23.739  1.00  0.00    -0.275 OA
ATOM     12  C   UNL A   1      30.332  25.174  22.984  1.00  0.00     0.118 C 
BRANCH   8  13
ATOM     13  C   UNL A   1      30.644  23.914  26.489  1.00  0.00     0.148 C 
BRANCH  13  14
ATOM     14  C   UNL A   1      32.059  23.889  27.093  1.00  0.00     0.181 C 
BRANCH  14  15
ATOM     15  O   UNL A   1      32.886  22.795  26.689  1.00  0.00    -0.383 OA
ATOM     16  C   UNL A   1      33.394  21.998  27.746  1.00  0.00     0.194 C 
ENDBRANCH  14  15
ENDBRANCH  13  14
ENDBRANCH   8  13
BRANCH  10  17
ATOM     17  C   UNL A   1      31.691  26.951  25.492  1.00  0.00    -0.001 A 
ATOM     18  C   UNL A   1      31.669  27.912  26.543  1.00  0.00     0.008 A 
ATOM     19  C   UNL A   1      32.933  26.736  24.808  1.00  0.00     0.042 A 
ATOM     20  C   UNL A   1      32.794  28.628  26.942  1.00  0.00     0.001 A 
ATOM     21  C   UNL A   1      34.050  27.491  25.252  1.00  0.00     0.026 A 
ATOM     22  C   UNL A   1      33.992  28.410  26.300  1.00  0.00     0.002 A 
BRANCH  19  23
ATOM     23  N   UNL A   1      33.136  25.785  23.797  1.00  0.00    -0.367 N 
ATOM     24  C   UNL A   1      33.219  26.186  22.379  1.00  0.00     0.145 C 
ATOM     25  C   UNL A   1      34.038  24.626  24.059  1.00  0.00     0.145 C 
ATOM     26  C   UNL A   1      32.971  24.968  21.457  1.00  0.00     0.181 C 
ATOM     27  C   UNL A   1      33.732  23.461  23.104  1.00  0.00     0.181 C 
ATOM     28  O   UNL A   1      33.862  23.874  21.734  1.00  0.00    -0.378 OA
ENDBRANCH  19  23
ENDBRANCH  10  17
ENDBRANCH   5   7
ENDBRANCH   4   5
ENDBRANCH   3   4
ENDBRANCH   2   3
ENDBRANCH   1   2
BRANCH   1  29
ATOM     29  C   UNL A   1      30.788  31.886  26.388  1.00  0.00     0.202 C 
BRANCH  29  30
ATOM     30  C   UNL A   1      31.878  32.925  26.647  1.00  0.00     0.261 C 
BRANCH  30  31
ATOM     31  O   UNL A   1      32.795  32.507  27.670  1.00  0.00    -0.460 OA
BRANCH  31  32
ATOM     32  C   UNL A   1      33.783  33.397  27.928  1.00  0.00     0.338 C 
ATOM     33  O   UNL A   1      33.660  34.591  28.148  1.00  0.00    -0.246 OA
BRANCH  32  34
ATOM     34  C   UNL A   1      35.058  32.693  28.122  1.00  0.00     0.060 A 
ATOM     35  C   UNL A   1      35.013  31.299  28.265  1.00  0.00     0.016 A 
ATOM     36  C   UNL A   1      36.252  33.395  28.289  1.00  0.00     0.016 A 
ATOM     37  C   UNL A   1      36.150  30.605  28.654  1.00  0.00     0.010 A 
ATOM     38  C   UNL A   1      37.389  32.699  28.699  1.00  0.00     0.010 A 
ATOM     39  C   UNL A   1      37.322  31.314  28.937  1.00  0.00    -0.014 A 
BRANCH  39  40
ATOM     40  C   UNL A   1      38.396  30.643  29.699  1.00  0.00     0.031 A 
ATOM     41  C   UNL A   1      38.621  31.059  31.126  1.00  0.00     0.074 A 
ATOM     42  C   UNL A   1      39.137  29.674  29.138  1.00  0.00     0.049 A 
ATOM     43  N   UNL A   1      39.530  30.656  31.974  1.00  0.00    -0.248 NA
ATOM     44  C   UNL A   1      37.697  32.070  31.669  1.00  0.00     0.031 C 
ATOM     45  C   UNL A   1      38.985  29.182  27.771  1.00  0.00     0.029 A 
ATOM     46  N   UNL A   1      40.188  28.956  29.646  1.00  0.00    -0.354 N 
ATOM     47  C   UNL A   1      39.308  31.383  33.137  1.00  0.00     0.074 A 
ATOM     48  C   UNL A   1      38.187  32.261  32.884  1.00  0.00     0.031 C 
ATOM     49  C   UNL A   1      39.944  28.271  27.531  1.00  0.00     0.029 A 
ATOM     50  C   UNL A   1      40.787  28.141  28.718  1.00  0.00     0.049 A 
ATOM     51  H   UNL A   1      40.482  29.017  30.584  1.00  0.00     0.167 HD
ATOM     52  C   UNL A   1      39.968  31.314  34.316  1.00  0.00     0.034 A 
ATOM     53  C   UNL A   1      41.913  27.408  28.809  1.00  0.00     0.034 A 
ATOM     54  C   UNL A   1      41.080  30.435  34.557  1.00  0.00     0.049 A 
ATOM     55  C   UNL A   1      42.658  27.373  30.117  1.00  0.00     0.074 A 
ATOM     56  C   UNL A   1      41.808  30.263  35.720  1.00  0.00     0.029 A 
ATOM     57  N   UNL A   1      41.635  29.590  33.608  1.00  0.00    -0.354 N 
ATOM     58  N   UNL A   1      42.382  27.989  31.241  1.00  0.00    -0.248 NA
ATOM     59  C   UNL A   1      43.848  26.513  30.182  1.00  0.00     0.031 C 
ATOM     60  C   UNL A   1      42.824  29.336  35.463  1.00  0.00     0.029 A 
ATOM     61  C   UNL A   1      42.704  28.900  34.153  1.00  0.00     0.049 A 
ATOM     62  H   UNL A   1      41.316  29.494  32.681  1.00  0.00     0.167 HD
ATOM     63  C   UNL A   1      43.342  27.570  32.156  1.00  0.00     0.074 A 
ATOM     64  C   UNL A   1      44.195  26.629  31.457  1.00  0.00     0.031 C 
ATOM     65  C   UNL A   1      43.513  27.935  33.452  1.00  0.00     0.034 A 
BRANCH  52  66
ATOM     66  C   UNL A   1      39.494  32.210  35.432  1.00  0.00     0.023 A 
ATOM     67  C   UNL A   1      38.578  31.718  36.384  1.00  0.00     0.012 A 
ATOM     68  C   UNL A   1      39.969  33.530  35.549  1.00  0.00     0.148 A 
ATOM     69  C   UNL A   1      38.112  32.537  37.413  1.00  0.00     0.002 A 
ATOM     70  C   UNL A   1      39.537  34.325  36.605  1.00  0.00     0.091 A 
ATOM     71  F   UNL A   1      40.820  33.990  34.621  1.00  0.00    -0.205 F 
ATOM     72  C   UNL A   1      38.599  33.836  37.528  1.00  0.00     0.022 A 
BRANCH  70  73
ATOM     73  S   UNL A   1      40.163  35.986  36.885  1.00  0.00     0.127 S 
ATOM     74  O   UNL A   1      39.760  36.665  35.655  1.00  0.00    -0.237 OA
ATOM     75  O   UNL A   1      39.420  36.396  38.078  1.00  0.00    -0.237 OA
ATOM     76  O   UNL A   1      41.598  35.846  37.083  1.00  0.00    -0.744 OA
ENDBRANCH  70  73
ENDBRANCH  52  66
BRANCH  53  77
ATOM     77  C   UNL A   1      42.391  26.643  27.624  1.00  0.00     0.023 A 
ATOM     78  C   UNL A   1      43.248  27.255  26.692  1.00  0.00     0.012 A 
ATOM     79  C   UNL A   1      42.030  25.293  27.445  1.00  0.00     0.148 A 
ATOM     80  C   UNL A   1      43.717  26.544  25.585  1.00  0.00     0.002 A 
ATOM     81  C   UNL A   1      42.549  24.573  26.375  1.00  0.00     0.091 A 
ATOM     82  F   UNL A   1      41.203  24.732  28.338  1.00  0.00    -0.205 F 
ATOM     83  C   UNL A   1      43.377  25.202  25.434  1.00  0.00     0.022 A 
BRANCH  81  84
ATOM     84  S   UNL A   1      42.286  22.807  26.183  1.00  0.00     0.127 S 
ATOM     85  O   UNL A   1      40.829  22.714  26.233  1.00  0.00    -0.237 OA
ATOM     86  O   UNL A   1      42.876  22.559  24.868  1.00  0.00    -0.237 OA
ATOM     87  O   UNL A   1      42.997  22.178  27.288  1.00  0.00    -0.744 OA
ENDBRANCH  81  84
ENDBRANCH  53  77
BRANCH  65  88
ATOM     88  C   UNL A   1      44.638  27.289  34.217  1.00  0.00     0.023 A 
ATOM     89  C   UNL A   1      45.911  27.894  34.245  1.00  0.00     0.012 A 
ATOM     90  C   UNL A   1      44.412  26.120  34.971  1.00  0.00     0.148 A 
ATOM     91  C   UNL A   1      46.948  27.326  34.982  1.00  0.00     0.002 A 
ATOM     92  C   UNL A   1      45.437  25.590  35.745  1.00  0.00     0.091 A 
ATOM     93  F   UNL A   1      43.199  25.552  34.918  1.00  0.00    -0.205 F 
ATOM     94  C   UNL A   1      46.709  26.183  35.740  1.00  0.00     0.022 A 
BRANCH  92  95
ATOM     95  S   UNL A   1      45.193  24.179  36.829  1.00  0.00     0.127 S 
ATOM     96  O   UNL A   1      46.555  23.924  37.297  1.00  0.00    -0.237 OA
ATOM     97  O   UNL A   1      44.289  24.721  37.844  1.00  0.00    -0.237 OA
ATOM     98  O   UNL A   1      44.614  23.130  36.001  1.00  0.00    -0.744 OA
ENDBRANCH  92  95
ENDBRANCH  65  88
ENDBRANCH  39  40
ENDBRANCH  32  34
ENDBRANCH  31  32
ENDBRANCH  30  31
ENDBRANCH  29  30
ENDBRANCH   1  29
TORSDOF 22
ENDMDL
