MODEL 1
REMARK VINA RESULT:     -11.1      0.000      0.000
REMARK SMILES CC(C)c1noc(C[N@@H+]2[C@@H](C(=O)OCCOCCOC(=O)c3ccc(-c4c5nc(c(-c6cccc(S(=O)(=O)[O-])c6F)c6ccc([nH]6)c(-c6cccc(S(=O)(=O)[O-])c6F)c6nc(c(-c7cccc(S(=O)(=O)[O-])c7F)c7ccc4[nH]7)C=C6)C=C5)cc3)C[C@H]3CCCC[C@@H]32)n1
REMARK SMILES IDX 16 1 15 2 14 3 13 4 11 5 12 6 10 7 9 8 91 9 85 11 86 12
REMARK SMILES IDX 90 13 87 14 89 15 88 16 8 17 7 18 4 19 5 20 92 21 6 22 2 23
REMARK SMILES IDX 1 24 3 25 17 26 18 27 19 28 20 29 21 30 22 31 23 32 84 33
REMARK SMILES IDX 24 34 83 35 25 36 26 37 27 38 77 39 28 40 82 41 76 42 78 43
REMARK SMILES IDX 29 44 81 45 75 46 74 47 30 49 62 50 42 51 61 52 43 53 46 54
REMARK SMILES IDX 60 55 79 56 44 57 45 58 59 60 80 61 47 62 31 63 32 64 40 65
REMARK SMILES IDX 33 66 35 67 41 68 34 69 36 70 37 71 38 72 39 73 63 74 64 75
REMARK SMILES IDX 72 76 65 77 67 78 73 79 66 80 68 81 69 82 70 83 71 84 48 85
REMARK SMILES IDX 49 86 57 87 50 88 52 89 58 90 51 91 53 92 54 93 55 94 56 95
REMARK H PARENT 9 10 78 48 46 59
REMARK Flexibility Score: inf
ROOT
ATOM      1  O   UNL A   1      37.327  21.164  25.709  1.00  0.00    -0.374 OA
ENDROOT
BRANCH   1   2
ATOM      2  C   UNL A   1      37.506  22.563  25.938  1.00  0.00     0.202 C 
BRANCH   2   3
ATOM      3  C   UNL A   1      37.260  23.487  24.743  1.00  0.00     0.261 C 
BRANCH   3   4
ATOM      4  O   UNL A   1      36.031  24.210  24.900  1.00  0.00    -0.459 OA
BRANCH   4   5
ATOM      5  C   UNL A   1      34.972  23.699  24.211  1.00  0.00     0.365 C 
ATOM      6  O   UNL A   1      34.910  23.621  22.988  1.00  0.00    -0.245 OA
BRANCH   5   7
ATOM      7  C   UNL A   1      33.869  23.224  25.185  1.00  0.00     0.296 C 
ATOM      8  N   UNL A   1      32.545  23.248  24.486  1.00  0.00    -0.313 N 
ATOM      9  C   UNL A   1      32.074  24.627  24.671  1.00  0.00     0.188 C 
ATOM     10  H   UNL A   1      32.611  23.037  23.491  1.00  0.00     0.349 HD
ATOM     11  C   UNL A   1      33.799  24.248  26.325  1.00  0.00     0.087 C 
ATOM     12  C   UNL A   1      32.485  24.983  26.100  1.00  0.00     0.054 C 
ATOM     13  C   UNL A   1      30.636  25.061  24.391  1.00  0.00     0.065 C 
ATOM     14  C   UNL A   1      32.493  26.492  26.272  1.00  0.00     0.010 C 
ATOM     15  C   UNL A   1      30.500  26.571  24.657  1.00  0.00     0.006 C 
ATOM     16  C   UNL A   1      31.075  27.016  26.013  1.00  0.00     0.001 C 
BRANCH   8  17
ATOM     17  C   UNL A   1      31.628  22.152  24.858  1.00  0.00     0.364 C 
BRANCH  17  18
ATOM     18  C   UNL A   1      32.117  20.751  24.708  1.00  0.00     0.281 A 
ATOM     19  C   UNL A   1      32.568  18.812  24.063  1.00  0.00     0.174 A 
ATOM     20  N   UNL A   1      32.477  18.680  25.393  1.00  0.00    -0.062 NA
ATOM     21  N   UNL A   1      32.416  20.095  23.608  1.00  0.00    -0.191 NA
ATOM     22  O   UNL A   1      32.176  19.976  25.829  1.00  0.00    -0.333 OA
BRANCH  19  23
ATOM     23  C   UNL A   1      32.675  17.672  23.101  1.00  0.00     0.055 C 
ATOM     24  C   UNL A   1      32.313  18.104  21.680  1.00  0.00     0.016 C 
ATOM     25  C   UNL A   1      34.034  16.973  23.116  1.00  0.00     0.016 C 
ENDBRANCH  19  23
ENDBRANCH  17  18
ENDBRANCH   8  17
ENDBRANCH   5   7
ENDBRANCH   4   5
ENDBRANCH   3   4
ENDBRANCH   2   3
ENDBRANCH   1   2
BRANCH   1  26
ATOM     26  C   UNL A   1      38.296  20.501  24.897  1.00  0.00     0.202 C 
BRANCH  26  27
ATOM     27  C   UNL A   1      39.248  19.531  25.608  1.00  0.00     0.261 C 
BRANCH  27  28
ATOM     28  O   UNL A   1      39.891  20.133  26.746  1.00  0.00    -0.460 OA
BRANCH  28  29
ATOM     29  C   UNL A   1      41.118  20.649  26.496  1.00  0.00     0.338 C 
ATOM     30  O   UNL A   1      42.008  20.140  25.827  1.00  0.00    -0.246 OA
BRANCH  29  31
ATOM     31  C   UNL A   1      41.197  22.037  26.989  1.00  0.00     0.060 A 
ATOM     32  C   UNL A   1      40.776  23.054  26.122  1.00  0.00     0.016 A 
ATOM     33  C   UNL A   1      41.743  22.347  28.235  1.00  0.00     0.016 A 
ATOM     34  C   UNL A   1      40.949  24.390  26.476  1.00  0.00     0.010 A 
ATOM     35  C   UNL A   1      41.925  23.690  28.584  1.00  0.00     0.010 A 
ATOM     36  C   UNL A   1      41.566  24.716  27.690  1.00  0.00    -0.014 A 
BRANCH  36  37
ATOM     37  C   UNL A   1      41.967  26.119  27.953  1.00  0.00     0.031 A 
ATOM     38  C   UNL A   1      43.351  26.566  27.567  1.00  0.00     0.074 A 
ATOM     39  C   UNL A   1      41.110  26.983  28.530  1.00  0.00     0.049 A 
ATOM     40  N   UNL A   1      43.914  27.736  27.720  1.00  0.00    -0.248 NA
ATOM     41  C   UNL A   1      44.218  25.562  26.927  1.00  0.00     0.031 C 
ATOM     42  C   UNL A   1      39.748  26.667  28.951  1.00  0.00     0.029 A 
ATOM     43  N   UNL A   1      41.277  28.299  28.885  1.00  0.00    -0.354 N 
ATOM     44  C   UNL A   1      45.210  27.599  27.236  1.00  0.00     0.074 A 
ATOM     45  C   UNL A   1      45.352  26.234  26.779  1.00  0.00     0.031 C 
ATOM     46  C   UNL A   1      39.213  27.749  29.543  1.00  0.00     0.029 A 
ATOM     47  C   UNL A   1      40.201  28.827  29.558  1.00  0.00     0.049 A 
ATOM     48  H   UNL A   1      42.090  28.815  28.678  1.00  0.00     0.167 HD
ATOM     49  C   UNL A   1      46.190  28.530  27.168  1.00  0.00     0.034 A 
ATOM     50  C   UNL A   1      40.043  30.032  30.141  1.00  0.00     0.034 A 
ATOM     51  C   UNL A   1      46.035  29.898  27.583  1.00  0.00     0.049 A 
ATOM     52  C   UNL A   1      41.154  31.047  30.045  1.00  0.00     0.074 A 
ATOM     53  C   UNL A   1      46.943  30.936  27.472  1.00  0.00     0.029 A 
ATOM     54  N   UNL A   1      44.909  30.413  28.202  1.00  0.00    -0.354 N 
ATOM     55  N   UNL A   1      42.313  30.951  29.439  1.00  0.00    -0.248 NA
ATOM     56  C   UNL A   1      40.921  32.352  30.683  1.00  0.00     0.031 C 
ATOM     57  C   UNL A   1      46.376  32.075  28.051  1.00  0.00     0.029 A 
ATOM     58  C   UNL A   1      45.106  31.751  28.499  1.00  0.00     0.049 A 
ATOM     59  H   UNL A   1      44.091  29.905  28.401  1.00  0.00     0.167 HD
ATOM     60  C   UNL A   1      42.927  32.190  29.589  1.00  0.00     0.074 A 
ATOM     61  C   UNL A   1      42.004  33.029  30.323  1.00  0.00     0.031 C 
ATOM     62  C   UNL A   1      44.152  32.593  29.171  1.00  0.00     0.034 A 
BRANCH  49  63
ATOM     63  C   UNL A   1      47.522  28.120  26.603  1.00  0.00     0.023 A 
ATOM     64  C   UNL A   1      48.566  27.743  27.471  1.00  0.00     0.012 A 
ATOM     65  C   UNL A   1      47.702  28.007  25.209  1.00  0.00     0.148 A 
ATOM     66  C   UNL A   1      49.775  27.275  26.960  1.00  0.00     0.002 A 
ATOM     67  C   UNL A   1      48.896  27.502  24.710  1.00  0.00     0.091 A 
ATOM     68  F   UNL A   1      46.701  28.391  24.404  1.00  0.00    -0.205 F 
ATOM     69  C   UNL A   1      49.935  27.141  25.582  1.00  0.00     0.022 A 
BRANCH  67  70
ATOM     70  S   UNL A   1      49.170  27.218  22.957  1.00  0.00     0.127 S 
ATOM     71  O   UNL A   1      50.616  26.998  22.918  1.00  0.00    -0.237 OA
ATOM     72  O   UNL A   1      48.365  26.023  22.711  1.00  0.00    -0.237 OA
ATOM     73  O   UNL A   1      48.706  28.418  22.276  1.00  0.00    -0.744 OA
ENDBRANCH  67  70
ENDBRANCH  49  63
BRANCH  50  74
ATOM     74  C   UNL A   1      38.775  30.365  30.851  1.00  0.00     0.023 A 
ATOM     75  C   UNL A   1      38.573  29.906  32.167  1.00  0.00     0.012 A 
ATOM     76  C   UNL A   1      37.764  31.119  30.225  1.00  0.00     0.148 A 
ATOM     77  C   UNL A   1      37.371  30.156  32.831  1.00  0.00     0.002 A 
ATOM     78  C   UNL A   1      36.592  31.413  30.913  1.00  0.00     0.091 A 
ATOM     79  F   UNL A   1      37.962  31.527  28.963  1.00  0.00    -0.205 F 
ATOM     80  C   UNL A   1      36.385  30.917  32.209  1.00  0.00     0.022 A 
BRANCH  78  81
ATOM     81  S   UNL A   1      35.334  32.497  30.226  1.00  0.00     0.127 S 
ATOM     82  O   UNL A   1      34.861  31.721  29.084  1.00  0.00    -0.237 OA
ATOM     83  O   UNL A   1      34.384  32.606  31.335  1.00  0.00    -0.237 OA
ATOM     84  O   UNL A   1      36.028  33.740  29.914  1.00  0.00    -0.744 OA
ENDBRANCH  78  81
ENDBRANCH  50  74
BRANCH  62  85
ATOM     85  C   UNL A   1      44.559  34.017  29.451  1.00  0.00     0.023 A 
ATOM     86  C   UNL A   1      45.200  34.336  30.664  1.00  0.00     0.012 A 
ATOM     87  C   UNL A   1      44.382  35.019  28.477  1.00  0.00     0.148 A 
ATOM     88  C   UNL A   1      45.630  35.638  30.916  1.00  0.00     0.002 A 
ATOM     89  C   UNL A   1      44.857  36.303  28.714  1.00  0.00     0.091 A 
ATOM     90  F   UNL A   1      43.754  34.699  27.335  1.00  0.00    -0.205 F 
ATOM     91  C   UNL A   1      45.471  36.617  29.938  1.00  0.00     0.022 A 
BRANCH  89  92
ATOM     92  S   UNL A   1      44.785  37.599  27.473  1.00  0.00     0.127 S 
ATOM     93  O   UNL A   1      45.075  38.791  28.268  1.00  0.00    -0.237 OA
ATOM     94  O   UNL A   1      45.851  37.208  26.550  1.00  0.00    -0.237 OA
ATOM     95  O   UNL A   1      43.445  37.535  26.906  1.00  0.00    -0.744 OA
ENDBRANCH  89  92
ENDBRANCH  62  85
ENDBRANCH  36  37
ENDBRANCH  29  31
ENDBRANCH  28  29
ENDBRANCH  27  28
ENDBRANCH  26  27
ENDBRANCH   1  26
TORSDOF 20
ENDMDL
MODEL 2
REMARK VINA RESULT:     -10.7      1.464      7.566
REMARK SMILES CC(C)c1noc(C[N@@H+]2[C@@H](C(=O)OCCOCCOC(=O)c3ccc(-c4c5nc(c(-c6cccc(S(=O)(=O)[O-])c6F)c6ccc([nH]6)c(-c6cccc(S(=O)(=O)[O-])c6F)c6nc(c(-c7cccc(S(=O)(=O)[O-])c7F)c7ccc4[nH]7)C=C6)C=C5)cc3)C[C@H]3CCCC[C@@H]32)n1
REMARK SMILES IDX 16 1 15 2 14 3 13 4 11 5 12 6 10 7 9 8 91 9 85 11 86 12
REMARK SMILES IDX 90 13 87 14 89 15 88 16 8 17 7 18 4 19 5 20 92 21 6 22 2 23
REMARK SMILES IDX 1 24 3 25 17 26 18 27 19 28 20 29 21 30 22 31 23 32 84 33
REMARK SMILES IDX 24 34 83 35 25 36 26 37 27 38 77 39 28 40 82 41 76 42 78 43
REMARK SMILES IDX 29 44 81 45 75 46 74 47 30 49 62 50 42 51 61 52 43 53 46 54
REMARK SMILES IDX 60 55 79 56 44 57 45 58 59 60 80 61 47 62 31 63 32 64 40 65
REMARK SMILES IDX 33 66 35 67 41 68 34 69 36 70 37 71 38 72 39 73 63 74 64 75
REMARK SMILES IDX 72 76 65 77 67 78 73 79 66 80 68 81 69 82 70 83 71 84 48 85
REMARK SMILES IDX 49 86 57 87 50 88 52 89 58 90 51 91 53 92 54 93 55 94 56 95
REMARK H PARENT 9 10 78 48 46 59
REMARK Flexibility Score: inf
ROOT
ATOM      1  O   UNL A   1      37.368  21.357  25.766  1.00  0.00    -0.374 OA
ENDROOT
BRANCH   1   2
ATOM      2  C   UNL A   1      37.788  22.668  25.386  1.00  0.00     0.202 C 
BRANCH   2   3
ATOM      3  C   UNL A   1      36.682  23.699  25.154  1.00  0.00     0.261 C 
BRANCH   3   4
ATOM      4  O   UNL A   1      35.604  23.512  26.082  1.00  0.00    -0.459 OA
BRANCH   4   5
ATOM      5  C   UNL A   1      34.513  24.297  25.860  1.00  0.00     0.365 C 
ATOM      6  O   UNL A   1      34.555  25.429  25.388  1.00  0.00    -0.245 OA
BRANCH   5   7
ATOM      7  C   UNL A   1      33.219  23.559  26.277  1.00  0.00     0.296 C 
ATOM      8  N   UNL A   1      32.538  23.021  25.056  1.00  0.00    -0.313 N 
ATOM      9  C   UNL A   1      31.713  24.143  24.590  1.00  0.00     0.188 C 
ATOM     10  H   UNL A   1      33.189  22.743  24.322  1.00  0.00     0.349 HD
ATOM     11  C   UNL A   1      32.282  24.603  26.898  1.00  0.00     0.087 C 
ATOM     12  C   UNL A   1      31.170  24.777  25.871  1.00  0.00     0.054 C 
ATOM     13  C   UNL A   1      30.609  23.988  23.547  1.00  0.00     0.065 C 
ATOM     14  C   UNL A   1      30.701  26.193  25.586  1.00  0.00     0.010 C 
ATOM     15  C   UNL A   1      29.973  25.362  23.270  1.00  0.00     0.006 C 
ATOM     16  C   UNL A   1      29.578  26.130  24.543  1.00  0.00     0.001 C 
BRANCH   8  17
ATOM     17  C   UNL A   1      31.880  21.712  25.241  1.00  0.00     0.364 C 
BRANCH  17  18
ATOM     18  C   UNL A   1      32.628  20.489  24.832  1.00  0.00     0.281 A 
ATOM     19  C   UNL A   1      33.268  18.543  24.407  1.00  0.00     0.174 A 
ATOM     20  N   UNL A   1      34.402  19.173  24.742  1.00  0.00    -0.062 NA
ATOM     21  N   UNL A   1      32.158  19.344  24.387  1.00  0.00    -0.191 NA
ATOM     22  O   UNL A   1      33.978  20.476  25.026  1.00  0.00    -0.333 OA
BRANCH  19  23
ATOM     23  C   UNL A   1      33.143  17.065  24.210  1.00  0.00     0.055 C 
ATOM     24  C   UNL A   1      34.116  16.560  23.144  1.00  0.00     0.016 C 
ATOM     25  C   UNL A   1      33.293  16.253  25.496  1.00  0.00     0.016 C 
ENDBRANCH  19  23
ENDBRANCH  17  18
ENDBRANCH   8  17
ENDBRANCH   5   7
ENDBRANCH   4   5
ENDBRANCH   3   4
ENDBRANCH   2   3
ENDBRANCH   1   2
BRANCH   1  26
ATOM     26  C   UNL A   1      37.706  20.278  24.894  1.00  0.00     0.202 C 
BRANCH  26  27
ATOM     27  C   UNL A   1      38.826  19.338  25.359  1.00  0.00     0.261 C 
BRANCH  27  28
ATOM     28  O   UNL A   1      39.637  19.924  26.392  1.00  0.00    -0.460 OA
BRANCH  28  29
ATOM     29  C   UNL A   1      40.964  19.675  26.280  1.00  0.00     0.338 C 
ATOM     30  O   UNL A   1      41.489  18.629  25.922  1.00  0.00    -0.246 OA
BRANCH  29  31
ATOM     31  C   UNL A   1      41.734  20.919  26.469  1.00  0.00     0.060 A 
ATOM     32  C   UNL A   1      42.096  21.261  27.779  1.00  0.00     0.016 A 
ATOM     33  C   UNL A   1      42.029  21.773  25.406  1.00  0.00     0.016 A 
ATOM     34  C   UNL A   1      42.706  22.486  28.039  1.00  0.00     0.010 A 
ATOM     35  C   UNL A   1      42.633  23.007  25.670  1.00  0.00     0.010 A 
ATOM     36  C   UNL A   1      42.937  23.385  26.991  1.00  0.00    -0.014 A 
BRANCH  36  37
ATOM     37  C   UNL A   1      43.359  24.773  27.299  1.00  0.00     0.031 A 
ATOM     38  C   UNL A   1      42.357  25.724  27.897  1.00  0.00     0.074 A 
ATOM     39  C   UNL A   1      44.617  25.183  27.048  1.00  0.00     0.049 A 
ATOM     40  N   UNL A   1      42.504  26.980  28.227  1.00  0.00    -0.248 NA
ATOM     41  C   UNL A   1      41.008  25.190  28.154  1.00  0.00     0.031 C 
ATOM     42  C   UNL A   1      45.674  24.357  26.469  1.00  0.00     0.029 A 
ATOM     43  N   UNL A   1      45.206  26.410  27.226  1.00  0.00    -0.354 N 
ATOM     44  C   UNL A   1      41.263  27.399  28.690  1.00  0.00     0.074 A 
ATOM     45  C   UNL A   1      40.371  26.263  28.604  1.00  0.00     0.031 C 
ATOM     46  C   UNL A   1      46.774  25.111  26.302  1.00  0.00     0.029 A 
ATOM     47  C   UNL A   1      46.493  26.476  26.747  1.00  0.00     0.049 A 
ATOM     48  H   UNL A   1      44.750  27.170  27.654  1.00  0.00     0.167 HD
ATOM     49  C   UNL A   1      40.900  28.617  29.156  1.00  0.00     0.034 A 
ATOM     50  C   UNL A   1      47.338  27.523  26.656  1.00  0.00     0.034 A 
ATOM     51  C   UNL A   1      41.798  29.733  29.281  1.00  0.00     0.049 A 
ATOM     52  C   UNL A   1      46.903  28.866  27.186  1.00  0.00     0.074 A 
ATOM     53  C   UNL A   1      41.544  30.980  29.824  1.00  0.00     0.029 A 
ATOM     54  N   UNL A   1      43.112  29.744  28.845  1.00  0.00    -0.354 N 
ATOM     55  N   UNL A   1      45.778  29.201  27.769  1.00  0.00    -0.248 NA
ATOM     56  C   UNL A   1      47.870  29.970  27.077  1.00  0.00     0.031 C 
ATOM     57  C   UNL A   1      42.698  31.757  29.689  1.00  0.00     0.029 A 
ATOM     58  C   UNL A   1      43.677  30.984  29.087  1.00  0.00     0.049 A 
ATOM     59  H   UNL A   1      43.575  28.983  28.426  1.00  0.00     0.167 HD
ATOM     60  C   UNL A   1      45.917  30.537  28.132  1.00  0.00     0.074 A 
ATOM     61  C   UNL A   1      47.244  30.945  27.722  1.00  0.00     0.031 C 
ATOM     62  C   UNL A   1      45.022  31.357  28.734  1.00  0.00     0.034 A 
BRANCH  49  63
ATOM     63  C   UNL A   1      39.475  28.815  29.593  1.00  0.00     0.023 A 
ATOM     64  C   UNL A   1      39.094  28.488  30.909  1.00  0.00     0.012 A 
ATOM     65  C   UNL A   1      38.541  29.423  28.729  1.00  0.00     0.148 A 
ATOM     66  C   UNL A   1      37.799  28.750  31.355  1.00  0.00     0.002 A 
ATOM     67  C   UNL A   1      37.265  29.716  29.195  1.00  0.00     0.091 A 
ATOM     68  F   UNL A   1      38.922  29.706  27.476  1.00  0.00    -0.205 F 
ATOM     69  C   UNL A   1      36.891  29.375  30.505  1.00  0.00     0.022 A 
BRANCH  67  70
ATOM     70  S   UNL A   1      36.049  30.591  28.203  1.00  0.00     0.127 S 
ATOM     71  O   UNL A   1      34.864  30.513  29.057  1.00  0.00    -0.237 OA
ATOM     72  O   UNL A   1      36.639  31.924  28.100  1.00  0.00    -0.237 OA
ATOM     73  O   UNL A   1      35.957  29.865  26.945  1.00  0.00    -0.744 OA
ENDBRANCH  67  70
ENDBRANCH  49  63
BRANCH  50  74
ATOM     74  C   UNL A   1      48.692  27.348  26.059  1.00  0.00     0.023 A 
ATOM     75  C   UNL A   1      49.776  26.986  26.883  1.00  0.00     0.012 A 
ATOM     76  C   UNL A   1      48.916  27.555  24.685  1.00  0.00     0.148 A 
ATOM     77  C   UNL A   1      51.064  26.872  26.357  1.00  0.00     0.002 A 
ATOM     78  C   UNL A   1      50.191  27.385  24.156  1.00  0.00     0.091 A 
ATOM     79  F   UNL A   1      47.880  27.924  23.918  1.00  0.00    -0.205 F 
ATOM     80  C   UNL A   1      51.270  27.063  24.993  1.00  0.00     0.022 A 
BRANCH  78  81
ATOM     81  S   UNL A   1      50.509  27.484  22.391  1.00  0.00     0.127 S 
ATOM     82  O   UNL A   1      51.879  26.986  22.304  1.00  0.00    -0.237 OA
ATOM     83  O   UNL A   1      49.490  26.586  21.845  1.00  0.00    -0.237 OA
ATOM     84  O   UNL A   1      50.313  28.885  22.044  1.00  0.00    -0.744 OA
ENDBRANCH  78  81
ENDBRANCH  50  74
BRANCH  62  85
ATOM     85  C   UNL A   1      45.452  32.770  29.035  1.00  0.00     0.023 A 
ATOM     86  C   UNL A   1      46.109  33.059  30.247  1.00  0.00     0.012 A 
ATOM     87  C   UNL A   1      45.280  33.791  28.080  1.00  0.00     0.148 A 
ATOM     88  C   UNL A   1      46.559  34.351  30.517  1.00  0.00     0.002 A 
ATOM     89  C   UNL A   1      45.775  35.064  28.334  1.00  0.00     0.091 A 
ATOM     90  F   UNL A   1      44.637  33.499  26.939  1.00  0.00    -0.205 F 
ATOM     91  C   UNL A   1      46.405  35.349  29.557  1.00  0.00     0.022 A 
BRANCH  89  92
ATOM     92  S   UNL A   1      45.710  36.382  27.115  1.00  0.00     0.127 S 
ATOM     93  O   UNL A   1      46.268  35.724  25.934  1.00  0.00    -0.237 OA
ATOM     94  O   UNL A   1      44.276  36.662  27.034  1.00  0.00    -0.237 OA
ATOM     95  O   UNL A   1      46.507  37.471  27.661  1.00  0.00    -0.744 OA
ENDBRANCH  89  92
ENDBRANCH  62  85
ENDBRANCH  36  37
ENDBRANCH  29  31
ENDBRANCH  28  29
ENDBRANCH  27  28
ENDBRANCH  26  27
ENDBRANCH   1  26
TORSDOF 20
ENDMDL
MODEL 3
REMARK VINA RESULT:     -10.3      5.436      8.655
REMARK SMILES CC(C)c1noc(C[N@@H+]2[C@@H](C(=O)OCCOCCOC(=O)c3ccc(-c4c5nc(c(-c6cccc(S(=O)(=O)[O-])c6F)c6ccc([nH]6)c(-c6cccc(S(=O)(=O)[O-])c6F)c6nc(c(-c7cccc(S(=O)(=O)[O-])c7F)c7ccc4[nH]7)C=C6)C=C5)cc3)C[C@H]3CCCC[C@@H]32)n1
REMARK SMILES IDX 16 1 15 2 14 3 13 4 11 5 12 6 10 7 9 8 91 9 85 11 86 12
REMARK SMILES IDX 90 13 87 14 89 15 88 16 8 17 7 18 4 19 5 20 92 21 6 22 2 23
REMARK SMILES IDX 1 24 3 25 17 26 18 27 19 28 20 29 21 30 22 31 23 32 84 33
REMARK SMILES IDX 24 34 83 35 25 36 26 37 27 38 77 39 28 40 82 41 76 42 78 43
REMARK SMILES IDX 29 44 81 45 75 46 74 47 30 49 62 50 42 51 61 52 43 53 46 54
REMARK SMILES IDX 60 55 79 56 44 57 45 58 59 60 80 61 47 62 31 63 32 64 40 65
REMARK SMILES IDX 33 66 35 67 41 68 34 69 36 70 37 71 38 72 39 73 63 74 64 75
REMARK SMILES IDX 72 76 65 77 67 78 73 79 66 80 68 81 69 82 70 83 71 84 48 85
REMARK SMILES IDX 49 86 57 87 50 88 52 89 58 90 51 91 53 92 54 93 55 94 56 95
REMARK H PARENT 9 10 78 48 46 59
REMARK Flexibility Score: inf
ROOT
ATOM      1  O   UNL A   1      31.638  29.995  26.853  1.00  0.00    -0.374 OA
ENDROOT
BRANCH   1   2
ATOM      2  C   UNL A   1      32.232  28.697  26.840  1.00  0.00     0.202 C 
BRANCH   2   3
ATOM      3  C   UNL A   1      31.422  27.569  27.482  1.00  0.00     0.261 C 
BRANCH   3   4
ATOM      4  O   UNL A   1      30.675  26.847  26.492  1.00  0.00    -0.459 OA
BRANCH   4   5
ATOM      5  C   UNL A   1      31.145  25.598  26.217  1.00  0.00     0.365 C 
ATOM      6  O   UNL A   1      31.425  24.757  27.066  1.00  0.00    -0.245 OA
BRANCH   5   7
ATOM      7  C   UNL A   1      31.265  25.388  24.690  1.00  0.00     0.296 C 
ATOM      8  N   UNL A   1      32.038  26.523  24.091  1.00  0.00    -0.313 N 
ATOM      9  C   UNL A   1      31.018  27.549  23.840  1.00  0.00     0.188 C 
ATOM     10  H   UNL A   1      32.755  26.894  24.714  1.00  0.00     0.349 HD
ATOM     11  C   UNL A   1      29.847  25.449  24.110  1.00  0.00     0.087 C 
ATOM     12  C   UNL A   1      29.801  26.767  23.348  1.00  0.00     0.054 C 
ATOM     13  C   UNL A   1      31.270  28.776  22.965  1.00  0.00     0.065 C 
ATOM     14  C   UNL A   1      28.550  27.614  23.496  1.00  0.00     0.010 C 
ATOM     15  C   UNL A   1      30.006  29.654  22.946  1.00  0.00     0.006 C 
ATOM     16  C   UNL A   1      28.715  28.876  22.640  1.00  0.00     0.001 C 
BRANCH   8  17
ATOM     17  C   UNL A   1      32.926  26.145  22.973  1.00  0.00     0.364 C 
BRANCH  17  18
ATOM     18  C   UNL A   1      33.871  25.011  23.183  1.00  0.00     0.281 A 
ATOM     19  C   UNL A   1      35.451  23.756  23.735  1.00  0.00     0.174 A 
ATOM     20  N   UNL A   1      35.089  23.284  22.534  1.00  0.00    -0.062 NA
ATOM     21  N   UNL A   1      34.675  24.784  24.198  1.00  0.00    -0.191 NA
ATOM     22  O   UNL A   1      34.031  24.121  22.162  1.00  0.00    -0.333 OA
BRANCH  19  23
ATOM     23  C   UNL A   1      36.679  23.334  24.478  1.00  0.00     0.055 C 
ATOM     24  C   UNL A   1      36.580  23.684  25.963  1.00  0.00     0.016 C 
ATOM     25  C   UNL A   1      37.034  21.858  24.302  1.00  0.00     0.016 C 
ENDBRANCH  19  23
ENDBRANCH  17  18
ENDBRANCH   8  17
ENDBRANCH   5   7
ENDBRANCH   4   5
ENDBRANCH   3   4
ENDBRANCH   2   3
ENDBRANCH   1   2
BRANCH   1  26
ATOM     26  C   UNL A   1      32.514  31.122  26.803  1.00  0.00     0.202 C 
BRANCH  26  27
ATOM     27  C   UNL A   1      31.871  32.507  26.948  1.00  0.00     0.261 C 
BRANCH  27  28
ATOM     28  O   UNL A   1      32.837  33.569  26.858  1.00  0.00    -0.460 OA
BRANCH  28  29
ATOM     29  C   UNL A   1      33.274  34.040  28.051  1.00  0.00     0.338 C 
ATOM     30  O   UNL A   1      32.689  34.818  28.794  1.00  0.00    -0.246 OA
BRANCH  29  31
ATOM     31  C   UNL A   1      34.504  33.335  28.458  1.00  0.00     0.060 A 
ATOM     32  C   UNL A   1      34.356  32.122  29.144  1.00  0.00     0.016 A 
ATOM     33  C   UNL A   1      35.771  33.881  28.247  1.00  0.00     0.016 A 
ATOM     34  C   UNL A   1      35.472  31.476  29.670  1.00  0.00     0.010 A 
ATOM     35  C   UNL A   1      36.889  33.236  28.785  1.00  0.00     0.010 A 
ATOM     36  C   UNL A   1      36.740  32.053  29.533  1.00  0.00    -0.014 A 
BRANCH  36  37
ATOM     37  C   UNL A   1      37.883  31.495  30.296  1.00  0.00     0.031 A 
ATOM     38  C   UNL A   1      38.745  30.443  29.652  1.00  0.00     0.074 A 
ATOM     39  C   UNL A   1      38.148  31.918  31.547  1.00  0.00     0.049 A 
ATOM     40  N   UNL A   1      39.779  29.809  30.140  1.00  0.00    -0.248 NA
ATOM     41  C   UNL A   1      38.395  30.049  28.276  1.00  0.00     0.031 C 
ATOM     42  C   UNL A   1      37.384  32.926  32.277  1.00  0.00     0.029 A 
ATOM     43  N   UNL A   1      39.121  31.525  32.432  1.00  0.00    -0.354 N 
ATOM     44  C   UNL A   1      40.177  28.916  29.153  1.00  0.00     0.074 A 
ATOM     45  C   UNL A   1      39.278  29.090  28.033  1.00  0.00     0.031 C 
ATOM     46  C   UNL A   1      37.894  33.047  33.515  1.00  0.00     0.029 A 
ATOM     47  C   UNL A   1      39.008  32.113  33.669  1.00  0.00     0.049 A 
ATOM     48  H   UNL A   1      39.832  30.883  32.202  1.00  0.00     0.167 HD
ATOM     49  C   UNL A   1      41.206  28.036  29.173  1.00  0.00     0.034 A 
ATOM     50  C   UNL A   1      39.708  31.902  34.802  1.00  0.00     0.034 A 
ATOM     51  C   UNL A   1      42.126  27.895  30.268  1.00  0.00     0.049 A 
ATOM     52  C   UNL A   1      40.850  30.918  34.790  1.00  0.00     0.074 A 
ATOM     53  C   UNL A   1      43.251  27.093  30.345  1.00  0.00     0.029 A 
ATOM     54  N   UNL A   1      42.018  28.552  31.482  1.00  0.00    -0.354 N 
ATOM     55  N   UNL A   1      41.312  30.200  33.795  1.00  0.00    -0.248 NA
ATOM     56  C   UNL A   1      41.590  30.739  36.048  1.00  0.00     0.031 C 
ATOM     57  C   UNL A   1      43.809  27.245  31.618  1.00  0.00     0.029 A 
ATOM     58  C   UNL A   1      43.045  28.161  32.322  1.00  0.00     0.049 A 
ATOM     59  H   UNL A   1      41.316  29.203  31.712  1.00  0.00     0.167 HD
ATOM     60  C   UNL A   1      42.417  29.519  34.295  1.00  0.00     0.074 A 
ATOM     61  C   UNL A   1      42.569  29.925  35.676  1.00  0.00     0.031 C 
ATOM     62  C   UNL A   1      43.224  28.624  33.673  1.00  0.00     0.034 A 
BRANCH  49  63
ATOM     63  C   UNL A   1      41.420  27.166  27.965  1.00  0.00     0.023 A 
ATOM     64  C   UNL A   1      41.993  27.714  26.800  1.00  0.00     0.012 A 
ATOM     65  C   UNL A   1      41.150  25.785  28.023  1.00  0.00     0.148 A 
ATOM     66  C   UNL A   1      42.280  26.901  25.704  1.00  0.00     0.002 A 
ATOM     67  C   UNL A   1      41.476  24.975  26.942  1.00  0.00     0.091 A 
ATOM     68  F   UNL A   1      40.586  25.291  29.134  1.00  0.00    -0.205 F 
ATOM     69  C   UNL A   1      42.035  25.532  25.780  1.00  0.00     0.022 A 
BRANCH  67  70
ATOM     70  S   UNL A   1      41.272  23.190  26.971  1.00  0.00     0.127 S 
ATOM     71  O   UNL A   1      39.828  23.057  26.782  1.00  0.00    -0.237 OA
ATOM     72  O   UNL A   1      42.078  22.771  25.825  1.00  0.00    -0.237 OA
ATOM     73  O   UNL A   1      41.773  22.748  28.264  1.00  0.00    -0.744 OA
ENDBRANCH  67  70
ENDBRANCH  49  63
BRANCH  50  74
ATOM     74  C   UNL A   1      39.370  32.652  36.046  1.00  0.00     0.023 A 
ATOM     75  C   UNL A   1      39.908  33.937  36.253  1.00  0.00     0.012 A 
ATOM     76  C   UNL A   1      38.534  32.092  37.031  1.00  0.00     0.148 A 
ATOM     77  C   UNL A   1      39.652  34.634  37.435  1.00  0.00     0.002 A 
ATOM     78  C   UNL A   1      38.237  32.815  38.181  1.00  0.00     0.091 A 
ATOM     79  F   UNL A   1      38.051  30.857  36.830  1.00  0.00    -0.205 F 
ATOM     80  C   UNL A   1      38.810  34.077  38.395  1.00  0.00     0.022 A 
BRANCH  78  81
ATOM     81  S   UNL A   1      37.058  32.220  39.399  1.00  0.00     0.127 S 
ATOM     82  O   UNL A   1      37.744  31.047  39.933  1.00  0.00    -0.237 OA
ATOM     83  O   UNL A   1      36.968  33.354  40.319  1.00  0.00    -0.237 OA
ATOM     84  O   UNL A   1      35.833  31.962  38.652  1.00  0.00    -0.744 OA
ENDBRANCH  78  81
ENDBRANCH  50  74
BRANCH  62  85
ATOM     85  C   UNL A   1      44.377  28.052  34.457  1.00  0.00     0.023 A 
ATOM     86  C   UNL A   1      45.590  28.763  34.539  1.00  0.00     0.012 A 
ATOM     87  C   UNL A   1      44.228  26.852  35.180  1.00  0.00     0.148 A 
ATOM     88  C   UNL A   1      46.649  28.272  35.302  1.00  0.00     0.002 A 
ATOM     89  C   UNL A   1      45.269  26.394  35.979  1.00  0.00     0.091 A 
ATOM     90  F   UNL A   1      43.071  26.181  35.076  1.00  0.00    -0.205 F 
ATOM     91  C   UNL A   1      46.484  27.097  36.032  1.00  0.00     0.022 A 
BRANCH  89  92
ATOM     92  S   UNL A   1      45.108  24.945  37.029  1.00  0.00     0.127 S 
ATOM     93  O   UNL A   1      46.417  24.902  37.679  1.00  0.00    -0.237 OA
ATOM     94  O   UNL A   1      44.002  25.320  37.911  1.00  0.00    -0.237 OA
ATOM     95  O   UNL A   1      44.815  23.834  36.134  1.00  0.00    -0.744 OA
ENDBRANCH  89  92
ENDBRANCH  62  85
ENDBRANCH  36  37
ENDBRANCH  29  31
ENDBRANCH  28  29
ENDBRANCH  27  28
ENDBRANCH  26  27
ENDBRANCH   1  26
TORSDOF 20
ENDMDL
