MODEL 1
REMARK VINA RESULT:     -11.6      0.000      0.000
REMARK SMILES O=C(OCCOCCOC(=O)[C@@H]1CCCN(c2ccc3cc(S(=O)(=O)N4CCCCC4)ccc3n2)C1)c1ccc(-c2c3nc(c(-c4cccc(S(=O)(=O)[O-])c4F)c4ccc([nH]4)c(-c4cccc(S(=O)(=O)[O-])c4F)c4nc(c(-c5cccc(S(=O)(=O)[O-])c5F)c5ccc2[nH]5)C=C4)C=C3)cc1
REMARK SMILES IDX 6 1 5 2 4 3 3 4 2 5 1 6 37 7 38 8 99 9 39 10 98 11 40 12
REMARK SMILES IDX 41 13 42 14 92 15 43 16 97 17 91 18 93 19 44 20 96 21 90 22
REMARK SMILES IDX 89 23 45 25 77 26 57 27 76 28 58 29 61 30 75 31 94 32 59 33
REMARK SMILES IDX 60 34 74 36 95 37 62 38 46 39 47 40 55 41 48 42 50 43 56 44
REMARK SMILES IDX 49 45 51 46 52 47 53 48 54 49 78 50 79 51 87 52 80 53 82 54
REMARK SMILES IDX 88 55 81 56 83 57 84 58 85 59 86 60 63 61 64 62 72 63 65 64
REMARK SMILES IDX 67 65 73 66 66 67 68 68 69 69 70 70 71 71 7 72 8 73 9 74
REMARK SMILES IDX 10 75 11 76 12 77 13 78 36 79 14 80 16 81 15 82 17 83 18 84
REMARK SMILES IDX 35 85 19 86 34 87 20 88 33 89 21 90 32 91 22 92 23 93 24 94
REMARK SMILES IDX 25 95 26 96 27 97 31 98 28 99 30 100 29 101
REMARK H PARENT 93 24 61 35
REMARK Flexibility Score: inf
ROOT
ATOM      1  O   UNL A   1      32.559  29.515  24.482  1.00  0.00    -0.374 OA
ENDROOT
BRANCH   1   2
ATOM      2  C   UNL A   1      31.589  29.810  25.480  1.00  0.00     0.202 C 
BRANCH   2   3
ATOM      3  C   UNL A   1      32.271  30.060  26.827  1.00  0.00     0.261 C 
BRANCH   3   4
ATOM      4  O   UNL A   1      33.617  30.523  26.636  1.00  0.00    -0.460 OA
BRANCH   4   5
ATOM      5  C   UNL A   1      34.245  31.384  27.481  1.00  0.00     0.338 C 
ATOM      6  O   UNL A   1      33.746  32.485  27.702  1.00  0.00    -0.246 OA
BRANCH   5   7
ATOM      7  C   UNL A   1      35.412  30.941  28.305  1.00  0.00     0.060 A 
ATOM      8  C   UNL A   1      35.563  29.674  28.882  1.00  0.00     0.016 A 
ATOM      9  C   UNL A   1      36.468  31.856  28.424  1.00  0.00     0.016 A 
ATOM     10  C   UNL A   1      36.697  29.340  29.609  1.00  0.00     0.010 A 
ATOM     11  C   UNL A   1      37.624  31.520  29.131  1.00  0.00     0.010 A 
ATOM     12  C   UNL A   1      37.729  30.264  29.739  1.00  0.00    -0.014 A 
BRANCH  12  13
ATOM     13  C   UNL A   1      38.871  29.917  30.599  1.00  0.00     0.031 A 
ATOM     14  C   UNL A   1      38.894  30.448  31.997  1.00  0.00     0.074 A 
ATOM     15  C   UNL A   1      39.816  29.078  30.140  1.00  0.00     0.049 A 
ATOM     16  N   UNL A   1      39.814  30.326  32.911  1.00  0.00    -0.248 NA
ATOM     17  C   UNL A   1      37.711  31.217  32.427  1.00  0.00     0.031 C 
ATOM     18  C   UNL A   1      39.815  28.457  28.814  1.00  0.00     0.029 A 
ATOM     19  N   UNL A   1      40.954  28.601  30.733  1.00  0.00    -0.354 N 
ATOM     20  C   UNL A   1      39.354  31.050  34.002  1.00  0.00     0.074 A 
ATOM     21  C   UNL A   1      38.060  31.587  33.650  1.00  0.00     0.031 C 
ATOM     22  C   UNL A   1      40.906  27.683  28.692  1.00  0.00     0.029 A 
ATOM     23  C   UNL A   1      41.704  27.799  29.907  1.00  0.00     0.049 A 
ATOM     24  H   UNL A   1      41.208  28.813  31.660  1.00  0.00     0.167 HD
ATOM     25  C   UNL A   1      39.970  31.250  35.188  1.00  0.00     0.034 A 
ATOM     26  C   UNL A   1      42.919  27.254  30.108  1.00  0.00     0.034 A 
ATOM     27  C   UNL A   1      41.251  30.687  35.511  1.00  0.00     0.049 A 
ATOM     28  C   UNL A   1      43.590  27.506  31.432  1.00  0.00     0.074 A 
ATOM     29  C   UNL A   1      41.997  30.839  36.663  1.00  0.00     0.029 A 
ATOM     30  N   UNL A   1      41.977  29.860  34.663  1.00  0.00    -0.354 N 
ATOM     31  N   UNL A   1      43.140  28.174  32.468  1.00  0.00    -0.248 NA
ATOM     32  C   UNL A   1      44.925  26.926  31.623  1.00  0.00     0.031 C 
ATOM     33  C   UNL A   1      43.185  30.115  36.504  1.00  0.00     0.029 A 
ATOM     34  C   UNL A   1      43.166  29.494  35.262  1.00  0.00     0.049 A 
ATOM     35  H   UNL A   1      41.686  29.576  33.766  1.00  0.00     0.167 HD
ATOM     36  C   UNL A   1      44.126  28.085  33.441  1.00  0.00     0.074 A 
ATOM     37  C   UNL A   1      45.186  27.269  32.877  1.00  0.00     0.031 C 
ATOM     38  C   UNL A   1      44.171  28.640  34.677  1.00  0.00     0.034 A 
BRANCH  25  39
ATOM     39  C   UNL A   1      39.273  32.134  36.184  1.00  0.00     0.023 A 
ATOM     40  C   UNL A   1      39.562  33.512  36.229  1.00  0.00     0.012 A 
ATOM     41  C   UNL A   1      38.346  31.590  37.096  1.00  0.00     0.148 A 
ATOM     42  C   UNL A   1      38.967  34.330  37.190  1.00  0.00     0.002 A 
ATOM     43  C   UNL A   1      37.730  32.417  38.026  1.00  0.00     0.091 A 
ATOM     44  F   UNL A   1      38.110  30.271  37.055  1.00  0.00    -0.205 F 
ATOM     45  C   UNL A   1      38.047  33.784  38.083  1.00  0.00     0.022 A 
BRANCH  43  46
ATOM     46  S   UNL A   1      36.499  31.819  39.190  1.00  0.00     0.127 S 
ATOM     47  O   UNL A   1      35.350  32.661  38.863  1.00  0.00    -0.237 OA
ATOM     48  O   UNL A   1      36.360  30.417  38.794  1.00  0.00    -0.237 OA
ATOM     49  O   UNL A   1      37.065  32.023  40.516  1.00  0.00    -0.744 OA
ENDBRANCH  43  46
ENDBRANCH  25  39
BRANCH  26  50
ATOM     50  C   UNL A   1      43.558  26.431  29.040  1.00  0.00     0.023 A 
ATOM     51  C   UNL A   1      43.431  25.029  29.067  1.00  0.00     0.012 A 
ATOM     52  C   UNL A   1      44.251  27.033  27.970  1.00  0.00     0.148 A 
ATOM     53  C   UNL A   1      43.996  24.244  28.059  1.00  0.00     0.002 A 
ATOM     54  C   UNL A   1      44.762  26.250  26.941  1.00  0.00     0.091 A 
ATOM     55  F   UNL A   1      44.386  28.367  27.971  1.00  0.00    -0.205 F 
ATOM     56  C   UNL A   1      44.649  24.853  26.991  1.00  0.00     0.022 A 
BRANCH  54  57
ATOM     57  S   UNL A   1      45.496  26.970  25.467  1.00  0.00     0.127 S 
ATOM     58  O   UNL A   1      45.917  25.782  24.730  1.00  0.00    -0.237 OA
ATOM     59  O   UNL A   1      44.365  27.691  24.879  1.00  0.00    -0.237 OA
ATOM     60  O   UNL A   1      46.567  27.835  25.948  1.00  0.00    -0.744 OA
ENDBRANCH  54  57
ENDBRANCH  26  50
BRANCH  38  61
ATOM     61  C   UNL A   1      45.394  28.370  35.507  1.00  0.00     0.023 A 
ATOM     62  C   UNL A   1      46.475  29.271  35.464  1.00  0.00     0.012 A 
ATOM     63  C   UNL A   1      45.425  27.285  36.402  1.00  0.00     0.148 A 
ATOM     64  C   UNL A   1      47.583  29.081  36.287  1.00  0.00     0.002 A 
ATOM     65  C   UNL A   1      46.510  27.129  37.252  1.00  0.00     0.091 A 
ATOM     66  F   UNL A   1      44.391  26.428  36.408  1.00  0.00    -0.205 F 
ATOM     67  C   UNL A   1      47.595  28.020  37.190  1.00  0.00     0.022 A 
BRANCH  65  68
ATOM     68  S   UNL A   1      46.555  25.854  38.517  1.00  0.00     0.127 S 
ATOM     69  O   UNL A   1      47.818  26.148  39.192  1.00  0.00    -0.237 OA
ATOM     70  O   UNL A   1      45.358  26.151  39.304  1.00  0.00    -0.237 OA
ATOM     71  O   UNL A   1      46.505  24.584  37.803  1.00  0.00    -0.744 OA
ENDBRANCH  65  68
ENDBRANCH  38  61
ENDBRANCH  12  13
ENDBRANCH   5   7
ENDBRANCH   4   5
ENDBRANCH   3   4
ENDBRANCH   2   3
ENDBRANCH   1   2
BRANCH   1  72
ATOM     72  C   UNL A   1      32.241  28.499  23.540  1.00  0.00     0.202 C 
BRANCH  72  73
ATOM     73  C   UNL A   1      32.865  27.174  23.967  1.00  0.00     0.261 C 
BRANCH  73  74
ATOM     74  O   UNL A   1      32.178  26.075  23.341  1.00  0.00    -0.463 OA
BRANCH  74  75
ATOM     75  C   UNL A   1      32.990  25.167  22.726  1.00  0.00     0.310 C 
ATOM     76  O   UNL A   1      34.139  25.376  22.369  1.00  0.00    -0.252 OA
BRANCH  75  77
ATOM     77  C   UNL A   1      32.245  23.872  22.518  1.00  0.00     0.118 C 
ATOM     78  C   UNL A   1      30.996  23.762  23.407  1.00  0.00     0.019 C 
ATOM     79  C   UNL A   1      33.219  22.732  22.766  1.00  0.00     0.133 C 
ATOM     80  C   UNL A   1      31.318  23.505  24.884  1.00  0.00     0.022 C 
ATOM     81  N   UNL A   1      33.464  22.587  24.187  1.00  0.00    -0.356 N 
ATOM     82  C   UNL A   1      32.326  22.367  25.069  1.00  0.00     0.118 C 
BRANCH  81  83
ATOM     83  C   UNL A   1      34.712  22.733  24.745  1.00  0.00     0.129 A 
ATOM     84  C   UNL A   1      35.117  23.912  25.368  1.00  0.00     0.047 A 
ATOM     85  N   UNL A   1      35.544  21.679  24.663  1.00  0.00    -0.231 NA
ATOM     86  C   UNL A   1      36.376  24.007  25.950  1.00  0.00     0.014 A 
ATOM     87  C   UNL A   1      36.778  21.788  25.166  1.00  0.00     0.073 A 
ATOM     88  C   UNL A   1      37.249  22.934  25.836  1.00  0.00     0.002 A 
ATOM     89  C   UNL A   1      37.646  20.733  24.981  1.00  0.00     0.030 A 
ATOM     90  C   UNL A   1      38.559  22.990  26.335  1.00  0.00     0.032 A 
ATOM     91  C   UNL A   1      38.965  20.793  25.431  1.00  0.00     0.024 A 
ATOM     92  C   UNL A   1      39.424  21.917  26.118  1.00  0.00     0.083 A 
BRANCH  92  93
ATOM     93  S   UNL A   1      41.112  22.113  26.669  1.00  0.00     0.243 S 
ATOM     94  O   UNL A   1      41.594  23.329  26.050  1.00  0.00    -0.207 OA
ATOM     95  O   UNL A   1      41.101  21.931  28.104  1.00  0.00    -0.207 OA
BRANCH  93  96
ATOM     96  N   UNL A   1      42.001  20.816  25.984  1.00  0.00    -0.198 NA
ATOM     97  C   UNL A   1      43.342  21.179  25.462  1.00  0.00     0.102 C 
ATOM     98  C   UNL A   1      41.784  19.501  26.634  1.00  0.00     0.102 C 
ATOM     99  C   UNL A   1      44.127  19.992  24.925  1.00  0.00     0.017 C 
ATOM    100  C   UNL A   1      42.591  18.386  25.994  1.00  0.00     0.017 C 
ATOM    101  C   UNL A   1      44.048  18.787  25.845  1.00  0.00     0.003 C 
ENDBRANCH  93  96
ENDBRANCH  92  93
ENDBRANCH  81  83
ENDBRANCH  75  77
ENDBRANCH  74  75
ENDBRANCH  73  74
ENDBRANCH  72  73
ENDBRANCH   1  72
TORSDOF 20
ENDMDL
MODEL 2
REMARK VINA RESULT:     -11.1      2.843      4.268
REMARK SMILES O=C(OCCOCCOC(=O)[C@@H]1CCCN(c2ccc3cc(S(=O)(=O)N4CCCCC4)ccc3n2)C1)c1ccc(-c2c3nc(c(-c4cccc(S(=O)(=O)[O-])c4F)c4ccc([nH]4)c(-c4cccc(S(=O)(=O)[O-])c4F)c4nc(c(-c5cccc(S(=O)(=O)[O-])c5F)c5ccc2[nH]5)C=C4)C=C3)cc1
REMARK SMILES IDX 6 1 5 2 4 3 3 4 2 5 1 6 37 7 38 8 99 9 39 10 98 11 40 12
REMARK SMILES IDX 41 13 42 14 92 15 43 16 97 17 91 18 93 19 44 20 96 21 90 22
REMARK SMILES IDX 89 23 45 25 77 26 57 27 76 28 58 29 61 30 75 31 94 32 59 33
REMARK SMILES IDX 60 34 74 36 95 37 62 38 46 39 47 40 55 41 48 42 50 43 56 44
REMARK SMILES IDX 49 45 51 46 52 47 53 48 54 49 78 50 79 51 87 52 80 53 82 54
REMARK SMILES IDX 88 55 81 56 83 57 84 58 85 59 86 60 63 61 64 62 72 63 65 64
REMARK SMILES IDX 67 65 73 66 66 67 68 68 69 69 70 70 71 71 7 72 8 73 9 74
REMARK SMILES IDX 10 75 11 76 12 77 13 78 36 79 14 80 16 81 15 82 17 83 18 84
REMARK SMILES IDX 35 85 19 86 34 87 20 88 33 89 21 90 32 91 22 92 23 93 24 94
REMARK SMILES IDX 25 95 26 96 27 97 31 98 28 99 30 100 29 101
REMARK H PARENT 93 24 61 35
REMARK Flexibility Score: inf
ROOT
ATOM      1  O   UNL A   1      33.699  31.536  28.251  1.00  0.00    -0.374 OA
ENDROOT
BRANCH   1   2
ATOM      2  C   UNL A   1      32.628  32.240  27.632  1.00  0.00     0.202 C 
BRANCH   2   3
ATOM      3  C   UNL A   1      33.020  33.700  27.393  1.00  0.00     0.261 C 
BRANCH   3   4
ATOM      4  O   UNL A   1      32.376  34.561  28.344  1.00  0.00    -0.460 OA
BRANCH   4   5
ATOM      5  C   UNL A   1      33.014  35.129  29.402  1.00  0.00     0.338 C 
ATOM      6  O   UNL A   1      32.507  36.096  29.965  1.00  0.00    -0.246 OA
BRANCH   5   7
ATOM      7  C   UNL A   1      34.208  34.476  30.023  1.00  0.00     0.060 A 
ATOM      8  C   UNL A   1      35.535  34.654  29.612  1.00  0.00     0.016 A 
ATOM      9  C   UNL A   1      33.962  33.693  31.161  1.00  0.00     0.016 A 
ATOM     10  C   UNL A   1      36.585  34.028  30.269  1.00  0.00     0.010 A 
ATOM     11  C   UNL A   1      35.015  33.081  31.844  1.00  0.00     0.010 A 
ATOM     12  C   UNL A   1      36.327  33.236  31.384  1.00  0.00    -0.014 A 
BRANCH  12  13
ATOM     13  C   UNL A   1      37.449  32.506  31.994  1.00  0.00     0.031 A 
ATOM     14  C   UNL A   1      37.896  32.909  33.364  1.00  0.00     0.074 A 
ATOM     15  C   UNL A   1      37.989  31.458  31.348  1.00  0.00     0.049 A 
ATOM     16  N   UNL A   1      38.891  32.456  34.073  1.00  0.00    -0.248 NA
ATOM     17  C   UNL A   1      37.108  33.963  34.029  1.00  0.00     0.031 C 
ATOM     18  C   UNL A   1      37.549  30.959  30.044  1.00  0.00     0.029 A 
ATOM     19  N   UNL A   1      39.017  30.625  31.697  1.00  0.00    -0.354 N 
ATOM     20  C   UNL A   1      38.887  33.206  35.241  1.00  0.00     0.074 A 
ATOM     21  C   UNL A   1      37.777  34.127  35.160  1.00  0.00     0.031 C 
ATOM     22  C   UNL A   1      38.307  29.905  29.699  1.00  0.00     0.029 A 
ATOM     23  C   UNL A   1      39.317  29.694  30.730  1.00  0.00     0.049 A 
ATOM     24  H   UNL A   1      39.494  30.687  32.556  1.00  0.00     0.167 HD
ATOM     25  C   UNL A   1      39.747  33.132  36.280  1.00  0.00     0.034 A 
ATOM     26  C   UNL A   1      40.323  28.800  30.679  1.00  0.00     0.034 A 
ATOM     27  C   UNL A   1      40.832  32.192  36.335  1.00  0.00     0.049 A 
ATOM     28  C   UNL A   1      41.275  28.749  31.843  1.00  0.00     0.074 A 
ATOM     29  C   UNL A   1      41.792  32.035  37.316  1.00  0.00     0.029 A 
ATOM     30  N   UNL A   1      41.097  31.247  35.352  1.00  0.00    -0.354 N 
ATOM     31  N   UNL A   1      41.255  29.448  32.954  1.00  0.00    -0.248 NA
ATOM     32  C   UNL A   1      42.380  27.787  31.757  1.00  0.00     0.031 C 
ATOM     33  C   UNL A   1      42.650  31.004  36.915  1.00  0.00     0.029 A 
ATOM     34  C   UNL A   1      42.209  30.504  35.697  1.00  0.00     0.049 A 
ATOM     35  H   UNL A   1      40.570  31.125  34.529  1.00  0.00     0.167 HD
ATOM     36  C   UNL A   1      42.331  29.002  33.708  1.00  0.00     0.074 A 
ATOM     37  C   UNL A   1      42.966  27.949  32.937  1.00  0.00     0.031 C 
ATOM     38  C   UNL A   1      42.776  29.432  34.915  1.00  0.00     0.034 A 
BRANCH  25  39
ATOM     39  C   UNL A   1      39.554  34.112  37.403  1.00  0.00     0.023 A 
ATOM     40  C   UNL A   1      40.003  35.441  37.266  1.00  0.00     0.012 A 
ATOM     41  C   UNL A   1      38.948  33.707  38.609  1.00  0.00     0.148 A 
ATOM     42  C   UNL A   1      39.884  36.342  38.325  1.00  0.00     0.002 A 
ATOM     43  C   UNL A   1      38.800  34.619  39.646  1.00  0.00     0.091 A 
ATOM     44  F   UNL A   1      38.556  32.430  38.729  1.00  0.00    -0.205 F 
ATOM     45  C   UNL A   1      39.278  35.933  39.511  1.00  0.00     0.022 A 
BRANCH  43  46
ATOM     46  S   UNL A   1      37.993  34.203  41.196  1.00  0.00     0.127 S 
ATOM     47  O   UNL A   1      37.872  35.516  41.827  1.00  0.00    -0.237 OA
ATOM     48  O   UNL A   1      36.727  33.628  40.737  1.00  0.00    -0.237 OA
ATOM     49  O   UNL A   1      38.878  33.264  41.871  1.00  0.00    -0.744 OA
ENDBRANCH  43  46
ENDBRANCH  25  39
BRANCH  26  50
ATOM     50  C   UNL A   1      40.466  27.900  29.497  1.00  0.00     0.023 A 
ATOM     51  C   UNL A   1      39.652  26.757  29.386  1.00  0.00     0.012 A 
ATOM     52  C   UNL A   1      41.373  28.197  28.460  1.00  0.00     0.148 A 
ATOM     53  C   UNL A   1      39.750  25.919  28.272  1.00  0.00     0.002 A 
ATOM     54  C   UNL A   1      41.426  27.390  27.328  1.00  0.00     0.091 A 
ATOM     55  F   UNL A   1      42.160  29.274  28.592  1.00  0.00    -0.205 F 
ATOM     56  C   UNL A   1      40.626  26.242  27.238  1.00  0.00     0.022 A 
BRANCH  54  57
ATOM     57  S   UNL A   1      42.430  27.814  25.899  1.00  0.00     0.127 S 
ATOM     58  O   UNL A   1      41.909  29.132  25.546  1.00  0.00    -0.237 OA
ATOM     59  O   UNL A   1      43.781  27.816  26.460  1.00  0.00    -0.237 OA
ATOM     60  O   UNL A   1      42.191  26.754  24.927  1.00  0.00    -0.744 OA
ENDBRANCH  54  57
ENDBRANCH  26  50
BRANCH  38  61
ATOM     61  C   UNL A   1      43.991  28.754  35.481  1.00  0.00     0.023 A 
ATOM     62  C   UNL A   1      45.273  29.233  35.147  1.00  0.00     0.012 A 
ATOM     63  C   UNL A   1      43.858  27.714  36.419  1.00  0.00     0.148 A 
ATOM     64  C   UNL A   1      46.408  28.670  35.724  1.00  0.00     0.002 A 
ATOM     65  C   UNL A   1      44.990  27.190  37.027  1.00  0.00     0.091 A 
ATOM     66  F   UNL A   1      42.627  27.261  36.704  1.00  0.00    -0.205 F 
ATOM     67  C   UNL A   1      46.267  27.660  36.673  1.00  0.00     0.022 A 
BRANCH  65  68
ATOM     68  S   UNL A   1      44.889  25.964  38.335  1.00  0.00     0.127 S 
ATOM     69  O   UNL A   1      46.298  25.775  38.676  1.00  0.00    -0.237 OA
ATOM     70  O   UNL A   1      44.102  26.658  39.354  1.00  0.00    -0.237 OA
ATOM     71  O   UNL A   1      44.225  24.808  37.746  1.00  0.00    -0.744 OA
ENDBRANCH  65  68
ENDBRANCH  38  61
ENDBRANCH  12  13
ENDBRANCH   5   7
ENDBRANCH   4   5
ENDBRANCH   3   4
ENDBRANCH   2   3
ENDBRANCH   1   2
BRANCH   1  72
ATOM     72  C   UNL A   1      34.075  30.289  27.684  1.00  0.00     0.202 C 
BRANCH  72  73
ATOM     73  C   UNL A   1      33.755  30.273  26.193  1.00  0.00     0.261 C 
BRANCH  73  74
ATOM     74  O   UNL A   1      33.335  28.957  25.788  1.00  0.00    -0.463 OA
BRANCH  74  75
ATOM     75  C   UNL A   1      32.007  28.845  25.491  1.00  0.00     0.310 C 
ATOM     76  O   UNL A   1      31.185  28.229  26.153  1.00  0.00    -0.252 OA
BRANCH  75  77
ATOM     77  C   UNL A   1      31.708  29.568  24.202  1.00  0.00     0.118 C 
ATOM     78  C   UNL A   1      30.207  29.585  23.870  1.00  0.00     0.019 C 
ATOM     79  C   UNL A   1      32.524  28.911  23.101  1.00  0.00     0.133 C 
ATOM     80  C   UNL A   1      29.670  28.229  23.400  1.00  0.00     0.022 C 
ATOM     81  N   UNL A   1      31.939  27.632  22.745  1.00  0.00    -0.356 N 
ATOM     82  C   UNL A   1      30.548  27.601  22.314  1.00  0.00     0.118 C 
BRANCH  81  83
ATOM     83  C   UNL A   1      32.615  26.443  22.878  1.00  0.00     0.129 A 
ATOM     84  C   UNL A   1      32.521  25.423  21.935  1.00  0.00     0.047 A 
ATOM     85  N   UNL A   1      33.383  26.297  23.973  1.00  0.00    -0.231 NA
ATOM     86  C   UNL A   1      33.248  24.248  22.089  1.00  0.00     0.014 A 
ATOM     87  C   UNL A   1      34.035  25.144  24.158  1.00  0.00     0.073 A 
ATOM     88  C   UNL A   1      34.013  24.080  23.235  1.00  0.00     0.002 A 
ATOM     89  C   UNL A   1      34.733  24.978  25.335  1.00  0.00     0.030 A 
ATOM     90  C   UNL A   1      34.712  22.890  23.489  1.00  0.00     0.032 A 
ATOM     91  C   UNL A   1      35.395  23.784  25.621  1.00  0.00     0.024 A 
ATOM     92  C   UNL A   1      35.395  22.739  24.697  1.00  0.00     0.083 A 
BRANCH  92  93
ATOM     93  S   UNL A   1      36.154  21.152  25.005  1.00  0.00     0.243 S 
ATOM     94  O   UNL A   1      37.163  20.987  23.981  1.00  0.00    -0.207 OA
ATOM     95  O   UNL A   1      36.475  21.114  26.415  1.00  0.00    -0.207 OA
BRANCH  93  96
ATOM     96  N   UNL A   1      34.946  19.970  24.712  1.00  0.00    -0.198 NA
ATOM     97  C   UNL A   1      35.448  18.584  24.543  1.00  0.00     0.102 C 
ATOM     98  C   UNL A   1      33.655  20.217  25.398  1.00  0.00     0.102 C 
ATOM     99  C   UNL A   1      34.344  17.556  24.352  1.00  0.00     0.017 C 
ATOM    100  C   UNL A   1      32.618  19.146  25.109  1.00  0.00     0.017 C 
ATOM    101  C   UNL A   1      33.196  17.759  25.324  1.00  0.00     0.003 C 
ENDBRANCH  93  96
ENDBRANCH  92  93
ENDBRANCH  81  83
ENDBRANCH  75  77
ENDBRANCH  74  75
ENDBRANCH  73  74
ENDBRANCH  72  73
ENDBRANCH   1  72
TORSDOF 20
ENDMDL
MODEL 3
REMARK VINA RESULT:     -10.9      1.354      7.321
REMARK SMILES O=C(OCCOCCOC(=O)[C@@H]1CCCN(c2ccc3cc(S(=O)(=O)N4CCCCC4)ccc3n2)C1)c1ccc(-c2c3nc(c(-c4cccc(S(=O)(=O)[O-])c4F)c4ccc([nH]4)c(-c4cccc(S(=O)(=O)[O-])c4F)c4nc(c(-c5cccc(S(=O)(=O)[O-])c5F)c5ccc2[nH]5)C=C4)C=C3)cc1
REMARK SMILES IDX 6 1 5 2 4 3 3 4 2 5 1 6 37 7 38 8 99 9 39 10 98 11 40 12
REMARK SMILES IDX 41 13 42 14 92 15 43 16 97 17 91 18 93 19 44 20 96 21 90 22
REMARK SMILES IDX 89 23 45 25 77 26 57 27 76 28 58 29 61 30 75 31 94 32 59 33
REMARK SMILES IDX 60 34 74 36 95 37 62 38 46 39 47 40 55 41 48 42 50 43 56 44
REMARK SMILES IDX 49 45 51 46 52 47 53 48 54 49 78 50 79 51 87 52 80 53 82 54
REMARK SMILES IDX 88 55 81 56 83 57 84 58 85 59 86 60 63 61 64 62 72 63 65 64
REMARK SMILES IDX 67 65 73 66 66 67 68 68 69 69 70 70 71 71 7 72 8 73 9 74
REMARK SMILES IDX 10 75 11 76 12 77 13 78 36 79 14 80 16 81 15 82 17 83 18 84
REMARK SMILES IDX 35 85 19 86 34 87 20 88 33 89 21 90 32 91 22 92 23 93 24 94
REMARK SMILES IDX 25 95 26 96 27 97 31 98 28 99 30 100 29 101
REMARK H PARENT 93 24 61 35
REMARK Flexibility Score: inf
ROOT
ATOM      1  O   UNL A   1      32.057  28.855  24.599  1.00  0.00    -0.374 OA
ENDROOT
BRANCH   1   2
ATOM      2  C   UNL A   1      31.558  29.997  25.286  1.00  0.00     0.202 C 
BRANCH   2   3
ATOM      3  C   UNL A   1      32.147  30.070  26.695  1.00  0.00     0.261 C 
BRANCH   3   4
ATOM      4  O   UNL A   1      33.563  30.302  26.643  1.00  0.00    -0.460 OA
BRANCH   4   5
ATOM      5  C   UNL A   1      34.197  31.263  27.367  1.00  0.00     0.338 C 
ATOM      6  O   UNL A   1      33.702  32.385  27.446  1.00  0.00    -0.246 OA
BRANCH   5   7
ATOM      7  C   UNL A   1      35.367  30.927  28.237  1.00  0.00     0.060 A 
ATOM      8  C   UNL A   1      35.555  29.713  28.909  1.00  0.00     0.016 A 
ATOM      9  C   UNL A   1      36.386  31.888  28.301  1.00  0.00     0.016 A 
ATOM     10  C   UNL A   1      36.689  29.478  29.673  1.00  0.00     0.010 A 
ATOM     11  C   UNL A   1      37.543  31.650  29.045  1.00  0.00     0.010 A 
ATOM     12  C   UNL A   1      37.684  30.447  29.747  1.00  0.00    -0.014 A 
BRANCH  12  13
ATOM     13  C   UNL A   1      38.825  30.208  30.645  1.00  0.00     0.031 A 
ATOM     14  C   UNL A   1      39.956  29.366  30.147  1.00  0.00     0.074 A 
ATOM     15  C   UNL A   1      38.858  30.807  31.849  1.00  0.00     0.049 A 
ATOM     16  N   UNL A   1      41.029  28.974  30.772  1.00  0.00    -0.248 NA
ATOM     17  C   UNL A   1      39.869  28.911  28.747  1.00  0.00     0.031 C 
ATOM     18  C   UNL A   1      37.826  31.707  32.368  1.00  0.00     0.029 A 
ATOM     19  N   UNL A   1      39.791  30.754  32.848  1.00  0.00    -0.354 N 
ATOM     20  C   UNL A   1      41.717  28.178  29.867  1.00  0.00     0.074 A 
ATOM     21  C   UNL A   1      40.957  28.162  28.638  1.00  0.00     0.031 C 
ATOM     22  C   UNL A   1      38.181  32.119  33.595  1.00  0.00     0.029 A 
ATOM     23  C   UNL A   1      39.433  31.470  33.967  1.00  0.00     0.049 A 
ATOM     24  H   UNL A   1      40.635  30.253  32.773  1.00  0.00     0.167 HD
ATOM     25  C   UNL A   1      42.878  27.513  30.058  1.00  0.00     0.034 A 
ATOM     26  C   UNL A   1      40.040  31.553  35.165  1.00  0.00     0.034 A 
ATOM     27  C   UNL A   1      43.618  27.564  31.288  1.00  0.00     0.049 A 
ATOM     28  C   UNL A   1      41.324  30.791  35.356  1.00  0.00     0.074 A 
ATOM     29  C   UNL A   1      44.790  26.913  31.619  1.00  0.00     0.029 A 
ATOM     30  N   UNL A   1      43.243  28.314  32.394  1.00  0.00    -0.354 N 
ATOM     31  N   UNL A   1      41.981  30.056  34.489  1.00  0.00    -0.248 NA
ATOM     32  C   UNL A   1      41.957  30.873  36.677  1.00  0.00     0.031 C 
ATOM     33  C   UNL A   1      45.114  27.258  32.937  1.00  0.00     0.029 A 
ATOM     34  C   UNL A   1      44.157  28.142  33.415  1.00  0.00     0.049 A 
ATOM     35  H   UNL A   1      42.442  28.885  32.444  1.00  0.00     0.167 HD
ATOM     36  C   UNL A   1      43.112  29.599  35.151  1.00  0.00     0.074 A 
ATOM     37  C   UNL A   1      43.064  30.167  36.485  1.00  0.00     0.031 C 
ATOM     38  C   UNL A   1      44.090  28.768  34.713  1.00  0.00     0.034 A 
BRANCH  25  39
ATOM     39  C   UNL A   1      43.379  26.665  28.922  1.00  0.00     0.023 A 
ATOM     40  C   UNL A   1      43.055  25.294  28.868  1.00  0.00     0.012 A 
ATOM     41  C   UNL A   1      44.195  27.224  27.918  1.00  0.00     0.148 A 
ATOM     42  C   UNL A   1      43.565  24.485  27.852  1.00  0.00     0.002 A 
ATOM     43  C   UNL A   1      44.669  26.419  26.890  1.00  0.00     0.091 A 
ATOM     44  F   UNL A   1      44.516  28.522  28.007  1.00  0.00    -0.205 F 
ATOM     45  C   UNL A   1      44.366  25.048  26.861  1.00  0.00     0.022 A 
BRANCH  43  46
ATOM     46  S   UNL A   1      45.671  27.058  25.543  1.00  0.00     0.127 S 
ATOM     47  O   UNL A   1      45.715  25.912  24.638  1.00  0.00    -0.237 OA
ATOM     48  O   UNL A   1      44.862  28.181  25.066  1.00  0.00    -0.237 OA
ATOM     49  O   UNL A   1      46.947  27.436  26.134  1.00  0.00    -0.744 OA
ENDBRANCH  43  46
ENDBRANCH  25  39
BRANCH  26  50
ATOM     50  C   UNL A   1      39.442  32.382  36.253  1.00  0.00     0.023 A 
ATOM     51  C   UNL A   1      38.361  31.879  37.001  1.00  0.00     0.012 A 
ATOM     52  C   UNL A   1      39.969  33.647  36.581  1.00  0.00     0.148 A 
ATOM     53  C   UNL A   1      37.807  32.627  38.042  1.00  0.00     0.002 A 
ATOM     54  C   UNL A   1      39.451  34.362  37.655  1.00  0.00     0.091 A 
ATOM     55  F   UNL A   1      40.982  34.125  35.844  1.00  0.00    -0.205 F 
ATOM     56  C   UNL A   1      38.359  33.861  38.378  1.00  0.00     0.022 A 
BRANCH  54  57
ATOM     57  S   UNL A   1      40.194  35.893  38.232  1.00  0.00     0.127 S 
ATOM     58  O   UNL A   1      39.611  36.872  37.319  1.00  0.00    -0.237 OA
ATOM     59  O   UNL A   1      39.708  35.972  39.611  1.00  0.00    -0.237 OA
ATOM     60  O   UNL A   1      41.633  35.694  38.120  1.00  0.00    -0.744 OA
ENDBRANCH  54  57
ENDBRANCH  26  50
BRANCH  38  61
ATOM     61  C   UNL A   1      45.195  28.441  35.678  1.00  0.00     0.023 A 
ATOM     62  C   UNL A   1      46.327  29.276  35.747  1.00  0.00     0.012 A 
ATOM     63  C   UNL A   1      45.061  27.371  36.581  1.00  0.00     0.148 A 
ATOM     64  C   UNL A   1      47.323  29.036  36.690  1.00  0.00     0.002 A 
ATOM     65  C   UNL A   1      46.034  27.166  37.549  1.00  0.00     0.091 A 
ATOM     66  F   UNL A   1      43.984  26.576  36.479  1.00  0.00    -0.205 F 
ATOM     67  C   UNL A   1      47.170  27.991  37.599  1.00  0.00     0.022 A 
BRANCH  65  68
ATOM     68  S   UNL A   1      45.862  25.911  38.823  1.00  0.00     0.127 S 
ATOM     69  O   UNL A   1      44.448  25.559  38.706  1.00  0.00    -0.237 OA
ATOM     70  O   UNL A   1      46.789  24.875  38.368  1.00  0.00    -0.237 OA
ATOM     71  O   UNL A   1      46.248  26.557  40.071  1.00  0.00    -0.744 OA
ENDBRANCH  65  68
ENDBRANCH  38  61
ENDBRANCH  12  13
ENDBRANCH   5   7
ENDBRANCH   4   5
ENDBRANCH   3   4
ENDBRANCH   2   3
ENDBRANCH   1   2
BRANCH   1  72
ATOM     72  C   UNL A   1      31.106  27.923  24.102  1.00  0.00     0.202 C 
BRANCH  72  73
ATOM     73  C   UNL A   1      31.762  27.002  23.078  1.00  0.00     0.261 C 
BRANCH  73  74
ATOM     74  O   UNL A   1      32.217  25.794  23.714  1.00  0.00    -0.463 OA
BRANCH  74  75
ATOM     75  C   UNL A   1      33.011  25.000  22.937  1.00  0.00     0.310 C 
ATOM     76  O   UNL A   1      34.122  25.299  22.528  1.00  0.00    -0.252 OA
BRANCH  75  77
ATOM     77  C   UNL A   1      32.296  23.709  22.626  1.00  0.00     0.118 C 
ATOM     78  C   UNL A   1      31.072  23.482  23.526  1.00  0.00     0.019 C 
ATOM     79  C   UNL A   1      33.306  22.579  22.748  1.00  0.00     0.133 C 
ATOM     80  C   UNL A   1      31.433  23.101  24.966  1.00  0.00     0.022 C 
ATOM     81  N   UNL A   1      33.587  22.313  24.145  1.00  0.00    -0.356 N 
ATOM     82  C   UNL A   1      32.476  21.980  25.026  1.00  0.00     0.118 C 
BRANCH  81  83
ATOM     83  C   UNL A   1      34.843  22.443  24.688  1.00  0.00     0.129 A 
ATOM     84  C   UNL A   1      35.285  23.630  25.269  1.00  0.00     0.047 A 
ATOM     85  N   UNL A   1      35.646  21.365  24.635  1.00  0.00    -0.231 NA
ATOM     86  C   UNL A   1      36.551  23.710  25.838  1.00  0.00     0.014 A 
ATOM     87  C   UNL A   1      36.887  21.456  25.125  1.00  0.00     0.073 A 
ATOM     88  C   UNL A   1      37.393  22.610  25.753  1.00  0.00     0.002 A 
ATOM     89  C   UNL A   1      37.724  20.372  24.969  1.00  0.00     0.030 A 
ATOM     90  C   UNL A   1      38.708  22.647  26.241  1.00  0.00     0.032 A 
ATOM     91  C   UNL A   1      39.047  20.411  25.408  1.00  0.00     0.024 A 
ATOM     92  C   UNL A   1      39.542  21.544  26.053  1.00  0.00     0.083 A 
BRANCH  92  93
ATOM     93  S   UNL A   1      41.239  21.712  26.585  1.00  0.00     0.243 S 
ATOM     94  O   UNL A   1      41.841  22.684  25.697  1.00  0.00    -0.207 OA
ATOM     95  O   UNL A   1      41.206  21.898  28.020  1.00  0.00    -0.207 OA
BRANCH  93  96
ATOM     96  N   UNL A   1      42.000  20.208  26.270  1.00  0.00    -0.198 NA
ATOM     97  C   UNL A   1      43.104  20.255  25.280  1.00  0.00     0.102 C 
ATOM     98  C   UNL A   1      42.082  19.296  27.436  1.00  0.00     0.102 C 
ATOM     99  C   UNL A   1      43.797  18.917  25.078  1.00  0.00     0.017 C 
ATOM    100  C   UNL A   1      42.762  17.978  27.109  1.00  0.00     0.017 C 
ATOM    101  C   UNL A   1      44.079  18.211  26.392  1.00  0.00     0.003 C 
ENDBRANCH  93  96
ENDBRANCH  92  93
ENDBRANCH  81  83
ENDBRANCH  75  77
ENDBRANCH  74  75
ENDBRANCH  73  74
ENDBRANCH  72  73
ENDBRANCH   1  72
TORSDOF 20
ENDMDL
