MODEL 1
REMARK VINA RESULT:     -11.9      0.000      0.000
REMARK SMILES [NH3+][C@H]1C=C[C@H](C(=O)N2CCCc3c(C(=O)OCCOCCOC(=O)c4ccc(-c5c6nc(c(-c7cccc(S(=O)(=O)[O-])c7F)c7ccc([nH]7)c(-c7cccc(S(=O)(=O)[O-])c7F)c7nc(c(-c8cccc(S(=O)(=O)[O-])c8F)c8ccc5[nH]8)C=C7)C=C6)cc4)cccc32)C1
REMARK SMILES IDX 19 1 18 2 17 3 16 4 14 5 15 6 13 7 8 8 9 9 91 10 10 11 12 12
REMARK SMILES IDX 90 13 11 14 89 15 88 16 6 17 7 18 5 19 2 20 3 21 92 22 4 23
REMARK SMILES IDX 1 24 20 28 21 29 22 30 23 31 24 32 25 33 26 34 87 35 27 36
REMARK SMILES IDX 86 37 28 38 29 39 30 40 80 41 31 42 85 43 79 44 81 45 32 46
REMARK SMILES IDX 84 47 78 48 77 49 33 51 65 52 45 53 64 54 46 55 49 56 63 57
REMARK SMILES IDX 82 58 47 59 48 60 62 62 83 63 50 64 34 65 35 66 43 67 36 68
REMARK SMILES IDX 38 69 44 70 37 71 39 72 40 73 41 74 42 75 66 76 67 77 75 78
REMARK SMILES IDX 68 79 70 80 76 81 69 82 71 83 72 84 73 85 74 86 51 87 52 88
REMARK SMILES IDX 60 89 53 90 55 91 61 92 54 93 56 94 57 95 58 96 59 97
REMARK H PARENT 1 25 1 26 1 27 81 50 49 61
REMARK Flexibility Score: inf
ROOT
ATOM      1  O   UNL A   1      31.532  29.283  25.529  1.00  0.00    -0.374 OA
ENDROOT
BRANCH   1   2
ATOM      2  C   UNL A   1      32.464  28.687  24.621  1.00  0.00     0.202 C 
BRANCH   2   3
ATOM      3  C   UNL A   1      32.684  27.185  24.808  1.00  0.00     0.261 C 
BRANCH   3   4
ATOM      4  O   UNL A   1      33.824  26.771  24.036  1.00  0.00    -0.460 OA
BRANCH   4   5
ATOM      5  C   UNL A   1      33.564  26.009  22.955  1.00  0.00     0.338 C 
ATOM      6  O   UNL A   1      33.844  26.276  21.794  1.00  0.00    -0.246 OA
BRANCH   5   7
ATOM      7  C   UNL A   1      33.081  24.664  23.369  1.00  0.00     0.065 A 
ATOM      8  N   UNL A   1      34.054  21.383  24.877  1.00  0.00    -0.312 N 
ATOM      9  C   UNL A   1      35.440  21.700  25.207  1.00  0.00     0.126 C 
ATOM     10  C   UNL A   1      33.278  22.405  24.241  1.00  0.00     0.048 A 
ATOM     11  C   UNL A   1      36.117  22.353  24.020  1.00  0.00     0.027 C 
ATOM     12  C   UNL A   1      33.902  23.576  23.752  1.00  0.00    -0.010 A 
ATOM     13  C   UNL A   1      31.874  22.304  24.214  1.00  0.00     0.027 A 
ATOM     14  C   UNL A   1      35.411  23.658  23.671  1.00  0.00     0.040 C 
ATOM     15  C   UNL A   1      31.080  23.353  23.770  1.00  0.00     0.003 A 
ATOM     16  C   UNL A   1      31.680  24.537  23.375  1.00  0.00     0.016 A 
BRANCH   8  17
ATOM     17  C   UNL A   1      33.497  20.153  25.231  1.00  0.00     0.234 C 
ATOM     18  O   UNL A   1      33.152  19.877  26.383  1.00  0.00    -0.274 OA
BRANCH  17  19
ATOM     19  C   UNL A   1      33.504  19.088  24.122  1.00  0.00     0.108 C 
ATOM     20  C   UNL A   1      32.870  17.023  25.250  1.00  0.00     0.205 C 
ATOM     21  C   UNL A   1      34.337  17.055  24.979  1.00  0.00     0.033 C 
ATOM     22  C   UNL A   1      32.350  18.087  24.270  1.00  0.00     0.087 C 
ATOM     23  C   UNL A   1      34.691  18.186  24.354  1.00  0.00    -0.012 C 
BRANCH  20  24
ATOM     24  N   UNL A   1      32.299  15.712  24.996  1.00  0.00    -0.352 N 
ATOM     25  H   UNL A   1      31.728  15.747  24.152  1.00  0.00     0.345 HD
ATOM     26  H   UNL A   1      31.718  15.434  25.788  1.00  0.00     0.345 HD
ATOM     27  H   UNL A   1      33.049  15.032  24.871  1.00  0.00     0.345 HD
ENDBRANCH  20  24
ENDBRANCH  17  19
ENDBRANCH   8  17
ENDBRANCH   5   7
ENDBRANCH   4   5
ENDBRANCH   3   4
ENDBRANCH   2   3
ENDBRANCH   1   2
BRANCH   1  28
ATOM     28  C   UNL A   1      31.153  30.636  25.269  1.00  0.00     0.202 C 
BRANCH  28  29
ATOM     29  C   UNL A   1      31.427  31.642  26.392  1.00  0.00     0.261 C 
BRANCH  29  30
ATOM     30  O   UNL A   1      32.565  31.266  27.186  1.00  0.00    -0.460 OA
BRANCH  30  31
ATOM     31  C   UNL A   1      33.387  32.290  27.518  1.00  0.00     0.338 C 
ATOM     32  O   UNL A   1      33.085  33.471  27.630  1.00  0.00    -0.246 OA
BRANCH  31  33
ATOM     33  C   UNL A   1      34.710  31.770  27.911  1.00  0.00     0.060 A 
ATOM     34  C   UNL A   1      34.816  30.393  28.145  1.00  0.00     0.016 A 
ATOM     35  C   UNL A   1      35.807  32.611  28.111  1.00  0.00     0.016 A 
ATOM     36  C   UNL A   1      36.002  29.858  28.641  1.00  0.00     0.010 A 
ATOM     37  C   UNL A   1      36.996  32.073  28.615  1.00  0.00     0.010 A 
ATOM     38  C   UNL A   1      37.085  30.703  28.920  1.00  0.00    -0.014 A 
BRANCH  38  39
ATOM     39  C   UNL A   1      38.248  30.170  29.670  1.00  0.00     0.031 A 
ATOM     40  C   UNL A   1      38.476  30.629  31.085  1.00  0.00     0.074 A 
ATOM     41  C   UNL A   1      39.082  29.280  29.106  1.00  0.00     0.049 A 
ATOM     42  N   UNL A   1      39.418  30.288  31.925  1.00  0.00    -0.248 NA
ATOM     43  C   UNL A   1      37.513  31.605  31.625  1.00  0.00     0.031 C 
ATOM     44  C   UNL A   1      38.964  28.754  27.747  1.00  0.00     0.029 A 
ATOM     45  N   UNL A   1      40.206  28.671  29.605  1.00  0.00    -0.354 N 
ATOM     46  C   UNL A   1      39.181  31.023  33.080  1.00  0.00     0.074 A 
ATOM     47  C   UNL A   1      38.015  31.842  32.828  1.00  0.00     0.031 C 
ATOM     48  C   UNL A   1      39.986  27.914  27.514  1.00  0.00     0.029 A 
ATOM     49  C   UNL A   1      40.841  27.857  28.698  1.00  0.00     0.049 A 
ATOM     50  H   UNL A   1      40.527  28.806  30.526  1.00  0.00     0.167 HD
ATOM     51  C   UNL A   1      39.859  31.006  34.252  1.00  0.00     0.034 A 
ATOM     52  C   UNL A   1      41.985  27.154  28.810  1.00  0.00     0.034 A 
ATOM     53  C   UNL A   1      41.003  30.174  34.509  1.00  0.00     0.049 A 
ATOM     54  C   UNL A   1      42.736  27.170  30.117  1.00  0.00     0.074 A 
ATOM     55  C   UNL A   1      41.727  30.045  35.681  1.00  0.00     0.029 A 
ATOM     56  N   UNL A   1      41.599  29.339  33.577  1.00  0.00    -0.354 N 
ATOM     57  N   UNL A   1      42.425  27.771  31.241  1.00  0.00    -0.248 NA
ATOM     58  C   UNL A   1      43.977  26.385  30.181  1.00  0.00     0.031 C 
ATOM     59  C   UNL A   1      42.777  29.149  35.450  1.00  0.00     0.029 A 
ATOM     60  C   UNL A   1      42.691  28.702  34.141  1.00  0.00     0.049 A 
ATOM     61  H   UNL A   1      41.291  29.217  32.651  1.00  0.00     0.167 HD
ATOM     62  C   UNL A   1      43.407  27.403  32.155  1.00  0.00     0.074 A 
ATOM     63  C   UNL A   1      44.314  26.515  31.457  1.00  0.00     0.031 C 
ATOM     64  C   UNL A   1      43.553  27.775  33.451  1.00  0.00     0.034 A 
BRANCH  51  65
ATOM     65  C   UNL A   1      39.360  31.899  35.357  1.00  0.00     0.023 A 
ATOM     66  C   UNL A   1      38.420  31.403  36.285  1.00  0.00     0.012 A 
ATOM     67  C   UNL A   1      39.848  33.212  35.503  1.00  0.00     0.148 A 
ATOM     68  C   UNL A   1      37.948  32.210  37.318  1.00  0.00     0.002 A 
ATOM     69  C   UNL A   1      39.403  33.997  36.561  1.00  0.00     0.091 A 
ATOM     70  F   UNL A   1      40.720  33.676  34.597  1.00  0.00    -0.205 F 
ATOM     71  C   UNL A   1      38.447  33.503  37.462  1.00  0.00     0.022 A 
BRANCH  69  72
ATOM     72  S   UNL A   1      40.044  35.646  36.871  1.00  0.00     0.127 S 
ATOM     73  O   UNL A   1      41.480  35.392  36.967  1.00  0.00    -0.237 OA
ATOM     74  O   UNL A   1      39.633  36.371  35.668  1.00  0.00    -0.237 OA
ATOM     75  O   UNL A   1      39.403  36.099  38.098  1.00  0.00    -0.744 OA
ENDBRANCH  69  72
ENDBRANCH  51  65
BRANCH  52  76
ATOM     76  C   UNL A   1      42.465  26.328  27.667  1.00  0.00     0.023 A 
ATOM     77  C   UNL A   1      43.355  26.893  26.732  1.00  0.00     0.012 A 
ATOM     78  C   UNL A   1      42.062  24.988  27.509  1.00  0.00     0.148 A 
ATOM     79  C   UNL A   1      43.814  26.145  25.646  1.00  0.00     0.002 A 
ATOM     80  C   UNL A   1      42.566  24.233  26.456  1.00  0.00     0.091 A 
ATOM     81  F   UNL A   1      41.200  24.475  28.399  1.00  0.00    -0.205 F 
ATOM     82  C   UNL A   1      43.428  24.814  25.514  1.00  0.00     0.022 A 
BRANCH  80  83
ATOM     83  S   UNL A   1      42.224  22.477  26.282  1.00  0.00     0.127 S 
ATOM     84  O   UNL A   1      40.767  22.461  26.213  1.00  0.00    -0.237 OA
ATOM     85  O   UNL A   1      42.906  22.160  25.027  1.00  0.00    -0.237 OA
ATOM     86  O   UNL A   1      42.812  21.845  27.456  1.00  0.00    -0.744 OA
ENDBRANCH  80  83
ENDBRANCH  52  76
BRANCH  64  87
ATOM     87  C   UNL A   1      44.712  27.198  34.221  1.00  0.00     0.023 A 
ATOM     88  C   UNL A   1      45.947  27.875  34.243  1.00  0.00     0.012 A 
ATOM     89  C   UNL A   1      44.555  26.023  34.984  1.00  0.00     0.148 A 
ATOM     90  C   UNL A   1      47.017  27.375  34.986  1.00  0.00     0.002 A 
ATOM     91  C   UNL A   1      45.611  25.557  35.759  1.00  0.00     0.091 A 
ATOM     92  F   UNL A   1      43.379  25.380  34.935  1.00  0.00    -0.205 F 
ATOM     93  C   UNL A   1      46.845  26.225  35.752  1.00  0.00     0.022 A 
BRANCH  91  94
ATOM     94  S   UNL A   1      45.448  24.139  36.851  1.00  0.00     0.127 S 
ATOM     95  O   UNL A   1      44.451  24.614  37.809  1.00  0.00    -0.237 OA
ATOM     96  O   UNL A   1      44.974  23.097  35.941  1.00  0.00    -0.237 OA
ATOM     97  O   UNL A   1      46.778  23.901  37.397  1.00  0.00    -0.744 OA
ENDBRANCH  91  94
ENDBRANCH  64  87
ENDBRANCH  38  39
ENDBRANCH  31  33
ENDBRANCH  30  31
ENDBRANCH  29  30
ENDBRANCH  28  29
ENDBRANCH   1  28
TORSDOF 20
ENDMDL
MODEL 2
REMARK VINA RESULT:     -11.7      5.059      8.673
REMARK SMILES [NH3+][C@H]1C=C[C@H](C(=O)N2CCCc3c(C(=O)OCCOCCOC(=O)c4ccc(-c5c6nc(c(-c7cccc(S(=O)(=O)[O-])c7F)c7ccc([nH]7)c(-c7cccc(S(=O)(=O)[O-])c7F)c7nc(c(-c8cccc(S(=O)(=O)[O-])c8F)c8ccc5[nH]8)C=C7)C=C6)cc4)cccc32)C1
REMARK SMILES IDX 19 1 18 2 17 3 16 4 14 5 15 6 13 7 8 8 9 9 91 10 10 11 12 12
REMARK SMILES IDX 90 13 11 14 89 15 88 16 6 17 7 18 5 19 2 20 3 21 92 22 4 23
REMARK SMILES IDX 1 24 20 28 21 29 22 30 23 31 24 32 25 33 26 34 87 35 27 36
REMARK SMILES IDX 86 37 28 38 29 39 30 40 80 41 31 42 85 43 79 44 81 45 32 46
REMARK SMILES IDX 84 47 78 48 77 49 33 51 65 52 45 53 64 54 46 55 49 56 63 57
REMARK SMILES IDX 82 58 47 59 48 60 62 62 83 63 50 64 34 65 35 66 43 67 36 68
REMARK SMILES IDX 38 69 44 70 37 71 39 72 40 73 41 74 42 75 66 76 67 77 75 78
REMARK SMILES IDX 68 79 70 80 76 81 69 82 71 83 72 84 73 85 74 86 51 87 52 88
REMARK SMILES IDX 60 89 53 90 55 91 61 92 54 93 56 94 57 95 58 96 59 97
REMARK H PARENT 1 25 1 26 1 27 81 50 49 61
REMARK Flexibility Score: inf
ROOT
ATOM      1  O   UNL A   1      35.213  22.375  23.947  1.00  0.00    -0.374 OA
ENDROOT
BRANCH   1   2
ATOM      2  C   UNL A   1      34.752  23.533  24.649  1.00  0.00     0.202 C 
BRANCH   2   3
ATOM      3  C   UNL A   1      33.929  23.247  25.906  1.00  0.00     0.261 C 
BRANCH   3   4
ATOM      4  O   UNL A   1      33.342  24.470  26.380  1.00  0.00    -0.460 OA
BRANCH   4   5
ATOM      5  C   UNL A   1      31.998  24.479  26.493  1.00  0.00     0.338 C 
ATOM      6  O   UNL A   1      31.347  24.063  27.442  1.00  0.00    -0.246 OA
BRANCH   5   7
ATOM      7  C   UNL A   1      31.388  25.278  25.396  1.00  0.00     0.065 A 
ATOM      8  N   UNL A   1      30.988  28.705  23.952  1.00  0.00    -0.312 N 
ATOM      9  C   UNL A   1      31.874  29.426  24.859  1.00  0.00     0.126 C 
ATOM     10  C   UNL A   1      30.831  27.297  24.164  1.00  0.00     0.048 A 
ATOM     11  C   UNL A   1      31.573  29.040  26.292  1.00  0.00     0.027 C 
ATOM     12  C   UNL A   1      31.332  26.692  25.341  1.00  0.00    -0.010 A 
ATOM     13  C   UNL A   1      30.288  26.491  23.146  1.00  0.00     0.027 A 
ATOM     14  C   UNL A   1      31.816  27.548  26.491  1.00  0.00     0.040 C 
ATOM     15  C   UNL A   1      30.286  25.104  23.243  1.00  0.00     0.003 A 
ATOM     16  C   UNL A   1      30.858  24.502  24.351  1.00  0.00     0.016 A 
BRANCH   8  17
ATOM     17  C   UNL A   1      30.373  29.357  22.882  1.00  0.00     0.234 C 
ATOM     18  O   UNL A   1      30.960  29.626  21.831  1.00  0.00    -0.274 OA
BRANCH  17  19
ATOM     19  C   UNL A   1      28.956  29.884  23.163  1.00  0.00     0.108 C 
ATOM     20  C   UNL A   1      28.711  31.805  21.683  1.00  0.00     0.205 C 
ATOM     21  C   UNL A   1      28.957  32.241  23.089  1.00  0.00     0.033 C 
ATOM     22  C   UNL A   1      28.247  30.353  21.886  1.00  0.00     0.087 C 
ATOM     23  C   UNL A   1      29.087  31.190  23.908  1.00  0.00    -0.012 C 
BRANCH  20  24
ATOM     24  N   UNL A   1      27.703  32.621  21.029  1.00  0.00    -0.352 N 
ATOM     25  H   UNL A   1      28.109  33.068  20.207  1.00  0.00     0.345 HD
ATOM     26  H   UNL A   1      27.372  33.336  21.676  1.00  0.00     0.345 HD
ATOM     27  H   UNL A   1      26.920  32.032  20.743  1.00  0.00     0.345 HD
ENDBRANCH  20  24
ENDBRANCH  17  19
ENDBRANCH   8  17
ENDBRANCH   5   7
ENDBRANCH   4   5
ENDBRANCH   3   4
ENDBRANCH   2   3
ENDBRANCH   1   2
BRANCH   1  28
ATOM     28  C   UNL A   1      36.629  22.202  23.846  1.00  0.00     0.202 C 
BRANCH  28  29
ATOM     29  C   UNL A   1      37.212  20.981  24.566  1.00  0.00     0.261 C 
BRANCH  29  30
ATOM     30  O   UNL A   1      37.644  21.297  25.900  1.00  0.00    -0.460 OA
BRANCH  30  31
ATOM     31  C   UNL A   1      38.971  21.143  26.118  1.00  0.00     0.338 C 
ATOM     32  O   UNL A   1      39.672  20.205  25.761  1.00  0.00    -0.246 OA
BRANCH  31  33
ATOM     33  C   UNL A   1      39.532  22.369  26.715  1.00  0.00     0.060 A 
ATOM     34  C   UNL A   1      38.951  23.589  26.345  1.00  0.00     0.016 A 
ATOM     35  C   UNL A   1      40.641  22.339  27.563  1.00  0.00     0.016 A 
ATOM     36  C   UNL A   1      39.514  24.788  26.772  1.00  0.00     0.010 A 
ATOM     37  C   UNL A   1      41.209  23.546  27.986  1.00  0.00     0.010 A 
ATOM     38  C   UNL A   1      40.673  24.774  27.559  1.00  0.00    -0.014 A 
BRANCH  38  39
ATOM     39  C   UNL A   1      41.401  26.042  27.804  1.00  0.00     0.031 A 
ATOM     40  C   UNL A   1      40.703  27.155  28.537  1.00  0.00     0.074 A 
ATOM     41  C   UNL A   1      42.672  26.196  27.393  1.00  0.00     0.049 A 
ATOM     42  N   UNL A   1      41.151  28.339  28.867  1.00  0.00    -0.248 NA
ATOM     43  C   UNL A   1      39.313  26.900  28.953  1.00  0.00     0.031 C 
ATOM     44  C   UNL A   1      43.457  25.191  26.679  1.00  0.00     0.029 A 
ATOM     45  N   UNL A   1      43.521  27.269  27.505  1.00  0.00    -0.354 N 
ATOM     46  C   UNL A   1      40.094  28.980  29.503  1.00  0.00     0.074 A 
ATOM     47  C   UNL A   1      38.977  28.060  29.498  1.00  0.00     0.031 C 
ATOM     48  C   UNL A   1      44.669  25.701  26.401  1.00  0.00     0.029 A 
ATOM     49  C   UNL A   1      44.739  27.073  26.899  1.00  0.00     0.049 A 
ATOM     50  H   UNL A   1      43.279  28.100  27.975  1.00  0.00     0.167 HD
ATOM     51  C   UNL A   1      40.060  30.214  30.058  1.00  0.00     0.034 A 
ATOM     52  C   UNL A   1      45.785  27.911  26.756  1.00  0.00     0.034 A 
ATOM     53  C   UNL A   1      41.179  31.118  30.083  1.00  0.00     0.049 A 
ATOM     54  C   UNL A   1      45.714  29.290  27.361  1.00  0.00     0.074 A 
ATOM     55  C   UNL A   1      41.261  32.369  30.668  1.00  0.00     0.029 A 
ATOM     56  N   UNL A   1      42.406  30.874  29.486  1.00  0.00    -0.354 N 
ATOM     57  N   UNL A   1      44.753  29.832  28.071  1.00  0.00    -0.248 NA
ATOM     58  C   UNL A   1      46.885  30.159  27.174  1.00  0.00     0.031 C 
ATOM     59  C   UNL A   1      42.532  32.892  30.403  1.00  0.00     0.029 A 
ATOM     60  C   UNL A   1      43.249  31.955  29.676  1.00  0.00     0.049 A 
ATOM     61  H   UNL A   1      42.643  30.051  29.001  1.00  0.00     0.167 HD
ATOM     62  C   UNL A   1      45.220  31.087  28.450  1.00  0.00     0.074 A 
ATOM     63  C   UNL A   1      46.555  31.217  27.903  1.00  0.00     0.031 C 
ATOM     64  C   UNL A   1      44.597  32.049  29.174  1.00  0.00     0.034 A 
BRANCH  51  65
ATOM     65  C   UNL A   1      38.775  30.649  30.710  1.00  0.00     0.023 A 
ATOM     66  C   UNL A   1      38.582  30.428  32.090  1.00  0.00     0.012 A 
ATOM     67  C   UNL A   1      37.775  31.308  29.970  1.00  0.00     0.148 A 
ATOM     68  C   UNL A   1      37.402  30.826  32.715  1.00  0.00     0.002 A 
ATOM     69  C   UNL A   1      36.617  31.740  30.609  1.00  0.00     0.091 A 
ATOM     70  F   UNL A   1      37.962  31.485  28.655  1.00  0.00    -0.205 F 
ATOM     71  C   UNL A   1      36.425  31.490  31.977  1.00  0.00     0.022 A 
BRANCH  69  72
ATOM     72  S   UNL A   1      35.337  32.669  29.758  1.00  0.00     0.127 S 
ATOM     73  O   UNL A   1      34.317  32.787  30.798  1.00  0.00    -0.237 OA
ATOM     74  O   UNL A   1      36.024  33.919  29.433  1.00  0.00    -0.237 OA
ATOM     75  O   UNL A   1      34.965  31.865  28.601  1.00  0.00    -0.744 OA
ENDBRANCH  69  72
ENDBRANCH  51  65
BRANCH  52  76
ATOM     76  C   UNL A   1      47.015  27.450  26.054  1.00  0.00     0.023 A 
ATOM     77  C   UNL A   1      47.177  27.734  24.683  1.00  0.00     0.012 A 
ATOM     78  C   UNL A   1      48.030  26.751  26.734  1.00  0.00     0.148 A 
ATOM     79  C   UNL A   1      48.315  27.307  23.998  1.00  0.00     0.002 A 
ATOM     80  C   UNL A   1      49.186  26.376  26.058  1.00  0.00     0.091 A 
ATOM     81  F   UNL A   1      47.849  26.474  28.034  1.00  0.00    -0.205 F 
ATOM     82  C   UNL A   1      49.323  26.638  24.687  1.00  0.00     0.022 A 
BRANCH  80  83
ATOM     83  S   UNL A   1      50.588  25.625  26.894  1.00  0.00     0.127 S 
ATOM     84  O   UNL A   1      51.005  26.692  27.797  1.00  0.00    -0.237 OA
ATOM     85  O   UNL A   1      49.970  24.471  27.545  1.00  0.00    -0.237 OA
ATOM     86  O   UNL A   1      51.534  25.281  25.840  1.00  0.00    -0.744 OA
ENDBRANCH  80  83
ENDBRANCH  52  76
BRANCH  64  87
ATOM     87  C   UNL A   1      45.358  33.319  29.457  1.00  0.00     0.023 A 
ATOM     88  C   UNL A   1      46.070  33.455  30.665  1.00  0.00     0.012 A 
ATOM     89  C   UNL A   1      45.427  34.346  28.494  1.00  0.00     0.148 A 
ATOM     90  C   UNL A   1      46.814  34.607  30.923  1.00  0.00     0.002 A 
ATOM     91  C   UNL A   1      46.209  35.469  28.739  1.00  0.00     0.091 A 
ATOM     92  F   UNL A   1      44.727  34.208  27.359  1.00  0.00    -0.205 F 
ATOM     93  C   UNL A   1      46.893  35.606  29.957  1.00  0.00     0.022 A 
BRANCH  91  94
ATOM     94  S   UNL A   1      46.446  36.761  27.511  1.00  0.00     0.127 S 
ATOM     95  O   UNL A   1      47.193  37.761  28.272  1.00  0.00    -0.237 OA
ATOM     96  O   UNL A   1      47.222  36.073  26.480  1.00  0.00    -0.237 OA
ATOM     97  O   UNL A   1      45.109  37.161  27.091  1.00  0.00    -0.744 OA
ENDBRANCH  91  94
ENDBRANCH  64  87
ENDBRANCH  38  39
ENDBRANCH  31  33
ENDBRANCH  30  31
ENDBRANCH  29  30
ENDBRANCH  28  29
ENDBRANCH   1  28
TORSDOF 20
ENDMDL
MODEL 3
REMARK VINA RESULT:     -11.6      1.869      2.423
REMARK SMILES [NH3+][C@H]1C=C[C@H](C(=O)N2CCCc3c(C(=O)OCCOCCOC(=O)c4ccc(-c5c6nc(c(-c7cccc(S(=O)(=O)[O-])c7F)c7ccc([nH]7)c(-c7cccc(S(=O)(=O)[O-])c7F)c7nc(c(-c8cccc(S(=O)(=O)[O-])c8F)c8ccc5[nH]8)C=C7)C=C6)cc4)cccc32)C1
REMARK SMILES IDX 19 1 18 2 17 3 16 4 14 5 15 6 13 7 8 8 9 9 91 10 10 11 12 12
REMARK SMILES IDX 90 13 11 14 89 15 88 16 6 17 7 18 5 19 2 20 3 21 92 22 4 23
REMARK SMILES IDX 1 24 20 28 21 29 22 30 23 31 24 32 25 33 26 34 87 35 27 36
REMARK SMILES IDX 86 37 28 38 29 39 30 40 80 41 31 42 85 43 79 44 81 45 32 46
REMARK SMILES IDX 84 47 78 48 77 49 33 51 65 52 45 53 64 54 46 55 49 56 63 57
REMARK SMILES IDX 82 58 47 59 48 60 62 62 83 63 50 64 34 65 35 66 43 67 36 68
REMARK SMILES IDX 38 69 44 70 37 71 39 72 40 73 41 74 42 75 66 76 67 77 75 78
REMARK SMILES IDX 68 79 70 80 76 81 69 82 71 83 72 84 73 85 74 86 51 87 52 88
REMARK SMILES IDX 60 89 53 90 55 91 61 92 54 93 56 94 57 95 58 96 59 97
REMARK H PARENT 1 25 1 26 1 27 81 50 49 61
REMARK Flexibility Score: inf
ROOT
ATOM      1  O   UNL A   1      31.876  30.832  27.018  1.00  0.00    -0.374 OA
ENDROOT
BRANCH   1   2
ATOM      2  C   UNL A   1      33.028  30.270  26.383  1.00  0.00     0.202 C 
BRANCH   2   3
ATOM      3  C   UNL A   1      32.736  29.169  25.362  1.00  0.00     0.261 C 
BRANCH   3   4
ATOM      4  O   UNL A   1      31.712  28.302  25.877  1.00  0.00    -0.460 OA
BRANCH   4   5
ATOM      5  C   UNL A   1      30.942  27.681  24.959  1.00  0.00     0.338 C 
ATOM      6  O   UNL A   1      30.316  28.219  24.055  1.00  0.00    -0.246 OA
BRANCH   5   7
ATOM      7  C   UNL A   1      31.123  26.207  25.038  1.00  0.00     0.065 A 
ATOM      8  N   UNL A   1      33.207  23.307  23.927  1.00  0.00    -0.312 N 
ATOM      9  C   UNL A   1      34.243  24.046  23.215  1.00  0.00     0.126 C 
ATOM     10  C   UNL A   1      32.151  24.065  24.528  1.00  0.00     0.048 A 
ATOM     11  C   UNL A   1      33.609  25.070  22.296  1.00  0.00     0.027 C 
ATOM     12  C   UNL A   1      32.006  25.443  24.237  1.00  0.00    -0.010 A 
ATOM     13  C   UNL A   1      31.330  23.472  25.505  1.00  0.00     0.027 A 
ATOM     14  C   UNL A   1      32.801  26.072  23.114  1.00  0.00     0.040 C 
ATOM     15  C   UNL A   1      30.417  24.221  26.237  1.00  0.00     0.003 A 
ATOM     16  C   UNL A   1      30.334  25.586  26.022  1.00  0.00     0.016 A 
BRANCH   8  17
ATOM     17  C   UNL A   1      33.286  21.921  24.070  1.00  0.00     0.234 C 
ATOM     18  O   UNL A   1      32.785  21.132  23.264  1.00  0.00    -0.274 OA
BRANCH  17  19
ATOM     19  C   UNL A   1      33.885  21.432  25.399  1.00  0.00     0.108 C 
ATOM     20  C   UNL A   1      36.257  21.966  25.237  1.00  0.00     0.205 C 
ATOM     21  C   UNL A   1      36.021  20.509  25.016  1.00  0.00     0.033 C 
ATOM     22  C   UNL A   1      34.956  22.388  25.940  1.00  0.00     0.087 C 
ATOM     23  C   UNL A   1      34.719  20.208  25.109  1.00  0.00    -0.012 C 
BRANCH  20  24
ATOM     24  N   UNL A   1      37.431  22.208  26.056  1.00  0.00    -0.352 N 
ATOM     25  H   UNL A   1      37.342  23.111  26.521  1.00  0.00     0.345 HD
ATOM     26  H   UNL A   1      38.263  22.210  25.466  1.00  0.00     0.345 HD
ATOM     27  H   UNL A   1      37.515  21.472  26.758  1.00  0.00     0.345 HD
ENDBRANCH  20  24
ENDBRANCH  17  19
ENDBRANCH   8  17
ENDBRANCH   5   7
ENDBRANCH   4   5
ENDBRANCH   3   4
ENDBRANCH   2   3
ENDBRANCH   1   2
BRANCH   1  28
ATOM     28  C   UNL A   1      31.345  32.030  26.447  1.00  0.00     0.202 C 
BRANCH  28  29
ATOM     29  C   UNL A   1      31.974  33.343  26.926  1.00  0.00     0.261 C 
BRANCH  29  30
ATOM     30  O   UNL A   1      32.795  33.153  28.090  1.00  0.00    -0.460 OA
BRANCH  30  31
ATOM     31  C   UNL A   1      33.894  33.941  28.143  1.00  0.00     0.338 C 
ATOM     32  O   UNL A   1      33.927  35.164  28.100  1.00  0.00    -0.246 OA
BRANCH  31  33
ATOM     33  C   UNL A   1      35.087  33.128  28.442  1.00  0.00     0.060 A 
ATOM     34  C   UNL A   1      34.879  31.867  29.017  1.00  0.00     0.016 A 
ATOM     35  C   UNL A   1      36.382  33.605  28.229  1.00  0.00     0.016 A 
ATOM     36  C   UNL A   1      35.964  31.105  29.439  1.00  0.00     0.010 A 
ATOM     37  C   UNL A   1      37.472  32.840  28.659  1.00  0.00     0.010 A 
ATOM     38  C   UNL A   1      37.265  31.606  29.302  1.00  0.00    -0.014 A 
BRANCH  38  39
ATOM     39  C   UNL A   1      38.389  30.905  29.969  1.00  0.00     0.031 A 
ATOM     40  C   UNL A   1      38.732  31.264  31.390  1.00  0.00     0.074 A 
ATOM     41  C   UNL A   1      39.085  29.953  29.325  1.00  0.00     0.049 A 
ATOM     42  N   UNL A   1      39.664  30.774  32.165  1.00  0.00    -0.248 NA
ATOM     43  C   UNL A   1      37.917  32.317  32.019  1.00  0.00     0.031 C 
ATOM     44  C   UNL A   1      38.845  29.513  27.952  1.00  0.00     0.029 A 
ATOM     45  N   UNL A   1      40.150  29.193  29.741  1.00  0.00    -0.354 N 
ATOM     46  C   UNL A   1      39.567  31.474  33.362  1.00  0.00     0.074 A 
ATOM     47  C   UNL A   1      38.497  32.434  33.205  1.00  0.00     0.031 C 
ATOM     48  C   UNL A   1      39.749  28.571  27.632  1.00  0.00     0.029 A 
ATOM     49  C   UNL A   1      40.642  28.356  28.768  1.00  0.00     0.049 A 
ATOM     50  H   UNL A   1      40.525  29.244  30.649  1.00  0.00     0.167 HD
ATOM     51  C   UNL A   1      40.290  31.320  34.497  1.00  0.00     0.034 A 
ATOM     52  C   UNL A   1      41.699  27.520  28.792  1.00  0.00     0.034 A 
ATOM     53  C   UNL A   1      41.337  30.348  34.660  1.00  0.00     0.049 A 
ATOM     54  C   UNL A   1      42.504  27.384  30.059  1.00  0.00     0.074 A 
ATOM     55  C   UNL A   1      42.092  30.077  35.787  1.00  0.00     0.029 A 
ATOM     56  N   UNL A   1      41.788  29.496  33.663  1.00  0.00    -0.354 N 
ATOM     57  N   UNL A   1      42.317  27.961  31.222  1.00  0.00    -0.248 NA
ATOM     58  C   UNL A   1      43.644  26.457  30.026  1.00  0.00     0.031 C 
ATOM     59  C   UNL A   1      43.017  29.078  35.464  1.00  0.00     0.029 A 
ATOM     60  C   UNL A   1      42.820  28.709  34.143  1.00  0.00     0.049 A 
ATOM     61  H   UNL A   1      41.426  29.457  32.749  1.00  0.00     0.167 HD
ATOM     62  C   UNL A   1      43.288  27.435  32.069  1.00  0.00     0.074 A 
ATOM     63  C   UNL A   1      44.051  26.484  31.288  1.00  0.00     0.031 C 
ATOM     64  C   UNL A   1      43.535  27.724  33.371  1.00  0.00     0.034 A 
BRANCH  51  65
ATOM     65  C   UNL A   1      39.951  32.209  35.664  1.00  0.00     0.023 A 
ATOM     66  C   UNL A   1      40.606  33.450  35.809  1.00  0.00     0.012 A 
ATOM     67  C   UNL A   1      38.959  31.838  36.592  1.00  0.00     0.148 A 
ATOM     68  C   UNL A   1      40.304  34.291  36.879  1.00  0.00     0.002 A 
ATOM     69  C   UNL A   1      38.635  32.701  37.633  1.00  0.00     0.091 A 
ATOM     70  F   UNL A   1      38.367  30.644  36.454  1.00  0.00    -0.205 F 
ATOM     71  C   UNL A   1      39.313  33.921  37.784  1.00  0.00     0.022 A 
BRANCH  69  72
ATOM     72  S   UNL A   1      37.320  32.345  38.804  1.00  0.00     0.127 S 
ATOM     73  O   UNL A   1      37.719  33.155  39.953  1.00  0.00    -0.237 OA
ATOM     74  O   UNL A   1      36.134  32.831  38.098  1.00  0.00    -0.237 OA
ATOM     75  O   UNL A   1      37.351  30.903  39.010  1.00  0.00    -0.744 OA
ENDBRANCH  69  72
ENDBRANCH  51  65
BRANCH  52  76
ATOM     76  C   UNL A   1      42.026  26.701  27.591  1.00  0.00     0.023 A 
ATOM     77  C   UNL A   1      42.673  27.308  26.496  1.00  0.00     0.012 A 
ATOM     78  C   UNL A   1      41.719  25.329  27.532  1.00  0.00     0.148 A 
ATOM     79  C   UNL A   1      42.984  26.568  25.355  1.00  0.00     0.002 A 
ATOM     80  C   UNL A   1      42.079  24.585  26.414  1.00  0.00     0.091 A 
ATOM     81  F   UNL A   1      41.085  24.774  28.576  1.00  0.00    -0.205 F 
ATOM     82  C   UNL A   1      42.697  25.205  25.317  1.00  0.00     0.022 A 
BRANCH  80  83
ATOM     83  S   UNL A   1      41.865  22.803  26.333  1.00  0.00     0.127 S 
ATOM     84  O   UNL A   1      40.411  22.674  26.362  1.00  0.00    -0.237 OA
ATOM     85  O   UNL A   1      42.489  22.481  25.050  1.00  0.00    -0.237 OA
ATOM     86  O   UNL A   1      42.571  22.270  27.491  1.00  0.00    -0.744 OA
ENDBRANCH  80  83
ENDBRANCH  52  76
BRANCH  64  87
ATOM     87  C   UNL A   1      44.650  26.977  34.056  1.00  0.00     0.023 A 
ATOM     88  C   UNL A   1      45.960  27.494  34.028  1.00  0.00     0.012 A 
ATOM     89  C   UNL A   1      44.385  25.804  34.791  1.00  0.00     0.148 A 
ATOM     90  C   UNL A   1      46.996  26.837  34.693  1.00  0.00     0.002 A 
ATOM     91  C   UNL A   1      45.413  25.181  35.490  1.00  0.00     0.091 A 
ATOM     92  F   UNL A   1      43.137  25.316  34.790  1.00  0.00    -0.205 F 
ATOM     93  C   UNL A   1      46.720  25.689  35.433  1.00  0.00     0.022 A 
BRANCH  91  94
ATOM     94  S   UNL A   1      45.129  23.755  36.547  1.00  0.00     0.127 S 
ATOM     95  O   UNL A   1      44.254  22.935  35.711  1.00  0.00    -0.237 OA
ATOM     96  O   UNL A   1      46.481  23.223  36.722  1.00  0.00    -0.237 OA
ATOM     97  O   UNL A   1      44.525  24.276  37.766  1.00  0.00    -0.744 OA
ENDBRANCH  91  94
ENDBRANCH  64  87
ENDBRANCH  38  39
ENDBRANCH  31  33
ENDBRANCH  30  31
ENDBRANCH  29  30
ENDBRANCH  28  29
ENDBRANCH   1  28
TORSDOF 20
ENDMDL
