MODEL 1
REMARK VINA RESULT:     -12.2      0.000      0.000
REMARK SMILES Nc1ccc(-c2cc(Cl)cc3c2O[C@H](C(F)(F)F)C(C(=O)OCCOCCOC(=O)c2ccc(-c4c5nc(c(-c6cccc(S(=O)(=O)[O-])c6F)c6ccc([nH]6)c(-c6cccc(S(=O)(=O)[O-])c6F)c6nc(c(-c7cccc(S(=O)(=O)[O-])c7F)c7ccc4[nH]7)C=C6)C=C5)cc2)=C3)cc1
REMARK SMILES IDX 26 1 25 2 24 3 23 4 22 5 20 6 21 7 19 8 6 9 7 10 12 11 8 12
REMARK SMILES IDX 11 13 13 14 9 15 10 16 94 17 14 18 5 19 2 20 3 21 96 22 4 23
REMARK SMILES IDX 95 24 1 25 15 28 16 29 17 30 18 31 27 32 28 33 29 34 30 35
REMARK SMILES IDX 31 36 32 37 93 38 33 39 92 40 34 41 35 42 36 43 86 44 37 45
REMARK SMILES IDX 91 46 85 47 87 48 38 49 90 50 84 51 83 52 39 54 71 55 51 56
REMARK SMILES IDX 70 57 52 58 55 59 69 60 88 61 53 62 54 63 68 65 89 66 56 67
REMARK SMILES IDX 40 68 41 69 49 70 42 71 44 72 50 73 43 74 45 75 46 76 47 77
REMARK SMILES IDX 48 78 72 79 73 80 81 81 74 82 76 83 82 84 75 85 77 86 78 87
REMARK SMILES IDX 79 88 80 89 57 90 58 91 66 92 59 93 61 94 67 95 60 96 62 97
REMARK SMILES IDX 63 98 64 99 65 100
REMARK H PARENT 1 26 1 27 87 53 55 64
REMARK Flexibility Score: inf
ROOT
ATOM      1  C   UNL A   1      35.964  20.101  25.007  1.00  0.00     0.202 C 
ENDROOT
BRANCH   1   2
ATOM      2  O   UNL A   1      34.657  20.512  24.609  1.00  0.00    -0.374 OA
BRANCH   2   3
ATOM      3  C   UNL A   1      33.576  20.327  25.520  1.00  0.00     0.202 C 
BRANCH   3   4
ATOM      4  C   UNL A   1      32.152  20.570  25.005  1.00  0.00     0.261 C 
BRANCH   4   5
ATOM      5  O   UNL A   1      31.730  21.929  25.195  1.00  0.00    -0.460 OA
BRANCH   5   6
ATOM      6  C   UNL A   1      31.781  22.690  24.078  1.00  0.00     0.338 C 
ATOM      7  O   UNL A   1      31.811  22.300  22.922  1.00  0.00    -0.246 OA
BRANCH   6   8
ATOM      8  C   UNL A   1      31.655  24.115  24.440  1.00  0.00     0.087 C 
ATOM      9  C   UNL A   1      31.575  28.261  24.981  1.00  0.00     0.026 A 
ATOM     10  C   UNL A   1      30.714  29.017  24.161  1.00  0.00     0.033 A 
ATOM     11  C   UNL A   1      31.523  26.854  24.883  1.00  0.00     0.135 A 
ATOM     12  C   UNL A   1      29.832  28.394  23.281  1.00  0.00     0.042 A 
ATOM     13  C   UNL A   1      30.667  26.238  23.961  1.00  0.00     0.019 A 
ATOM     14  O   UNL A   1      32.311  26.130  25.740  1.00  0.00    -0.475 OA
ATOM     15  Cl  UNL A   1      28.799  29.345  22.287  1.00  0.00    -0.084 Cl
ATOM     16  C   UNL A   1      29.807  27.008  23.175  1.00  0.00     0.032 A 
ATOM     17  C   UNL A   1      30.730  24.803  23.760  1.00  0.00     0.027 C 
ATOM     18  C   UNL A   1      32.551  24.720  25.483  1.00  0.00     0.316 C 
BRANCH   9  19
ATOM     19  C   UNL A   1      32.537  28.959  25.855  1.00  0.00    -0.014 A 
ATOM     20  C   UNL A   1      34.363  30.295  27.565  1.00  0.00     0.031 A 
ATOM     21  C   UNL A   1      33.073  30.788  27.378  1.00  0.00     0.026 A 
ATOM     22  C   UNL A   1      34.717  29.101  26.938  1.00  0.00     0.026 A 
ATOM     23  C   UNL A   1      32.174  30.137  26.527  1.00  0.00     0.011 A 
ATOM     24  C   UNL A   1      33.822  28.447  26.081  1.00  0.00     0.011 A 
BRANCH  20  25
ATOM     25  N   UNL A   1      35.222  30.899  28.472  1.00  0.00    -0.399 N 
ATOM     26  H   UNL A   1      35.311  31.879  28.487  1.00  0.00     0.156 HD
ATOM     27  H   UNL A   1      35.742  30.347  29.100  1.00  0.00     0.156 HD
ENDBRANCH  20  25
ENDBRANCH   9  19
BRANCH  18  28
ATOM     28  C   UNL A   1      34.042  24.534  25.165  1.00  0.00     0.430 C 
ATOM     29  F   UNL A   1      34.248  24.402  23.834  1.00  0.00    -0.167 F 
ATOM     30  F   UNL A   1      34.782  25.588  25.575  1.00  0.00    -0.167 F 
ATOM     31  F   UNL A   1      34.544  23.427  25.763  1.00  0.00    -0.167 F 
ENDBRANCH  18  28
ENDBRANCH   6   8
ENDBRANCH   5   6
ENDBRANCH   4   5
ENDBRANCH   3   4
ENDBRANCH   2   3
ENDBRANCH   1   2
BRANCH   1  32
ATOM     32  C   UNL A   1      37.161  20.999  24.671  1.00  0.00     0.261 C 
BRANCH  32  33
ATOM     33  O   UNL A   1      37.632  21.758  25.795  1.00  0.00    -0.460 OA
BRANCH  33  34
ATOM     34  C   UNL A   1      38.924  21.518  26.139  1.00  0.00     0.338 C 
ATOM     35  O   UNL A   1      39.578  20.520  25.878  1.00  0.00    -0.246 OA
BRANCH  34  36
ATOM     36  C   UNL A   1      39.512  22.744  26.709  1.00  0.00     0.060 A 
ATOM     37  C   UNL A   1      40.535  22.680  27.655  1.00  0.00     0.016 A 
ATOM     38  C   UNL A   1      39.047  23.980  26.243  1.00  0.00     0.016 A 
ATOM     39  C   UNL A   1      41.116  23.866  28.109  1.00  0.00     0.010 A 
ATOM     40  C   UNL A   1      39.629  25.163  26.698  1.00  0.00     0.010 A 
ATOM     41  C   UNL A   1      40.685  25.114  27.617  1.00  0.00    -0.014 A 
BRANCH  41  42
ATOM     42  C   UNL A   1      41.453  26.340  27.941  1.00  0.00     0.031 A 
ATOM     43  C   UNL A   1      42.847  26.562  27.434  1.00  0.00     0.074 A 
ATOM     44  C   UNL A   1      40.872  27.260  28.738  1.00  0.00     0.049 A 
ATOM     45  N   UNL A   1      43.593  27.630  27.551  1.00  0.00    -0.248 NA
ATOM     46  C   UNL A   1      43.491  25.454  26.713  1.00  0.00     0.031 C 
ATOM     47  C   UNL A   1      39.552  27.115  29.356  1.00  0.00     0.029 A 
ATOM     48  N   UNL A   1      41.307  28.488  29.163  1.00  0.00    -0.354 N 
ATOM     49  C   UNL A   1      44.795  27.326  26.927  1.00  0.00     0.074 A 
ATOM     50  C   UNL A   1      44.688  25.965  26.447  1.00  0.00     0.031 C 
ATOM     51  C   UNL A   1      39.270  28.226  30.054  1.00  0.00     0.029 A 
ATOM     52  C   UNL A   1      40.396  29.150  29.951  1.00  0.00     0.049 A 
ATOM     53  H   UNL A   1      42.187  28.860  28.926  1.00  0.00     0.167 HD
ATOM     54  C   UNL A   1      45.877  28.123  26.751  1.00  0.00     0.034 A 
ATOM     55  C   UNL A   1      40.449  30.369  30.522  1.00  0.00     0.034 A 
ATOM     56  C   UNL A   1      45.971  29.480  27.219  1.00  0.00     0.049 A 
ATOM     57  C   UNL A   1      41.652  31.238  30.294  1.00  0.00     0.074 A 
ATOM     58  C   UNL A   1      47.000  30.383  27.017  1.00  0.00     0.029 A 
ATOM     59  N   UNL A   1      45.019  30.124  27.993  1.00  0.00    -0.354 N 
ATOM     60  N   UNL A   1      42.715  30.988  29.571  1.00  0.00    -0.248 NA
ATOM     61  C   UNL A   1      41.655  32.561  30.933  1.00  0.00     0.031 C 
ATOM     62  C   UNL A   1      46.682  31.566  27.690  1.00  0.00     0.029 A 
ATOM     63  C   UNL A   1      45.443  31.408  28.287  1.00  0.00     0.049 A 
ATOM     64  H   UNL A   1      44.167  29.727  28.288  1.00  0.00     0.167 HD
ATOM     65  C   UNL A   1      43.504  32.130  29.647  1.00  0.00     0.074 A 
ATOM     66  C   UNL A   1      42.791  33.077  30.480  1.00  0.00     0.031 C 
ATOM     67  C   UNL A   1      44.712  32.360  29.083  1.00  0.00     0.034 A 
BRANCH  54  68
ATOM     68  C   UNL A   1      47.041  27.586  25.967  1.00  0.00     0.023 A 
ATOM     69  C   UNL A   1      47.883  26.626  26.564  1.00  0.00     0.012 A 
ATOM     70  C   UNL A   1      47.216  27.915  24.609  1.00  0.00     0.148 A 
ATOM     71  C   UNL A   1      48.885  26.004  25.821  1.00  0.00     0.002 A 
ATOM     72  C   UNL A   1      48.198  27.270  23.868  1.00  0.00     0.091 A 
ATOM     73  F   UNL A   1      46.404  28.834  24.067  1.00  0.00    -0.205 F 
ATOM     74  C   UNL A   1      49.034  26.315  24.473  1.00  0.00     0.022 A 
BRANCH  72  75
ATOM     75  S   UNL A   1      48.443  27.560  22.112  1.00  0.00     0.127 S 
ATOM     76  O   UNL A   1      48.730  26.210  21.629  1.00  0.00    -0.237 OA
ATOM     77  O   UNL A   1      47.141  28.090  21.705  1.00  0.00    -0.237 OA
ATOM     78  O   UNL A   1      49.549  28.501  22.007  1.00  0.00    -0.744 OA
ENDBRANCH  72  75
ENDBRANCH  54  68
BRANCH  55  79
ATOM     79  C   UNL A   1      39.278  30.856  31.297  1.00  0.00     0.023 A 
ATOM     80  C   UNL A   1      39.207  30.592  32.677  1.00  0.00     0.012 A 
ATOM     81  C   UNL A   1      38.286  31.649  30.690  1.00  0.00     0.148 A 
ATOM     82  C   UNL A   1      38.160  31.107  33.442  1.00  0.00     0.002 A 
ATOM     83  C   UNL A   1      37.267  32.190  31.464  1.00  0.00     0.091 A 
ATOM     84  F   UNL A   1      38.384  31.887  29.375  1.00  0.00    -0.205 F 
ATOM     85  C   UNL A   1      37.197  31.913  32.839  1.00  0.00     0.022 A 
BRANCH  83  86
ATOM     86  S   UNL A   1      36.034  33.313  30.798  1.00  0.00     0.127 S 
ATOM     87  O   UNL A   1      34.824  32.496  30.855  1.00  0.00    -0.237 OA
ATOM     88  O   UNL A   1      36.083  34.412  31.763  1.00  0.00    -0.237 OA
ATOM     89  O   UNL A   1      36.492  33.657  29.459  1.00  0.00    -0.744 OA
ENDBRANCH  83  86
ENDBRANCH  55  79
BRANCH  67  90
ATOM     90  C   UNL A   1      45.366  33.695  29.313  1.00  0.00     0.023 A 
ATOM     91  C   UNL A   1      46.233  33.861  30.408  1.00  0.00     0.012 A 
ATOM     92  C   UNL A   1      45.242  34.724  28.358  1.00  0.00     0.148 A 
ATOM     93  C   UNL A   1      46.971  35.035  30.552  1.00  0.00     0.002 A 
ATOM     94  C   UNL A   1      46.006  35.876  28.488  1.00  0.00     0.091 A 
ATOM     95  F   UNL A   1      44.405  34.538  27.327  1.00  0.00    -0.205 F 
ATOM     96  C   UNL A   1      46.869  36.035  29.585  1.00  0.00     0.022 A 
BRANCH  94  97
ATOM     97  S   UNL A   1      45.998  37.189  27.262  1.00  0.00     0.127 S 
ATOM     98  O   UNL A   1      46.957  38.135  27.834  1.00  0.00    -0.237 OA
ATOM     99  O   UNL A   1      46.467  36.493  26.064  1.00  0.00    -0.237 OA
ATOM    100  O   UNL A   1      44.626  37.671  27.191  1.00  0.00    -0.744 OA
ENDBRANCH  94  97
ENDBRANCH  67  90
ENDBRANCH  41  42
ENDBRANCH  34  36
ENDBRANCH  33  34
ENDBRANCH  32  33
ENDBRANCH   1  32
TORSDOF 20
ENDMDL
MODEL 2
REMARK VINA RESULT:     -11.5      1.761      2.065
REMARK SMILES Nc1ccc(-c2cc(Cl)cc3c2O[C@H](C(F)(F)F)C(C(=O)OCCOCCOC(=O)c2ccc(-c4c5nc(c(-c6cccc(S(=O)(=O)[O-])c6F)c6ccc([nH]6)c(-c6cccc(S(=O)(=O)[O-])c6F)c6nc(c(-c7cccc(S(=O)(=O)[O-])c7F)c7ccc4[nH]7)C=C6)C=C5)cc2)=C3)cc1
REMARK SMILES IDX 26 1 25 2 24 3 23 4 22 5 20 6 21 7 19 8 6 9 7 10 12 11 8 12
REMARK SMILES IDX 11 13 13 14 9 15 10 16 94 17 14 18 5 19 2 20 3 21 96 22 4 23
REMARK SMILES IDX 95 24 1 25 15 28 16 29 17 30 18 31 27 32 28 33 29 34 30 35
REMARK SMILES IDX 31 36 32 37 93 38 33 39 92 40 34 41 35 42 36 43 86 44 37 45
REMARK SMILES IDX 91 46 85 47 87 48 38 49 90 50 84 51 83 52 39 54 71 55 51 56
REMARK SMILES IDX 70 57 52 58 55 59 69 60 88 61 53 62 54 63 68 65 89 66 56 67
REMARK SMILES IDX 40 68 41 69 49 70 42 71 44 72 50 73 43 74 45 75 46 76 47 77
REMARK SMILES IDX 48 78 72 79 73 80 81 81 74 82 76 83 82 84 75 85 77 86 78 87
REMARK SMILES IDX 79 88 80 89 57 90 58 91 66 92 59 93 61 94 67 95 60 96 62 97
REMARK SMILES IDX 63 98 64 99 65 100
REMARK H PARENT 1 26 1 27 87 53 55 64
REMARK Flexibility Score: inf
ROOT
ATOM      1  C   UNL A   1      36.128  20.194  24.975  1.00  0.00     0.202 C 
ENDROOT
BRANCH   1   2
ATOM      2  O   UNL A   1      34.774  19.758  24.880  1.00  0.00    -0.374 OA
BRANCH   2   3
ATOM      3  C   UNL A   1      33.748  20.592  25.412  1.00  0.00     0.202 C 
BRANCH   3   4
ATOM      4  C   UNL A   1      32.415  20.662  24.658  1.00  0.00     0.261 C 
BRANCH   4   5
ATOM      5  O   UNL A   1      31.775  21.939  24.803  1.00  0.00    -0.460 OA
BRANCH   5   6
ATOM      6  C   UNL A   1      31.937  22.766  23.745  1.00  0.00     0.338 C 
ATOM      7  O   UNL A   1      32.110  22.447  22.580  1.00  0.00    -0.246 OA
BRANCH   6   8
ATOM      8  C   UNL A   1      31.737  24.165  24.172  1.00  0.00     0.087 C 
ATOM      9  C   UNL A   1      31.427  28.273  24.894  1.00  0.00     0.026 A 
ATOM     10  C   UNL A   1      30.501  29.009  24.129  1.00  0.00     0.033 A 
ATOM     11  C   UNL A   1      31.455  26.870  24.736  1.00  0.00     0.135 A 
ATOM     12  C   UNL A   1      29.634  28.371  23.245  1.00  0.00     0.042 A 
ATOM     13  C   UNL A   1      30.613  26.243  23.809  1.00  0.00     0.019 A 
ATOM     14  O   UNL A   1      32.309  26.159  25.541  1.00  0.00    -0.475 OA
ATOM     15  Cl  UNL A   1      28.519  29.299  22.319  1.00  0.00    -0.084 Cl
ATOM     16  C   UNL A   1      29.687  26.992  23.080  1.00  0.00     0.032 A 
ATOM     17  C   UNL A   1      30.755  24.824  23.545  1.00  0.00     0.027 C 
ATOM     18  C   UNL A   1      32.624  24.778  25.217  1.00  0.00     0.316 C 
BRANCH   9  19
ATOM     19  C   UNL A   1      32.370  28.989  25.773  1.00  0.00    -0.014 A 
ATOM     20  C   UNL A   1      34.158  30.364  27.493  1.00  0.00     0.031 A 
ATOM     21  C   UNL A   1      32.866  30.842  27.282  1.00  0.00     0.026 A 
ATOM     22  C   UNL A   1      34.533  29.165  26.885  1.00  0.00     0.026 A 
ATOM     23  C   UNL A   1      31.987  30.172  26.426  1.00  0.00     0.011 A 
ATOM     24  C   UNL A   1      33.657  28.493  26.023  1.00  0.00     0.011 A 
BRANCH  20  25
ATOM     25  N   UNL A   1      34.998  30.986  28.404  1.00  0.00    -0.399 N 
ATOM     26  H   UNL A   1      35.940  31.155  28.170  1.00  0.00     0.156 HD
ATOM     27  H   UNL A   1      34.653  31.259  29.286  1.00  0.00     0.156 HD
ENDBRANCH  20  25
ENDBRANCH   9  19
BRANCH  18  28
ATOM     28  C   UNL A   1      34.114  24.695  24.854  1.00  0.00     0.430 C 
ATOM     29  F   UNL A   1      34.897  24.906  25.938  1.00  0.00    -0.167 F 
ATOM     30  F   UNL A   1      34.446  23.483  24.358  1.00  0.00    -0.167 F 
ATOM     31  F   UNL A   1      34.452  25.621  23.926  1.00  0.00    -0.167 F 
ENDBRANCH  18  28
ENDBRANCH   6   8
ENDBRANCH   5   6
ENDBRANCH   4   5
ENDBRANCH   3   4
ENDBRANCH   2   3
ENDBRANCH   1   2
BRANCH   1  32
ATOM     32  C   UNL A   1      36.443  21.489  25.736  1.00  0.00     0.261 C 
BRANCH  32  33
ATOM     33  O   UNL A   1      37.666  22.110  25.313  1.00  0.00    -0.460 OA
BRANCH  33  34
ATOM     34  C   UNL A   1      38.764  21.736  26.020  1.00  0.00     0.338 C 
ATOM     35  O   UNL A   1      39.262  20.621  26.065  1.00  0.00    -0.246 OA
BRANCH  34  36
ATOM     36  C   UNL A   1      39.414  22.935  26.581  1.00  0.00     0.060 A 
ATOM     37  C   UNL A   1      40.442  22.825  27.518  1.00  0.00     0.016 A 
ATOM     38  C   UNL A   1      39.002  24.190  26.116  1.00  0.00     0.016 A 
ATOM     39  C   UNL A   1      41.082  23.985  27.963  1.00  0.00     0.010 A 
ATOM     40  C   UNL A   1      39.643  25.346  26.562  1.00  0.00     0.010 A 
ATOM     41  C   UNL A   1      40.704  25.250  27.471  1.00  0.00    -0.014 A 
BRANCH  41  42
ATOM     42  C   UNL A   1      41.531  26.440  27.785  1.00  0.00     0.031 A 
ATOM     43  C   UNL A   1      42.950  26.567  27.316  1.00  0.00     0.074 A 
ATOM     44  C   UNL A   1      40.981  27.414  28.537  1.00  0.00     0.049 A 
ATOM     45  N   UNL A   1      43.753  27.594  27.426  1.00  0.00    -0.248 NA
ATOM     46  C   UNL A   1      43.551  25.403  26.647  1.00  0.00     0.031 C 
ATOM     47  C   UNL A   1      39.636  27.363  29.116  1.00  0.00     0.029 A 
ATOM     48  N   UNL A   1      41.472  28.628  28.940  1.00  0.00    -0.354 N 
ATOM     49  C   UNL A   1      44.953  27.205  26.849  1.00  0.00     0.074 A 
ATOM     50  C   UNL A   1      44.783  25.838  26.404  1.00  0.00     0.031 C 
ATOM     51  C   UNL A   1      39.398  28.508  29.773  1.00  0.00     0.029 A 
ATOM     52  C   UNL A   1      40.578  29.364  29.681  1.00  0.00     0.049 A 
ATOM     53  H   UNL A   1      42.379  28.943  28.721  1.00  0.00     0.167 HD
ATOM     54  C   UNL A   1      46.083  27.933  26.685  1.00  0.00     0.034 A 
ATOM     55  C   UNL A   1      40.684  30.594  30.218  1.00  0.00     0.034 A 
ATOM     56  C   UNL A   1      46.241  29.296  27.117  1.00  0.00     0.049 A 
ATOM     57  C   UNL A   1      41.940  31.386  30.004  1.00  0.00     0.074 A 
ATOM     58  C   UNL A   1      47.327  30.133  26.922  1.00  0.00     0.029 A 
ATOM     59  N   UNL A   1      45.306  30.016  27.842  1.00  0.00    -0.354 N 
ATOM     60  N   UNL A   1      43.009  31.056  29.322  1.00  0.00    -0.248 NA
ATOM     61  C   UNL A   1      42.000  32.727  30.605  1.00  0.00     0.031 C 
ATOM     62  C   UNL A   1      47.057  31.351  27.551  1.00  0.00     0.029 A 
ATOM     63  C   UNL A   1      45.794  31.282  28.113  1.00  0.00     0.049 A 
ATOM     64  H   UNL A   1      44.424  29.677  28.121  1.00  0.00     0.167 HD
ATOM     65  C   UNL A   1      43.859  32.153  29.391  1.00  0.00     0.074 A 
ATOM     66  C   UNL A   1      43.178  33.163  30.174  1.00  0.00     0.031 C 
ATOM     67  C   UNL A   1      45.095  32.298  28.858  1.00  0.00     0.034 A 
BRANCH  54  68
ATOM     68  C   UNL A   1      47.238  27.308  25.953  1.00  0.00     0.023 A 
ATOM     69  C   UNL A   1      47.346  27.493  24.560  1.00  0.00     0.012 A 
ATOM     70  C   UNL A   1      48.281  26.669  26.652  1.00  0.00     0.148 A 
ATOM     71  C   UNL A   1      48.474  27.050  23.872  1.00  0.00     0.002 A 
ATOM     72  C   UNL A   1      49.414  26.254  25.964  1.00  0.00     0.091 A 
ATOM     73  F   UNL A   1      48.151  26.501  27.976  1.00  0.00    -0.205 F 
ATOM     74  C   UNL A   1      49.512  26.443  24.575  1.00  0.00     0.022 A 
BRANCH  72  75
ATOM     75  S   UNL A   1      50.830  25.506  26.778  1.00  0.00     0.127 S 
ATOM     76  O   UNL A   1      51.698  25.207  25.640  1.00  0.00    -0.237 OA
ATOM     77  O   UNL A   1      51.300  26.595  27.635  1.00  0.00    -0.237 OA
ATOM     78  O   UNL A   1      50.321  24.342  27.489  1.00  0.00    -0.744 OA
ENDBRANCH  72  75
ENDBRANCH  54  68
BRANCH  55  79
ATOM     79  C   UNL A   1      39.520  31.170  30.941  1.00  0.00     0.023 A 
ATOM     80  C   UNL A   1      38.396  31.596  30.210  1.00  0.00     0.012 A 
ATOM     81  C   UNL A   1      39.490  31.214  32.348  1.00  0.00     0.148 A 
ATOM     82  C   UNL A   1      37.259  32.064  30.869  1.00  0.00     0.002 A 
ATOM     83  C   UNL A   1      38.341  31.646  32.999  1.00  0.00     0.091 A 
ATOM     84  F   UNL A   1      40.573  30.796  33.016  1.00  0.00    -0.205 F 
ATOM     85  C   UNL A   1      37.228  32.080  32.262  1.00  0.00     0.022 A 
BRANCH  83  86
ATOM     86  S   UNL A   1      38.170  31.615  34.786  1.00  0.00     0.127 S 
ATOM     87  O   UNL A   1      39.342  32.377  35.211  1.00  0.00    -0.237 OA
ATOM     88  O   UNL A   1      36.889  32.298  34.973  1.00  0.00    -0.237 OA
ATOM     89  O   UNL A   1      38.170  30.208  35.162  1.00  0.00    -0.744 OA
ENDBRANCH  83  86
ENDBRANCH  55  79
BRANCH  67  90
ATOM     90  C   UNL A   1      45.817  33.599  29.071  1.00  0.00     0.023 A 
ATOM     91  C   UNL A   1      46.721  33.722  30.142  1.00  0.00     0.012 A 
ATOM     92  C   UNL A   1      45.716  34.635  28.120  1.00  0.00     0.148 A 
ATOM     93  C   UNL A   1      47.517  34.860  30.266  1.00  0.00     0.002 A 
ATOM     94  C   UNL A   1      46.537  35.750  28.231  1.00  0.00     0.091 A 
ATOM     95  F   UNL A   1      44.844  34.490  27.112  1.00  0.00    -0.205 F 
ATOM     96  C   UNL A   1      47.436  35.865  29.304  1.00  0.00     0.022 A 
BRANCH  94  97
ATOM     97  S   UNL A   1      46.558  37.063  27.005  1.00  0.00     0.127 S 
ATOM     98  O   UNL A   1      47.585  37.955  27.544  1.00  0.00    -0.237 OA
ATOM     99  O   UNL A   1      46.948  36.346  25.792  1.00  0.00    -0.237 OA
ATOM    100  O   UNL A   1      45.212  37.619  26.982  1.00  0.00    -0.744 OA
ENDBRANCH  94  97
ENDBRANCH  67  90
ENDBRANCH  41  42
ENDBRANCH  34  36
ENDBRANCH  33  34
ENDBRANCH  32  33
ENDBRANCH   1  32
TORSDOF 20
ENDMDL
MODEL 3
REMARK VINA RESULT:     -11.5      2.150      2.861
REMARK SMILES Nc1ccc(-c2cc(Cl)cc3c2O[C@H](C(F)(F)F)C(C(=O)OCCOCCOC(=O)c2ccc(-c4c5nc(c(-c6cccc(S(=O)(=O)[O-])c6F)c6ccc([nH]6)c(-c6cccc(S(=O)(=O)[O-])c6F)c6nc(c(-c7cccc(S(=O)(=O)[O-])c7F)c7ccc4[nH]7)C=C6)C=C5)cc2)=C3)cc1
REMARK SMILES IDX 26 1 25 2 24 3 23 4 22 5 20 6 21 7 19 8 6 9 7 10 12 11 8 12
REMARK SMILES IDX 11 13 13 14 9 15 10 16 94 17 14 18 5 19 2 20 3 21 96 22 4 23
REMARK SMILES IDX 95 24 1 25 15 28 16 29 17 30 18 31 27 32 28 33 29 34 30 35
REMARK SMILES IDX 31 36 32 37 93 38 33 39 92 40 34 41 35 42 36 43 86 44 37 45
REMARK SMILES IDX 91 46 85 47 87 48 38 49 90 50 84 51 83 52 39 54 71 55 51 56
REMARK SMILES IDX 70 57 52 58 55 59 69 60 88 61 53 62 54 63 68 65 89 66 56 67
REMARK SMILES IDX 40 68 41 69 49 70 42 71 44 72 50 73 43 74 45 75 46 76 47 77
REMARK SMILES IDX 48 78 72 79 73 80 81 81 74 82 76 83 82 84 75 85 77 86 78 87
REMARK SMILES IDX 79 88 80 89 57 90 58 91 66 92 59 93 61 94 67 95 60 96 62 97
REMARK SMILES IDX 63 98 64 99 65 100
REMARK H PARENT 1 26 1 27 87 53 55 64
REMARK Flexibility Score: inf
ROOT
ATOM      1  C   UNL A   1      35.927  20.943  24.828  1.00  0.00     0.202 C 
ENDROOT
BRANCH   1   2
ATOM      2  O   UNL A   1      34.790  20.097  24.984  1.00  0.00    -0.374 OA
BRANCH   2   3
ATOM      3  C   UNL A   1      33.781  20.474  25.918  1.00  0.00     0.202 C 
BRANCH   3   4
ATOM      4  C   UNL A   1      32.600  21.306  25.404  1.00  0.00     0.261 C 
BRANCH   4   5
ATOM      5  O   UNL A   1      32.906  22.707  25.350  1.00  0.00    -0.460 OA
BRANCH   5   6
ATOM      6  C   UNL A   1      33.108  23.186  24.101  1.00  0.00     0.338 C 
ATOM      7  O   UNL A   1      33.347  22.539  23.094  1.00  0.00    -0.246 OA
BRANCH   6   8
ATOM      8  C   UNL A   1      32.865  24.641  24.079  1.00  0.00     0.087 C 
ATOM      9  C   UNL A   1      31.943  28.696  24.530  1.00  0.00     0.026 A 
ATOM     10  C   UNL A   1      32.700  29.447  25.450  1.00  0.00     0.033 A 
ATOM     11  C   UNL A   1      32.323  27.357  24.289  1.00  0.00     0.135 A 
ATOM     12  C   UNL A   1      33.797  28.886  26.102  1.00  0.00     0.042 A 
ATOM     13  C   UNL A   1      33.397  26.789  24.985  1.00  0.00     0.019 A 
ATOM     14  O   UNL A   1      31.624  26.662  23.336  1.00  0.00    -0.475 OA
ATOM     15  Cl  UNL A   1      34.697  29.826  27.227  1.00  0.00    -0.084 Cl
ATOM     16  C   UNL A   1      34.147  27.560  25.875  1.00  0.00     0.032 A 
ATOM     17  C   UNL A   1      33.684  25.374  24.844  1.00  0.00     0.027 C 
ATOM     18  C   UNL A   1      31.741  25.216  23.266  1.00  0.00     0.316 C 
BRANCH   9  19
ATOM     19  C   UNL A   1      30.753  29.305  23.906  1.00  0.00    -0.014 A 
ATOM     20  C   UNL A   1      28.443  30.447  22.721  1.00  0.00     0.031 A 
ATOM     21  C   UNL A   1      28.869  29.169  22.362  1.00  0.00     0.026 A 
ATOM     22  C   UNL A   1      29.145  31.128  23.716  1.00  0.00     0.026 A 
ATOM     23  C   UNL A   1      30.013  28.609  22.938  1.00  0.00     0.011 A 
ATOM     24  C   UNL A   1      30.295  30.573  24.292  1.00  0.00     0.011 A 
BRANCH  20  25
ATOM     25  N   UNL A   1      27.263  30.965  22.209  1.00  0.00    -0.399 N 
ATOM     26  H   UNL A   1      26.464  30.394  22.139  1.00  0.00     0.156 HD
ATOM     27  H   UNL A   1      27.224  31.904  21.914  1.00  0.00     0.156 HD
ENDBRANCH  20  25
ENDBRANCH   9  19
BRANCH  18  28
ATOM     28  C   UNL A   1      30.378  24.604  23.623  1.00  0.00     0.430 C 
ATOM     29  F   UNL A   1      30.161  23.454  22.942  1.00  0.00    -0.167 F 
ATOM     30  F   UNL A   1      30.288  24.305  24.938  1.00  0.00    -0.167 F 
ATOM     31  F   UNL A   1      29.360  25.446  23.326  1.00  0.00    -0.167 F 
ENDBRANCH  18  28
ENDBRANCH   6   8
ENDBRANCH   5   6
ENDBRANCH   4   5
ENDBRANCH   3   4
ENDBRANCH   2   3
ENDBRANCH   1   2
BRANCH   1  32
ATOM     32  C   UNL A   1      37.328  20.356  25.044  1.00  0.00     0.261 C 
BRANCH  32  33
ATOM     33  O   UNL A   1      38.353  21.358  25.135  1.00  0.00    -0.460 OA
BRANCH  33  34
ATOM     34  C   UNL A   1      39.292  21.121  26.088  1.00  0.00     0.338 C 
ATOM     35  O   UNL A   1      39.827  20.052  26.340  1.00  0.00    -0.246 OA
BRANCH  34  36
ATOM     36  C   UNL A   1      39.742  22.404  26.658  1.00  0.00     0.060 A 
ATOM     37  C   UNL A   1      40.734  22.449  27.638  1.00  0.00     0.016 A 
ATOM     38  C   UNL A   1      39.178  23.584  26.157  1.00  0.00     0.016 A 
ATOM     39  C   UNL A   1      41.184  23.692  28.092  1.00  0.00     0.010 A 
ATOM     40  C   UNL A   1      39.630  24.823  26.613  1.00  0.00     0.010 A 
ATOM     41  C   UNL A   1      40.654  24.886  27.566  1.00  0.00    -0.014 A 
BRANCH  41  42
ATOM     42  C   UNL A   1      41.292  26.184  27.896  1.00  0.00     0.031 A 
ATOM     43  C   UNL A   1      42.664  26.541  27.409  1.00  0.00     0.074 A 
ATOM     44  C   UNL A   1      40.610  27.044  28.679  1.00  0.00     0.049 A 
ATOM     45  N   UNL A   1      43.299  27.678  27.532  1.00  0.00    -0.248 NA
ATOM     46  C   UNL A   1      43.426  25.500  26.703  1.00  0.00     0.031 C 
ATOM     47  C   UNL A   1      39.301  26.771  29.278  1.00  0.00     0.029 A 
ATOM     48  N   UNL A   1      40.914  28.310  29.105  1.00  0.00    -0.354 N 
ATOM     49  C   UNL A   1      44.535  27.494  26.928  1.00  0.00     0.074 A 
ATOM     50  C   UNL A   1      44.571  26.127  26.453  1.00  0.00     0.031 C 
ATOM     51  C   UNL A   1      38.900  27.850  29.966  1.00  0.00     0.029 A 
ATOM     52  C   UNL A   1      39.930  28.882  29.876  1.00  0.00     0.049 A 
ATOM     53  H   UNL A   1      41.756  28.768  28.879  1.00  0.00     0.167 HD
ATOM     54  C   UNL A   1      45.534  28.393  26.765  1.00  0.00     0.034 A 
ATOM     55  C   UNL A   1      39.853  30.102  30.441  1.00  0.00     0.034 A 
ATOM     56  C   UNL A   1      45.486  29.754  27.227  1.00  0.00     0.049 A 
ATOM     57  C   UNL A   1      40.966  31.084  30.228  1.00  0.00     0.074 A 
ATOM     58  C   UNL A   1      46.424  30.755  27.036  1.00  0.00     0.029 A 
ATOM     59  N   UNL A   1      44.463  30.303  27.983  1.00  0.00    -0.354 N 
ATOM     60  N   UNL A   1      42.061  30.939  29.522  1.00  0.00    -0.248 NA
ATOM     61  C   UNL A   1      40.828  32.404  30.860  1.00  0.00     0.031 C 
ATOM     62  C   UNL A   1      45.980  31.902  27.698  1.00  0.00     0.029 A 
ATOM     63  C   UNL A   1      44.753  31.624  28.278  1.00  0.00     0.049 A 
ATOM     64  H   UNL A   1      43.650  29.825  28.267  1.00  0.00     0.167 HD
ATOM     65  C   UNL A   1      42.731  32.154  29.605  1.00  0.00     0.074 A 
ATOM     66  C   UNL A   1      41.915  33.028  30.422  1.00  0.00     0.031 C 
ATOM     67  C   UNL A   1      43.918  32.502  29.057  1.00  0.00     0.034 A 
BRANCH  54  68
ATOM     68  C   UNL A   1      46.759  27.971  26.000  1.00  0.00     0.023 A 
ATOM     69  C   UNL A   1      46.703  27.925  24.593  1.00  0.00     0.012 A 
ATOM     70  C   UNL A   1      47.988  27.765  26.655  1.00  0.00     0.148 A 
ATOM     71  C   UNL A   1      47.855  27.677  23.847  1.00  0.00     0.002 A 
ATOM     72  C   UNL A   1      49.137  27.546  25.904  1.00  0.00     0.091 A 
ATOM     73  F   UNL A   1      48.012  27.811  27.995  1.00  0.00    -0.205 F 
ATOM     74  C   UNL A   1      49.071  27.500  24.501  1.00  0.00     0.022 A 
BRANCH  72  75
ATOM     75  S   UNL A   1      50.763  27.356  26.643  1.00  0.00     0.127 S 
ATOM     76  O   UNL A   1      51.512  26.739  25.549  1.00  0.00    -0.237 OA
ATOM     77  O   UNL A   1      51.132  28.742  26.931  1.00  0.00    -0.237 OA
ATOM     78  O   UNL A   1      50.579  26.513  27.816  1.00  0.00    -0.744 OA
ENDBRANCH  72  75
ENDBRANCH  54  68
BRANCH  55  79
ATOM     79  C   UNL A   1      38.627  30.472  31.196  1.00  0.00     0.023 A 
ATOM     80  C   UNL A   1      38.534  30.148  32.562  1.00  0.00     0.012 A 
ATOM     81  C   UNL A   1      37.598  31.217  30.588  1.00  0.00     0.148 A 
ATOM     82  C   UNL A   1      37.431  30.556  33.312  1.00  0.00     0.002 A 
ATOM     83  C   UNL A   1      36.521  31.652  31.349  1.00  0.00     0.091 A 
ATOM     84  F   UNL A   1      37.718  31.514  29.287  1.00  0.00    -0.205 F 
ATOM     85  C   UNL A   1      36.430  31.315  32.709  1.00  0.00     0.022 A 
BRANCH  83  86
ATOM     86  S   UNL A   1      35.231  32.711  30.687  1.00  0.00     0.127 S 
ATOM     87  O   UNL A   1      34.347  32.861  31.841  1.00  0.00    -0.237 OA
ATOM     88  O   UNL A   1      35.987  33.911  30.328  1.00  0.00    -0.237 OA
ATOM     89  O   UNL A   1      34.664  31.988  29.557  1.00  0.00    -0.744 OA
ENDBRANCH  83  86
ENDBRANCH  55  79
BRANCH  67  90
ATOM     90  C   UNL A   1      44.433  33.895  29.291  1.00  0.00     0.023 A 
ATOM     91  C   UNL A   1      45.419  34.114  30.271  1.00  0.00     0.012 A 
ATOM     92  C   UNL A   1      44.054  34.948  28.434  1.00  0.00     0.148 A 
ATOM     93  C   UNL A   1      46.023  35.364  30.396  1.00  0.00     0.002 A 
ATOM     94  C   UNL A   1      44.685  36.181  28.542  1.00  0.00     0.091 A 
ATOM     95  F   UNL A   1      43.110  34.710  27.512  1.00  0.00    -0.205 F 
ATOM     96  C   UNL A   1      45.667  36.391  29.524  1.00  0.00     0.022 A 
BRANCH  94  97
ATOM     97  S   UNL A   1      44.348  37.544  27.421  1.00  0.00     0.127 S 
ATOM     98  O   UNL A   1      45.577  37.587  26.629  1.00  0.00    -0.237 OA
ATOM     99  O   UNL A   1      43.172  37.063  26.698  1.00  0.00    -0.237 OA
ATOM    100  O   UNL A   1      44.116  38.712  28.260  1.00  0.00    -0.744 OA
ENDBRANCH  94  97
ENDBRANCH  67  90
ENDBRANCH  41  42
ENDBRANCH  34  36
ENDBRANCH  33  34
ENDBRANCH  32  33
ENDBRANCH   1  32
TORSDOF 20
ENDMDL
