MODEL 1
REMARK VINA RESULT:     -11.8      0.000      0.000
REMARK SMILES Cc1cc(F)c([C@H](O)[C@H]2CCCC[C@@H]2C(=O)OCCOCCOC(=O)c2ccc(-c3c4nc(c(-c5cccc(S(=O)(=O)[O-])c5F)c5ccc([nH]5)c(-c5cccc(S(=O)(=O)[O-])c5F)c5nc(c(-c6cccc(S(=O)(=O)[O-])c6F)c6ccc3[nH]6)C=C5)C=C4)cc2)cc1F
REMARK SMILES IDX 21 1 20 2 19 3 18 4 17 5 15 6 16 7 14 8 9 9 10 10 11 11
REMARK SMILES IDX 13 12 12 13 7 14 6 15 1 16 2 17 3 18 90 19 4 20 89 21 91 22
REMARK SMILES IDX 5 23 8 24 22 26 23 27 24 28 25 29 26 30 27 31 88 32 28 33
REMARK SMILES IDX 87 34 29 35 30 36 31 37 81 38 32 39 86 40 80 41 82 42 33 43
REMARK SMILES IDX 85 44 79 45 78 46 34 48 66 49 46 50 65 51 47 52 50 53 64 54
REMARK SMILES IDX 83 55 48 56 49 57 63 59 84 60 51 61 35 62 36 63 44 64 37 65
REMARK SMILES IDX 39 66 45 67 38 68 40 69 41 70 42 71 43 72 67 73 68 74 76 75
REMARK SMILES IDX 69 76 71 77 77 78 70 79 72 80 73 81 74 82 75 83 52 84 53 85
REMARK SMILES IDX 61 86 54 87 56 88 62 89 55 90 57 91 58 92 59 93 60 94
REMARK H PARENT 8 25 82 47 50 58
REMARK Flexibility Score: inf
ROOT
ATOM      1  C   UNL A   1      31.293  29.445  24.516  1.00  0.00     0.202 C 
ENDROOT
BRANCH   1   2
ATOM      2  O   UNL A   1      30.133  29.433  23.690  1.00  0.00    -0.374 OA
BRANCH   2   3
ATOM      3  C   UNL A   1      29.832  28.203  23.026  1.00  0.00     0.202 C 
BRANCH   3   4
ATOM      4  C   UNL A   1      31.026  27.345  22.591  1.00  0.00     0.261 C 
BRANCH   4   5
ATOM      5  O   UNL A   1      31.036  26.076  23.277  1.00  0.00    -0.463 OA
BRANCH   5   6
ATOM      6  C   UNL A   1      32.178  25.351  23.178  1.00  0.00     0.309 C 
ATOM      7  O   UNL A   1      32.743  25.080  22.124  1.00  0.00    -0.252 OA
BRANCH   6   8
ATOM      8  C   UNL A   1      32.734  24.906  24.527  1.00  0.00     0.105 C 
ATOM      9  C   UNL A   1      31.644  24.835  25.618  1.00  0.00     0.037 C 
ATOM     10  C   UNL A   1      31.411  26.235  26.240  1.00  0.00     0.007 C 
ATOM     11  C   UNL A   1      32.694  26.907  26.731  1.00  0.00     0.000 C 
ATOM     12  C   UNL A   1      34.005  25.614  25.018  1.00  0.00     0.016 C 
ATOM     13  C   UNL A   1      33.751  26.982  25.637  1.00  0.00     0.001 C 
BRANCH   9  14
ATOM     14  C   UNL A   1      31.993  23.772  26.705  1.00  0.00     0.151 C 
BRANCH  14  15
ATOM     15  C   UNL A   1      32.626  22.511  26.155  1.00  0.00     0.019 A 
ATOM     16  C   UNL A   1      34.555  18.967  24.590  1.00  0.00     0.047 C 
ATOM     17  C   UNL A   1      33.886  20.199  25.112  1.00  0.00    -0.012 A 
ATOM     18  C   UNL A   1      34.599  21.090  25.918  1.00  0.00     0.046 A 
ATOM     19  C   UNL A   1      32.545  20.479  24.834  1.00  0.00     0.126 A 
ATOM     20  C   UNL A   1      33.966  22.215  26.440  1.00  0.00     0.129 A 
ATOM     21  C   UNL A   1      31.921  21.623  25.332  1.00  0.00     0.049 A 
ATOM     22  F   UNL A   1      31.831  19.633  24.077  1.00  0.00    -0.207 F 
ATOM     23  F   UNL A   1      34.686  23.042  27.211  1.00  0.00    -0.207 F 
ENDBRANCH  14  15
BRANCH  14  24
ATOM     24  O   UNL A   1      30.802  23.378  27.389  1.00  0.00    -0.388 OA
ATOM     25  H   UNL A   1      30.028  23.714  26.913  1.00  0.00     0.211 HD
ENDBRANCH  14  24
ENDBRANCH   9  14
ENDBRANCH   6   8
ENDBRANCH   5   6
ENDBRANCH   4   5
ENDBRANCH   3   4
ENDBRANCH   2   3
ENDBRANCH   1   2
BRANCH   1  26
ATOM     26  C   UNL A   1      31.411  30.580  25.541  1.00  0.00     0.261 C 
BRANCH  26  27
ATOM     27  O   UNL A   1      32.470  30.344  26.484  1.00  0.00    -0.460 OA
BRANCH  27  28
ATOM     28  C   UNL A   1      33.009  31.462  27.028  1.00  0.00     0.338 C 
ATOM     29  O   UNL A   1      32.438  32.524  27.222  1.00  0.00    -0.246 OA
BRANCH  28  30
ATOM     30  C   UNL A   1      34.357  31.159  27.560  1.00  0.00     0.060 A 
ATOM     31  C   UNL A   1      35.278  32.161  27.869  1.00  0.00     0.016 A 
ATOM     32  C   UNL A   1      34.686  29.812  27.762  1.00  0.00     0.016 A 
ATOM     33  C   UNL A   1      36.512  31.810  28.426  1.00  0.00     0.010 A 
ATOM     34  C   UNL A   1      35.914  29.465  28.328  1.00  0.00     0.010 A 
ATOM     35  C   UNL A   1      36.827  30.463  28.692  1.00  0.00    -0.014 A 
BRANCH  35  36
ATOM     36  C   UNL A   1      38.033  30.123  29.490  1.00  0.00     0.031 A 
ATOM     37  C   UNL A   1      38.260  30.669  30.869  1.00  0.00     0.074 A 
ATOM     38  C   UNL A   1      38.961  29.322  28.928  1.00  0.00     0.049 A 
ATOM     39  N   UNL A   1      39.212  30.374  31.716  1.00  0.00    -0.248 NA
ATOM     40  C   UNL A   1      37.310  31.678  31.365  1.00  0.00     0.031 C 
ATOM     41  C   UNL A   1      38.901  28.802  27.560  1.00  0.00     0.029 A 
ATOM     42  N   UNL A   1      40.130  28.805  29.428  1.00  0.00    -0.354 N 
ATOM     43  C   UNL A   1      38.986  31.157  32.839  1.00  0.00     0.074 A 
ATOM     44  C   UNL A   1      37.817  31.963  32.559  1.00  0.00     0.031 C 
ATOM     45  C   UNL A   1      39.963  28.013  27.342  1.00  0.00     0.029 A 
ATOM     46  C   UNL A   1      40.792  27.986  28.543  1.00  0.00     0.049 A 
ATOM     47  H   UNL A   1      40.462  29.001  30.334  1.00  0.00     0.167 HD
ATOM     48  C   UNL A   1      39.676  31.179  34.004  1.00  0.00     0.034 A 
ATOM     49  C   UNL A   1      41.929  27.277  28.681  1.00  0.00     0.034 A 
ATOM     50  C   UNL A   1      40.828  30.365  34.282  1.00  0.00     0.049 A 
ATOM     51  C   UNL A   1      42.658  27.298  29.994  1.00  0.00     0.074 A 
ATOM     52  C   UNL A   1      41.540  30.270  35.467  1.00  0.00     0.029 A 
ATOM     53  N   UNL A   1      41.447  29.524  33.374  1.00  0.00    -0.354 N 
ATOM     54  N   UNL A   1      42.338  27.927  31.096  1.00  0.00    -0.248 NA
ATOM     55  C   UNL A   1      43.887  26.495  30.093  1.00  0.00     0.031 C 
ATOM     56  C   UNL A   1      42.603  29.386  35.267  1.00  0.00     0.029 A 
ATOM     57  C   UNL A   1      42.538  28.912  33.967  1.00  0.00     0.049 A 
ATOM     58  H   UNL A   1      41.155  29.381  32.445  1.00  0.00     0.167 HD
ATOM     59  C   UNL A   1      43.306  27.577  32.029  1.00  0.00     0.074 A 
ATOM     60  C   UNL A   1      44.224  26.676  31.365  1.00  0.00     0.031 C 
ATOM     61  C   UNL A   1      43.420  27.980  33.317  1.00  0.00     0.034 A 
BRANCH  48  62
ATOM     62  C   UNL A   1      39.174  32.062  35.113  1.00  0.00     0.023 A 
ATOM     63  C   UNL A   1      38.241  31.539  36.030  1.00  0.00     0.012 A 
ATOM     64  C   UNL A   1      39.722  33.340  35.332  1.00  0.00     0.148 A 
ATOM     65  C   UNL A   1      37.854  32.278  37.146  1.00  0.00     0.002 A 
ATOM     66  C   UNL A   1      39.351  34.061  36.461  1.00  0.00     0.091 A 
ATOM     67  F   UNL A   1      40.607  33.815  34.444  1.00  0.00    -0.205 F 
ATOM     68  C   UNL A   1      38.417  33.533  37.367  1.00  0.00     0.022 A 
BRANCH  66  69
ATOM     69  S   UNL A   1      40.052  35.664  36.869  1.00  0.00     0.127 S 
ATOM     70  O   UNL A   1      39.604  36.475  35.737  1.00  0.00    -0.237 OA
ATOM     71  O   UNL A   1      39.393  35.972  38.139  1.00  0.00    -0.237 OA
ATOM     72  O   UNL A   1      41.491  35.468  36.956  1.00  0.00    -0.744 OA
ENDBRANCH  66  69
ENDBRANCH  48  62
BRANCH  49  73
ATOM     73  C   UNL A   1      42.390  26.421  27.556  1.00  0.00     0.023 A 
ATOM     74  C   UNL A   1      43.308  26.943  26.625  1.00  0.00     0.012 A 
ATOM     75  C   UNL A   1      41.990  25.075  27.454  1.00  0.00     0.148 A 
ATOM     76  C   UNL A   1      43.814  26.139  25.603  1.00  0.00     0.002 A 
ATOM     77  C   UNL A   1      42.525  24.271  26.457  1.00  0.00     0.091 A 
ATOM     78  F   UNL A   1      41.120  24.605  28.359  1.00  0.00    -0.205 F 
ATOM     79  C   UNL A   1      43.431  24.803  25.526  1.00  0.00     0.022 A 
BRANCH  77  80
ATOM     80  S   UNL A   1      42.166  22.516  26.328  1.00  0.00     0.127 S 
ATOM     81  O   UNL A   1      40.709  22.519  26.214  1.00  0.00    -0.237 OA
ATOM     82  O   UNL A   1      42.879  22.157  25.102  1.00  0.00    -0.237 OA
ATOM     83  O   UNL A   1      42.695  21.911  27.542  1.00  0.00    -0.744 OA
ENDBRANCH  77  80
ENDBRANCH  49  73
BRANCH  61  84
ATOM     84  C   UNL A   1      44.561  27.447  34.140  1.00  0.00     0.023 A 
ATOM     85  C   UNL A   1      45.754  28.187  34.228  1.00  0.00     0.012 A 
ATOM     86  C   UNL A   1      44.379  26.315  34.959  1.00  0.00     0.148 A 
ATOM     87  C   UNL A   1      46.749  27.814  35.130  1.00  0.00     0.002 A 
ATOM     88  C   UNL A   1      45.359  25.969  35.879  1.00  0.00     0.091 A 
ATOM     89  F   UNL A   1      43.232  25.630  34.850  1.00  0.00    -0.205 F 
ATOM     90  C   UNL A   1      46.546  26.716  35.965  1.00  0.00     0.022 A 
BRANCH  88  91
ATOM     91  S   UNL A   1      45.159  24.621  37.049  1.00  0.00     0.127 S 
ATOM     92  O   UNL A   1      43.990  25.060  37.811  1.00  0.00    -0.237 OA
ATOM     93  O   UNL A   1      44.918  23.480  36.164  1.00  0.00    -0.237 OA
ATOM     94  O   UNL A   1      46.399  24.555  37.810  1.00  0.00    -0.744 OA
ENDBRANCH  88  91
ENDBRANCH  61  84
ENDBRANCH  35  36
ENDBRANCH  28  30
ENDBRANCH  27  28
ENDBRANCH  26  27
ENDBRANCH   1  26
TORSDOF 20
ENDMDL
MODEL 2
REMARK VINA RESULT:     -11.4      1.764      3.264
REMARK SMILES Cc1cc(F)c([C@H](O)[C@H]2CCCC[C@@H]2C(=O)OCCOCCOC(=O)c2ccc(-c3c4nc(c(-c5cccc(S(=O)(=O)[O-])c5F)c5ccc([nH]5)c(-c5cccc(S(=O)(=O)[O-])c5F)c5nc(c(-c6cccc(S(=O)(=O)[O-])c6F)c6ccc3[nH]6)C=C5)C=C4)cc2)cc1F
REMARK SMILES IDX 21 1 20 2 19 3 18 4 17 5 15 6 16 7 14 8 9 9 10 10 11 11
REMARK SMILES IDX 13 12 12 13 7 14 6 15 1 16 2 17 3 18 90 19 4 20 89 21 91 22
REMARK SMILES IDX 5 23 8 24 22 26 23 27 24 28 25 29 26 30 27 31 88 32 28 33
REMARK SMILES IDX 87 34 29 35 30 36 31 37 81 38 32 39 86 40 80 41 82 42 33 43
REMARK SMILES IDX 85 44 79 45 78 46 34 48 66 49 46 50 65 51 47 52 50 53 64 54
REMARK SMILES IDX 83 55 48 56 49 57 63 59 84 60 51 61 35 62 36 63 44 64 37 65
REMARK SMILES IDX 39 66 45 67 38 68 40 69 41 70 42 71 43 72 67 73 68 74 76 75
REMARK SMILES IDX 69 76 71 77 77 78 70 79 72 80 73 81 74 82 75 83 52 84 53 85
REMARK SMILES IDX 61 86 54 87 56 88 62 89 55 90 57 91 58 92 59 93 60 94
REMARK H PARENT 8 25 82 47 50 58
REMARK Flexibility Score: inf
ROOT
ATOM      1  C   UNL A   1      31.557  29.378  26.038  1.00  0.00     0.202 C 
ENDROOT
BRANCH   1   2
ATOM      2  O   UNL A   1      32.328  28.204  25.803  1.00  0.00    -0.374 OA
BRANCH   2   3
ATOM      3  C   UNL A   1      32.139  27.119  26.716  1.00  0.00     0.202 C 
BRANCH   3   4
ATOM      4  C   UNL A   1      31.477  25.855  26.154  1.00  0.00     0.261 C 
BRANCH   4   5
ATOM      5  O   UNL A   1      31.610  24.745  27.067  1.00  0.00    -0.463 OA
BRANCH   5   6
ATOM      6  C   UNL A   1      32.338  23.690  26.625  1.00  0.00     0.309 C 
ATOM      7  O   UNL A   1      32.299  22.563  27.107  1.00  0.00    -0.252 OA
BRANCH   6   8
ATOM      8  C   UNL A   1      33.221  24.023  25.426  1.00  0.00     0.105 C 
ATOM      9  C   UNL A   1      32.936  23.109  24.215  1.00  0.00     0.037 C 
ATOM     10  C   UNL A   1      33.719  21.778  24.348  1.00  0.00     0.007 C 
ATOM     11  C   UNL A   1      35.214  21.971  24.604  1.00  0.00     0.000 C 
ATOM     12  C   UNL A   1      34.724  24.182  25.696  1.00  0.00     0.016 C 
ATOM     13  C   UNL A   1      35.475  22.863  25.811  1.00  0.00     0.001 C 
BRANCH   9  14
ATOM     14  C   UNL A   1      33.252  23.830  22.869  1.00  0.00     0.151 C 
BRANCH  14  15
ATOM     15  C   UNL A   1      32.651  25.215  22.754  1.00  0.00     0.019 A 
ATOM     16  C   UNL A   1      30.823  29.120  22.376  1.00  0.00     0.047 C 
ATOM     17  C   UNL A   1      31.462  27.772  22.488  1.00  0.00    -0.012 A 
ATOM     18  C   UNL A   1      30.666  26.634  22.636  1.00  0.00     0.046 A 
ATOM     19  C   UNL A   1      32.851  27.616  22.471  1.00  0.00     0.126 A 
ATOM     20  C   UNL A   1      31.260  25.383  22.783  1.00  0.00     0.129 A 
ATOM     21  C   UNL A   1      33.444  26.358  22.588  1.00  0.00     0.049 A 
ATOM     22  F   UNL A   1      33.641  28.692  22.347  1.00  0.00    -0.207 F 
ATOM     23  F   UNL A   1      30.459  24.318  22.927  1.00  0.00    -0.207 F 
ENDBRANCH  14  15
BRANCH  14  24
ATOM     24  O   UNL A   1      32.737  23.061  21.780  1.00  0.00    -0.388 OA
ATOM     25  H   UNL A   1      31.997  23.534  21.370  1.00  0.00     0.211 HD
ENDBRANCH  14  24
ENDBRANCH   9  14
ENDBRANCH   6   8
ENDBRANCH   5   6
ENDBRANCH   4   5
ENDBRANCH   3   4
ENDBRANCH   2   3
ENDBRANCH   1   2
BRANCH   1  26
ATOM     26  C   UNL A   1      32.318  30.704  26.154  1.00  0.00     0.261 C 
BRANCH  26  27
ATOM     27  O   UNL A   1      32.784  30.938  27.494  1.00  0.00    -0.460 OA
BRANCH  27  28
ATOM     28  C   UNL A   1      33.621  31.997  27.629  1.00  0.00     0.338 C 
ATOM     29  O   UNL A   1      33.313  33.177  27.580  1.00  0.00    -0.246 OA
BRANCH  28  30
ATOM     30  C   UNL A   1      34.957  31.525  28.059  1.00  0.00     0.060 A 
ATOM     31  C   UNL A   1      36.057  32.380  28.142  1.00  0.00     0.016 A 
ATOM     32  C   UNL A   1      35.088  30.171  28.399  1.00  0.00     0.016 A 
ATOM     33  C   UNL A   1      37.277  31.883  28.614  1.00  0.00     0.010 A 
ATOM     34  C   UNL A   1      36.303  29.682  28.881  1.00  0.00     0.010 A 
ATOM     35  C   UNL A   1      37.401  30.540  29.019  1.00  0.00    -0.014 A 
BRANCH  35  36
ATOM     36  C   UNL A   1      38.624  30.086  29.731  1.00  0.00     0.031 A 
ATOM     37  C   UNL A   1      38.988  30.590  31.097  1.00  0.00     0.074 A 
ATOM     38  C   UNL A   1      39.441  29.219  29.099  1.00  0.00     0.049 A 
ATOM     39  N   UNL A   1      39.966  30.201  31.873  1.00  0.00    -0.248 NA
ATOM     40  C   UNL A   1      38.164  31.668  31.665  1.00  0.00     0.031 C 
ATOM     41  C   UNL A   1      39.246  28.727  27.732  1.00  0.00     0.029 A 
ATOM     42  N   UNL A   1      40.591  28.597  29.513  1.00  0.00    -0.354 N 
ATOM     43  C   UNL A   1      39.883  30.983  33.017  1.00  0.00     0.074 A 
ATOM     44  C   UNL A   1      38.772  31.889  32.826  1.00  0.00     0.031 C 
ATOM     45  C   UNL A   1      40.220  27.855  27.436  1.00  0.00     0.029 A 
ATOM     46  C   UNL A   1      41.121  27.738  28.577  1.00  0.00     0.049 A 
ATOM     47  H   UNL A   1      41.000  28.750  30.396  1.00  0.00     0.167 HD
ATOM     48  C   UNL A   1      40.648  30.928  34.133  1.00  0.00     0.034 A 
ATOM     49  C   UNL A   1      42.200  26.934  28.631  1.00  0.00     0.034 A 
ATOM     50  C   UNL A   1      41.743  30.015  34.325  1.00  0.00     0.049 A 
ATOM     51  C   UNL A   1      43.014  26.872  29.891  1.00  0.00     0.074 A 
ATOM     52  C   UNL A   1      42.521  29.841  35.457  1.00  0.00     0.029 A 
ATOM     53  N   UNL A   1      42.226  29.139  33.368  1.00  0.00    -0.354 N 
ATOM     54  N   UNL A   1      42.823  27.509  31.020  1.00  0.00    -0.248 NA
ATOM     55  C   UNL A   1      44.173  25.967  29.899  1.00  0.00     0.031 C 
ATOM     56  C   UNL A   1      43.489  28.874  35.177  1.00  0.00     0.029 A 
ATOM     57  C   UNL A   1      43.297  28.428  33.879  1.00  0.00     0.049 A 
ATOM     58  H   UNL A   1      41.861  29.037  32.459  1.00  0.00     0.167 HD
ATOM     59  C   UNL A   1      43.817  27.063  31.881  1.00  0.00     0.074 A 
ATOM     60  C   UNL A   1      44.609  26.098  31.147  1.00  0.00     0.031 C 
ATOM     61  C   UNL A   1      44.051  27.434  33.162  1.00  0.00     0.034 A 
BRANCH  48  62
ATOM     62  C   UNL A   1      40.299  31.833  35.283  1.00  0.00     0.023 A 
ATOM     63  C   UNL A   1      40.935  33.086  35.380  1.00  0.00     0.012 A 
ATOM     64  C   UNL A   1      39.257  31.511  36.173  1.00  0.00     0.148 A 
ATOM     65  C   UNL A   1      40.543  34.005  36.352  1.00  0.00     0.002 A 
ATOM     66  C   UNL A   1      38.854  32.443  37.123  1.00  0.00     0.091 A 
ATOM     67  F   UNL A   1      38.669  30.311  36.060  1.00  0.00    -0.205 F 
ATOM     68  C   UNL A   1      39.497  33.688  37.214  1.00  0.00     0.022 A 
BRANCH  66  69
ATOM     69  S   UNL A   1      37.485  32.158  38.250  1.00  0.00     0.127 S 
ATOM     70  O   UNL A   1      38.025  32.681  39.504  1.00  0.00    -0.237 OA
ATOM     71  O   UNL A   1      36.424  32.972  37.656  1.00  0.00    -0.237 OA
ATOM     72  O   UNL A   1      37.239  30.723  38.235  1.00  0.00    -0.744 OA
ENDBRANCH  66  69
ENDBRANCH  48  62
BRANCH  49  73
ATOM     73  C   UNL A   1      42.510  26.060  27.468  1.00  0.00     0.023 A 
ATOM     74  C   UNL A   1      43.337  26.550  26.440  1.00  0.00     0.012 A 
ATOM     75  C   UNL A   1      42.060  24.727  27.421  1.00  0.00     0.148 A 
ATOM     76  C   UNL A   1      43.704  25.727  25.375  1.00  0.00     0.002 A 
ATOM     77  C   UNL A   1      42.460  23.902  26.377  1.00  0.00     0.091 A 
ATOM     78  F   UNL A   1      41.280  24.287  28.417  1.00  0.00    -0.205 F 
ATOM     79  C   UNL A   1      43.275  24.403  25.349  1.00  0.00     0.022 A 
BRANCH  77  80
ATOM     80  S   UNL A   1      42.035  22.159  26.300  1.00  0.00     0.127 S 
ATOM     81  O   UNL A   1      40.585  22.214  26.130  1.00  0.00    -0.237 OA
ATOM     82  O   UNL A   1      42.778  21.725  25.116  1.00  0.00    -0.237 OA
ATOM     83  O   UNL A   1      42.494  21.581  27.555  1.00  0.00    -0.744 OA
ENDBRANCH  77  80
ENDBRANCH  49  73
BRANCH  61  84
ATOM     84  C   UNL A   1      45.195  26.794  33.900  1.00  0.00     0.023 A 
ATOM     85  C   UNL A   1      46.452  27.424  33.907  1.00  0.00     0.012 A 
ATOM     86  C   UNL A   1      44.969  25.675  34.727  1.00  0.00     0.148 A 
ATOM     87  C   UNL A   1      47.471  26.954  34.735  1.00  0.00     0.002 A 
ATOM     88  C   UNL A   1      45.977  25.233  35.574  1.00  0.00     0.091 A 
ATOM     89  F   UNL A   1      43.760  25.096  34.697  1.00  0.00    -0.205 F 
ATOM     90  C   UNL A   1      47.229  25.871  35.578  1.00  0.00     0.022 A 
BRANCH  88  91
ATOM     91  S   UNL A   1      45.738  23.898  36.750  1.00  0.00     0.127 S 
ATOM     92  O   UNL A   1      44.672  24.433  37.597  1.00  0.00    -0.237 OA
ATOM     93  O   UNL A   1      45.332  22.792  35.882  1.00  0.00    -0.237 OA
ATOM     94  O   UNL A   1      47.018  23.712  37.420  1.00  0.00    -0.744 OA
ENDBRANCH  88  91
ENDBRANCH  61  84
ENDBRANCH  35  36
ENDBRANCH  28  30
ENDBRANCH  27  28
ENDBRANCH  26  27
ENDBRANCH   1  26
TORSDOF 20
ENDMDL
MODEL 3
REMARK VINA RESULT:     -11.3      1.681      2.525
REMARK SMILES Cc1cc(F)c([C@H](O)[C@H]2CCCC[C@@H]2C(=O)OCCOCCOC(=O)c2ccc(-c3c4nc(c(-c5cccc(S(=O)(=O)[O-])c5F)c5ccc([nH]5)c(-c5cccc(S(=O)(=O)[O-])c5F)c5nc(c(-c6cccc(S(=O)(=O)[O-])c6F)c6ccc3[nH]6)C=C5)C=C4)cc2)cc1F
REMARK SMILES IDX 21 1 20 2 19 3 18 4 17 5 15 6 16 7 14 8 9 9 10 10 11 11
REMARK SMILES IDX 13 12 12 13 7 14 6 15 1 16 2 17 3 18 90 19 4 20 89 21 91 22
REMARK SMILES IDX 5 23 8 24 22 26 23 27 24 28 25 29 26 30 27 31 88 32 28 33
REMARK SMILES IDX 87 34 29 35 30 36 31 37 81 38 32 39 86 40 80 41 82 42 33 43
REMARK SMILES IDX 85 44 79 45 78 46 34 48 66 49 46 50 65 51 47 52 50 53 64 54
REMARK SMILES IDX 83 55 48 56 49 57 63 59 84 60 51 61 35 62 36 63 44 64 37 65
REMARK SMILES IDX 39 66 45 67 38 68 40 69 41 70 42 71 43 72 67 73 68 74 76 75
REMARK SMILES IDX 69 76 71 77 77 78 70 79 72 80 73 81 74 82 75 83 52 84 53 85
REMARK SMILES IDX 61 86 54 87 56 88 62 89 55 90 57 91 58 92 59 93 60 94
REMARK H PARENT 8 25 82 47 50 58
REMARK Flexibility Score: inf
ROOT
ATOM      1  C   UNL A   1      31.769  30.983  26.469  1.00  0.00     0.202 C 
ENDROOT
BRANCH   1   2
ATOM      2  O   UNL A   1      33.060  30.402  26.311  1.00  0.00    -0.374 OA
BRANCH   2   3
ATOM      3  C   UNL A   1      33.103  29.063  25.812  1.00  0.00     0.202 C 
BRANCH   3   4
ATOM      4  C   UNL A   1      33.357  27.953  26.839  1.00  0.00     0.261 C 
BRANCH   4   5
ATOM      5  O   UNL A   1      33.037  26.654  26.296  1.00  0.00    -0.463 OA
BRANCH   5   6
ATOM      6  C   UNL A   1      31.727  26.425  26.028  1.00  0.00     0.309 C 
ATOM      7  O   UNL A   1      30.798  26.741  26.763  1.00  0.00    -0.252 OA
BRANCH   6   8
ATOM      8  C   UNL A   1      31.494  25.742  24.684  1.00  0.00     0.105 C 
ATOM      9  C   UNL A   1      32.506  26.195  23.610  1.00  0.00     0.037 C 
ATOM     10  C   UNL A   1      32.038  27.518  22.954  1.00  0.00     0.007 C 
ATOM     11  C   UNL A   1      30.603  27.467  22.428  1.00  0.00     0.000 C 
ATOM     12  C   UNL A   1      30.052  25.727  24.157  1.00  0.00     0.016 C 
ATOM     13  C   UNL A   1      29.618  27.032  23.505  1.00  0.00     0.001 C 
BRANCH   9  14
ATOM     14  C   UNL A   1      32.750  25.080  22.548  1.00  0.00     0.151 C 
BRANCH  14  15
ATOM     15  C   UNL A   1      33.094  23.729  23.139  1.00  0.00     0.019 A 
ATOM     16  C   UNL A   1      34.206  19.904  24.832  1.00  0.00     0.047 C 
ATOM     17  C   UNL A   1      33.825  21.218  24.228  1.00  0.00    -0.012 A 
ATOM     18  C   UNL A   1      34.605  22.350  24.475  1.00  0.00     0.046 A 
ATOM     19  C   UNL A   1      32.684  21.356  23.432  1.00  0.00     0.126 A 
ATOM     20  C   UNL A   1      34.228  23.584  23.949  1.00  0.00     0.129 A 
ATOM     21  C   UNL A   1      32.325  22.586  22.880  1.00  0.00     0.049 A 
ATOM     22  F   UNL A   1      31.907  20.290  23.191  1.00  0.00    -0.207 F 
ATOM     23  F   UNL A   1      35.003  24.645  24.214  1.00  0.00    -0.207 F 
ENDBRANCH  14  15
BRANCH  14  24
ATOM     24  O   UNL A   1      33.837  25.454  21.701  1.00  0.00    -0.388 OA
ATOM     25  H   UNL A   1      34.648  25.531  22.228  1.00  0.00     0.211 HD
ENDBRANCH  14  24
ENDBRANCH   9  14
ENDBRANCH   6   8
ENDBRANCH   5   6
ENDBRANCH   4   5
ENDBRANCH   3   4
ENDBRANCH   2   3
ENDBRANCH   1   2
BRANCH   1  26
ATOM     26  C   UNL A   1      31.710  32.433  26.965  1.00  0.00     0.261 C 
BRANCH  26  27
ATOM     27  O   UNL A   1      32.987  33.086  26.865  1.00  0.00    -0.460 OA
BRANCH  27  28
ATOM     28  C   UNL A   1      33.442  33.629  28.021  1.00  0.00     0.338 C 
ATOM     29  O   UNL A   1      32.847  34.420  28.737  1.00  0.00    -0.246 OA
BRANCH  28  30
ATOM     30  C   UNL A   1      34.703  32.964  28.422  1.00  0.00     0.060 A 
ATOM     31  C   UNL A   1      35.953  33.549  28.210  1.00  0.00     0.016 A 
ATOM     32  C   UNL A   1      34.607  31.712  29.045  1.00  0.00     0.016 A 
ATOM     33  C   UNL A   1      37.102  32.896  28.668  1.00  0.00     0.010 A 
ATOM     34  C   UNL A   1      35.754  31.068  29.511  1.00  0.00     0.010 A 
ATOM     35  C   UNL A   1      37.010  31.668  29.352  1.00  0.00    -0.014 A 
BRANCH  35  36
ATOM     36  C   UNL A   1      38.204  31.103  30.032  1.00  0.00     0.031 A 
ATOM     37  C   UNL A   1      38.605  31.516  31.418  1.00  0.00     0.074 A 
ATOM     38  C   UNL A   1      38.960  30.215  29.355  1.00  0.00     0.049 A 
ATOM     39  N   UNL A   1      39.559  31.029  32.168  1.00  0.00    -0.248 NA
ATOM     40  C   UNL A   1      37.855  32.617  32.043  1.00  0.00     0.031 C 
ATOM     41  C   UNL A   1      38.727  29.803  27.968  1.00  0.00     0.029 A 
ATOM     42  N   UNL A   1      40.069  29.501  29.730  1.00  0.00    -0.354 N 
ATOM     43  C   UNL A   1      39.532  31.759  33.348  1.00  0.00     0.074 A 
ATOM     44  C   UNL A   1      38.481  32.743  33.208  1.00  0.00     0.031 C 
ATOM     45  C   UNL A   1      39.641  28.885  27.623  1.00  0.00     0.029 A 
ATOM     46  C   UNL A   1      40.537  28.656  28.751  1.00  0.00     0.049 A 
ATOM     47  H   UNL A   1      40.490  29.586  30.617  1.00  0.00     0.167 HD
ATOM     48  C   UNL A   1      40.296  31.602  34.455  1.00  0.00     0.034 A 
ATOM     49  C   UNL A   1      41.562  27.782  28.759  1.00  0.00     0.034 A 
ATOM     50  C   UNL A   1      41.330  30.612  34.595  1.00  0.00     0.049 A 
ATOM     51  C   UNL A   1      42.376  27.608  30.009  1.00  0.00     0.074 A 
ATOM     52  C   UNL A   1      42.101  30.334  35.712  1.00  0.00     0.029 A 
ATOM     53  N   UNL A   1      41.751  29.753  33.595  1.00  0.00    -0.354 N 
ATOM     54  N   UNL A   1      42.231  28.201  31.167  1.00  0.00    -0.248 NA
ATOM     55  C   UNL A   1      43.474  26.630  29.966  1.00  0.00     0.031 C 
ATOM     56  C   UNL A   1      43.002  29.320  35.380  1.00  0.00     0.029 A 
ATOM     57  C   UNL A   1      42.776  28.950  34.064  1.00  0.00     0.049 A 
ATOM     58  H   UNL A   1      41.377  29.717  32.685  1.00  0.00     0.167 HD
ATOM     59  C   UNL A   1      43.198  27.651  31.999  1.00  0.00     0.074 A 
ATOM     60  C   UNL A   1      43.922  26.673  31.215  1.00  0.00     0.031 C 
ATOM     61  C   UNL A   1      43.461  27.945  33.295  1.00  0.00     0.034 A 
BRANCH  48  62
ATOM     62  C   UNL A   1      40.012  32.471  35.648  1.00  0.00     0.023 A 
ATOM     63  C   UNL A   1      40.626  33.736  35.730  1.00  0.00     0.012 A 
ATOM     64  C   UNL A   1      39.043  32.104  36.603  1.00  0.00     0.148 A 
ATOM     65  C   UNL A   1      40.285  34.624  36.750  1.00  0.00     0.002 A 
ATOM     66  C   UNL A   1      38.690  33.005  37.601  1.00  0.00     0.091 A 
ATOM     67  F   UNL A   1      38.475  30.895  36.502  1.00  0.00    -0.205 F 
ATOM     68  C   UNL A   1      39.311  34.262  37.677  1.00  0.00     0.022 A 
BRANCH  66  69
ATOM     69  S   UNL A   1      37.412  32.662  38.816  1.00  0.00     0.127 S 
ATOM     70  O   UNL A   1      37.707  31.273  39.167  1.00  0.00    -0.237 OA
ATOM     71  O   UNL A   1      37.719  33.635  39.865  1.00  0.00    -0.237 OA
ATOM     72  O   UNL A   1      36.141  32.871  38.138  1.00  0.00    -0.744 OA
ENDBRANCH  66  69
ENDBRANCH  48  62
BRANCH  49  73
ATOM     73  C   UNL A   1      41.810  26.946  27.554  1.00  0.00     0.023 A 
ATOM     74  C   UNL A   1      42.436  27.522  26.433  1.00  0.00     0.012 A 
ATOM     75  C   UNL A   1      41.506  25.571  27.548  1.00  0.00     0.148 A 
ATOM     76  C   UNL A   1      42.748  26.743  25.319  1.00  0.00     0.002 A 
ATOM     77  C   UNL A   1      41.852  24.795  26.450  1.00  0.00     0.091 A 
ATOM     78  F   UNL A   1      40.916  25.050  28.632  1.00  0.00    -0.205 F 
ATOM     79  C   UNL A   1      42.465  25.380  25.331  1.00  0.00     0.022 A 
BRANCH  77  80
ATOM     80  S   UNL A   1      41.613  23.015  26.406  1.00  0.00     0.127 S 
ATOM     81  O   UNL A   1      42.308  22.652  25.173  1.00  0.00    -0.237 OA
ATOM     82  O   UNL A   1      42.283  22.595  27.637  1.00  0.00    -0.237 OA
ATOM     83  O   UNL A   1      40.172  22.807  26.395  1.00  0.00    -0.744 OA
ENDBRANCH  77  80
ENDBRANCH  49  73
BRANCH  61  84
ATOM     84  C   UNL A   1      44.564  27.198  33.994  1.00  0.00     0.023 A 
ATOM     85  C   UNL A   1      45.867  27.728  33.994  1.00  0.00     0.012 A 
ATOM     86  C   UNL A   1      44.266  26.077  34.794  1.00  0.00     0.148 A 
ATOM     87  C   UNL A   1      46.859  27.158  34.789  1.00  0.00     0.002 A 
ATOM     88  C   UNL A   1      45.250  25.535  35.610  1.00  0.00     0.091 A 
ATOM     89  F   UNL A   1      43.015  25.593  34.771  1.00  0.00    -0.205 F 
ATOM     90  C   UNL A   1      46.548  26.073  35.607  1.00  0.00     0.022 A 
BRANCH  88  91
ATOM     91  S   UNL A   1      44.929  24.188  36.754  1.00  0.00     0.127 S 
ATOM     92  O   UNL A   1      46.243  24.000  37.369  1.00  0.00    -0.237 OA
ATOM     93  O   UNL A   1      43.919  24.771  37.638  1.00  0.00    -0.237 OA
ATOM     94  O   UNL A   1      44.465  23.069  35.945  1.00  0.00    -0.744 OA
ENDBRANCH  88  91
ENDBRANCH  61  84
ENDBRANCH  35  36
ENDBRANCH  28  30
ENDBRANCH  27  28
ENDBRANCH  26  27
ENDBRANCH   1  26
TORSDOF 20
ENDMDL
