MODEL 1
REMARK VINA RESULT:     -10.6      0.000      0.000
REMARK SMILES CC(C)(C)C(=O)C[N@H+]1CCCC[C@H]1C(=O)OCCOCCOC(=O)c1ccc(-c2c3nc(c(-c4cccc(S(=O)(=O)[O-])c4F)c4ccc([nH]4)c(-c4cccc(S(=O)(=O)[O-])c4F)c4nc(c(-c5cccc(S(=O)(=O)[O-])c5F)c5ccc2[nH]5)C=C4)C=C3)cc1
REMARK SMILES IDX 19 1 18 2 17 3 16 4 14 5 15 6 13 7 8 8 9 9 10 11 12 12 11 13
REMARK SMILES IDX 7 14 5 15 6 16 2 17 1 18 3 19 4 20 20 21 21 22 22 23 23 24
REMARK SMILES IDX 24 25 25 26 26 27 87 28 27 29 86 30 28 31 29 32 30 33 80 34
REMARK SMILES IDX 31 35 85 36 79 37 81 38 32 39 84 40 78 41 77 42 33 44 65 45
REMARK SMILES IDX 45 46 64 47 46 48 49 49 63 50 82 51 47 52 48 53 62 55 83 56
REMARK SMILES IDX 50 57 34 58 35 59 43 60 36 61 38 62 44 63 37 64 39 65 40 66
REMARK SMILES IDX 41 67 42 68 66 69 67 70 75 71 68 72 70 73 76 74 69 75 71 76
REMARK SMILES IDX 72 77 73 78 74 79 51 80 52 81 60 82 53 83 55 84 61 85 54 86
REMARK SMILES IDX 56 87 57 88 58 89 59 90
REMARK H PARENT 8 10 81 43 49 54
REMARK Flexibility Score: inf
ROOT
ATOM      1  O   UNL A   1      36.644  22.771  24.385  1.00  0.00    -0.374 OA
ENDROOT
BRANCH   1   2
ATOM      2  C   UNL A   1      36.037  22.927  23.102  1.00  0.00     0.202 C 
BRANCH   2   3
ATOM      3  C   UNL A   1      34.549  23.291  23.019  1.00  0.00     0.261 C 
BRANCH   3   4
ATOM      4  O   UNL A   1      33.766  22.747  24.092  1.00  0.00    -0.459 OA
BRANCH   4   5
ATOM      5  C   UNL A   1      32.612  22.141  23.686  1.00  0.00     0.365 C 
ATOM      6  O   UNL A   1      32.198  22.159  22.533  1.00  0.00    -0.245 OA
BRANCH   5   7
ATOM      7  C   UNL A   1      31.917  21.439  24.876  1.00  0.00     0.295 C 
ATOM      8  N   UNL A   1      32.765  20.396  25.526  1.00  0.00    -0.317 N 
ATOM      9  C   UNL A   1      33.899  20.993  26.236  1.00  0.00     0.263 C 
ATOM     10  H   UNL A   1      32.169  19.938  26.215  1.00  0.00     0.349 HD
ATOM     11  C   UNL A   1      33.365  21.768  27.435  1.00  0.00     0.062 C 
ATOM     12  C   UNL A   1      31.347  22.358  25.973  1.00  0.00     0.078 C 
ATOM     13  C   UNL A   1      32.345  22.826  27.036  1.00  0.00     0.013 C 
BRANCH   8  14
ATOM     14  C   UNL A   1      33.189  19.325  24.611  1.00  0.00     0.340 C 
BRANCH  14  15
ATOM     15  C   UNL A   1      33.000  17.948  25.252  1.00  0.00     0.192 C 
ATOM     16  O   UNL A   1      32.284  17.848  26.255  1.00  0.00    -0.293 OA
BRANCH  15  17
ATOM     17  C   UNL A   1      33.738  16.723  24.663  1.00  0.00     0.026 C 
ATOM     18  C   UNL A   1      32.964  15.452  25.060  1.00  0.00     0.019 C 
ATOM     19  C   UNL A   1      35.168  16.581  25.204  1.00  0.00     0.019 C 
ATOM     20  C   UNL A   1      33.775  16.830  23.136  1.00  0.00     0.019 C 
ENDBRANCH  15  17
ENDBRANCH  14  15
ENDBRANCH   8  14
ENDBRANCH   5   7
ENDBRANCH   4   5
ENDBRANCH   3   4
ENDBRANCH   2   3
ENDBRANCH   1   2
BRANCH   1  21
ATOM     21  C   UNL A   1      36.765  21.450  24.901  1.00  0.00     0.202 C 
BRANCH  21  22
ATOM     22  C   UNL A   1      38.099  20.715  24.748  1.00  0.00     0.261 C 
BRANCH  22  23
ATOM     23  O   UNL A   1      38.674  20.374  26.014  1.00  0.00    -0.460 OA
BRANCH  23  24
ATOM     24  C   UNL A   1      40.006  20.588  26.081  1.00  0.00     0.338 C 
ATOM     25  O   UNL A   1      40.885  19.947  25.514  1.00  0.00    -0.246 OA
BRANCH  24  26
ATOM     26  C   UNL A   1      40.278  21.854  26.776  1.00  0.00     0.060 A 
ATOM     27  C   UNL A   1      39.703  23.007  26.227  1.00  0.00     0.016 A 
ATOM     28  C   UNL A   1      41.105  21.927  27.899  1.00  0.00     0.016 A 
ATOM     29  C   UNL A   1      40.024  24.252  26.745  1.00  0.00     0.010 A 
ATOM     30  C   UNL A   1      41.434  23.182  28.415  1.00  0.00     0.010 A 
ATOM     31  C   UNL A   1      40.938  24.346  27.801  1.00  0.00    -0.014 A 
BRANCH  31  32
ATOM     32  C   UNL A   1      41.503  25.674  28.117  1.00  0.00     0.031 A 
ATOM     33  C   UNL A   1      42.904  25.983  27.664  1.00  0.00     0.074 A 
ATOM     34  C   UNL A   1      40.752  26.604  28.730  1.00  0.00     0.049 A 
ATOM     35  N   UNL A   1      43.575  27.099  27.759  1.00  0.00    -0.248 NA
ATOM     36  C   UNL A   1      43.646  24.888  27.015  1.00  0.00     0.031 C 
ATOM     37  C   UNL A   1      39.383  26.403  29.202  1.00  0.00     0.029 A 
ATOM     38  N   UNL A   1      41.040  27.900  29.065  1.00  0.00    -0.354 N 
ATOM     39  C   UNL A   1      44.823  26.837  27.205  1.00  0.00     0.074 A 
ATOM     40  C   UNL A   1      44.824  25.451  26.793  1.00  0.00     0.031 C 
ATOM     41  C   UNL A   1      38.953  27.535  29.784  1.00  0.00     0.029 A 
ATOM     42  C   UNL A   1      40.021  28.531  29.735  1.00  0.00     0.049 A 
ATOM     43  H   UNL A   1      41.895  28.336  28.846  1.00  0.00     0.167 HD
ATOM     44  C   UNL A   1      45.867  27.682  27.037  1.00  0.00     0.034 A 
ATOM     45  C   UNL A   1      39.966  29.773  30.255  1.00  0.00     0.034 A 
ATOM     46  C   UNL A   1      45.845  29.062  27.435  1.00  0.00     0.049 A 
ATOM     47  C   UNL A   1      41.144  30.691  30.059  1.00  0.00     0.074 A 
ATOM     48  C   UNL A   1      46.829  30.020  27.277  1.00  0.00     0.029 A 
ATOM     49  N   UNL A   1      44.785  29.679  28.083  1.00  0.00    -0.354 N 
ATOM     50  N   UNL A   1      42.271  30.465  29.430  1.00  0.00    -0.248 NA
ATOM     51  C   UNL A   1      41.024  32.047  30.610  1.00  0.00     0.031 C 
ATOM     52  C   UNL A   1      46.374  31.211  27.856  1.00  0.00     0.029 A 
ATOM     53  C   UNL A   1      45.093  31.003  28.344  1.00  0.00     0.049 A 
ATOM     54  H   UNL A   1      43.937  29.240  28.322  1.00  0.00     0.167 HD
ATOM     55  C   UNL A   1      42.984  31.658  29.481  1.00  0.00     0.074 A 
ATOM     56  C   UNL A   1      42.145  32.610  30.181  1.00  0.00     0.031 C 
ATOM     57  C   UNL A   1      44.224  31.940  29.008  1.00  0.00     0.034 A 
BRANCH  44  58
ATOM     58  C   UNL A   1      47.107  27.138  26.379  1.00  0.00     0.023 A 
ATOM     59  C   UNL A   1      47.297  27.302  24.992  1.00  0.00     0.012 A 
ATOM     60  C   UNL A   1      48.105  26.497  27.140  1.00  0.00     0.148 A 
ATOM     61  C   UNL A   1      48.442  26.811  24.366  1.00  0.00     0.002 A 
ATOM     62  C   UNL A   1      49.265  26.048  26.517  1.00  0.00     0.091 A 
ATOM     63  F   UNL A   1      47.896  26.325  28.452  1.00  0.00    -0.205 F 
ATOM     64  C   UNL A   1      49.429  26.194  25.130  1.00  0.00     0.022 A 
BRANCH  62  65
ATOM     65  S   UNL A   1      50.626  25.307  27.424  1.00  0.00     0.127 S 
ATOM     66  O   UNL A   1      51.575  25.020  26.349  1.00  0.00    -0.237 OA
ATOM     67  O   UNL A   1      51.028  26.395  28.317  1.00  0.00    -0.237 OA
ATOM     68  O   UNL A   1      50.074  24.141  28.098  1.00  0.00    -0.744 OA
ENDBRANCH  62  65
ENDBRANCH  44  58
BRANCH  45  69
ATOM     69  C   UNL A   1      38.740  30.226  30.969  1.00  0.00     0.023 A 
ATOM     70  C   UNL A   1      38.600  29.977  32.348  1.00  0.00     0.012 A 
ATOM     71  C   UNL A   1      37.725  30.930  30.291  1.00  0.00     0.148 A 
ATOM     72  C   UNL A   1      37.459  30.395  33.032  1.00  0.00     0.002 A 
ATOM     73  C   UNL A   1      36.617  31.392  30.990  1.00  0.00     0.091 A 
ATOM     74  F   UNL A   1      37.869  31.142  28.975  1.00  0.00    -0.205 F 
ATOM     75  C   UNL A   1      36.474  31.112  32.358  1.00  0.00     0.022 A 
BRANCH  73  76
ATOM     76  S   UNL A   1      35.366  32.432  30.229  1.00  0.00     0.127 S 
ATOM     77  O   UNL A   1      34.414  32.605  31.323  1.00  0.00    -0.237 OA
ATOM     78  O   UNL A   1      36.136  33.629  29.885  1.00  0.00    -0.237 OA
ATOM     79  O   UNL A   1      34.880  31.682  29.077  1.00  0.00    -0.744 OA
ENDBRANCH  73  76
ENDBRANCH  45  69
BRANCH  57  80
ATOM     80  C   UNL A   1      44.736  33.343  29.209  1.00  0.00     0.023 A 
ATOM     81  C   UNL A   1      45.447  33.668  30.381  1.00  0.00     0.012 A 
ATOM     82  C   UNL A   1      44.562  34.323  28.211  1.00  0.00     0.148 A 
ATOM     83  C   UNL A   1      45.938  34.958  30.578  1.00  0.00     0.002 A 
ATOM     84  C   UNL A   1      45.099  35.591  28.391  1.00  0.00     0.091 A 
ATOM     85  F   UNL A   1      43.868  34.000  27.111  1.00  0.00    -0.205 F 
ATOM     86  C   UNL A   1      45.773  35.916  29.579  1.00  0.00     0.022 A 
BRANCH  84  87
ATOM     87  S   UNL A   1      45.022  36.853  27.116  1.00  0.00     0.127 S 
ATOM     88  O   UNL A   1      43.610  36.808  26.736  1.00  0.00    -0.237 OA
ATOM     89  O   UNL A   1      45.419  38.058  27.844  1.00  0.00    -0.237 OA
ATOM     90  O   UNL A   1      45.963  36.436  26.085  1.00  0.00    -0.744 OA
ENDBRANCH  84  87
ENDBRANCH  57  80
ENDBRANCH  31  32
ENDBRANCH  24  26
ENDBRANCH  23  24
ENDBRANCH  22  23
ENDBRANCH  21  22
ENDBRANCH   1  21
TORSDOF 20
ENDMDL
MODEL 2
REMARK VINA RESULT:     -10.6      5.241     10.527
REMARK SMILES CC(C)(C)C(=O)C[N@H+]1CCCC[C@H]1C(=O)OCCOCCOC(=O)c1ccc(-c2c3nc(c(-c4cccc(S(=O)(=O)[O-])c4F)c4ccc([nH]4)c(-c4cccc(S(=O)(=O)[O-])c4F)c4nc(c(-c5cccc(S(=O)(=O)[O-])c5F)c5ccc2[nH]5)C=C4)C=C3)cc1
REMARK SMILES IDX 19 1 18 2 17 3 16 4 14 5 15 6 13 7 8 8 9 9 10 11 12 12 11 13
REMARK SMILES IDX 7 14 5 15 6 16 2 17 1 18 3 19 4 20 20 21 21 22 22 23 23 24
REMARK SMILES IDX 24 25 25 26 26 27 87 28 27 29 86 30 28 31 29 32 30 33 80 34
REMARK SMILES IDX 31 35 85 36 79 37 81 38 32 39 84 40 78 41 77 42 33 44 65 45
REMARK SMILES IDX 45 46 64 47 46 48 49 49 63 50 82 51 47 52 48 53 62 55 83 56
REMARK SMILES IDX 50 57 34 58 35 59 43 60 36 61 38 62 44 63 37 64 39 65 40 66
REMARK SMILES IDX 41 67 42 68 66 69 67 70 75 71 68 72 70 73 76 74 69 75 71 76
REMARK SMILES IDX 72 77 73 78 74 79 51 80 52 81 60 82 53 83 55 84 61 85 54 86
REMARK SMILES IDX 56 87 57 88 58 89 59 90
REMARK H PARENT 8 10 81 43 49 54
REMARK Flexibility Score: inf
ROOT
ATOM      1  O   UNL A   1      32.128  31.071  26.157  1.00  0.00    -0.374 OA
ENDROOT
BRANCH   1   2
ATOM      2  C   UNL A   1      32.561  29.730  25.932  1.00  0.00     0.202 C 
BRANCH   2   3
ATOM      3  C   UNL A   1      31.570  28.712  25.353  1.00  0.00     0.261 C 
BRANCH   3   4
ATOM      4  O   UNL A   1      32.158  27.432  25.082  1.00  0.00    -0.459 OA
BRANCH   4   5
ATOM      5  C   UNL A   1      31.733  26.437  25.915  1.00  0.00     0.365 C 
ATOM      6  O   UNL A   1      31.385  26.618  27.076  1.00  0.00    -0.245 OA
BRANCH   5   7
ATOM      7  C   UNL A   1      31.753  25.072  25.190  1.00  0.00     0.295 C 
ATOM      8  N   UNL A   1      32.999  24.288  25.435  1.00  0.00    -0.317 N 
ATOM      9  C   UNL A   1      33.072  23.817  26.820  1.00  0.00     0.263 C 
ATOM     10  H   UNL A   1      32.941  23.470  24.829  1.00  0.00     0.349 HD
ATOM     11  C   UNL A   1      31.986  22.770  27.035  1.00  0.00     0.062 C 
ATOM     12  C   UNL A   1      30.541  24.152  25.433  1.00  0.00     0.078 C 
ATOM     13  C   UNL A   1      30.597  23.299  26.705  1.00  0.00     0.013 C 
BRANCH   8  14
ATOM     14  C   UNL A   1      34.226  24.986  25.023  1.00  0.00     0.340 C 
BRANCH  14  15
ATOM     15  C   UNL A   1      35.403  24.013  24.917  1.00  0.00     0.192 C 
ATOM     16  O   UNL A   1      36.374  24.165  25.667  1.00  0.00    -0.293 OA
BRANCH  15  17
ATOM     17  C   UNL A   1      35.376  22.893  23.850  1.00  0.00     0.026 C 
ATOM     18  C   UNL A   1      35.064  21.559  24.554  1.00  0.00     0.019 C 
ATOM     19  C   UNL A   1      36.722  22.733  23.130  1.00  0.00     0.019 C 
ATOM     20  C   UNL A   1      34.277  23.187  22.825  1.00  0.00     0.019 C 
ENDBRANCH  15  17
ENDBRANCH  14  15
ENDBRANCH   8  14
ENDBRANCH   5   7
ENDBRANCH   4   5
ENDBRANCH   3   4
ENDBRANCH   2   3
ENDBRANCH   1   2
BRANCH   1  21
ATOM     21  C   UNL A   1      32.730  31.785  27.232  1.00  0.00     0.202 C 
BRANCH  21  22
ATOM     22  C   UNL A   1      32.412  33.274  27.401  1.00  0.00     0.261 C 
BRANCH  22  23
ATOM     23  O   UNL A   1      33.585  34.047  27.676  1.00  0.00    -0.460 OA
BRANCH  23  24
ATOM     24  C   UNL A   1      33.977  33.997  28.968  1.00  0.00     0.338 C 
ATOM     25  O   UNL A   1      33.359  34.413  29.942  1.00  0.00    -0.246 OA
BRANCH  24  26
ATOM     26  C   UNL A   1      35.186  33.173  29.094  1.00  0.00     0.060 A 
ATOM     27  C   UNL A   1      35.038  31.939  29.741  1.00  0.00     0.016 A 
ATOM     28  C   UNL A   1      36.436  33.604  28.644  1.00  0.00     0.016 A 
ATOM     29  C   UNL A   1      36.156  31.167  30.020  1.00  0.00     0.010 A 
ATOM     30  C   UNL A   1      37.562  32.830  28.932  1.00  0.00     0.010 A 
ATOM     31  C   UNL A   1      37.426  31.640  29.670  1.00  0.00    -0.014 A 
BRANCH  31  32
ATOM     32  C   UNL A   1      38.605  30.969  30.256  1.00  0.00     0.031 A 
ATOM     33  C   UNL A   1      39.004  31.319  31.663  1.00  0.00     0.074 A 
ATOM     34  C   UNL A   1      39.256  30.016  29.568  1.00  0.00     0.049 A 
ATOM     35  N   UNL A   1      39.948  30.806  32.406  1.00  0.00    -0.248 NA
ATOM     36  C   UNL A   1      38.233  32.388  32.323  1.00  0.00     0.031 C 
ATOM     37  C   UNL A   1      38.942  29.602  28.201  1.00  0.00     0.029 A 
ATOM     38  N   UNL A   1      40.319  29.231  29.925  1.00  0.00    -0.354 N 
ATOM     39  C   UNL A   1      39.902  31.502  33.609  1.00  0.00     0.074 A 
ATOM     40  C   UNL A   1      38.850  32.487  33.491  1.00  0.00     0.031 C 
ATOM     41  C   UNL A   1      39.809  28.646  27.827  1.00  0.00     0.029 A 
ATOM     42  C   UNL A   1      40.742  28.394  28.922  1.00  0.00     0.049 A 
ATOM     43  H   UNL A   1      40.739  29.264  30.815  1.00  0.00     0.167 HD
ATOM     44  C   UNL A   1      40.656  31.322  34.718  1.00  0.00     0.034 A 
ATOM     45  C   UNL A   1      41.774  27.528  28.895  1.00  0.00     0.034 A 
ATOM     46  C   UNL A   1      41.686  30.327  34.826  1.00  0.00     0.049 A 
ATOM     47  C   UNL A   1      42.602  27.351  30.141  1.00  0.00     0.074 A 
ATOM     48  C   UNL A   1      42.485  30.028  35.915  1.00  0.00     0.029 A 
ATOM     49  N   UNL A   1      42.069  29.473  33.802  1.00  0.00    -0.354 N 
ATOM     50  N   UNL A   1      42.471  27.933  31.309  1.00  0.00    -0.248 NA
ATOM     51  C   UNL A   1      43.692  26.370  30.077  1.00  0.00     0.031 C 
ATOM     52  C   UNL A   1      43.370  29.012  35.539  1.00  0.00     0.029 A 
ATOM     53  C   UNL A   1      43.101  28.655  34.227  1.00  0.00     0.049 A 
ATOM     54  H   UNL A   1      41.665  29.452  32.905  1.00  0.00     0.167 HD
ATOM     55  C   UNL A   1      43.441  27.368  32.129  1.00  0.00     0.074 A 
ATOM     56  C   UNL A   1      44.132  26.377  31.328  1.00  0.00     0.031 C 
ATOM     57  C   UNL A   1      43.746  27.649  33.421  1.00  0.00     0.034 A 
BRANCH  44  58
ATOM     58  C   UNL A   1      40.378  32.209  35.903  1.00  0.00     0.023 A 
ATOM     59  C   UNL A   1      41.210  33.319  36.160  1.00  0.00     0.012 A 
ATOM     60  C   UNL A   1      39.271  31.969  36.740  1.00  0.00     0.148 A 
ATOM     61  C   UNL A   1      40.964  34.155  37.249  1.00  0.00     0.002 A 
ATOM     62  C   UNL A   1      39.006  32.832  37.797  1.00  0.00     0.091 A 
ATOM     63  F   UNL A   1      38.508  30.894  36.496  1.00  0.00    -0.205 F 
ATOM     64  C   UNL A   1      39.857  33.917  38.059  1.00  0.00     0.022 A 
BRANCH  62  65
ATOM     65  S   UNL A   1      37.565  32.654  38.854  1.00  0.00     0.127 S 
ATOM     66  O   UNL A   1      37.741  31.296  39.366  1.00  0.00    -0.237 OA
ATOM     67  O   UNL A   1      37.779  33.711  39.844  1.00  0.00    -0.237 OA
ATOM     68  O   UNL A   1      36.408  32.853  37.995  1.00  0.00    -0.744 OA
ENDBRANCH  62  65
ENDBRANCH  44  58
BRANCH  45  69
ATOM     69  C   UNL A   1      42.050  26.739  27.663  1.00  0.00     0.023 A 
ATOM     70  C   UNL A   1      42.676  27.354  26.562  1.00  0.00     0.012 A 
ATOM     71  C   UNL A   1      41.721  25.371  27.590  1.00  0.00     0.148 A 
ATOM     72  C   UNL A   1      42.943  26.629  25.401  1.00  0.00     0.002 A 
ATOM     73  C   UNL A   1      42.039  24.641  26.452  1.00  0.00     0.091 A 
ATOM     74  F   UNL A   1      41.109  24.808  28.642  1.00  0.00    -0.205 F 
ATOM     75  C   UNL A   1      42.636  25.272  25.349  1.00  0.00     0.022 A 
BRANCH  73  76
ATOM     76  S   UNL A   1      41.797  22.865  26.350  1.00  0.00     0.127 S 
ATOM     77  O   UNL A   1      42.417  22.551  25.065  1.00  0.00    -0.237 OA
ATOM     78  O   UNL A   1      42.534  22.391  27.523  1.00  0.00    -0.237 OA
ATOM     79  O   UNL A   1      40.356  22.660  26.426  1.00  0.00    -0.744 OA
ENDBRANCH  73  76
ENDBRANCH  45  69
BRANCH  57  80
ATOM     80  C   UNL A   1      44.858  26.856  34.056  1.00  0.00     0.023 A 
ATOM     81  C   UNL A   1      46.188  27.309  33.953  1.00  0.00     0.012 A 
ATOM     82  C   UNL A   1      44.579  25.694  34.802  1.00  0.00     0.148 A 
ATOM     83  C   UNL A   1      47.229  26.594  34.544  1.00  0.00     0.002 A 
ATOM     84  C   UNL A   1      45.614  25.015  35.432  1.00  0.00     0.091 A 
ATOM     85  F   UNL A   1      43.309  25.268  34.874  1.00  0.00    -0.205 F 
ATOM     86  C   UNL A   1      46.941  25.453  35.292  1.00  0.00     0.022 A 
BRANCH  84  87
ATOM     87  S   UNL A   1      45.322  23.598  36.496  1.00  0.00     0.127 S 
ATOM     88  O   UNL A   1      46.684  23.143  36.769  1.00  0.00    -0.237 OA
ATOM     89  O   UNL A   1      44.640  24.202  37.641  1.00  0.00    -0.237 OA
ATOM     90  O   UNL A   1      44.497  22.681  35.720  1.00  0.00    -0.744 OA
ENDBRANCH  84  87
ENDBRANCH  57  80
ENDBRANCH  31  32
ENDBRANCH  24  26
ENDBRANCH  23  24
ENDBRANCH  22  23
ENDBRANCH  21  22
ENDBRANCH   1  21
TORSDOF 20
ENDMDL
MODEL 3
REMARK VINA RESULT:     -10.5      1.843      7.900
REMARK SMILES CC(C)(C)C(=O)C[N@H+]1CCCC[C@H]1C(=O)OCCOCCOC(=O)c1ccc(-c2c3nc(c(-c4cccc(S(=O)(=O)[O-])c4F)c4ccc([nH]4)c(-c4cccc(S(=O)(=O)[O-])c4F)c4nc(c(-c5cccc(S(=O)(=O)[O-])c5F)c5ccc2[nH]5)C=C4)C=C3)cc1
REMARK SMILES IDX 19 1 18 2 17 3 16 4 14 5 15 6 13 7 8 8 9 9 10 11 12 12 11 13
REMARK SMILES IDX 7 14 5 15 6 16 2 17 1 18 3 19 4 20 20 21 21 22 22 23 23 24
REMARK SMILES IDX 24 25 25 26 26 27 87 28 27 29 86 30 28 31 29 32 30 33 80 34
REMARK SMILES IDX 31 35 85 36 79 37 81 38 32 39 84 40 78 41 77 42 33 44 65 45
REMARK SMILES IDX 45 46 64 47 46 48 49 49 63 50 82 51 47 52 48 53 62 55 83 56
REMARK SMILES IDX 50 57 34 58 35 59 43 60 36 61 38 62 44 63 37 64 39 65 40 66
REMARK SMILES IDX 41 67 42 68 66 69 67 70 75 71 68 72 70 73 76 74 69 75 71 76
REMARK SMILES IDX 72 77 73 78 74 79 51 80 52 81 60 82 53 83 55 84 61 85 54 86
REMARK SMILES IDX 56 87 57 88 58 89 59 90
REMARK H PARENT 8 10 81 43 49 54
REMARK Flexibility Score: inf
ROOT
ATOM      1  O   UNL A   1      38.714  21.644  25.441  1.00  0.00    -0.374 OA
ENDROOT
BRANCH   1   2
ATOM      2  C   UNL A   1      37.593  22.478  25.733  1.00  0.00     0.202 C 
BRANCH   2   3
ATOM      3  C   UNL A   1      36.232  21.830  26.015  1.00  0.00     0.261 C 
BRANCH   3   4
ATOM      4  O   UNL A   1      35.219  22.770  26.400  1.00  0.00    -0.459 OA
BRANCH   4   5
ATOM      5  C   UNL A   1      34.084  22.708  25.642  1.00  0.00     0.365 C 
ATOM      6  O   UNL A   1      33.032  23.261  25.940  1.00  0.00    -0.245 OA
BRANCH   5   7
ATOM      7  C   UNL A   1      34.319  21.852  24.376  1.00  0.00     0.295 C 
ATOM      8  N   UNL A   1      33.342  20.734  24.227  1.00  0.00    -0.317 N 
ATOM      9  C   UNL A   1      31.998  21.233  23.925  1.00  0.00     0.263 C 
ATOM     10  H   UNL A   1      33.660  20.188  23.426  1.00  0.00     0.349 HD
ATOM     11  C   UNL A   1      32.009  21.841  22.527  1.00  0.00     0.062 C 
ATOM     12  C   UNL A   1      34.396  22.617  23.041  1.00  0.00     0.078 C 
ATOM     13  C   UNL A   1      33.052  22.940  22.381  1.00  0.00     0.013 C 
BRANCH   8  14
ATOM     14  C   UNL A   1      33.341  19.795  25.358  1.00  0.00     0.340 C 
BRANCH  14  15
ATOM     15  C   UNL A   1      33.059  18.366  24.887  1.00  0.00     0.192 C 
ATOM     16  O   UNL A   1      31.895  17.949  24.905  1.00  0.00    -0.293 OA
BRANCH  15  17
ATOM     17  C   UNL A   1      34.233  17.461  24.444  1.00  0.00     0.026 C 
ATOM     18  C   UNL A   1      34.220  16.188  25.310  1.00  0.00     0.019 C 
ATOM     19  C   UNL A   1      35.600  18.134  24.631  1.00  0.00     0.019 C 
ATOM     20  C   UNL A   1      34.051  17.068  22.974  1.00  0.00     0.019 C 
ENDBRANCH  15  17
ENDBRANCH  14  15
ENDBRANCH   8  14
ENDBRANCH   5   7
ENDBRANCH   4   5
ENDBRANCH   3   4
ENDBRANCH   2   3
ENDBRANCH   1   2
BRANCH   1  21
ATOM     21  C   UNL A   1      38.539  20.237  25.573  1.00  0.00     0.202 C 
BRANCH  21  22
ATOM     22  C   UNL A   1      39.780  19.341  25.636  1.00  0.00     0.261 C 
BRANCH  22  23
ATOM     23  O   UNL A   1      40.517  19.527  26.849  1.00  0.00    -0.460 OA
BRANCH  23  24
ATOM     24  C   UNL A   1      41.763  20.013  26.658  1.00  0.00     0.338 C 
ATOM     25  O   UNL A   1      42.705  19.437  26.123  1.00  0.00    -0.246 OA
BRANCH  24  26
ATOM     26  C   UNL A   1      41.803  21.442  26.998  1.00  0.00     0.060 A 
ATOM     27  C   UNL A   1      41.664  22.343  25.934  1.00  0.00     0.016 A 
ATOM     28  C   UNL A   1      42.018  21.894  28.302  1.00  0.00     0.016 A 
ATOM     29  C   UNL A   1      41.828  23.702  26.156  1.00  0.00     0.010 A 
ATOM     30  C   UNL A   1      42.191  23.262  28.522  1.00  0.00     0.010 A 
ATOM     31  C   UNL A   1      42.152  24.159  27.438  1.00  0.00    -0.014 A 
BRANCH  31  32
ATOM     32  C   UNL A   1      42.633  25.548  27.581  1.00  0.00     0.031 A 
ATOM     33  C   UNL A   1      41.737  26.552  28.253  1.00  0.00     0.074 A 
ATOM     34  C   UNL A   1      43.872  25.882  27.184  1.00  0.00     0.049 A 
ATOM     35  N   UNL A   1      41.975  27.800  28.556  1.00  0.00    -0.248 NA
ATOM     36  C   UNL A   1      40.392  26.086  28.636  1.00  0.00     0.031 C 
ATOM     37  C   UNL A   1      44.818  24.980  26.529  1.00  0.00     0.029 A 
ATOM     38  N   UNL A   1      44.543  27.073  27.270  1.00  0.00    -0.354 N 
ATOM     39  C   UNL A   1      40.808  28.275  29.143  1.00  0.00     0.074 A 
ATOM     40  C   UNL A   1      39.854  27.188  29.136  1.00  0.00     0.031 C 
ATOM     41  C   UNL A   1      45.946  25.657  26.255  1.00  0.00     0.029 A 
ATOM     42  C   UNL A   1      45.793  27.039  26.703  1.00  0.00     0.049 A 
ATOM     43  H   UNL A   1      44.164  27.876  27.696  1.00  0.00     0.167 HD
ATOM     44  C   UNL A   1      40.561  29.502  29.659  1.00  0.00     0.034 A 
ATOM     45  C   UNL A   1      46.705  28.020  26.560  1.00  0.00     0.034 A 
ATOM     46  C   UNL A   1      41.525  30.567  29.675  1.00  0.00     0.049 A 
ATOM     47  C   UNL A   1      46.403  29.378  27.138  1.00  0.00     0.074 A 
ATOM     48  C   UNL A   1      41.398  31.837  30.207  1.00  0.00     0.029 A 
ATOM     49  N   UNL A   1      42.795  30.490  29.121  1.00  0.00    -0.354 N 
ATOM     50  N   UNL A   1      45.341  29.778  27.794  1.00  0.00    -0.248 NA
ATOM     51  C   UNL A   1      47.442  30.405  26.990  1.00  0.00     0.031 C 
ATOM     52  C   UNL A   1      42.582  32.536  29.950  1.00  0.00     0.029 A 
ATOM     53  C   UNL A   1      43.459  31.692  29.287  1.00  0.00     0.049 A 
ATOM     54  H   UNL A   1      43.168  29.695  28.676  1.00  0.00     0.167 HD
ATOM     55  C   UNL A   1      45.593  31.094  28.165  1.00  0.00     0.074 A 
ATOM     56  C   UNL A   1      46.923  31.411  27.683  1.00  0.00     0.031 C 
ATOM     57  C   UNL A   1      44.798  31.968  28.831  1.00  0.00     0.034 A 
BRANCH  44  58
ATOM     58  C   UNL A   1      39.203  29.745  30.262  1.00  0.00     0.023 A 
ATOM     59  C   UNL A   1      38.913  29.266  31.557  1.00  0.00     0.012 A 
ATOM     60  C   UNL A   1      38.225  30.482  29.565  1.00  0.00     0.148 A 
ATOM     61  C   UNL A   1      37.664  29.487  32.134  1.00  0.00     0.002 A 
ATOM     62  C   UNL A   1      36.997  30.737  30.165  1.00  0.00     0.091 A 
ATOM     63  F   UNL A   1      38.509  30.906  28.326  1.00  0.00    -0.205 F 
ATOM     64  C   UNL A   1      36.712  30.231  31.443  1.00  0.00     0.022 A 
BRANCH  62  65
ATOM     65  S   UNL A   1      35.731  31.746  29.388  1.00  0.00     0.127 S 
ATOM     66  O   UNL A   1      36.524  32.852  28.851  1.00  0.00    -0.237 OA
ATOM     67  O   UNL A   1      35.192  30.837  28.376  1.00  0.00    -0.237 OA
ATOM     68  O   UNL A   1      34.796  32.104  30.443  1.00  0.00    -0.744 OA
ENDBRANCH  62  65
ENDBRANCH  44  58
BRANCH  45  69
ATOM     69  C   UNL A   1      47.999  27.738  25.878  1.00  0.00     0.023 A 
ATOM     70  C   UNL A   1      49.130  27.386  26.639  1.00  0.00     0.012 A 
ATOM     71  C   UNL A   1      48.104  27.789  24.474  1.00  0.00     0.148 A 
ATOM     72  C   UNL A   1      50.349  27.119  26.017  1.00  0.00     0.002 A 
ATOM     73  C   UNL A   1      49.306  27.468  23.857  1.00  0.00     0.091 A 
ATOM     74  F   UNL A   1      47.021  28.144  23.768  1.00  0.00    -0.205 F 
ATOM     75  C   UNL A   1      50.435  27.148  24.628  1.00  0.00     0.022 A 
BRANCH  73  76
ATOM     76  S   UNL A   1      49.471  27.355  22.073  1.00  0.00     0.127 S 
ATOM     77  O   UNL A   1      50.907  27.137  21.917  1.00  0.00    -0.237 OA
ATOM     78  O   UNL A   1      48.633  26.194  21.765  1.00  0.00    -0.237 OA
ATOM     79  O   UNL A   1      48.960  28.616  21.551  1.00  0.00    -0.744 OA
ENDBRANCH  73  76
ENDBRANCH  45  69
BRANCH  57  80
ATOM     80  C   UNL A   1      45.355  33.342  29.099  1.00  0.00     0.023 A 
ATOM     81  C   UNL A   1      46.077  33.586  30.285  1.00  0.00     0.012 A 
ATOM     82  C   UNL A   1      45.212  34.375  28.151  1.00  0.00     0.148 A 
ATOM     83  C   UNL A   1      46.609  34.849  30.543  1.00  0.00     0.002 A 
ATOM     84  C   UNL A   1      45.790  35.615  28.391  1.00  0.00     0.091 A 
ATOM     85  F   UNL A   1      44.507  34.129  27.037  1.00  0.00    -0.205 F 
ATOM     86  C   UNL A   1      46.475  35.859  29.593  1.00  0.00     0.022 A 
BRANCH  84  87
ATOM     87  S   UNL A   1      45.752  36.940  27.179  1.00  0.00     0.127 S 
ATOM     88  O   UNL A   1      44.315  37.129  26.989  1.00  0.00    -0.237 OA
ATOM     89  O   UNL A   1      46.423  38.030  27.888  1.00  0.00    -0.237 OA
ATOM     90  O   UNL A   1      46.479  36.439  26.020  1.00  0.00    -0.744 OA
ENDBRANCH  84  87
ENDBRANCH  57  80
ENDBRANCH  31  32
ENDBRANCH  24  26
ENDBRANCH  23  24
ENDBRANCH  22  23
ENDBRANCH  21  22
ENDBRANCH   1  21
TORSDOF 20
ENDMDL
