MODEL 1
REMARK VINA RESULT:     -10.9      0.000      0.000
REMARK SMILES COc1cc(CC(=O)N[C@@H](CC(=O)OCCOCCOC(=O)c2ccc(-c3c4nc(c(-c5cccc(S(=O)(=O)[O-])c5F)c5ccc([nH]5)c(-c5cccc(S(=O)(=O)[O-])c5F)c5nc(c(-c6cccc(S(=O)(=O)[O-])c6F)c6ccc3[nH]6)C=C5)C=C4)cc2)c2cccs2)ccc1C
REMARK SMILES IDX 16 1 15 2 14 3 12 4 13 5 11 6 10 7 9 8 7 9 8 10 6 12 5 13
REMARK SMILES IDX 3 14 4 15 93 16 92 17 94 18 91 19 2 20 1 21 86 22 87 23
REMARK SMILES IDX 90 24 88 25 89 26 17 27 18 28 19 29 20 30 21 31 22 32 23 33
REMARK SMILES IDX 24 34 85 35 25 36 84 37 26 38 27 39 28 40 78 41 29 42 83 43
REMARK SMILES IDX 77 44 79 45 30 46 82 47 76 48 75 49 31 51 63 52 43 53 62 54
REMARK SMILES IDX 44 55 47 56 61 57 80 58 45 59 46 60 60 62 81 63 48 64 32 65
REMARK SMILES IDX 33 66 41 67 34 68 36 69 42 70 35 71 37 72 38 73 39 74 40 75
REMARK SMILES IDX 64 76 65 77 73 78 66 79 68 80 74 81 67 82 69 83 70 84 71 85
REMARK SMILES IDX 72 86 49 87 50 88 58 89 51 90 53 91 59 92 52 93 54 94 55 95
REMARK SMILES IDX 56 96 57 97
REMARK H PARENT 9 11 79 50 47 61
REMARK Flexibility Score: inf
ROOT
ATOM      1  C   UNL A   1      31.809  30.066  26.715  1.00  0.00     0.202 C 
ENDROOT
BRANCH   1   2
ATOM      2  C   UNL A   1      32.119  29.827  25.264  1.00  0.00     0.261 C 
BRANCH   2   3
ATOM      3  O   UNL A   1      30.920  29.630  24.448  1.00  0.00    -0.463 OA
BRANCH   3   4
ATOM      4  C   UNL A   1      30.822  28.797  23.362  1.00  0.00     0.308 C 
ATOM      5  O   UNL A   1      31.024  29.065  22.199  1.00  0.00    -0.252 OA
BRANCH   4   6
ATOM      6  C   UNL A   1      30.390  27.421  23.809  1.00  0.00     0.153 C 
BRANCH   6   7
ATOM      7  C   UNL A   1      31.552  26.417  23.838  1.00  0.00     0.133 C 
BRANCH   7   8
ATOM      8  N   UNL A   1      31.766  25.817  22.516  1.00  0.00    -0.348 N 
ATOM      9  C   UNL A   1      32.882  25.328  21.917  1.00  0.00     0.224 C 
ATOM     10  O   UNL A   1      32.892  25.246  20.686  1.00  0.00    -0.275 OA
ATOM     11  H   UNL A   1      30.954  25.758  21.964  1.00  0.00     0.164 HD
BRANCH   9  12
ATOM     12  C   UNL A   1      34.016  24.768  22.744  1.00  0.00     0.135 C 
BRANCH  12  13
ATOM     13  C   UNL A   1      33.769  23.394  23.308  1.00  0.00    -0.035 A 
ATOM     14  C   UNL A   1      34.561  21.563  24.708  1.00  0.00     0.122 A 
ATOM     15  C   UNL A   1      34.609  22.902  24.321  1.00  0.00     0.051 A 
ATOM     16  C   UNL A   1      33.599  20.717  24.135  1.00  0.00    -0.009 A 
ATOM     17  C   UNL A   1      32.687  21.238  23.202  1.00  0.00     0.007 A 
ATOM     18  C   UNL A   1      33.497  19.262  24.504  1.00  0.00     0.048 C 
ATOM     19  C   UNL A   1      32.779  22.563  22.776  1.00  0.00     0.005 A 
BRANCH  14  20
ATOM     20  O   UNL A   1      35.458  20.983  25.565  1.00  0.00    -0.496 OA
ATOM     21  C   UNL A   1      36.713  21.625  25.735  1.00  0.00     0.278 C 
ENDBRANCH  14  20
ENDBRANCH  12  13
ENDBRANCH   9  12
ENDBRANCH   7   8
BRANCH   7  22
ATOM     22  C   UNL A   1      31.448  25.267  24.826  1.00  0.00     0.027 A 
ATOM     23  C   UNL A   1      30.662  24.130  24.695  1.00  0.00     0.017 A 
ATOM     24  S   UNL A   1      32.397  25.170  26.254  1.00  0.00    -0.147 S 
ATOM     25  C   UNL A   1      30.700  23.292  25.844  1.00  0.00     0.012 A 
ATOM     26  C   UNL A   1      31.576  23.768  26.790  1.00  0.00     0.065 A 
ENDBRANCH   7  22
ENDBRANCH   6   7
ENDBRANCH   4   6
ENDBRANCH   3   4
ENDBRANCH   2   3
ENDBRANCH   1   2
BRANCH   1  27
ATOM     27  O   UNL A   1      32.584  31.191  27.056  1.00  0.00    -0.374 OA
BRANCH  27  28
ATOM     28  C   UNL A   1      33.859  30.968  27.592  1.00  0.00     0.202 C 
BRANCH  28  29
ATOM     29  C   UNL A   1      34.585  32.267  27.890  1.00  0.00     0.261 C 
BRANCH  29  30
ATOM     30  O   UNL A   1      34.141  32.832  29.140  1.00  0.00    -0.460 OA
BRANCH  30  31
ATOM     31  C   UNL A   1      34.739  34.016  29.476  1.00  0.00     0.338 C 
ATOM     32  O   UNL A   1      34.223  35.103  29.272  1.00  0.00    -0.246 OA
BRANCH  31  33
ATOM     33  C   UNL A   1      36.119  33.784  29.997  1.00  0.00     0.060 A 
ATOM     34  C   UNL A   1      37.230  33.974  29.159  1.00  0.00     0.016 A 
ATOM     35  C   UNL A   1      36.274  33.100  31.200  1.00  0.00     0.016 A 
ATOM     36  C   UNL A   1      38.441  33.312  29.428  1.00  0.00     0.010 A 
ATOM     37  C   UNL A   1      37.427  32.361  31.392  1.00  0.00     0.010 A 
ATOM     38  C   UNL A   1      38.506  32.419  30.489  1.00  0.00    -0.014 A 
BRANCH  38  39
ATOM     39  C   UNL A   1      39.651  31.570  30.847  1.00  0.00     0.031 A 
ATOM     40  C   UNL A   1      39.679  30.230  30.209  1.00  0.00     0.074 A 
ATOM     41  C   UNL A   1      40.758  31.981  31.521  1.00  0.00     0.049 A 
ATOM     42  N   UNL A   1      40.546  29.324  30.489  1.00  0.00    -0.248 NA
ATOM     43  C   UNL A   1      38.688  29.773  29.234  1.00  0.00     0.031 C 
ATOM     44  C   UNL A   1      42.119  31.456  31.362  1.00  0.00     0.029 A 
ATOM     45  N   UNL A   1      40.948  32.982  32.484  1.00  0.00    -0.354 N 
ATOM     46  C   UNL A   1      40.454  28.347  29.529  1.00  0.00     0.074 A 
ATOM     47  C   UNL A   1      39.202  28.597  28.868  1.00  0.00     0.031 C 
ATOM     48  C   UNL A   1      42.908  31.922  32.343  1.00  0.00     0.029 A 
ATOM     49  C   UNL A   1      42.056  32.636  33.270  1.00  0.00     0.049 A 
ATOM     50  H   UNL A   1      40.397  33.791  32.590  1.00  0.00     0.167 HD
ATOM     51  C   UNL A   1      41.534  27.544  29.340  1.00  0.00     0.034 A 
ATOM     52  C   UNL A   1      41.989  32.499  34.621  1.00  0.00     0.034 A 
ATOM     53  C   UNL A   1      42.534  27.771  30.404  1.00  0.00     0.049 A 
ATOM     54  C   UNL A   1      42.400  31.114  35.039  1.00  0.00     0.074 A 
ATOM     55  C   UNL A   1      43.760  28.415  30.453  1.00  0.00     0.029 A 
ATOM     56  N   UNL A   1      42.168  27.535  31.729  1.00  0.00    -0.354 N 
ATOM     57  N   UNL A   1      42.655  30.175  34.173  1.00  0.00    -0.248 NA
ATOM     58  C   UNL A   1      42.579  30.648  36.407  1.00  0.00     0.031 C 
ATOM     59  C   UNL A   1      44.111  28.587  31.824  1.00  0.00     0.029 A 
ATOM     60  C   UNL A   1      43.120  28.019  32.611  1.00  0.00     0.049 A 
ATOM     61  H   UNL A   1      41.338  27.083  32.002  1.00  0.00     0.167 HD
ATOM     62  C   UNL A   1      42.877  28.987  34.793  1.00  0.00     0.074 A 
ATOM     63  C   UNL A   1      42.895  29.353  36.202  1.00  0.00     0.031 C 
ATOM     64  C   UNL A   1      42.958  27.832  34.059  1.00  0.00     0.034 A 
BRANCH  51  65
ATOM     65  C   UNL A   1      41.817  26.676  28.122  1.00  0.00     0.023 A 
ATOM     66  C   UNL A   1      41.517  27.244  26.862  1.00  0.00     0.012 A 
ATOM     67  C   UNL A   1      42.283  25.338  28.094  1.00  0.00     0.148 A 
ATOM     68  C   UNL A   1      41.641  26.534  25.662  1.00  0.00     0.002 A 
ATOM     69  C   UNL A   1      42.439  24.635  26.894  1.00  0.00     0.091 A 
ATOM     70  F   UNL A   1      42.555  24.690  29.223  1.00  0.00    -0.205 F 
ATOM     71  C   UNL A   1      42.107  25.229  25.676  1.00  0.00     0.022 A 
BRANCH  69  72
ATOM     72  S   UNL A   1      43.051  22.938  26.827  1.00  0.00     0.127 S 
ATOM     73  O   UNL A   1      42.905  22.614  25.407  1.00  0.00    -0.237 OA
ATOM     74  O   UNL A   1      44.436  23.087  27.273  1.00  0.00    -0.237 OA
ATOM     75  O   UNL A   1      42.206  22.150  27.715  1.00  0.00    -0.744 OA
ENDBRANCH  69  72
ENDBRANCH  51  65
BRANCH  52  76
ATOM     76  C   UNL A   1      40.984  33.407  35.252  1.00  0.00     0.023 A 
ATOM     77  C   UNL A   1      41.290  34.793  35.244  1.00  0.00     0.012 A 
ATOM     78  C   UNL A   1      39.639  33.015  35.396  1.00  0.00     0.148 A 
ATOM     79  C   UNL A   1      40.277  35.758  35.253  1.00  0.00     0.002 A 
ATOM     80  C   UNL A   1      38.633  33.984  35.365  1.00  0.00     0.091 A 
ATOM     81  F   UNL A   1      39.362  31.708  35.480  1.00  0.00    -0.205 F 
ATOM     82  C   UNL A   1      38.950  35.350  35.266  1.00  0.00     0.022 A 
BRANCH  80  83
ATOM     83  S   UNL A   1      36.887  33.567  35.262  1.00  0.00     0.127 S 
ATOM     84  O   UNL A   1      36.932  32.264  34.603  1.00  0.00    -0.237 OA
ATOM     85  O   UNL A   1      36.502  33.522  36.674  1.00  0.00    -0.237 OA
ATOM     86  O   UNL A   1      36.267  34.638  34.499  1.00  0.00    -0.744 OA
ENDBRANCH  80  83
ENDBRANCH  52  76
BRANCH  64  87
ATOM     87  C   UNL A   1      42.878  26.422  34.615  1.00  0.00     0.023 A 
ATOM     88  C   UNL A   1      41.708  25.900  35.196  1.00  0.00     0.012 A 
ATOM     89  C   UNL A   1      43.956  25.509  34.455  1.00  0.00     0.148 A 
ATOM     90  C   UNL A   1      41.619  24.576  35.637  1.00  0.00     0.002 A 
ATOM     91  C   UNL A   1      43.818  24.163  34.776  1.00  0.00     0.091 A 
ATOM     92  F   UNL A   1      45.148  25.937  34.020  1.00  0.00    -0.205 F 
ATOM     93  C   UNL A   1      42.665  23.698  35.402  1.00  0.00     0.022 A 
BRANCH  91  94
ATOM     94  S   UNL A   1      45.049  22.954  34.268  1.00  0.00     0.127 S 
ATOM     95  O   UNL A   1      44.381  21.696  34.593  1.00  0.00    -0.237 OA
ATOM     96  O   UNL A   1      45.172  23.228  32.835  1.00  0.00    -0.237 OA
ATOM     97  O   UNL A   1      46.242  23.269  35.041  1.00  0.00    -0.744 OA
ENDBRANCH  91  94
ENDBRANCH  64  87
ENDBRANCH  38  39
ENDBRANCH  31  33
ENDBRANCH  30  31
ENDBRANCH  29  30
ENDBRANCH  28  29
ENDBRANCH  27  28
ENDBRANCH   1  27
TORSDOF 23
ENDMDL
MODEL 2
REMARK VINA RESULT:     -10.8      3.895     10.149
REMARK SMILES COc1cc(CC(=O)N[C@@H](CC(=O)OCCOCCOC(=O)c2ccc(-c3c4nc(c(-c5cccc(S(=O)(=O)[O-])c5F)c5ccc([nH]5)c(-c5cccc(S(=O)(=O)[O-])c5F)c5nc(c(-c6cccc(S(=O)(=O)[O-])c6F)c6ccc3[nH]6)C=C5)C=C4)cc2)c2cccs2)ccc1C
REMARK SMILES IDX 16 1 15 2 14 3 12 4 13 5 11 6 10 7 9 8 7 9 8 10 6 12 5 13
REMARK SMILES IDX 3 14 4 15 93 16 92 17 94 18 91 19 2 20 1 21 86 22 87 23
REMARK SMILES IDX 90 24 88 25 89 26 17 27 18 28 19 29 20 30 21 31 22 32 23 33
REMARK SMILES IDX 24 34 85 35 25 36 84 37 26 38 27 39 28 40 78 41 29 42 83 43
REMARK SMILES IDX 77 44 79 45 30 46 82 47 76 48 75 49 31 51 63 52 43 53 62 54
REMARK SMILES IDX 44 55 47 56 61 57 80 58 45 59 46 60 60 62 81 63 48 64 32 65
REMARK SMILES IDX 33 66 41 67 34 68 36 69 42 70 35 71 37 72 38 73 39 74 40 75
REMARK SMILES IDX 64 76 65 77 73 78 66 79 68 80 74 81 67 82 69 83 70 84 71 85
REMARK SMILES IDX 72 86 49 87 50 88 58 89 51 90 53 91 59 92 52 93 54 94 55 95
REMARK SMILES IDX 56 96 57 97
REMARK H PARENT 9 11 79 50 47 61
REMARK Flexibility Score: inf
ROOT
ATOM      1  C   UNL A   1      37.253  21.437  24.277  1.00  0.00     0.202 C 
ENDROOT
BRANCH   1   2
ATOM      2  C   UNL A   1      36.708  22.836  24.216  1.00  0.00     0.261 C 
BRANCH   2   3
ATOM      3  O   UNL A   1      36.035  23.134  22.951  1.00  0.00    -0.463 OA
BRANCH   3   4
ATOM      4  C   UNL A   1      34.719  23.496  22.814  1.00  0.00     0.308 C 
ATOM      5  O   UNL A   1      34.024  23.412  21.826  1.00  0.00    -0.252 OA
BRANCH   4   6
ATOM      6  C   UNL A   1      34.206  24.065  24.114  1.00  0.00     0.153 C 
BRANCH   6   7
ATOM      7  C   UNL A   1      32.894  23.408  24.570  1.00  0.00     0.133 C 
BRANCH   7   8
ATOM      8  N   UNL A   1      32.429  23.981  25.839  1.00  0.00    -0.348 N 
ATOM      9  C   UNL A   1      31.412  24.834  26.125  1.00  0.00     0.224 C 
ATOM     10  O   UNL A   1      31.466  25.468  27.182  1.00  0.00    -0.275 OA
ATOM     11  H   UNL A   1      32.947  23.694  26.624  1.00  0.00     0.164 HD
BRANCH   9  12
ATOM     12  C   UNL A   1      30.186  24.892  25.243  1.00  0.00     0.135 C 
BRANCH  12  13
ATOM     13  C   UNL A   1      30.111  26.097  24.345  1.00  0.00    -0.035 A 
ATOM     14  C   UNL A   1      31.221  28.069  23.437  1.00  0.00     0.122 A 
ATOM     15  C   UNL A   1      31.280  26.827  24.070  1.00  0.00     0.051 A 
ATOM     16  C   UNL A   1      29.982  28.553  22.991  1.00  0.00    -0.009 A 
ATOM     17  C   UNL A   1      28.828  27.771  23.169  1.00  0.00     0.007 A 
ATOM     18  C   UNL A   1      29.847  29.886  22.306  1.00  0.00     0.048 C 
ATOM     19  C   UNL A   1      28.887  26.558  23.855  1.00  0.00     0.005 A 
BRANCH  14  20
ATOM     20  O   UNL A   1      32.297  28.903  23.289  1.00  0.00    -0.496 OA
ATOM     21  C   UNL A   1      33.400  28.423  22.534  1.00  0.00     0.278 C 
ENDBRANCH  14  20
ENDBRANCH  12  13
ENDBRANCH   9  12
ENDBRANCH   7   8
BRANCH   7  22
ATOM     22  C   UNL A   1      32.900  21.900  24.750  1.00  0.00     0.027 A 
ATOM     23  C   UNL A   1      32.353  20.960  23.887  1.00  0.00     0.017 A 
ATOM     24  S   UNL A   1      33.700  21.115  26.051  1.00  0.00    -0.147 S 
ATOM     25  C   UNL A   1      32.425  19.632  24.392  1.00  0.00     0.012 A 
ATOM     26  C   UNL A   1      33.097  19.581  25.591  1.00  0.00     0.065 A 
ENDBRANCH   7  22
ENDBRANCH   6   7
ENDBRANCH   4   6
ENDBRANCH   3   4
ENDBRANCH   2   3
ENDBRANCH   1   2
BRANCH   1  27
ATOM     27  O   UNL A   1      37.980  21.398  25.483  1.00  0.00    -0.374 OA
BRANCH  27  28
ATOM     28  C   UNL A   1      38.287  22.618  26.100  1.00  0.00     0.202 C 
BRANCH  28  29
ATOM     29  C   UNL A   1      39.721  22.656  26.597  1.00  0.00     0.261 C 
BRANCH  29  30
ATOM     30  O   UNL A   1      40.281  21.330  26.661  1.00  0.00    -0.460 OA
BRANCH  30  31
ATOM     31  C   UNL A   1      41.605  21.251  26.324  1.00  0.00     0.338 C 
ATOM     32  O   UNL A   1      42.079  20.314  25.703  1.00  0.00    -0.246 OA
BRANCH  31  33
ATOM     33  C   UNL A   1      42.371  22.386  26.921  1.00  0.00     0.060 A 
ATOM     34  C   UNL A   1      42.476  22.510  28.316  1.00  0.00     0.016 A 
ATOM     35  C   UNL A   1      42.715  23.462  26.106  1.00  0.00     0.016 A 
ATOM     36  C   UNL A   1      42.731  23.764  28.897  1.00  0.00     0.010 A 
ATOM     37  C   UNL A   1      42.847  24.710  26.687  1.00  0.00     0.010 A 
ATOM     38  C   UNL A   1      42.811  24.887  28.085  1.00  0.00    -0.014 A 
BRANCH  38  39
ATOM     39  C   UNL A   1      42.967  26.278  28.529  1.00  0.00     0.031 A 
ATOM     40  C   UNL A   1      41.747  27.120  28.443  1.00  0.00     0.074 A 
ATOM     41  C   UNL A   1      44.042  26.779  29.194  1.00  0.00     0.049 A 
ATOM     42  N   UNL A   1      41.730  28.380  28.689  1.00  0.00    -0.248 NA
ATOM     43  C   UNL A   1      40.442  26.617  28.010  1.00  0.00     0.031 C 
ATOM     44  C   UNL A   1      44.027  27.863  30.183  1.00  0.00     0.029 A 
ATOM     45  N   UNL A   1      45.399  26.426  29.176  1.00  0.00    -0.354 N 
ATOM     46  C   UNL A   1      40.416  28.767  28.791  1.00  0.00     0.074 A 
ATOM     47  C   UNL A   1      39.666  27.682  28.221  1.00  0.00     0.031 C 
ATOM     48  C   UNL A   1      45.283  28.253  30.455  1.00  0.00     0.029 A 
ATOM     49  C   UNL A   1      46.154  27.551  29.536  1.00  0.00     0.049 A 
ATOM     50  H   UNL A   1      45.760  25.539  28.949  1.00  0.00     0.167 HD
ATOM     51  C   UNL A   1      40.146  29.907  29.482  1.00  0.00     0.034 A 
ATOM     52  C   UNL A   1      47.127  28.072  28.742  1.00  0.00     0.034 A 
ATOM     53  C   UNL A   1      41.399  30.622  29.801  1.00  0.00     0.049 A 
ATOM     54  C   UNL A   1      46.827  29.506  28.400  1.00  0.00     0.074 A 
ATOM     55  C   UNL A   1      42.142  30.797  30.957  1.00  0.00     0.029 A 
ATOM     56  N   UNL A   1      42.211  31.051  28.752  1.00  0.00    -0.354 N 
ATOM     57  N   UNL A   1      45.710  30.082  28.742  1.00  0.00    -0.248 NA
ATOM     58  C   UNL A   1      47.708  30.420  27.686  1.00  0.00     0.031 C 
ATOM     59  C   UNL A   1      43.418  31.310  30.586  1.00  0.00     0.029 A 
ATOM     60  C   UNL A   1      43.445  31.481  29.210  1.00  0.00     0.049 A 
ATOM     61  H   UNL A   1      41.942  31.047  27.805  1.00  0.00     0.167 HD
ATOM     62  C   UNL A   1      45.621  31.329  28.210  1.00  0.00     0.074 A 
ATOM     63  C   UNL A   1      46.937  31.525  27.618  1.00  0.00     0.031 C 
ATOM     64  C   UNL A   1      44.441  32.022  28.275  1.00  0.00     0.034 A 
BRANCH  51  65
ATOM     65  C   UNL A   1      38.797  30.324  30.049  1.00  0.00     0.023 A 
ATOM     66  C   UNL A   1      37.994  29.292  30.587  1.00  0.00     0.012 A 
ATOM     67  C   UNL A   1      38.212  31.616  30.047  1.00  0.00     0.148 A 
ATOM     68  C   UNL A   1      36.696  29.511  31.062  1.00  0.00     0.002 A 
ATOM     69  C   UNL A   1      36.926  31.844  30.551  1.00  0.00     0.091 A 
ATOM     70  F   UNL A   1      38.860  32.653  29.528  1.00  0.00    -0.205 F 
ATOM     71  C   UNL A   1      36.162  30.790  31.049  1.00  0.00     0.022 A 
BRANCH  69  72
ATOM     72  S   UNL A   1      36.166  33.482  30.582  1.00  0.00     0.127 S 
ATOM     73  O   UNL A   1      34.988  33.258  31.422  1.00  0.00    -0.237 OA
ATOM     74  O   UNL A   1      37.207  34.299  31.205  1.00  0.00    -0.237 OA
ATOM     75  O   UNL A   1      35.863  33.831  29.199  1.00  0.00    -0.744 OA
ENDBRANCH  69  72
ENDBRANCH  51  65
BRANCH  52  76
ATOM     76  C   UNL A   1      47.825  27.040  27.917  1.00  0.00     0.023 A 
ATOM     77  C   UNL A   1      48.772  26.227  28.591  1.00  0.00     0.012 A 
ATOM     78  C   UNL A   1      47.261  26.564  26.718  1.00  0.00     0.148 A 
ATOM     79  C   UNL A   1      49.056  24.930  28.152  1.00  0.00     0.002 A 
ATOM     80  C   UNL A   1      47.520  25.254  26.308  1.00  0.00     0.091 A 
ATOM     81  F   UNL A   1      46.425  27.366  26.047  1.00  0.00    -0.205 F 
ATOM     82  C   UNL A   1      48.393  24.430  27.038  1.00  0.00     0.022 A 
BRANCH  80  83
ATOM     83  S   UNL A   1      46.636  24.468  24.954  1.00  0.00     0.127 S 
ATOM     84  O   UNL A   1      45.458  25.325  24.832  1.00  0.00    -0.237 OA
ATOM     85  O   UNL A   1      47.594  24.591  23.855  1.00  0.00    -0.237 OA
ATOM     86  O   UNL A   1      46.380  23.104  25.386  1.00  0.00    -0.744 OA
ENDBRANCH  80  83
ENDBRANCH  52  76
BRANCH  64  87
ATOM     87  C   UNL A   1      44.094  33.258  27.464  1.00  0.00     0.023 A 
ATOM     88  C   UNL A   1      44.096  33.268  26.057  1.00  0.00     0.012 A 
ATOM     89  C   UNL A   1      43.621  34.440  28.096  1.00  0.00     0.148 A 
ATOM     90  C   UNL A   1      43.702  34.388  25.317  1.00  0.00     0.002 A 
ATOM     91  C   UNL A   1      43.109  35.501  27.357  1.00  0.00     0.091 A 
ATOM     92  F   UNL A   1      43.689  34.570  29.427  1.00  0.00    -0.205 F 
ATOM     93  C   UNL A   1      43.181  35.495  25.966  1.00  0.00     0.022 A 
BRANCH  91  94
ATOM     94  S   UNL A   1      42.209  36.840  28.150  1.00  0.00     0.127 S 
ATOM     95  O   UNL A   1      41.841  37.670  27.005  1.00  0.00    -0.237 OA
ATOM     96  O   UNL A   1      41.092  36.130  28.774  1.00  0.00    -0.237 OA
ATOM     97  O   UNL A   1      43.147  37.427  29.097  1.00  0.00    -0.744 OA
ENDBRANCH  91  94
ENDBRANCH  64  87
ENDBRANCH  38  39
ENDBRANCH  31  33
ENDBRANCH  30  31
ENDBRANCH  29  30
ENDBRANCH  28  29
ENDBRANCH  27  28
ENDBRANCH   1  27
TORSDOF 23
ENDMDL
MODEL 3
REMARK VINA RESULT:     -10.5      1.826      3.323
REMARK SMILES COc1cc(CC(=O)N[C@@H](CC(=O)OCCOCCOC(=O)c2ccc(-c3c4nc(c(-c5cccc(S(=O)(=O)[O-])c5F)c5ccc([nH]5)c(-c5cccc(S(=O)(=O)[O-])c5F)c5nc(c(-c6cccc(S(=O)(=O)[O-])c6F)c6ccc3[nH]6)C=C5)C=C4)cc2)c2cccs2)ccc1C
REMARK SMILES IDX 16 1 15 2 14 3 12 4 13 5 11 6 10 7 9 8 7 9 8 10 6 12 5 13
REMARK SMILES IDX 3 14 4 15 93 16 92 17 94 18 91 19 2 20 1 21 86 22 87 23
REMARK SMILES IDX 90 24 88 25 89 26 17 27 18 28 19 29 20 30 21 31 22 32 23 33
REMARK SMILES IDX 24 34 85 35 25 36 84 37 26 38 27 39 28 40 78 41 29 42 83 43
REMARK SMILES IDX 77 44 79 45 30 46 82 47 76 48 75 49 31 51 63 52 43 53 62 54
REMARK SMILES IDX 44 55 47 56 61 57 80 58 45 59 46 60 60 62 81 63 48 64 32 65
REMARK SMILES IDX 33 66 41 67 34 68 36 69 42 70 35 71 37 72 38 73 39 74 40 75
REMARK SMILES IDX 64 76 65 77 73 78 66 79 68 80 74 81 67 82 69 83 70 84 71 85
REMARK SMILES IDX 72 86 49 87 50 88 58 89 51 90 53 91 59 92 52 93 54 94 55 95
REMARK SMILES IDX 56 96 57 97
REMARK H PARENT 9 11 79 50 47 61
REMARK Flexibility Score: inf
ROOT
ATOM      1  C   UNL A   1      31.779  28.247  26.594  1.00  0.00     0.202 C 
ENDROOT
BRANCH   1   2
ATOM      2  C   UNL A   1      32.522  26.952  26.427  1.00  0.00     0.261 C 
BRANCH   2   3
ATOM      3  O   UNL A   1      31.827  25.812  27.027  1.00  0.00    -0.463 OA
BRANCH   3   4
ATOM      4  C   UNL A   1      31.744  24.553  26.487  1.00  0.00     0.308 C 
ATOM      5  O   UNL A   1      30.777  24.019  25.991  1.00  0.00    -0.252 OA
BRANCH   4   6
ATOM      6  C   UNL A   1      33.078  23.857  26.604  1.00  0.00     0.153 C 
BRANCH   6   7
ATOM      7  C   UNL A   1      33.785  23.700  25.249  1.00  0.00     0.133 C 
BRANCH   7   8
ATOM      8  N   UNL A   1      33.062  22.764  24.381  1.00  0.00    -0.348 N 
ATOM      9  C   UNL A   1      32.511  22.917  23.149  1.00  0.00     0.224 C 
ATOM     10  O   UNL A   1      31.632  22.123  22.803  1.00  0.00    -0.275 OA
ATOM     11  H   UNL A   1      32.958  21.862  24.760  1.00  0.00     0.164 HD
BRANCH   9  12
ATOM     12  C   UNL A   1      33.063  23.938  22.182  1.00  0.00     0.135 C 
BRANCH  12  13
ATOM     13  C   UNL A   1      32.704  25.365  22.497  1.00  0.00    -0.035 A 
ATOM     14  C   UNL A   1      30.995  26.960  23.190  1.00  0.00     0.122 A 
ATOM     15  C   UNL A   1      31.463  25.649  23.091  1.00  0.00     0.051 A 
ATOM     16  C   UNL A   1      31.818  28.016  22.766  1.00  0.00    -0.009 A 
ATOM     17  C   UNL A   1      33.104  27.736  22.274  1.00  0.00     0.007 A 
ATOM     18  C   UNL A   1      31.374  29.451  22.840  1.00  0.00     0.048 C 
ATOM     19  C   UNL A   1      33.541  26.419  22.123  1.00  0.00     0.005 A 
BRANCH  14  20
ATOM     20  O   UNL A   1      29.733  27.292  23.603  1.00  0.00    -0.496 OA
ATOM     21  C   UNL A   1      28.809  26.233  23.804  1.00  0.00     0.278 C 
ENDBRANCH  14  20
ENDBRANCH  12  13
ENDBRANCH   9  12
ENDBRANCH   7   8
BRANCH   7  22
ATOM     22  C   UNL A   1      35.233  23.242  25.273  1.00  0.00     0.027 A 
ATOM     23  C   UNL A   1      36.305  23.910  25.851  1.00  0.00     0.017 A 
ATOM     24  S   UNL A   1      35.748  21.730  24.643  1.00  0.00    -0.147 S 
ATOM     25  C   UNL A   1      37.554  23.275  25.606  1.00  0.00     0.012 A 
ATOM     26  C   UNL A   1      37.396  22.095  24.916  1.00  0.00     0.065 A 
ENDBRANCH   7  22
ENDBRANCH   6   7
ENDBRANCH   4   6
ENDBRANCH   3   4
ENDBRANCH   2   3
ENDBRANCH   1   2
BRANCH   1  27
ATOM     27  O   UNL A   1      32.734  29.238  26.293  1.00  0.00    -0.374 OA
BRANCH  27  28
ATOM     28  C   UNL A   1      33.758  29.462  27.222  1.00  0.00     0.202 C 
BRANCH  28  29
ATOM     29  C   UNL A   1      34.216  30.909  27.223  1.00  0.00     0.261 C 
BRANCH  29  30
ATOM     30  O   UNL A   1      33.653  31.627  28.339  1.00  0.00    -0.460 OA
BRANCH  30  31
ATOM     31  C   UNL A   1      34.179  32.875  28.539  1.00  0.00     0.338 C 
ATOM     32  O   UNL A   1      33.668  33.890  28.095  1.00  0.00    -0.246 OA
BRANCH  31  33
ATOM     33  C   UNL A   1      35.489  32.790  29.250  1.00  0.00     0.060 A 
ATOM     34  C   UNL A   1      36.652  33.299  28.650  1.00  0.00     0.016 A 
ATOM     35  C   UNL A   1      35.597  31.950  30.355  1.00  0.00     0.016 A 
ATOM     36  C   UNL A   1      37.915  32.811  29.027  1.00  0.00     0.010 A 
ATOM     37  C   UNL A   1      36.830  31.390  30.638  1.00  0.00     0.010 A 
ATOM     38  C   UNL A   1      37.996  31.777  29.949  1.00  0.00    -0.014 A 
BRANCH  38  39
ATOM     39  C   UNL A   1      39.218  31.081  30.376  1.00  0.00     0.031 A 
ATOM     40  C   UNL A   1      39.435  29.740  29.777  1.00  0.00     0.074 A 
ATOM     41  C   UNL A   1      40.238  31.638  31.082  1.00  0.00     0.049 A 
ATOM     42  N   UNL A   1      40.391  28.953  30.116  1.00  0.00    -0.248 NA
ATOM     43  C   UNL A   1      38.549  29.144  28.775  1.00  0.00     0.031 C 
ATOM     44  C   UNL A   1      41.658  31.279  30.992  1.00  0.00     0.029 A 
ATOM     45  N   UNL A   1      40.265  32.677  32.024  1.00  0.00    -0.354 N 
ATOM     46  C   UNL A   1      40.459  27.951  29.180  1.00  0.00     0.074 A 
ATOM     47  C   UNL A   1      39.216  28.032  28.463  1.00  0.00     0.031 C 
ATOM     48  C   UNL A   1      42.342  31.858  31.992  1.00  0.00     0.029 A 
ATOM     49  C   UNL A   1      41.371  32.485  32.863  1.00  0.00     0.049 A 
ATOM     50  H   UNL A   1      39.616  33.414  32.086  1.00  0.00     0.167 HD
ATOM     51  C   UNL A   1      41.635  27.281  29.057  1.00  0.00     0.034 A 
ATOM     52  C   UNL A   1      41.262  32.371  34.214  1.00  0.00     0.034 A 
ATOM     53  C   UNL A   1      42.554  27.651  30.154  1.00  0.00     0.049 A 
ATOM     54  C   UNL A   1      41.819  31.055  34.686  1.00  0.00     0.074 A 
ATOM     55  C   UNL A   1      43.690  28.440  30.234  1.00  0.00     0.029 A 
ATOM     56  N   UNL A   1      42.162  27.402  31.468  1.00  0.00    -0.354 N 
ATOM     57  N   UNL A   1      42.222  30.135  33.857  1.00  0.00    -0.248 NA
ATOM     58  C   UNL A   1      41.993  30.646  36.072  1.00  0.00     0.031 C 
ATOM     59  C   UNL A   1      43.958  28.683  31.612  1.00  0.00     0.029 A 
ATOM     60  C   UNL A   1      43.010  28.017  32.374  1.00  0.00     0.049 A 
ATOM     61  H   UNL A   1      41.381  26.859  31.720  1.00  0.00     0.167 HD
ATOM     62  C   UNL A   1      42.558  28.997  34.518  1.00  0.00     0.074 A 
ATOM     63  C   UNL A   1      42.471  29.394  35.915  1.00  0.00     0.031 C 
ATOM     64  C   UNL A   1      42.809  27.845  33.819  1.00  0.00     0.034 A 
BRANCH  51  65
ATOM     65  C   UNL A   1      42.072  26.426  27.876  1.00  0.00     0.023 A 
ATOM     66  C   UNL A   1      42.626  27.115  26.772  1.00  0.00     0.012 A 
ATOM     67  C   UNL A   1      41.933  25.024  27.714  1.00  0.00     0.148 A 
ATOM     68  C   UNL A   1      42.989  26.473  25.582  1.00  0.00     0.002 A 
ATOM     69  C   UNL A   1      42.325  24.374  26.538  1.00  0.00     0.091 A 
ATOM     70  F   UNL A   1      41.385  24.282  28.671  1.00  0.00    -0.205 F 
ATOM     71  C   UNL A   1      42.844  25.100  25.466  1.00  0.00     0.022 A 
BRANCH  69  72
ATOM     72  S   UNL A   1      42.180  22.588  26.314  1.00  0.00     0.127 S 
ATOM     73  O   UNL A   1      43.012  22.074  27.403  1.00  0.00    -0.237 OA
ATOM     74  O   UNL A   1      40.745  22.367  26.492  1.00  0.00    -0.237 OA
ATOM     75  O   UNL A   1      42.682  22.290  24.978  1.00  0.00    -0.744 OA
ENDBRANCH  69  72
ENDBRANCH  51  65
BRANCH  52  76
ATOM     76  C   UNL A   1      40.129  33.164  34.779  1.00  0.00     0.023 A 
ATOM     77  C   UNL A   1      38.846  32.560  34.726  1.00  0.00     0.012 A 
ATOM     78  C   UNL A   1      40.354  34.184  35.723  1.00  0.00     0.148 A 
ATOM     79  C   UNL A   1      37.858  32.875  35.665  1.00  0.00     0.002 A 
ATOM     80  C   UNL A   1      39.377  34.464  36.680  1.00  0.00     0.091 A 
ATOM     81  F   UNL A   1      41.542  34.803  35.719  1.00  0.00    -0.205 F 
ATOM     82  C   UNL A   1      38.143  33.792  36.669  1.00  0.00     0.022 A 
BRANCH  80  83
ATOM     83  S   UNL A   1      39.677  35.545  38.086  1.00  0.00     0.127 S 
ATOM     84  O   UNL A   1      38.567  35.195  38.970  1.00  0.00    -0.237 OA
ATOM     85  O   UNL A   1      40.989  35.087  38.546  1.00  0.00    -0.237 OA
ATOM     86  O   UNL A   1      39.659  36.899  37.557  1.00  0.00    -0.744 OA
ENDBRANCH  80  83
ENDBRANCH  52  76
BRANCH  64  87
ATOM     87  C   UNL A   1      42.875  26.447  34.411  1.00  0.00     0.023 A 
ATOM     88  C   UNL A   1      41.767  25.826  35.015  1.00  0.00     0.012 A 
ATOM     89  C   UNL A   1      44.039  25.644  34.264  1.00  0.00     0.148 A 
ATOM     90  C   UNL A   1      41.815  24.511  35.489  1.00  0.00     0.002 A 
ATOM     91  C   UNL A   1      44.039  24.300  34.618  1.00  0.00     0.091 A 
ATOM     92  F   UNL A   1      45.178  26.179  33.807  1.00  0.00    -0.205 F 
ATOM     93  C   UNL A   1      42.942  23.737  35.265  1.00  0.00     0.022 A 
BRANCH  91  94
ATOM     94  S   UNL A   1      45.382  23.208  34.128  1.00  0.00     0.127 S 
ATOM     95  O   UNL A   1      45.397  22.244  35.226  1.00  0.00    -0.237 OA
ATOM     96  O   UNL A   1      44.894  22.676  32.855  1.00  0.00    -0.237 OA
ATOM     97  O   UNL A   1      46.552  24.066  34.008  1.00  0.00    -0.744 OA
ENDBRANCH  91  94
ENDBRANCH  64  87
ENDBRANCH  38  39
ENDBRANCH  31  33
ENDBRANCH  30  31
ENDBRANCH  29  30
ENDBRANCH  28  29
ENDBRANCH  27  28
ENDBRANCH   1  27
TORSDOF 23
ENDMDL
