MODEL 1
REMARK VINA RESULT:     -10.2      0.000      0.000
REMARK SMILES CC(/C=C1\SC(=S)N(CC(=O)NCC(=O)OCCOCCOC(=O)c2ccc(-c3c4nc(c(-c5cccc(S(=O)(=O)[O-])c5F)c5ccc([nH]5)c(-c5cccc(S(=O)(=O)[O-])c5F)c5nc(c(-c6cccc(S(=O)(=O)[O-])c6F)c6ccc3[nH]6)C=C5)C=C4)cc2)C1=O)=C\c1ccccc1
REMARK SMILES IDX 18 1 17 2 16 3 14 4 15 5 13 6 12 7 10 8 11 9 9 11 8 12 3 13
REMARK SMILES IDX 4 14 5 15 88 16 6 17 89 18 7 19 2 20 1 21 90 22 91 23 92 24
REMARK SMILES IDX 96 25 93 26 95 27 94 28 19 29 20 30 21 31 22 32 23 33 24 34
REMARK SMILES IDX 25 35 26 36 87 37 27 38 86 39 28 40 29 41 30 42 80 43 31 44
REMARK SMILES IDX 85 45 79 46 81 47 32 48 84 49 78 50 77 51 33 53 65 54 45 55
REMARK SMILES IDX 64 56 46 57 49 58 63 59 82 60 47 61 48 62 62 64 83 65 50 66
REMARK SMILES IDX 34 67 35 68 43 69 36 70 38 71 44 72 37 73 39 74 40 75 41 76
REMARK SMILES IDX 42 77 66 78 67 79 75 80 68 81 70 82 76 83 69 84 71 85 72 86
REMARK SMILES IDX 73 87 74 88 51 89 52 90 60 91 53 92 55 93 61 94 54 95 56 96
REMARK SMILES IDX 57 97 58 98 59 99
REMARK H PARENT 12 10 81 52 49 63
REMARK Flexibility Score: inf
ROOT
ATOM      1  C   UNL A   1      34.866  31.895  28.554  1.00  0.00     0.202 C 
ENDROOT
BRANCH   1   2
ATOM      2  C   UNL A   1      34.068  31.228  27.430  1.00  0.00     0.261 C 
BRANCH   2   3
ATOM      3  O   UNL A   1      33.594  29.932  27.840  1.00  0.00    -0.462 OA
BRANCH   3   4
ATOM      4  C   UNL A   1      32.589  29.407  27.091  1.00  0.00     0.325 C 
ATOM      5  O   UNL A   1      31.681  28.704  27.518  1.00  0.00    -0.250 OA
BRANCH   4   6
ATOM      6  C   UNL A   1      32.639  29.874  25.636  1.00  0.00     0.238 C 
BRANCH   6   7
ATOM      7  N   UNL A   1      31.420  30.370  25.017  1.00  0.00    -0.344 N 
ATOM      8  C   UNL A   1      30.747  29.903  23.928  1.00  0.00     0.240 C 
ATOM      9  O   UNL A   1      29.547  30.182  23.856  1.00  0.00    -0.273 OA
ATOM     10  H   UNL A   1      31.021  31.160  25.448  1.00  0.00     0.164 HD
BRANCH   8  11
ATOM     11  C   UNL A   1      31.387  28.916  22.947  1.00  0.00     0.227 C 
BRANCH  11  12
ATOM     12  N   UNL A   1      31.448  27.552  23.463  1.00  0.00    -0.283 N 
ATOM     13  C   UNL A   1      33.686  24.822  24.253  1.00  0.00     0.024 C 
ATOM     14  C   UNL A   1      32.594  25.573  24.055  1.00  0.00     0.080 C 
ATOM     15  S   UNL A   1      30.948  25.203  24.371  1.00  0.00    -0.054 SA
ATOM     16  C   UNL A   1      32.706  26.970  23.552  1.00  0.00     0.266 C 
ATOM     17  C   UNL A   1      30.376  26.736  23.736  1.00  0.00     0.148 C 
ATOM     18  O   UNL A   1      33.759  27.518  23.275  1.00  0.00    -0.268 OA
ATOM     19  S   UNL A   1      28.750  27.060  23.539  1.00  0.00    -0.052 S 
BRANCH  13  20
ATOM     20  C   UNL A   1      33.792  23.450  24.751  1.00  0.00    -0.049 C 
ATOM     21  C   UNL A   1      34.198  23.240  26.189  1.00  0.00     0.044 C 
ATOM     22  C   UNL A   1      33.485  22.448  23.900  1.00  0.00     0.011 C 
BRANCH  22  23
ATOM     23  C   UNL A   1      33.526  20.998  24.143  1.00  0.00    -0.025 A 
ATOM     24  C   UNL A   1      34.703  20.445  24.668  1.00  0.00     0.008 A 
ATOM     25  C   UNL A   1      32.475  20.138  23.810  1.00  0.00     0.008 A 
ATOM     26  C   UNL A   1      34.802  19.072  24.911  1.00  0.00     0.001 A 
ATOM     27  C   UNL A   1      32.563  18.768  24.074  1.00  0.00     0.001 A 
ATOM     28  C   UNL A   1      33.723  18.236  24.631  1.00  0.00     0.000 A 
ENDBRANCH  22  23
ENDBRANCH  13  20
ENDBRANCH  11  12
ENDBRANCH   8  11
ENDBRANCH   6   7
ENDBRANCH   4   6
ENDBRANCH   3   4
ENDBRANCH   2   3
ENDBRANCH   1   2
BRANCH   1  29
ATOM     29  O   UNL A   1      35.094  33.301  28.416  1.00  0.00    -0.374 OA
BRANCH  29  30
ATOM     30  C   UNL A   1      34.019  34.108  27.939  1.00  0.00     0.202 C 
BRANCH  30  31
ATOM     31  C   UNL A   1      33.438  35.158  28.895  1.00  0.00     0.261 C 
BRANCH  31  32
ATOM     32  O   UNL A   1      32.856  34.588  30.077  1.00  0.00    -0.460 OA
BRANCH  32  33
ATOM     33  C   UNL A   1      33.075  35.315  31.201  1.00  0.00     0.338 C 
ATOM     34  O   UNL A   1      32.417  36.268  31.590  1.00  0.00    -0.246 OA
BRANCH  33  35
ATOM     35  C   UNL A   1      34.142  34.723  32.031  1.00  0.00     0.060 A 
ATOM     36  C   UNL A   1      35.348  35.433  32.101  1.00  0.00     0.016 A 
ATOM     37  C   UNL A   1      34.031  33.455  32.605  1.00  0.00     0.016 A 
ATOM     38  C   UNL A   1      36.475  34.837  32.660  1.00  0.00     0.010 A 
ATOM     39  C   UNL A   1      35.169  32.857  33.164  1.00  0.00     0.010 A 
ATOM     40  C   UNL A   1      36.408  33.522  33.137  1.00  0.00    -0.014 A 
BRANCH  40  41
ATOM     41  C   UNL A   1      37.678  32.811  33.426  1.00  0.00     0.031 A 
ATOM     42  C   UNL A   1      38.453  33.171  34.664  1.00  0.00     0.074 A 
ATOM     43  C   UNL A   1      38.098  31.803  32.640  1.00  0.00     0.049 A 
ATOM     44  N   UNL A   1      39.527  32.611  35.159  1.00  0.00    -0.248 NA
ATOM     45  C   UNL A   1      37.953  34.312  35.449  1.00  0.00     0.031 C 
ATOM     46  C   UNL A   1      37.439  31.372  31.413  1.00  0.00     0.029 A 
ATOM     47  N   UNL A   1      39.177  30.963  32.757  1.00  0.00    -0.354 N 
ATOM     48  C   UNL A   1      39.846  33.343  36.296  1.00  0.00     0.074 A 
ATOM     49  C   UNL A   1      38.861  34.396  36.412  1.00  0.00     0.031 C 
ATOM     50  C   UNL A   1      38.120  30.340  30.889  1.00  0.00     0.029 A 
ATOM     51  C   UNL A   1      39.278  30.053  31.732  1.00  0.00     0.049 A 
ATOM     52  H   UNL A   1      39.816  31.008  33.504  1.00  0.00     0.167 HD
ATOM     53  C   UNL A   1      40.855  33.145  37.177  1.00  0.00     0.034 A 
ATOM     54  C   UNL A   1      40.201  29.098  31.500  1.00  0.00     0.034 A 
ATOM     55  C   UNL A   1      41.818  32.083  37.074  1.00  0.00     0.049 A 
ATOM     56  C   UNL A   1      41.305  28.889  32.504  1.00  0.00     0.074 A 
ATOM     57  C   UNL A   1      42.858  31.779  37.935  1.00  0.00     0.029 A 
ATOM     58  N   UNL A   1      41.863  31.152  36.048  1.00  0.00    -0.354 N 
ATOM     59  N   UNL A   1      41.519  29.512  33.637  1.00  0.00    -0.248 NA
ATOM     60  C   UNL A   1      42.273  27.820  32.217  1.00  0.00     0.031 C 
ATOM     61  C   UNL A   1      43.541  30.671  37.420  1.00  0.00     0.029 A 
ATOM     62  C   UNL A   1      42.913  30.274  36.251  1.00  0.00     0.049 A 
ATOM     63  H   UNL A   1      41.240  31.121  35.287  1.00  0.00     0.167 HD
ATOM     64  C   UNL A   1      42.620  28.889  34.216  1.00  0.00     0.074 A 
ATOM     65  C   UNL A   1      43.015  27.825  33.316  1.00  0.00     0.031 C 
ATOM     66  C   UNL A   1      43.256  29.180  35.378  1.00  0.00     0.034 A 
BRANCH  53  67
ATOM     67  C   UNL A   1      40.948  34.084  38.349  1.00  0.00     0.023 A 
ATOM     68  C   UNL A   1      41.833  35.179  38.295  1.00  0.00     0.012 A 
ATOM     69  C   UNL A   1      40.131  33.911  39.484  1.00  0.00     0.148 A 
ATOM     70  C   UNL A   1      41.925  36.072  39.360  1.00  0.00     0.002 A 
ATOM     71  C   UNL A   1      40.200  34.827  40.526  1.00  0.00     0.091 A 
ATOM     72  F   UNL A   1      39.316  32.847  39.528  1.00  0.00    -0.205 F 
ATOM     73  C   UNL A   1      41.102  35.903  40.471  1.00  0.00     0.022 A 
BRANCH  71  74
ATOM     74  S   UNL A   1      39.129  34.734  41.966  1.00  0.00     0.127 S 
ATOM     75  O   UNL A   1      37.808  34.647  41.346  1.00  0.00    -0.237 OA
ATOM     76  O   UNL A   1      39.582  33.501  42.610  1.00  0.00    -0.237 OA
ATOM     77  O   UNL A   1      39.384  35.945  42.733  1.00  0.00    -0.744 OA
ENDBRANCH  71  74
ENDBRANCH  53  67
BRANCH  54  78
ATOM     78  C   UNL A   1      40.085  28.230  30.294  1.00  0.00     0.023 A 
ATOM     79  C   UNL A   1      39.074  27.251  30.236  1.00  0.00     0.012 A 
ATOM     80  C   UNL A   1      40.948  28.391  29.193  1.00  0.00     0.148 A 
ATOM     81  C   UNL A   1      38.946  26.426  29.117  1.00  0.00     0.002 A 
ATOM     82  C   UNL A   1      40.776  27.609  28.058  1.00  0.00     0.091 A 
ATOM     83  F   UNL A   1      41.917  29.314  29.274  1.00  0.00    -0.205 F 
ATOM     84  C   UNL A   1      39.788  26.613  28.024  1.00  0.00     0.022 A 
BRANCH  82  85
ATOM     85  S   UNL A   1      41.714  27.883  26.551  1.00  0.00     0.127 S 
ATOM     86  O   UNL A   1      41.193  26.837  25.678  1.00  0.00    -0.237 OA
ATOM     87  O   UNL A   1      41.314  29.245  26.193  1.00  0.00    -0.237 OA
ATOM     88  O   UNL A   1      43.114  27.756  26.933  1.00  0.00    -0.744 OA
ENDBRANCH  82  85
ENDBRANCH  54  78
BRANCH  66  89
ATOM     89  C   UNL A   1      44.425  28.316  35.771  1.00  0.00     0.023 A 
ATOM     90  C   UNL A   1      45.709  28.605  35.269  1.00  0.00     0.012 A 
ATOM     91  C   UNL A   1      44.265  27.264  36.694  1.00  0.00     0.148 A 
ATOM     92  C   UNL A   1      46.810  27.840  35.655  1.00  0.00     0.002 A 
ATOM     93  C   UNL A   1      45.374  26.535  37.109  1.00  0.00     0.091 A 
ATOM     94  F   UNL A   1      43.032  26.988  37.146  1.00  0.00    -0.205 F 
ATOM     95  C   UNL A   1      46.645  26.814  36.582  1.00  0.00     0.022 A 
BRANCH  93  96
ATOM     96  S   UNL A   1      45.257  25.260  38.369  1.00  0.00     0.127 S 
ATOM     97  O   UNL A   1      44.552  24.198  37.656  1.00  0.00    -0.237 OA
ATOM     98  O   UNL A   1      46.663  24.971  38.657  1.00  0.00    -0.237 OA
ATOM     99  O   UNL A   1      44.533  25.867  39.478  1.00  0.00    -0.744 OA
ENDBRANCH  93  96
ENDBRANCH  66  89
ENDBRANCH  40  41
ENDBRANCH  33  35
ENDBRANCH  32  33
ENDBRANCH  31  32
ENDBRANCH  30  31
ENDBRANCH  29  30
ENDBRANCH   1  29
TORSDOF 22
ENDMDL
MODEL 2
REMARK VINA RESULT:      -9.5      8.583     11.998
REMARK SMILES CC(/C=C1\SC(=S)N(CC(=O)NCC(=O)OCCOCCOC(=O)c2ccc(-c3c4nc(c(-c5cccc(S(=O)(=O)[O-])c5F)c5ccc([nH]5)c(-c5cccc(S(=O)(=O)[O-])c5F)c5nc(c(-c6cccc(S(=O)(=O)[O-])c6F)c6ccc3[nH]6)C=C5)C=C4)cc2)C1=O)=C\c1ccccc1
REMARK SMILES IDX 18 1 17 2 16 3 14 4 15 5 13 6 12 7 10 8 11 9 9 11 8 12 3 13
REMARK SMILES IDX 4 14 5 15 88 16 6 17 89 18 7 19 2 20 1 21 90 22 91 23 92 24
REMARK SMILES IDX 96 25 93 26 95 27 94 28 19 29 20 30 21 31 22 32 23 33 24 34
REMARK SMILES IDX 25 35 26 36 87 37 27 38 86 39 28 40 29 41 30 42 80 43 31 44
REMARK SMILES IDX 85 45 79 46 81 47 32 48 84 49 78 50 77 51 33 53 65 54 45 55
REMARK SMILES IDX 64 56 46 57 49 58 63 59 82 60 47 61 48 62 62 64 83 65 50 66
REMARK SMILES IDX 34 67 35 68 43 69 36 70 38 71 44 72 37 73 39 74 40 75 41 76
REMARK SMILES IDX 42 77 66 78 67 79 75 80 68 81 70 82 76 83 69 84 71 85 72 86
REMARK SMILES IDX 73 87 74 88 51 89 52 90 60 91 53 92 55 93 61 94 54 95 56 96
REMARK SMILES IDX 57 97 58 98 59 99
REMARK H PARENT 12 10 81 52 49 63
REMARK Flexibility Score: inf
ROOT
ATOM      1  C   UNL A   1      39.357  29.580  28.396  1.00  0.00     0.202 C 
ENDROOT
BRANCH   1   2
ATOM      2  C   UNL A   1      40.122  28.375  27.841  1.00  0.00     0.261 C 
BRANCH   2   3
ATOM      3  O   UNL A   1      41.487  28.383  28.295  1.00  0.00    -0.462 OA
BRANCH   3   4
ATOM      4  C   UNL A   1      41.715  27.788  29.495  1.00  0.00     0.325 C 
ATOM      5  O   UNL A   1      41.216  28.130  30.561  1.00  0.00    -0.250 OA
BRANCH   4   6
ATOM      6  C   UNL A   1      42.601  26.548  29.374  1.00  0.00     0.238 C 
BRANCH   6   7
ATOM      7  N   UNL A   1      42.862  26.001  28.051  1.00  0.00    -0.344 N 
ATOM      8  C   UNL A   1      42.278  24.945  27.419  1.00  0.00     0.240 C 
ATOM      9  O   UNL A   1      42.329  24.941  26.186  1.00  0.00    -0.273 OA
ATOM     10  H   UNL A   1      43.563  26.462  27.537  1.00  0.00     0.164 HD
BRANCH   8  11
ATOM     11  C   UNL A   1      41.428  23.920  28.176  1.00  0.00     0.227 C 
BRANCH  11  12
ATOM     12  N   UNL A   1      40.489  23.206  27.315  1.00  0.00    -0.283 N 
ATOM     13  C   UNL A   1      37.300  23.455  25.625  1.00  0.00     0.024 C 
ATOM     14  C   UNL A   1      38.463  23.006  26.117  1.00  0.00     0.080 C 
ATOM     15  S   UNL A   1      39.233  21.490  25.876  1.00  0.00    -0.054 SA
ATOM     16  C   UNL A   1      39.329  23.880  26.956  1.00  0.00     0.266 C 
ATOM     17  C   UNL A   1      40.569  21.885  26.942  1.00  0.00     0.148 C 
ATOM     18  O   UNL A   1      39.054  25.026  27.265  1.00  0.00    -0.268 OA
ATOM     19  S   UNL A   1      41.720  20.755  27.373  1.00  0.00    -0.052 S 
BRANCH  13  20
ATOM     20  C   UNL A   1      36.325  22.771  24.776  1.00  0.00    -0.049 C 
ATOM     21  C   UNL A   1      36.414  22.965  23.283  1.00  0.00     0.044 C 
ATOM     22  C   UNL A   1      35.418  21.973  25.380  1.00  0.00     0.011 C 
BRANCH  22  23
ATOM     23  C   UNL A   1      34.332  21.196  24.765  1.00  0.00    -0.025 A 
ATOM     24  C   UNL A   1      34.418  19.796  24.791  1.00  0.00     0.008 A 
ATOM     25  C   UNL A   1      33.256  21.786  24.093  1.00  0.00     0.008 A 
ATOM     26  C   UNL A   1      33.419  19.007  24.214  1.00  0.00     0.001 A 
ATOM     27  C   UNL A   1      32.245  20.999  23.536  1.00  0.00     0.001 A 
ATOM     28  C   UNL A   1      32.322  19.611  23.603  1.00  0.00     0.000 A 
ENDBRANCH  22  23
ENDBRANCH  13  20
ENDBRANCH  11  12
ENDBRANCH   8  11
ENDBRANCH   6   7
ENDBRANCH   4   6
ENDBRANCH   3   4
ENDBRANCH   2   3
ENDBRANCH   1   2
BRANCH   1  29
ATOM     29  O   UNL A   1      38.063  29.308  28.942  1.00  0.00    -0.374 OA
BRANCH  29  30
ATOM     30  C   UNL A   1      37.513  30.252  29.858  1.00  0.00     0.202 C 
BRANCH  30  31
ATOM     31  C   UNL A   1      38.491  31.080  30.700  1.00  0.00     0.261 C 
BRANCH  31  32
ATOM     32  O   UNL A   1      37.860  32.162  31.401  1.00  0.00    -0.460 OA
BRANCH  32  33
ATOM     33  C   UNL A   1      37.649  33.262  30.635  1.00  0.00     0.338 C 
ATOM     34  O   UNL A   1      36.567  33.697  30.270  1.00  0.00    -0.246 OA
BRANCH  33  35
ATOM     35  C   UNL A   1      38.901  34.007  30.399  1.00  0.00     0.060 A 
ATOM     36  C   UNL A   1      39.142  34.428  29.086  1.00  0.00     0.016 A 
ATOM     37  C   UNL A   1      39.876  34.169  31.387  1.00  0.00     0.016 A 
ATOM     38  C   UNL A   1      40.395  34.922  28.731  1.00  0.00     0.010 A 
ATOM     39  C   UNL A   1      41.137  34.664  31.026  1.00  0.00     0.010 A 
ATOM     40  C   UNL A   1      41.419  34.983  29.686  1.00  0.00    -0.014 A 
BRANCH  40  41
ATOM     41  C   UNL A   1      42.809  35.206  29.215  1.00  0.00     0.031 A 
ATOM     42  C   UNL A   1      43.693  34.016  28.956  1.00  0.00     0.074 A 
ATOM     43  C   UNL A   1      43.255  36.446  28.947  1.00  0.00     0.049 A 
ATOM     44  N   UNL A   1      44.898  33.978  28.449  1.00  0.00    -0.248 NA
ATOM     45  C   UNL A   1      43.149  32.696  29.315  1.00  0.00     0.031 C 
ATOM     46  C   UNL A   1      42.496  37.671  29.167  1.00  0.00     0.029 A 
ATOM     47  N   UNL A   1      44.451  36.877  28.432  1.00  0.00    -0.354 N 
ATOM     48  C   UNL A   1      45.266  32.639  28.450  1.00  0.00     0.074 A 
ATOM     49  C   UNL A   1      44.163  31.896  29.020  1.00  0.00     0.031 C 
ATOM     50  C   UNL A   1      43.238  38.722  28.783  1.00  0.00     0.029 A 
ATOM     51  C   UNL A   1      44.536  38.245  28.312  1.00  0.00     0.049 A 
ATOM     52  H   UNL A   1      45.179  36.267  28.174  1.00  0.00     0.167 HD
ATOM     53  C   UNL A   1      46.411  32.073  27.998  1.00  0.00     0.034 A 
ATOM     54  C   UNL A   1      45.547  39.021  27.873  1.00  0.00     0.034 A 
ATOM     55  C   UNL A   1      47.496  32.809  27.407  1.00  0.00     0.049 A 
ATOM     56  C   UNL A   1      46.804  38.366  27.362  1.00  0.00     0.074 A 
ATOM     57  C   UNL A   1      48.683  32.323  26.889  1.00  0.00     0.029 A 
ATOM     58  N   UNL A   1      47.529  34.187  27.260  1.00  0.00    -0.354 N 
ATOM     59  N   UNL A   1      47.086  37.089  27.256  1.00  0.00    -0.248 NA
ATOM     60  C   UNL A   1      47.867  39.255  26.872  1.00  0.00     0.031 C 
ATOM     61  C   UNL A   1      49.440  33.411  26.440  1.00  0.00     0.029 A 
ATOM     62  C   UNL A   1      48.715  34.571  26.661  1.00  0.00     0.049 A 
ATOM     63  H   UNL A   1      46.813  34.802  27.541  1.00  0.00     0.167 HD
ATOM     64  C   UNL A   1      48.338  37.021  26.656  1.00  0.00     0.074 A 
ATOM     65  C   UNL A   1      48.752  38.386  26.403  1.00  0.00     0.031 C 
ATOM     66  C   UNL A   1      49.086  35.930  26.357  1.00  0.00     0.034 A 
BRANCH  53  67
ATOM     67  C   UNL A   1      46.533  30.577  28.096  1.00  0.00     0.023 A 
ATOM     68  C   UNL A   1      47.097  29.999  29.252  1.00  0.00     0.012 A 
ATOM     69  C   UNL A   1      46.051  29.740  27.071  1.00  0.00     0.148 A 
ATOM     70  C   UNL A   1      47.205  28.616  29.375  1.00  0.00     0.002 A 
ATOM     71  C   UNL A   1      46.126  28.360  27.217  1.00  0.00     0.091 A 
ATOM     72  F   UNL A   1      45.543  30.308  25.967  1.00  0.00    -0.205 F 
ATOM     73  C   UNL A   1      46.711  27.796  28.363  1.00  0.00     0.022 A 
BRANCH  71  74
ATOM     74  S   UNL A   1      45.452  27.222  26.001  1.00  0.00     0.127 S 
ATOM     75  O   UNL A   1      45.610  25.937  26.679  1.00  0.00    -0.237 OA
ATOM     76  O   UNL A   1      44.068  27.682  25.879  1.00  0.00    -0.237 OA
ATOM     77  O   UNL A   1      46.255  27.400  24.799  1.00  0.00    -0.744 OA
ENDBRANCH  71  74
ENDBRANCH  53  67
BRANCH  54  78
ATOM     78  C   UNL A   1      45.387  40.502  27.845  1.00  0.00     0.023 A 
ATOM     79  C   UNL A   1      45.561  41.244  29.029  1.00  0.00     0.012 A 
ATOM     80  C   UNL A   1      45.096  41.182  26.646  1.00  0.00     0.148 A 
ATOM     81  C   UNL A   1      45.415  42.632  29.028  1.00  0.00     0.002 A 
ATOM     82  C   UNL A   1      45.013  42.569  26.639  1.00  0.00     0.091 A 
ATOM     83  F   UNL A   1      44.914  40.459  25.533  1.00  0.00    -0.205 F 
ATOM     84  C   UNL A   1      45.153  43.295  27.831  1.00  0.00     0.022 A 
BRANCH  82  85
ATOM     85  S   UNL A   1      44.831  43.512  25.121  1.00  0.00     0.127 S 
ATOM     86  O   UNL A   1      45.892  42.951  24.290  1.00  0.00    -0.237 OA
ATOM     87  O   UNL A   1      43.471  43.159  24.710  1.00  0.00    -0.237 OA
ATOM     88  O   UNL A   1      44.993  44.907  25.505  1.00  0.00    -0.744 OA
ENDBRANCH  82  85
ENDBRANCH  54  78
BRANCH  66  89
ATOM     89  C   UNL A   1      50.415  36.155  25.685  1.00  0.00     0.023 A 
ATOM     90  C   UNL A   1      50.491  36.189  24.279  1.00  0.00     0.012 A 
ATOM     91  C   UNL A   1      51.574  36.405  26.446  1.00  0.00     0.148 A 
ATOM     92  C   UNL A   1      51.706  36.438  23.641  1.00  0.00     0.002 A 
ATOM     93  C   UNL A   1      52.772  36.697  25.803  1.00  0.00     0.091 A 
ATOM     94  F   UNL A   1      51.489  36.347  27.784  1.00  0.00    -0.205 F 
ATOM     95  C   UNL A   1      52.842  36.703  24.402  1.00  0.00     0.022 A 
BRANCH  93  96
ATOM     96  S   UNL A   1      54.256  37.140  26.713  1.00  0.00     0.127 S 
ATOM     97  O   UNL A   1      55.208  37.385  25.633  1.00  0.00    -0.237 OA
ATOM     98  O   UNL A   1      53.835  38.340  27.438  1.00  0.00    -0.237 OA
ATOM     99  O   UNL A   1      54.550  35.997  27.568  1.00  0.00    -0.744 OA
ENDBRANCH  93  96
ENDBRANCH  66  89
ENDBRANCH  40  41
ENDBRANCH  33  35
ENDBRANCH  32  33
ENDBRANCH  31  32
ENDBRANCH  30  31
ENDBRANCH  29  30
ENDBRANCH   1  29
TORSDOF 22
ENDMDL
MODEL 3
REMARK VINA RESULT:      -9.3      3.236      4.342
REMARK SMILES CC(/C=C1\SC(=S)N(CC(=O)NCC(=O)OCCOCCOC(=O)c2ccc(-c3c4nc(c(-c5cccc(S(=O)(=O)[O-])c5F)c5ccc([nH]5)c(-c5cccc(S(=O)(=O)[O-])c5F)c5nc(c(-c6cccc(S(=O)(=O)[O-])c6F)c6ccc3[nH]6)C=C5)C=C4)cc2)C1=O)=C\c1ccccc1
REMARK SMILES IDX 18 1 17 2 16 3 14 4 15 5 13 6 12 7 10 8 11 9 9 11 8 12 3 13
REMARK SMILES IDX 4 14 5 15 88 16 6 17 89 18 7 19 2 20 1 21 90 22 91 23 92 24
REMARK SMILES IDX 96 25 93 26 95 27 94 28 19 29 20 30 21 31 22 32 23 33 24 34
REMARK SMILES IDX 25 35 26 36 87 37 27 38 86 39 28 40 29 41 30 42 80 43 31 44
REMARK SMILES IDX 85 45 79 46 81 47 32 48 84 49 78 50 77 51 33 53 65 54 45 55
REMARK SMILES IDX 64 56 46 57 49 58 63 59 82 60 47 61 48 62 62 64 83 65 50 66
REMARK SMILES IDX 34 67 35 68 43 69 36 70 38 71 44 72 37 73 39 74 40 75 41 76
REMARK SMILES IDX 42 77 66 78 67 79 75 80 68 81 70 82 76 83 69 84 71 85 72 86
REMARK SMILES IDX 73 87 74 88 51 89 52 90 60 91 53 92 55 93 61 94 54 95 56 96
REMARK SMILES IDX 57 97 58 98 59 99
REMARK H PARENT 12 10 81 52 49 63
REMARK Flexibility Score: inf
ROOT
ATOM      1  C   UNL A   1      34.870  29.591  28.020  1.00  0.00     0.202 C 
ENDROOT
BRANCH   1   2
ATOM      2  C   UNL A   1      34.655  29.226  26.548  1.00  0.00     0.261 C 
BRANCH   2   3
ATOM      3  O   UNL A   1      33.554  28.312  26.403  1.00  0.00    -0.462 OA
BRANCH   3   4
ATOM      4  C   UNL A   1      32.346  28.878  26.142  1.00  0.00     0.325 C 
ATOM      5  O   UNL A   1      31.466  29.081  26.970  1.00  0.00    -0.250 OA
BRANCH   4   6
ATOM      6  C   UNL A   1      32.223  29.347  24.693  1.00  0.00     0.238 C 
BRANCH   6   7
ATOM      7  N   UNL A   1      30.996  30.006  24.272  1.00  0.00    -0.344 N 
ATOM      8  C   UNL A   1      30.072  29.613  23.351  1.00  0.00     0.240 C 
ATOM      9  O   UNL A   1      28.934  30.073  23.477  1.00  0.00    -0.273 OA
ATOM     10  H   UNL A   1      30.804  30.861  24.719  1.00  0.00     0.164 HD
BRANCH   8  11
ATOM     11  C   UNL A   1      30.367  28.508  22.333  1.00  0.00     0.227 C 
BRANCH  11  12
ATOM     12  N   UNL A   1      30.624  27.210  22.953  1.00  0.00    -0.283 N 
ATOM     13  C   UNL A   1      33.084  24.585  23.327  1.00  0.00     0.024 C 
ATOM     14  C   UNL A   1      31.959  25.311  23.385  1.00  0.00     0.080 C 
ATOM     15  S   UNL A   1      30.494  24.981  24.219  1.00  0.00    -0.054 SA
ATOM     16  C   UNL A   1      31.870  26.640  22.723  1.00  0.00     0.266 C 
ATOM     17  C   UNL A   1      29.709  26.433  23.622  1.00  0.00     0.148 C 
ATOM     18  O   UNL A   1      32.773  27.152  22.084  1.00  0.00    -0.268 OA
ATOM     19  S   UNL A   1      28.089  26.735  23.888  1.00  0.00    -0.052 S 
BRANCH  13  20
ATOM     20  C   UNL A   1      33.378  23.278  23.917  1.00  0.00    -0.049 C 
ATOM     21  C   UNL A   1      34.152  23.236  25.211  1.00  0.00     0.044 C 
ATOM     22  C   UNL A   1      32.906  22.183  23.284  1.00  0.00     0.011 C 
BRANCH  22  23
ATOM     23  C   UNL A   1      33.075  20.770  23.654  1.00  0.00    -0.025 A 
ATOM     24  C   UNL A   1      32.196  19.827  23.101  1.00  0.00     0.008 A 
ATOM     25  C   UNL A   1      34.023  20.333  24.586  1.00  0.00     0.008 A 
ATOM     26  C   UNL A   1      32.305  18.472  23.424  1.00  0.00     0.001 A 
ATOM     27  C   UNL A   1      34.148  18.975  24.892  1.00  0.00     0.001 A 
ATOM     28  C   UNL A   1      33.294  18.044  24.306  1.00  0.00     0.000 A 
ENDBRANCH  22  23
ENDBRANCH  13  20
ENDBRANCH  11  12
ENDBRANCH   8  11
ENDBRANCH   6   7
ENDBRANCH   4   6
ENDBRANCH   3   4
ENDBRANCH   2   3
ENDBRANCH   1   2
BRANCH   1  29
ATOM     29  O   UNL A   1      35.211  30.954  28.288  1.00  0.00    -0.374 OA
BRANCH  29  30
ATOM     30  C   UNL A   1      34.239  31.955  27.993  1.00  0.00     0.202 C 
BRANCH  30  31
ATOM     31  C   UNL A   1      34.018  33.062  29.031  1.00  0.00     0.261 C 
BRANCH  31  32
ATOM     32  O   UNL A   1      34.277  32.635  30.377  1.00  0.00    -0.460 OA
BRANCH  32  33
ATOM     33  C   UNL A   1      35.417  33.148  30.905  1.00  0.00     0.338 C 
ATOM     34  O   UNL A   1      35.505  34.126  31.632  1.00  0.00    -0.246 OA
BRANCH  33  35
ATOM     35  C   UNL A   1      36.580  32.283  30.630  1.00  0.00     0.060 A 
ATOM     36  C   UNL A   1      36.578  31.020  31.235  1.00  0.00     0.016 A 
ATOM     37  C   UNL A   1      37.700  32.730  29.927  1.00  0.00     0.016 A 
ATOM     38  C   UNL A   1      37.731  30.240  31.224  1.00  0.00     0.010 A 
ATOM     39  C   UNL A   1      38.861  31.944  29.920  1.00  0.00     0.010 A 
ATOM     40  C   UNL A   1      38.898  30.725  30.621  1.00  0.00    -0.014 A 
BRANCH  40  41
ATOM     41  C   UNL A   1      40.178  30.027  30.899  1.00  0.00     0.031 A 
ATOM     42  C   UNL A   1      40.947  30.376  32.144  1.00  0.00     0.074 A 
ATOM     43  C   UNL A   1      40.613  29.040  30.096  1.00  0.00     0.049 A 
ATOM     44  N   UNL A   1      42.028  29.823  32.630  1.00  0.00    -0.248 NA
ATOM     45  C   UNL A   1      40.431  31.496  32.949  1.00  0.00     0.031 C 
ATOM     46  C   UNL A   1      39.960  28.621  28.861  1.00  0.00     0.029 A 
ATOM     47  N   UNL A   1      41.703  28.213  30.199  1.00  0.00    -0.354 N 
ATOM     48  C   UNL A   1      42.336  30.539  33.779  1.00  0.00     0.074 A 
ATOM     49  C   UNL A   1      41.337  31.576  33.914  1.00  0.00     0.031 C 
ATOM     50  C   UNL A   1      40.655  27.608  28.319  1.00  0.00     0.029 A 
ATOM     51  C   UNL A   1      41.817  27.322  29.158  1.00  0.00     0.049 A 
ATOM     52  H   UNL A   1      42.341  28.253  30.947  1.00  0.00     0.167 HD
ATOM     53  C   UNL A   1      43.348  30.340  34.657  1.00  0.00     0.034 A 
ATOM     54  C   UNL A   1      42.753  26.385  28.910  1.00  0.00     0.034 A 
ATOM     55  C   UNL A   1      44.326  29.293  34.537  1.00  0.00     0.049 A 
ATOM     56  C   UNL A   1      43.860  26.173  29.911  1.00  0.00     0.074 A 
ATOM     57  C   UNL A   1      45.370  28.989  35.393  1.00  0.00     0.029 A 
ATOM     58  N   UNL A   1      44.385  28.382  33.495  1.00  0.00    -0.354 N 
ATOM     59  N   UNL A   1      44.065  26.779  31.055  1.00  0.00    -0.248 NA
ATOM     60  C   UNL A   1      44.842  25.123  29.606  1.00  0.00     0.031 C 
ATOM     61  C   UNL A   1      46.068  27.900  34.860  1.00  0.00     0.029 A 
ATOM     62  C   UNL A   1      45.446  27.514  33.683  1.00  0.00     0.049 A 
ATOM     63  H   UNL A   1      43.762  28.355  32.732  1.00  0.00     0.167 HD
ATOM     64  C   UNL A   1      45.173  26.161  31.624  1.00  0.00     0.074 A 
ATOM     65  C   UNL A   1      45.584  25.119  30.706  1.00  0.00     0.031 C 
ATOM     66  C   UNL A   1      45.805  26.441  32.791  1.00  0.00     0.034 A 
BRANCH  53  67
ATOM     67  C   UNL A   1      43.427  31.259  35.846  1.00  0.00     0.023 A 
ATOM     68  C   UNL A   1      42.750  30.918  37.035  1.00  0.00     0.012 A 
ATOM     69  C   UNL A   1      44.204  32.433  35.806  1.00  0.00     0.148 A 
ATOM     70  C   UNL A   1      42.821  31.743  38.155  1.00  0.00     0.002 A 
ATOM     71  C   UNL A   1      44.302  33.232  36.940  1.00  0.00     0.091 A 
ATOM     72  F   UNL A   1      44.818  32.755  34.658  1.00  0.00    -0.205 F 
ATOM     73  C   UNL A   1      43.604  32.894  38.111  1.00  0.00     0.022 A 
BRANCH  71  74
ATOM     74  S   UNL A   1      45.343  34.694  37.003  1.00  0.00     0.127 S 
ATOM     75  O   UNL A   1      44.424  35.689  37.553  1.00  0.00    -0.237 OA
ATOM     76  O   UNL A   1      46.409  34.278  37.915  1.00  0.00    -0.237 OA
ATOM     77  O   UNL A   1      45.780  34.933  35.634  1.00  0.00    -0.744 OA
ENDBRANCH  71  74
ENDBRANCH  53  67
BRANCH  54  78
ATOM     78  C   UNL A   1      42.650  25.536  27.689  1.00  0.00     0.023 A 
ATOM     79  C   UNL A   1      43.256  25.963  26.491  1.00  0.00     0.012 A 
ATOM     80  C   UNL A   1      41.983  24.297  27.716  1.00  0.00     0.148 A 
ATOM     81  C   UNL A   1      43.172  25.186  25.335  1.00  0.00     0.002 A 
ATOM     82  C   UNL A   1      41.955  23.500  26.578  1.00  0.00     0.091 A 
ATOM     83  F   UNL A   1      41.394  23.916  28.859  1.00  0.00    -0.205 F 
ATOM     84  C   UNL A   1      42.532  23.950  25.382  1.00  0.00     0.022 A 
BRANCH  82  85
ATOM     85  S   UNL A   1      41.288  21.832  26.590  1.00  0.00     0.127 S 
ATOM     86  O   UNL A   1      42.192  21.140  25.677  1.00  0.00    -0.237 OA
ATOM     87  O   UNL A   1      41.429  21.462  27.999  1.00  0.00    -0.237 OA
ATOM     88  O   UNL A   1      39.907  21.960  26.145  1.00  0.00    -0.744 OA
ENDBRANCH  82  85
ENDBRANCH  54  78
BRANCH  66  89
ATOM     89  C   UNL A   1      46.986  25.587  33.170  1.00  0.00     0.023 A 
ATOM     90  C   UNL A   1      48.285  25.982  32.794  1.00  0.00     0.012 A 
ATOM     91  C   UNL A   1      46.816  24.433  33.960  1.00  0.00     0.148 A 
ATOM     92  C   UNL A   1      49.393  25.224  33.171  1.00  0.00     0.002 A 
ATOM     93  C   UNL A   1      47.929  23.707  34.370  1.00  0.00     0.091 A 
ATOM     94  F   UNL A   1      45.571  24.058  34.291  1.00  0.00    -0.205 F 
ATOM     95  C   UNL A   1      49.217  24.095  33.968  1.00  0.00     0.022 A 
BRANCH  93  96
ATOM     96  S   UNL A   1      47.791  22.297  35.474  1.00  0.00     0.127 S 
ATOM     97  O   UNL A   1      47.202  21.287  34.597  1.00  0.00    -0.237 OA
ATOM     98  O   UNL A   1      49.185  22.045  35.841  1.00  0.00    -0.237 OA
ATOM     99  O   UNL A   1      46.953  22.741  36.579  1.00  0.00    -0.744 OA
ENDBRANCH  93  96
ENDBRANCH  66  89
ENDBRANCH  40  41
ENDBRANCH  33  35
ENDBRANCH  32  33
ENDBRANCH  31  32
ENDBRANCH  30  31
ENDBRANCH  29  30
ENDBRANCH   1  29
TORSDOF 22
ENDMDL
