MODEL 1
REMARK VINA RESULT:      -5.4      0.000      0.000
REMARK SMILES CCCC[C@@H](Sc1nc(OCCC2CCCCC2)cc(OCCC2CCCCC2)n1)C(=O)OCCOCCOC(=O)c1ccc(-c2c3nc(c(-c4cccc(S(=O)(=O)[O-])c4F)c4ccc([nH]4)c(-c4cccc(S(=O)(=O)[O-])c4F)c4nc(c(-c5cccc(S(=O)(=O)[O-])c5F)c5ccc2[nH]5)C=C4)C=C3)cc1
REMARK SMILES IDX 34 1 33 2 31 3 32 4 5 5 4 6 3 7 2 8 1 9 6 10 7 11 8 12 30 13
REMARK SMILES IDX 9 14 20 15 19 16 10 17 11 18 12 19 13 20 14 21 18 22 15 23
REMARK SMILES IDX 17 24 16 25 21 26 22 27 23 28 24 29 25 30 29 31 26 32 28 33
REMARK SMILES IDX 27 34 35 35 36 36 37 37 38 38 39 39 40 40 41 41 42 42 43 43
REMARK SMILES IDX 104 44 44 45 103 46 45 47 46 48 47 49 97 50 48 51 102 52
REMARK SMILES IDX 96 53 98 54 49 55 101 56 95 57 94 58 50 60 82 61 62 62 81 63
REMARK SMILES IDX 63 64 66 65 80 66 99 67 64 68 65 69 79 71 100 72 67 73 51 74
REMARK SMILES IDX 52 75 60 76 53 77 55 78 61 79 54 80 56 81 57 82 58 83 59 84
REMARK SMILES IDX 83 85 84 86 92 87 85 88 87 89 93 90 86 91 88 92 89 93 90 94
REMARK SMILES IDX 91 95 68 96 69 97 77 98 70 99 72 100 78 101 71 102 73 103
REMARK SMILES IDX 74 104 75 105 76 106
REMARK H PARENT 98 59 66 70
REMARK Flexibility Score: inf
ROOT
ATOM      1  C   UNL A   1      42.521  27.521  33.539  1.00  0.00     0.261 C 
ENDROOT
BRANCH   1   2
ATOM      2  O   UNL A   1      41.225  27.866  33.031  1.00  0.00    -0.462 OA
BRANCH   2   3
ATOM      3  C   UNL A   1      40.934  29.196  33.026  1.00  0.00     0.319 C 
ATOM      4  O   UNL A   1      40.940  29.918  34.019  1.00  0.00    -0.251 OA
BRANCH   3   5
ATOM      5  C   UNL A   1      40.589  29.711  31.639  1.00  0.00     0.164 C 
BRANCH   5   6
ATOM      6  C   UNL A   1      41.242  28.894  30.498  1.00  0.00     0.027 C 
BRANCH   6   7
ATOM      7  C   UNL A   1      40.354  28.590  29.283  1.00  0.00     0.001 C 
BRANCH   7   8
ATOM      8  C   UNL A   1      41.088  28.384  27.948  1.00  0.00    -0.003 C 
ATOM      9  C   UNL A   1      40.290  28.823  26.730  1.00  0.00     0.004 C 
ENDBRANCH   7   8
ENDBRANCH   6   7
ENDBRANCH   5   6
BRANCH   5  10
ATOM     10  S   UNL A   1      38.743  29.768  31.582  1.00  0.00    -0.071 SA
BRANCH  10  11
ATOM     11  C   UNL A   1      38.477  31.487  31.261  1.00  0.00     0.195 A 
ATOM     12  N   UNL A   1      39.471  32.185  30.698  1.00  0.00    -0.187 NA
ATOM     13  N   UNL A   1      37.344  32.020  31.725  1.00  0.00    -0.187 NA
ATOM     14  C   UNL A   1      39.380  33.517  30.778  1.00  0.00     0.221 A 
ATOM     15  C   UNL A   1      37.288  33.343  31.818  1.00  0.00     0.221 A 
ATOM     16  C   UNL A   1      38.348  34.122  31.451  1.00  0.00     0.136 A 
BRANCH  14  17
ATOM     17  O   UNL A   1      40.311  34.195  30.031  1.00  0.00    -0.477 OA
BRANCH  17  18
ATOM     18  C   UNL A   1      41.665  34.265  30.480  1.00  0.00     0.231 C 
BRANCH  18  19
ATOM     19  C   UNL A   1      42.522  35.392  29.843  1.00  0.00     0.045 C 
BRANCH  19  20
ATOM     20  C   UNL A   1      43.198  34.990  28.529  1.00  0.00    -0.008 C 
ATOM     21  C   UNL A   1      43.426  33.493  28.298  1.00  0.00     0.004 C 
ATOM     22  C   UNL A   1      42.511  35.595  27.304  1.00  0.00     0.004 C 
ATOM     23  C   UNL A   1      44.373  33.322  27.098  1.00  0.00     0.000 C 
ATOM     24  C   UNL A   1      43.427  35.491  26.091  1.00  0.00     0.000 C 
ATOM     25  C   UNL A   1      43.895  34.058  25.842  1.00  0.00     0.000 C 
ENDBRANCH  19  20
ENDBRANCH  18  19
ENDBRANCH  17  18
ENDBRANCH  14  17
BRANCH  15  26
ATOM     26  O   UNL A   1      36.129  33.770  32.394  1.00  0.00    -0.477 OA
BRANCH  26  27
ATOM     27  C   UNL A   1      35.640  33.148  33.571  1.00  0.00     0.231 C 
BRANCH  27  28
ATOM     28  C   UNL A   1      35.786  34.020  34.830  1.00  0.00     0.045 C 
BRANCH  28  29
ATOM     29  C   UNL A   1      37.001  33.814  35.774  1.00  0.00    -0.008 C 
ATOM     30  C   UNL A   1      36.581  33.444  37.196  1.00  0.00     0.004 C 
ATOM     31  C   UNL A   1      38.114  32.955  35.153  1.00  0.00     0.004 C 
ATOM     32  C   UNL A   1      37.730  32.967  38.060  1.00  0.00     0.000 C 
ATOM     33  C   UNL A   1      38.883  31.982  36.057  1.00  0.00     0.000 C 
ATOM     34  C   UNL A   1      38.321  31.714  37.445  1.00  0.00     0.000 C 
ENDBRANCH  28  29
ENDBRANCH  27  28
ENDBRANCH  26  27
ENDBRANCH  15  26
ENDBRANCH  10  11
ENDBRANCH   5  10
ENDBRANCH   3   5
ENDBRANCH   2   3
ENDBRANCH   1   2
BRANCH   1  35
ATOM     35  C   UNL A   1      42.479  26.300  34.461  1.00  0.00     0.202 C 
BRANCH  35  36
ATOM     36  O   UNL A   1      43.630  25.457  34.498  1.00  0.00    -0.374 OA
BRANCH  36  37
ATOM     37  C   UNL A   1      44.586  25.585  33.448  1.00  0.00     0.202 C 
BRANCH  37  38
ATOM     38  C   UNL A   1      46.021  25.976  33.835  1.00  0.00     0.261 C 
BRANCH  38  39
ATOM     39  O   UNL A   1      46.936  25.962  32.725  1.00  0.00    -0.460 OA
BRANCH  39  40
ATOM     40  C   UNL A   1      46.504  26.630  31.629  1.00  0.00     0.338 C 
ATOM     41  O   UNL A   1      46.319  26.165  30.508  1.00  0.00    -0.246 OA
BRANCH  40  42
ATOM     42  C   UNL A   1      46.089  27.999  31.977  1.00  0.00     0.060 A 
ATOM     43  C   UNL A   1      44.973  28.525  31.314  1.00  0.00     0.016 A 
ATOM     44  C   UNL A   1      46.849  28.799  32.833  1.00  0.00     0.016 A 
ATOM     45  C   UNL A   1      44.640  29.869  31.464  1.00  0.00     0.010 A 
ATOM     46  C   UNL A   1      46.518  30.151  32.975  1.00  0.00     0.010 A 
ATOM     47  C   UNL A   1      45.438  30.702  32.258  1.00  0.00    -0.014 A 
BRANCH  47  48
ATOM     48  C   UNL A   1      45.228  32.171  32.210  1.00  0.00     0.031 A 
ATOM     49  C   UNL A   1      45.893  32.970  31.120  1.00  0.00     0.074 A 
ATOM     50  C   UNL A   1      44.437  32.783  33.109  1.00  0.00     0.049 A 
ATOM     51  N   UNL A   1      45.852  34.257  30.895  1.00  0.00    -0.248 NA
ATOM     52  C   UNL A   1      46.715  32.217  30.157  1.00  0.00     0.031 C 
ATOM     53  C   UNL A   1      43.730  32.119  34.203  1.00  0.00     0.029 A 
ATOM     54  N   UNL A   1      44.111  34.109  33.252  1.00  0.00    -0.354 N 
ATOM     55  C   UNL A   1      46.660  34.475  29.786  1.00  0.00     0.074 A 
ATOM     56  C   UNL A   1      47.191  33.188  29.390  1.00  0.00     0.031 C 
ATOM     57  C   UNL A   1      43.075  33.045  34.923  1.00  0.00     0.029 A 
ATOM     58  C   UNL A   1      43.333  34.367  34.355  1.00  0.00     0.049 A 
ATOM     59  H   UNL A   1      44.407  34.808  32.625  1.00  0.00     0.167 HD
ATOM     60  C   UNL A   1      46.926  35.636  29.143  1.00  0.00     0.034 A 
ATOM     61  C   UNL A   1      42.897  35.538  34.860  1.00  0.00     0.034 A 
ATOM     62  C   UNL A   1      46.378  36.912  29.521  1.00  0.00     0.049 A 
ATOM     63  C   UNL A   1      43.224  36.820  34.138  1.00  0.00     0.074 A 
ATOM     64  C   UNL A   1      46.550  38.139  28.904  1.00  0.00     0.029 A 
ATOM     65  N   UNL A   1      45.563  37.128  30.621  1.00  0.00    -0.354 N 
ATOM     66  N   UNL A   1      43.892  36.994  33.023  1.00  0.00    -0.248 NA
ATOM     67  C   UNL A   1      42.710  38.066  34.728  1.00  0.00     0.031 C 
ATOM     68  C   UNL A   1      45.859  39.101  29.646  1.00  0.00     0.029 A 
ATOM     69  C   UNL A   1      45.233  38.470  30.709  1.00  0.00     0.049 A 
ATOM     70  H   UNL A   1      45.262  36.431  31.247  1.00  0.00     0.167 HD
ATOM     71  C   UNL A   1      43.846  38.359  32.758  1.00  0.00     0.074 A 
ATOM     72  C   UNL A   1      43.068  38.964  33.820  1.00  0.00     0.031 C 
ATOM     73  C   UNL A   1      44.410  39.052  31.738  1.00  0.00     0.034 A 
BRANCH  60  74
ATOM     74  C   UNL A   1      47.832  35.581  27.942  1.00  0.00     0.023 A 
ATOM     75  C   UNL A   1      47.287  35.313  26.670  1.00  0.00     0.012 A 
ATOM     76  C   UNL A   1      49.209  35.854  28.061  1.00  0.00     0.148 A 
ATOM     77  C   UNL A   1      48.103  35.287  25.539  1.00  0.00     0.002 A 
ATOM     78  C   UNL A   1      50.008  35.869  26.924  1.00  0.00     0.091 A 
ATOM     79  F   UNL A   1      49.712  36.085  29.282  1.00  0.00    -0.205 F 
ATOM     80  C   UNL A   1      49.460  35.576  25.664  1.00  0.00     0.022 A 
BRANCH  78  81
ATOM     81  S   UNL A   1      51.751  36.302  26.971  1.00  0.00     0.127 S 
ATOM     82  O   UNL A   1      52.131  36.148  25.567  1.00  0.00    -0.237 OA
ATOM     83  O   UNL A   1      51.713  37.686  27.443  1.00  0.00    -0.237 OA
ATOM     84  O   UNL A   1      52.374  35.363  27.893  1.00  0.00    -0.744 OA
ENDBRANCH  78  81
ENDBRANCH  60  74
BRANCH  61  85
ATOM     85  C   UNL A   1      42.071  35.553  36.101  1.00  0.00     0.023 A 
ATOM     86  C   UNL A   1      40.667  35.596  36.003  1.00  0.00     0.012 A 
ATOM     87  C   UNL A   1      42.670  35.518  37.375  1.00  0.00     0.148 A 
ATOM     88  C   UNL A   1      39.874  35.633  37.150  1.00  0.00     0.002 A 
ATOM     89  C   UNL A   1      41.874  35.501  38.514  1.00  0.00     0.091 A 
ATOM     90  F   UNL A   1      44.008  35.499  37.447  1.00  0.00    -0.205 F 
ATOM     91  C   UNL A   1      40.477  35.575  38.404  1.00  0.00     0.022 A 
BRANCH  89  92
ATOM     92  S   UNL A   1      42.559  35.308  40.163  1.00  0.00     0.127 S 
ATOM     93  O   UNL A   1      43.459  36.455  40.249  1.00  0.00    -0.237 OA
ATOM     94  O   UNL A   1      41.361  35.400  40.999  1.00  0.00    -0.237 OA
ATOM     95  O   UNL A   1      43.199  33.999  40.171  1.00  0.00    -0.744 OA
ENDBRANCH  89  92
ENDBRANCH  61  85
BRANCH  73  96
ATOM     96  C   UNL A   1      44.181  40.540  31.687  1.00  0.00     0.023 A 
ATOM     97  C   UNL A   1      43.226  41.072  30.798  1.00  0.00     0.012 A 
ATOM     98  C   UNL A   1      44.854  41.404  32.575  1.00  0.00     0.148 A 
ATOM     99  C   UNL A   1      42.969  42.442  30.771  1.00  0.00     0.002 A 
ATOM    100  C   UNL A   1      44.557  42.761  32.576  1.00  0.00     0.091 A 
ATOM    101  F   UNL A   1      45.772  40.881  33.403  1.00  0.00    -0.205 F 
ATOM    102  C   UNL A   1      43.623  43.285  31.667  1.00  0.00     0.022 A 
BRANCH 100 103
ATOM    103  S   UNL A   1      45.279  43.904  33.759  1.00  0.00     0.127 S 
ATOM    104  O   UNL A   1      44.606  43.516  34.997  1.00  0.00    -0.237 OA
ATOM    105  O   UNL A   1      46.700  43.555  33.703  1.00  0.00    -0.237 OA
ATOM    106  O   UNL A   1      44.966  45.240  33.268  1.00  0.00    -0.744 OA
ENDBRANCH 100 103
ENDBRANCH  73  96
ENDBRANCH  47  48
ENDBRANCH  40  42
ENDBRANCH  39  40
ENDBRANCH  38  39
ENDBRANCH  37  38
ENDBRANCH  36  37
ENDBRANCH  35  36
ENDBRANCH   1  35
TORSDOF 30
ENDMDL
MODEL 2
REMARK VINA RESULT:      -5.3      5.199     12.750
REMARK SMILES CCCC[C@@H](Sc1nc(OCCC2CCCCC2)cc(OCCC2CCCCC2)n1)C(=O)OCCOCCOC(=O)c1ccc(-c2c3nc(c(-c4cccc(S(=O)(=O)[O-])c4F)c4ccc([nH]4)c(-c4cccc(S(=O)(=O)[O-])c4F)c4nc(c(-c5cccc(S(=O)(=O)[O-])c5F)c5ccc2[nH]5)C=C4)C=C3)cc1
REMARK SMILES IDX 34 1 33 2 31 3 32 4 5 5 4 6 3 7 2 8 1 9 6 10 7 11 8 12 30 13
REMARK SMILES IDX 9 14 20 15 19 16 10 17 11 18 12 19 13 20 14 21 18 22 15 23
REMARK SMILES IDX 17 24 16 25 21 26 22 27 23 28 24 29 25 30 29 31 26 32 28 33
REMARK SMILES IDX 27 34 35 35 36 36 37 37 38 38 39 39 40 40 41 41 42 42 43 43
REMARK SMILES IDX 104 44 44 45 103 46 45 47 46 48 47 49 97 50 48 51 102 52
REMARK SMILES IDX 96 53 98 54 49 55 101 56 95 57 94 58 50 60 82 61 62 62 81 63
REMARK SMILES IDX 63 64 66 65 80 66 99 67 64 68 65 69 79 71 100 72 67 73 51 74
REMARK SMILES IDX 52 75 60 76 53 77 55 78 61 79 54 80 56 81 57 82 58 83 59 84
REMARK SMILES IDX 83 85 84 86 92 87 85 88 87 89 93 90 86 91 88 92 89 93 90 94
REMARK SMILES IDX 91 95 68 96 69 97 77 98 70 99 72 100 78 101 71 102 73 103
REMARK SMILES IDX 74 104 75 105 76 106
REMARK H PARENT 98 59 66 70
REMARK Flexibility Score: inf
ROOT
ATOM      1  C   UNL A   1      44.089  42.626  29.913  1.00  0.00     0.261 C 
ENDROOT
BRANCH   1   2
ATOM      2  O   UNL A   1      43.245  43.134  30.954  1.00  0.00    -0.462 OA
BRANCH   2   3
ATOM      3  C   UNL A   1      43.737  44.204  31.636  1.00  0.00     0.319 C 
ATOM      4  O   UNL A   1      43.881  45.329  31.166  1.00  0.00    -0.251 OA
BRANCH   3   5
ATOM      5  C   UNL A   1      44.104  43.861  33.071  1.00  0.00     0.164 C 
BRANCH   5   6
ATOM      6  C   UNL A   1      44.791  45.026  33.825  1.00  0.00     0.027 C 
BRANCH   6   7
ATOM      7  C   UNL A   1      46.265  44.820  34.200  1.00  0.00     0.001 C 
BRANCH   7   8
ATOM      8  C   UNL A   1      47.034  43.784  33.364  1.00  0.00    -0.003 C 
ATOM      9  C   UNL A   1      47.211  42.441  34.054  1.00  0.00     0.004 C 
ENDBRANCH   7   8
ENDBRANCH   6   7
ENDBRANCH   5   6
BRANCH   5  10
ATOM     10  S   UNL A   1      42.539  43.262  33.848  1.00  0.00    -0.071 SA
BRANCH  10  11
ATOM     11  C   UNL A   1      43.064  41.696  34.479  1.00  0.00     0.195 A 
ATOM     12  N   UNL A   1      43.901  41.685  35.524  1.00  0.00    -0.187 NA
ATOM     13  N   UNL A   1      42.700  40.613  33.788  1.00  0.00    -0.187 NA
ATOM     14  C   UNL A   1      44.539  40.534  35.760  1.00  0.00     0.221 A 
ATOM     15  C   UNL A   1      43.366  39.489  34.023  1.00  0.00     0.221 A 
ATOM     16  C   UNL A   1      44.379  39.447  34.937  1.00  0.00     0.136 A 
BRANCH  14  17
ATOM     17  O   UNL A   1      45.238  40.505  36.942  1.00  0.00    -0.477 OA
BRANCH  17  18
ATOM     18  C   UNL A   1      45.791  41.712  37.468  1.00  0.00     0.231 C 
BRANCH  18  19
ATOM     19  C   UNL A   1      47.321  41.687  37.726  1.00  0.00     0.045 C 
BRANCH  19  20
ATOM     20  C   UNL A   1      47.702  41.767  39.208  1.00  0.00    -0.008 C 
ATOM     21  C   UNL A   1      47.208  40.633  40.110  1.00  0.00     0.004 C 
ATOM     22  C   UNL A   1      49.203  41.970  39.420  1.00  0.00     0.004 C 
ATOM     23  C   UNL A   1      47.422  41.047  41.577  1.00  0.00     0.000 C 
ATOM     24  C   UNL A   1      49.468  42.424  40.850  1.00  0.00     0.000 C 
ATOM     25  C   UNL A   1      48.862  41.472  41.881  1.00  0.00     0.000 C 
ENDBRANCH  19  20
ENDBRANCH  18  19
ENDBRANCH  17  18
ENDBRANCH  14  17
BRANCH  15  26
ATOM     26  O   UNL A   1      42.979  38.478  33.195  1.00  0.00    -0.477 OA
BRANCH  26  27
ATOM     27  C   UNL A   1      43.947  37.643  32.581  1.00  0.00     0.231 C 
BRANCH  27  28
ATOM     28  C   UNL A   1      43.530  36.163  32.525  1.00  0.00     0.045 C 
BRANCH  28  29
ATOM     29  C   UNL A   1      44.000  35.186  33.637  1.00  0.00    -0.008 C 
ATOM     30  C   UNL A   1      43.501  33.759  33.412  1.00  0.00     0.004 C 
ATOM     31  C   UNL A   1      45.490  35.334  33.985  1.00  0.00     0.004 C 
ATOM     32  C   UNL A   1      44.165  32.738  34.312  1.00  0.00     0.000 C 
ATOM     33  C   UNL A   1      46.294  34.072  34.324  1.00  0.00     0.000 C 
ATOM     34  C   UNL A   1      45.654  32.725  34.026  1.00  0.00     0.000 C 
ENDBRANCH  28  29
ENDBRANCH  27  28
ENDBRANCH  26  27
ENDBRANCH  15  26
ENDBRANCH  10  11
ENDBRANCH   5  10
ENDBRANCH   3   5
ENDBRANCH   2   3
ENDBRANCH   1   2
BRANCH   1  35
ATOM     35  C   UNL A   1      45.366  41.982  30.459  1.00  0.00     0.202 C 
BRANCH  35  36
ATOM     36  O   UNL A   1      46.333  41.523  29.516  1.00  0.00    -0.374 OA
BRANCH  36  37
ATOM     37  C   UNL A   1      46.153  40.228  28.950  1.00  0.00     0.202 C 
BRANCH  37  38
ATOM     38  C   UNL A   1      45.978  39.046  29.915  1.00  0.00     0.261 C 
BRANCH  38  39
ATOM     39  O   UNL A   1      46.545  37.817  29.424  1.00  0.00    -0.460 OA
BRANCH  39  40
ATOM     40  C   UNL A   1      46.809  36.896  30.381  1.00  0.00     0.338 C 
ATOM     41  O   UNL A   1      47.149  37.115  31.541  1.00  0.00    -0.246 OA
BRANCH  40  42
ATOM     42  C   UNL A   1      46.461  35.543  29.919  1.00  0.00     0.060 A 
ATOM     43  C   UNL A   1      45.730  35.434  28.729  1.00  0.00     0.016 A 
ATOM     44  C   UNL A   1      46.727  34.413  30.694  1.00  0.00     0.016 A 
ATOM     45  C   UNL A   1      45.216  34.201  28.334  1.00  0.00     0.010 A 
ATOM     46  C   UNL A   1      46.202  33.177  30.300  1.00  0.00     0.010 A 
ATOM     47  C   UNL A   1      45.409  33.073  29.141  1.00  0.00    -0.014 A 
BRANCH  47  48
ATOM     48  C   UNL A   1      44.651  31.832  28.847  1.00  0.00     0.031 A 
ATOM     49  C   UNL A   1      45.295  30.763  28.004  1.00  0.00     0.074 A 
ATOM     50  C   UNL A   1      43.414  31.647  29.341  1.00  0.00     0.049 A 
ATOM     51  N   UNL A   1      44.814  29.609  27.620  1.00  0.00    -0.248 NA
ATOM     52  C   UNL A   1      46.664  31.031  27.530  1.00  0.00     0.031 C 
ATOM     53  C   UNL A   1      42.687  32.600  30.177  1.00  0.00     0.029 A 
ATOM     54  N   UNL A   1      42.544  30.595  29.194  1.00  0.00    -0.354 N 
ATOM     55  C   UNL A   1      45.805  29.025  26.839  1.00  0.00     0.074 A 
ATOM     56  C   UNL A   1      46.911  29.958  26.793  1.00  0.00     0.031 C 
ATOM     57  C   UNL A   1      41.469  32.102  30.447  1.00  0.00     0.029 A 
ATOM     58  C   UNL A   1      41.322  30.807  29.787  1.00  0.00     0.049 A 
ATOM     59  H   UNL A   1      42.773  29.769  28.710  1.00  0.00     0.167 HD
ATOM     60  C   UNL A   1      45.804  27.817  26.229  1.00  0.00     0.034 A 
ATOM     61  C   UNL A   1      40.206  30.051  29.778  1.00  0.00     0.034 A 
ATOM     62  C   UNL A   1      44.714  26.880  26.296  1.00  0.00     0.049 A 
ATOM     63  C   UNL A   1      40.222  28.719  29.073  1.00  0.00     0.074 A 
ATOM     64  C   UNL A   1      44.638  25.610  25.751  1.00  0.00     0.029 A 
ATOM     65  N   UNL A   1      43.508  27.113  26.938  1.00  0.00    -0.354 N 
ATOM     66  N   UNL A   1      41.208  28.131  28.440  1.00  0.00    -0.248 NA
ATOM     67  C   UNL A   1      38.980  27.931  29.109  1.00  0.00     0.031 C 
ATOM     68  C   UNL A   1      43.374  25.085  26.042  1.00  0.00     0.029 A 
ATOM     69  C   UNL A   1      42.675  26.017  26.792  1.00  0.00     0.049 A 
ATOM     70  H   UNL A   1      43.278  27.936  27.425  1.00  0.00     0.167 HD
ATOM     71  C   UNL A   1      40.719  26.893  28.036  1.00  0.00     0.074 A 
ATOM     72  C   UNL A   1      39.354  26.807  28.512  1.00  0.00     0.031 C 
ATOM     73  C   UNL A   1      41.338  25.921  27.321  1.00  0.00     0.034 A 
BRANCH  60  74
ATOM     74  C   UNL A   1      47.032  27.423  25.453  1.00  0.00     0.023 A 
ATOM     75  C   UNL A   1      48.051  26.684  26.089  1.00  0.00     0.012 A 
ATOM     76  C   UNL A   1      47.151  27.729  24.083  1.00  0.00     0.148 A 
ATOM     77  C   UNL A   1      49.183  26.282  25.381  1.00  0.00     0.002 A 
ATOM     78  C   UNL A   1      48.262  27.287  23.374  1.00  0.00     0.091 A 
ATOM     79  F   UNL A   1      46.183  28.449  23.502  1.00  0.00    -0.205 F 
ATOM     80  C   UNL A   1      49.284  26.573  24.023  1.00  0.00     0.022 A 
BRANCH  78  81
ATOM     81  S   UNL A   1      48.449  27.547  21.606  1.00  0.00     0.127 S 
ATOM     82  O   UNL A   1      49.516  28.547  21.566  1.00  0.00    -0.237 OA
ATOM     83  O   UNL A   1      48.843  26.218  21.139  1.00  0.00    -0.237 OA
ATOM     84  O   UNL A   1      47.151  28.000  21.127  1.00  0.00    -0.744 OA
ENDBRANCH  78  81
ENDBRANCH  60  74
BRANCH  61  85
ATOM     85  C   UNL A   1      38.983  30.520  30.491  1.00  0.00     0.023 A 
ATOM     86  C   UNL A   1      38.814  30.220  31.856  1.00  0.00     0.012 A 
ATOM     87  C   UNL A   1      37.992  31.265  29.823  1.00  0.00     0.148 A 
ATOM     88  C   UNL A   1      37.668  30.630  32.538  1.00  0.00     0.002 A 
ATOM     89  C   UNL A   1      36.878  31.716  30.521  1.00  0.00     0.091 A 
ATOM     90  F   UNL A   1      38.161  31.522  28.519  1.00  0.00    -0.205 F 
ATOM     91  C   UNL A   1      36.705  31.385  31.874  1.00  0.00     0.022 A 
BRANCH  89  92
ATOM     92  S   UNL A   1      35.649  32.795  29.777  1.00  0.00     0.127 S 
ATOM     93  O   UNL A   1      36.224  34.115  30.019  1.00  0.00    -0.237 OA
ATOM     94  O   UNL A   1      35.671  32.358  28.381  1.00  0.00    -0.237 OA
ATOM     95  O   UNL A   1      34.403  32.510  30.476  1.00  0.00    -0.744 OA
ENDBRANCH  89  92
ENDBRANCH  61  85
BRANCH  73  96
ATOM     96  C   UNL A   1      40.567  24.657  27.038  1.00  0.00     0.023 A 
ATOM     97  C   UNL A   1      39.297  24.731  26.433  1.00  0.00     0.012 A 
ATOM     98  C   UNL A   1      41.135  23.393  27.297  1.00  0.00     0.148 A 
ATOM     99  C   UNL A   1      38.591  23.570  26.122  1.00  0.00     0.002 A 
ATOM    100  C   UNL A   1      40.447  22.241  26.940  1.00  0.00     0.091 A 
ATOM    101  F   UNL A   1      42.338  23.343  27.890  1.00  0.00    -0.205 F 
ATOM    102  C   UNL A   1      39.169  22.326  26.363  1.00  0.00     0.022 A 
BRANCH 100 103
ATOM    103  S   UNL A   1      41.156  20.600  27.124  1.00  0.00     0.127 S 
ATOM    104  O   UNL A   1      40.937  20.339  28.546  1.00  0.00    -0.237 OA
ATOM    105  O   UNL A   1      40.326  19.799  26.223  1.00  0.00    -0.237 OA
ATOM    106  O   UNL A   1      42.550  20.717  26.716  1.00  0.00    -0.744 OA
ENDBRANCH 100 103
ENDBRANCH  73  96
ENDBRANCH  47  48
ENDBRANCH  40  42
ENDBRANCH  39  40
ENDBRANCH  38  39
ENDBRANCH  37  38
ENDBRANCH  36  37
ENDBRANCH  35  36
ENDBRANCH   1  35
TORSDOF 30
ENDMDL
MODEL 3
REMARK VINA RESULT:      -5.1      4.801     12.470
REMARK SMILES CCCC[C@@H](Sc1nc(OCCC2CCCCC2)cc(OCCC2CCCCC2)n1)C(=O)OCCOCCOC(=O)c1ccc(-c2c3nc(c(-c4cccc(S(=O)(=O)[O-])c4F)c4ccc([nH]4)c(-c4cccc(S(=O)(=O)[O-])c4F)c4nc(c(-c5cccc(S(=O)(=O)[O-])c5F)c5ccc2[nH]5)C=C4)C=C3)cc1
REMARK SMILES IDX 34 1 33 2 31 3 32 4 5 5 4 6 3 7 2 8 1 9 6 10 7 11 8 12 30 13
REMARK SMILES IDX 9 14 20 15 19 16 10 17 11 18 12 19 13 20 14 21 18 22 15 23
REMARK SMILES IDX 17 24 16 25 21 26 22 27 23 28 24 29 25 30 29 31 26 32 28 33
REMARK SMILES IDX 27 34 35 35 36 36 37 37 38 38 39 39 40 40 41 41 42 42 43 43
REMARK SMILES IDX 104 44 44 45 103 46 45 47 46 48 47 49 97 50 48 51 102 52
REMARK SMILES IDX 96 53 98 54 49 55 101 56 95 57 94 58 50 60 82 61 62 62 81 63
REMARK SMILES IDX 63 64 66 65 80 66 99 67 64 68 65 69 79 71 100 72 67 73 51 74
REMARK SMILES IDX 52 75 60 76 53 77 55 78 61 79 54 80 56 81 57 82 58 83 59 84
REMARK SMILES IDX 83 85 84 86 92 87 85 88 87 89 93 90 86 91 88 92 89 93 90 94
REMARK SMILES IDX 91 95 68 96 69 97 77 98 70 99 72 100 78 101 71 102 73 103
REMARK SMILES IDX 74 104 75 105 76 106
REMARK H PARENT 98 59 66 70
REMARK Flexibility Score: inf
ROOT
ATOM      1  C   UNL A   1      44.162  42.509  30.079  1.00  0.00     0.261 C 
ENDROOT
BRANCH   1   2
ATOM      2  O   UNL A   1      43.459  42.928  31.256  1.00  0.00    -0.462 OA
BRANCH   2   3
ATOM      3  C   UNL A   1      44.103  43.848  32.025  1.00  0.00     0.319 C 
ATOM      4  O   UNL A   1      44.286  45.021  31.710  1.00  0.00    -0.251 OA
BRANCH   3   5
ATOM      5  C   UNL A   1      44.591  43.268  33.342  1.00  0.00     0.164 C 
BRANCH   5   6
ATOM      6  C   UNL A   1      45.609  44.175  34.075  1.00  0.00     0.027 C 
BRANCH   6   7
ATOM      7  C   UNL A   1      47.015  43.594  34.281  1.00  0.00     0.001 C 
BRANCH   7   8
ATOM      8  C   UNL A   1      47.402  42.424  33.363  1.00  0.00    -0.003 C 
ATOM      9  C   UNL A   1      47.375  41.066  34.046  1.00  0.00     0.004 C 
ENDBRANCH   7   8
ENDBRANCH   6   7
ENDBRANCH   5   6
BRANCH   5  10
ATOM     10  S   UNL A   1      43.062  42.894  34.310  1.00  0.00    -0.071 SA
BRANCH  10  11
ATOM     11  C   UNL A   1      43.395  41.235  34.822  1.00  0.00     0.195 A 
ATOM     12  N   UNL A   1      44.076  41.051  35.961  1.00  0.00    -0.187 NA
ATOM     13  N   UNL A   1      43.065  40.261  33.972  1.00  0.00    -0.187 NA
ATOM     14  C   UNL A   1      44.602  39.836  36.147  1.00  0.00     0.221 A 
ATOM     15  C   UNL A   1      43.619  39.071  34.163  1.00  0.00     0.221 A 
ATOM     16  C   UNL A   1      44.491  38.856  35.193  1.00  0.00     0.136 A 
BRANCH  14  17
ATOM     17  O   UNL A   1      45.126  39.631  37.400  1.00  0.00    -0.477 OA
BRANCH  17  18
ATOM     18  C   UNL A   1      44.250  39.437  38.512  1.00  0.00     0.231 C 
BRANCH  18  19
ATOM     19  C   UNL A   1      44.393  38.076  39.244  1.00  0.00     0.045 C 
BRANCH  19  20
ATOM     20  C   UNL A   1      43.095  37.578  39.888  1.00  0.00    -0.008 C 
ATOM     21  C   UNL A   1      41.997  37.089  38.939  1.00  0.00     0.004 C 
ATOM     22  C   UNL A   1      43.341  36.525  40.969  1.00  0.00     0.004 C 
ATOM     23  C   UNL A   1      40.694  36.929  39.741  1.00  0.00     0.000 C 
ATOM     24  C   UNL A   1      42.090  36.358  41.823  1.00  0.00     0.000 C 
ATOM     25  C   UNL A   1      40.853  36.046  40.983  1.00  0.00     0.000 C 
ENDBRANCH  19  20
ENDBRANCH  18  19
ENDBRANCH  17  18
ENDBRANCH  14  17
BRANCH  15  26
ATOM     26  O   UNL A   1      43.290  38.184  33.183  1.00  0.00    -0.477 OA
BRANCH  26  27
ATOM     27  C   UNL A   1      44.186  37.145  32.823  1.00  0.00     0.231 C 
BRANCH  27  28
ATOM     28  C   UNL A   1      43.485  35.808  32.527  1.00  0.00     0.045 C 
BRANCH  28  29
ATOM     29  C   UNL A   1      43.247  34.791  33.676  1.00  0.00    -0.008 C 
ATOM     30  C   UNL A   1      44.152  33.564  33.568  1.00  0.00     0.004 C 
ATOM     31  C   UNL A   1      43.166  35.449  35.063  1.00  0.00     0.004 C 
ATOM     32  C   UNL A   1      44.145  32.697  34.810  1.00  0.00     0.000 C 
ATOM     33  C   UNL A   1      43.770  34.711  36.264  1.00  0.00     0.000 C 
ATOM     34  C   UNL A   1      44.660  33.511  35.980  1.00  0.00     0.000 C 
ENDBRANCH  28  29
ENDBRANCH  27  28
ENDBRANCH  26  27
ENDBRANCH  15  26
ENDBRANCH  10  11
ENDBRANCH   5  10
ENDBRANCH   3   5
ENDBRANCH   2   3
ENDBRANCH   1   2
BRANCH   1  35
ATOM     35  C   UNL A   1      45.488  41.818  30.406  1.00  0.00     0.202 C 
BRANCH  35  36
ATOM     36  O   UNL A   1      46.269  41.332  29.316  1.00  0.00    -0.374 OA
BRANCH  36  37
ATOM     37  C   UNL A   1      46.041  39.997  28.872  1.00  0.00     0.202 C 
BRANCH  37  38
ATOM     38  C   UNL A   1      45.978  38.892  29.938  1.00  0.00     0.261 C 
BRANCH  38  39
ATOM     39  O   UNL A   1      46.573  37.652  29.512  1.00  0.00    -0.460 OA
BRANCH  39  40
ATOM     40  C   UNL A   1      46.780  36.755  30.505  1.00  0.00     0.338 C 
ATOM     41  O   UNL A   1      47.067  37.002  31.673  1.00  0.00    -0.246 OA
BRANCH  40  42
ATOM     42  C   UNL A   1      46.438  35.394  30.064  1.00  0.00     0.060 A 
ATOM     43  C   UNL A   1      45.808  35.256  28.820  1.00  0.00     0.016 A 
ATOM     44  C   UNL A   1      46.608  34.288  30.900  1.00  0.00     0.016 A 
ATOM     45  C   UNL A   1      45.298  34.021  28.427  1.00  0.00     0.010 A 
ATOM     46  C   UNL A   1      46.086  33.050  30.507  1.00  0.00     0.010 A 
ATOM     47  C   UNL A   1      45.392  32.920  29.289  1.00  0.00    -0.014 A 
BRANCH  47  48
ATOM     48  C   UNL A   1      44.631  31.686  28.975  1.00  0.00     0.031 A 
ATOM     49  C   UNL A   1      45.267  30.633  28.106  1.00  0.00     0.074 A 
ATOM     50  C   UNL A   1      43.397  31.493  29.475  1.00  0.00     0.049 A 
ATOM     51  N   UNL A   1      44.782  29.488  27.703  1.00  0.00    -0.248 NA
ATOM     52  C   UNL A   1      46.632  30.909  27.628  1.00  0.00     0.031 C 
ATOM     53  C   UNL A   1      42.678  32.430  30.336  1.00  0.00     0.029 A 
ATOM     54  N   UNL A   1      42.525  30.445  29.314  1.00  0.00    -0.354 N 
ATOM     55  C   UNL A   1      45.766  28.919  26.904  1.00  0.00     0.074 A 
ATOM     56  C   UNL A   1      46.873  29.850  26.867  1.00  0.00     0.031 C 
ATOM     57  C   UNL A   1      41.461  31.928  30.605  1.00  0.00     0.029 A 
ATOM     58  C   UNL A   1      41.307  30.646  29.920  1.00  0.00     0.049 A 
ATOM     59  H   UNL A   1      42.749  29.628  28.812  1.00  0.00     0.167 HD
ATOM     60  C   UNL A   1      45.758  27.723  26.269  1.00  0.00     0.034 A 
ATOM     61  C   UNL A   1      40.190  29.892  29.905  1.00  0.00     0.034 A 
ATOM     62  C   UNL A   1      44.668  26.786  26.326  1.00  0.00     0.049 A 
ATOM     63  C   UNL A   1      40.200  28.575  29.173  1.00  0.00     0.074 A 
ATOM     64  C   UNL A   1      44.586  25.527  25.756  1.00  0.00     0.029 A 
ATOM     65  N   UNL A   1      43.467  27.007  26.981  1.00  0.00    -0.354 N 
ATOM     66  N   UNL A   1      41.180  27.998  28.520  1.00  0.00    -0.248 NA
ATOM     67  C   UNL A   1      38.957  27.788  29.202  1.00  0.00     0.031 C 
ATOM     68  C   UNL A   1      43.324  24.998  26.046  1.00  0.00     0.029 A 
ATOM     69  C   UNL A   1      42.631  25.916  26.820  1.00  0.00     0.049 A 
ATOM     70  H   UNL A   1      43.242  27.821  27.487  1.00  0.00     0.167 HD
ATOM     71  C   UNL A   1      40.687  26.769  28.095  1.00  0.00     0.074 A 
ATOM     72  C   UNL A   1      39.325  26.675  28.581  1.00  0.00     0.031 C 
ATOM     73  C   UNL A   1      41.298  25.810  27.357  1.00  0.00     0.034 A 
BRANCH  60  74
ATOM     74  C   UNL A   1      46.981  27.343  25.476  1.00  0.00     0.023 A 
ATOM     75  C   UNL A   1      47.963  26.519  26.062  1.00  0.00     0.012 A 
ATOM     76  C   UNL A   1      47.127  27.748  24.135  1.00  0.00     0.148 A 
ATOM     77  C   UNL A   1      49.088  26.130  25.336  1.00  0.00     0.002 A 
ATOM     78  C   UNL A   1      48.230  27.321  23.404  1.00  0.00     0.091 A 
ATOM     79  F   UNL A   1      46.193  28.548  23.602  1.00  0.00    -0.205 F 
ATOM     80  C   UNL A   1      49.216  26.520  24.005  1.00  0.00     0.022 A 
BRANCH  78  81
ATOM     81  S   UNL A   1      48.447  27.709  21.663  1.00  0.00     0.127 S 
ATOM     82  O   UNL A   1      49.534  28.686  21.713  1.00  0.00    -0.237 OA
ATOM     83  O   UNL A   1      48.821  26.411  21.102  1.00  0.00    -0.237 OA
ATOM     84  O   UNL A   1      47.165  28.222  21.203  1.00  0.00    -0.744 OA
ENDBRANCH  78  81
ENDBRANCH  60  74
BRANCH  61  85
ATOM     85  C   UNL A   1      38.974  30.348  30.635  1.00  0.00     0.023 A 
ATOM     86  C   UNL A   1      38.778  29.957  31.974  1.00  0.00     0.012 A 
ATOM     87  C   UNL A   1      38.015  31.170  30.012  1.00  0.00     0.148 A 
ATOM     88  C   UNL A   1      37.636  30.353  32.671  1.00  0.00     0.002 A 
ATOM     89  C   UNL A   1      36.906  31.606  30.728  1.00  0.00     0.091 A 
ATOM     90  F   UNL A   1      38.210  31.514  28.732  1.00  0.00    -0.205 F 
ATOM     91  C   UNL A   1      36.706  31.185  32.052  1.00  0.00     0.022 A 
BRANCH  89  92
ATOM     92  S   UNL A   1      35.722  32.774  30.051  1.00  0.00     0.127 S 
ATOM     93  O   UNL A   1      36.420  34.045  30.228  1.00  0.00    -0.237 OA
ATOM     94  O   UNL A   1      35.611  32.320  28.664  1.00  0.00    -0.237 OA
ATOM     95  O   UNL A   1      34.509  32.603  30.839  1.00  0.00    -0.744 OA
ENDBRANCH  89  92
ENDBRANCH  61  85
BRANCH  73  96
ATOM     96  C   UNL A   1      40.524  24.554  27.054  1.00  0.00     0.023 A 
ATOM     97  C   UNL A   1      39.250  24.641  26.460  1.00  0.00     0.012 A 
ATOM     98  C   UNL A   1      41.092  23.284  27.285  1.00  0.00     0.148 A 
ATOM     99  C   UNL A   1      38.540  23.487  26.131  1.00  0.00     0.002 A 
ATOM    100  C   UNL A   1      40.400  22.140  26.910  1.00  0.00     0.091 A 
ATOM    101  F   UNL A   1      42.299  23.220  27.867  1.00  0.00    -0.205 F 
ATOM    102  C   UNL A   1      39.118  22.238  26.344  1.00  0.00     0.022 A 
BRANCH 100 103
ATOM    103  S   UNL A   1      41.107  20.495  27.057  1.00  0.00     0.127 S 
ATOM    104  O   UNL A   1      40.865  20.191  28.466  1.00  0.00    -0.237 OA
ATOM    105  O   UNL A   1      40.294  19.721  26.118  1.00  0.00    -0.237 OA
ATOM    106  O   UNL A   1      42.508  20.625  26.676  1.00  0.00    -0.744 OA
ENDBRANCH 100 103
ENDBRANCH  73  96
ENDBRANCH  47  48
ENDBRANCH  40  42
ENDBRANCH  39  40
ENDBRANCH  38  39
ENDBRANCH  37  38
ENDBRANCH  36  37
ENDBRANCH  35  36
ENDBRANCH   1  35
TORSDOF 30
ENDMDL
