MODEL 1
REMARK VINA RESULT:     -10.1      0.000      0.000
REMARK SMILES C[C@H]1[C@H](C(=O)OCCOCCOC(=O)c2ccc(-c3c4nc(c(-c5cccc(S(=O)(=O)[O-])c5F)c5ccc([nH]5)c(-c5cccc(S(=O)(=O)[O-])c5F)c5nc(c(-c6cccc(S(=O)(=O)[O-])c6F)c6ccc3[nH]6)C=C5)C=C4)cc2)CCN1C(=O)CC[NH2+]C1CC1
REMARK SMILES IDX 8 1 7 2 6 3 4 4 5 5 3 6 1 7 2 8 80 9 78 10 79 11 81 12 82 13
REMARK SMILES IDX 83 14 84 15 85 16 86 19 87 20 88 21 9 22 10 23 11 24 12 25
REMARK SMILES IDX 13 26 14 27 15 28 16 29 77 30 17 31 76 32 18 33 19 34 20 35
REMARK SMILES IDX 70 36 21 37 75 38 69 39 71 40 22 41 74 42 68 43 67 44 23 46
REMARK SMILES IDX 55 47 35 48 54 49 36 50 39 51 53 52 72 53 37 54 38 55 52 57
REMARK SMILES IDX 73 58 40 59 24 60 25 61 33 62 26 63 28 64 34 65 27 66 29 67
REMARK SMILES IDX 30 68 31 69 32 70 56 71 57 72 65 73 58 74 60 75 66 76 59 77
REMARK SMILES IDX 61 78 62 79 63 80 64 81 41 82 42 83 50 84 43 85 45 86 51 87
REMARK SMILES IDX 44 88 46 89 47 90 48 91 49 92
REMARK H PARENT 85 17 85 18 71 45 39 56
REMARK Flexibility Score: inf
ROOT
ATOM      1  C   UNL A   1      32.230  28.747  24.041  1.00  0.00     0.202 C 
ENDROOT
BRANCH   1   2
ATOM      2  C   UNL A   1      31.431  27.522  23.583  1.00  0.00     0.261 C 
BRANCH   2   3
ATOM      3  O   UNL A   1      32.242  26.562  22.878  1.00  0.00    -0.463 OA
BRANCH   3   4
ATOM      4  C   UNL A   1      32.027  25.260  23.199  1.00  0.00     0.311 C 
ATOM      5  O   UNL A   1      31.378  24.468  22.525  1.00  0.00    -0.252 OA
BRANCH   4   6
ATOM      6  C   UNL A   1      32.654  24.852  24.511  1.00  0.00     0.123 C 
ATOM      7  C   UNL A   1      31.560  23.037  25.838  1.00  0.00     0.032 C 
ATOM      8  C   UNL A   1      32.667  23.342  24.826  1.00  0.00     0.096 C 
ATOM      9  N   UNL A   1      33.986  23.090  25.415  1.00  0.00    -0.339 N 
ATOM     10  C   UNL A   1      34.110  25.287  24.632  1.00  0.00     0.039 C 
ATOM     11  C   UNL A   1      34.666  24.341  25.685  1.00  0.00     0.121 C 
BRANCH   9  12
ATOM     12  C   UNL A   1      34.601  21.885  25.695  1.00  0.00     0.228 C 
ATOM     13  O   UNL A   1      34.504  21.361  26.808  1.00  0.00    -0.275 OA
BRANCH  12  14
ATOM     14  C   UNL A   1      35.426  21.204  24.612  1.00  0.00     0.161 C 
BRANCH  14  15
ATOM     15  C   UNL A   1      35.714  19.737  24.942  1.00  0.00     0.270 C 
BRANCH  15  16
ATOM     16  N   UNL A   1      34.487  18.929  24.901  1.00  0.00    -0.343 N 
ATOM     17  H   UNL A   1      33.829  19.378  24.264  1.00  0.00     0.346 HD
ATOM     18  H   UNL A   1      34.141  18.877  25.859  1.00  0.00     0.346 HD
BRANCH  16  19
ATOM     19  C   UNL A   1      34.689  17.548  24.454  1.00  0.00     0.182 C 
ATOM     20  C   UNL A   1      33.573  16.538  24.416  1.00  0.00     0.071 C 
ATOM     21  C   UNL A   1      34.081  17.129  23.138  1.00  0.00     0.071 C 
ENDBRANCH  16  19
ENDBRANCH  15  16
ENDBRANCH  14  15
ENDBRANCH  12  14
ENDBRANCH   9  12
ENDBRANCH   4   6
ENDBRANCH   3   4
ENDBRANCH   2   3
ENDBRANCH   1   2
BRANCH   1  22
ATOM     22  O   UNL A   1      32.027  29.174  25.387  1.00  0.00    -0.374 OA
BRANCH  22  23
ATOM     23  C   UNL A   1      32.831  30.255  25.854  1.00  0.00     0.202 C 
BRANCH  23  24
ATOM     24  C   UNL A   1      32.096  31.482  26.410  1.00  0.00     0.261 C 
BRANCH  24  25
ATOM     25  O   UNL A   1      32.528  31.817  27.741  1.00  0.00    -0.460 OA
BRANCH  25  26
ATOM     26  C   UNL A   1      33.471  32.792  27.791  1.00  0.00     0.338 C 
ATOM     27  O   UNL A   1      33.276  33.997  27.807  1.00  0.00    -0.246 OA
BRANCH  26  28
ATOM     28  C   UNL A   1      34.811  32.217  28.024  1.00  0.00     0.060 A 
ATOM     29  C   UNL A   1      34.863  30.865  28.387  1.00  0.00     0.016 A 
ATOM     30  C   UNL A   1      35.972  32.990  27.999  1.00  0.00     0.016 A 
ATOM     31  C   UNL A   1      36.065  30.301  28.804  1.00  0.00     0.010 A 
ATOM     32  C   UNL A   1      37.181  32.421  28.424  1.00  0.00     0.010 A 
ATOM     33  C   UNL A   1      37.220  31.090  28.878  1.00  0.00    -0.014 A 
BRANCH  33  34
ATOM     34  C   UNL A   1      38.402  30.553  29.602  1.00  0.00     0.031 A 
ATOM     35  C   UNL A   1      38.628  30.959  31.034  1.00  0.00     0.074 A 
ATOM     36  C   UNL A   1      39.225  29.665  29.016  1.00  0.00     0.049 A 
ATOM     37  N   UNL A   1      39.537  30.545  31.879  1.00  0.00    -0.248 NA
ATOM     38  C   UNL A   1      37.705  31.963  31.592  1.00  0.00     0.031 C 
ATOM     39  C   UNL A   1      39.115  29.193  27.637  1.00  0.00     0.029 A 
ATOM     40  N   UNL A   1      40.322  29.005  29.512  1.00  0.00    -0.354 N 
ATOM     41  C   UNL A   1      39.311  31.249  33.056  1.00  0.00     0.074 A 
ATOM     42  C   UNL A   1      38.191  32.132  32.812  1.00  0.00     0.031 C 
ATOM     43  C   UNL A   1      40.116  28.329  27.392  1.00  0.00     0.029 A 
ATOM     44  C   UNL A   1      40.938  28.192  28.592  1.00  0.00     0.049 A 
ATOM     45  H   UNL A   1      40.636  29.105  30.440  1.00  0.00     0.167 HD
ATOM     46  C   UNL A   1      39.957  31.153  34.242  1.00  0.00     0.034 A 
ATOM     47  C   UNL A   1      42.043  27.426  28.706  1.00  0.00     0.034 A 
ATOM     48  C   UNL A   1      41.053  30.258  34.495  1.00  0.00     0.049 A 
ATOM     49  C   UNL A   1      42.744  27.336  30.037  1.00  0.00     0.074 A 
ATOM     50  C   UNL A   1      41.744  30.055  35.677  1.00  0.00     0.029 A 
ATOM     51  N   UNL A   1      41.624  29.420  33.551  1.00  0.00    -0.354 N 
ATOM     52  N   UNL A   1      42.434  27.907  31.176  1.00  0.00    -0.248 NA
ATOM     53  C   UNL A   1      43.924  26.461  30.109  1.00  0.00     0.031 C 
ATOM     54  C   UNL A   1      42.747  29.108  35.441  1.00  0.00     0.029 A 
ATOM     55  C   UNL A   1      42.664  28.704  34.118  1.00  0.00     0.049 A 
ATOM     56  H   UNL A   1      41.332  29.346  32.613  1.00  0.00     0.167 HD
ATOM     57  C   UNL A   1      43.354  27.434  32.106  1.00  0.00     0.074 A 
ATOM     58  C   UNL A   1      44.219  26.510  31.401  1.00  0.00     0.031 C 
ATOM     59  C   UNL A   1      43.482  27.746  33.419  1.00  0.00     0.034 A 
BRANCH  46  60
ATOM     60  C   UNL A   1      39.467  32.018  35.374  1.00  0.00     0.023 A 
ATOM     61  C   UNL A   1      38.579  31.480  36.327  1.00  0.00     0.012 A 
ATOM     62  C   UNL A   1      39.921  33.344  35.524  1.00  0.00     0.148 A 
ATOM     63  C   UNL A   1      38.125  32.255  37.394  1.00  0.00     0.002 A 
ATOM     64  C   UNL A   1      39.497  34.097  36.612  1.00  0.00     0.091 A 
ATOM     65  F   UNL A   1      40.746  33.846  34.593  1.00  0.00    -0.205 F 
ATOM     66  C   UNL A   1      38.592  33.558  37.541  1.00  0.00     0.022 A 
BRANCH  64  67
ATOM     67  S   UNL A   1      40.098  35.759  36.930  1.00  0.00     0.127 S 
ATOM     68  O   UNL A   1      39.457  36.065  38.209  1.00  0.00    -0.237 OA
ATOM     69  O   UNL A   1      41.544  35.556  37.008  1.00  0.00    -0.237 OA
ATOM     70  O   UNL A   1      39.659  36.566  35.801  1.00  0.00    -0.744 OA
ENDBRANCH  64  67
ENDBRANCH  46  60
BRANCH  47  71
ATOM     71  C   UNL A   1      42.522  26.635  27.538  1.00  0.00     0.023 A 
ATOM     72  C   UNL A   1      43.391  27.230  26.602  1.00  0.00     0.012 A 
ATOM     73  C   UNL A   1      42.136  25.293  27.359  1.00  0.00     0.148 A 
ATOM     74  C   UNL A   1      43.841  26.513  25.493  1.00  0.00     0.002 A 
ATOM     75  C   UNL A   1      42.633  24.567  26.282  1.00  0.00     0.091 A 
ATOM     76  F   UNL A   1      41.293  24.750  28.248  1.00  0.00    -0.205 F 
ATOM     77  C   UNL A   1      43.471  25.179  25.339  1.00  0.00     0.022 A 
BRANCH  75  78
ATOM     78  S   UNL A   1      42.313  22.811  26.079  1.00  0.00     0.127 S 
ATOM     79  O   UNL A   1      42.906  22.546  24.772  1.00  0.00    -0.237 OA
ATOM     80  O   UNL A   1      43.038  22.239  27.214  1.00  0.00    -0.237 OA
ATOM     81  O   UNL A   1      40.865  22.665  26.162  1.00  0.00    -0.744 OA
ENDBRANCH  75  78
ENDBRANCH  47  71
BRANCH  59  82
ATOM     82  C   UNL A   1      44.576  27.061  34.198  1.00  0.00     0.023 A 
ATOM     83  C   UNL A   1      45.770  27.752  34.484  1.00  0.00     0.012 A 
ATOM     84  C   UNL A   1      44.398  25.756  34.699  1.00  0.00     0.148 A 
ATOM     85  C   UNL A   1      46.783  27.143  35.225  1.00  0.00     0.002 A 
ATOM     86  C   UNL A   1      45.392  25.174  35.477  1.00  0.00     0.091 A 
ATOM     87  F   UNL A   1      43.264  25.103  34.401  1.00  0.00    -0.205 F 
ATOM     88  C   UNL A   1      46.590  25.860  35.730  1.00  0.00     0.022 A 
BRANCH  86  89
ATOM     89  S   UNL A   1      45.183  23.562  36.244  1.00  0.00     0.127 S 
ATOM     90  O   UNL A   1      43.854  23.176  35.773  1.00  0.00    -0.237 OA
ATOM     91  O   UNL A   1      46.284  22.792  35.664  1.00  0.00    -0.237 OA
ATOM     92  O   UNL A   1      45.302  23.789  37.679  1.00  0.00    -0.744 OA
ENDBRANCH  86  89
ENDBRANCH  59  82
ENDBRANCH  33  34
ENDBRANCH  26  28
ENDBRANCH  25  26
ENDBRANCH  24  25
ENDBRANCH  23  24
ENDBRANCH  22  23
ENDBRANCH   1  22
TORSDOF 22
ENDMDL
MODEL 2
REMARK VINA RESULT:     -10.0      1.077      7.887
REMARK SMILES C[C@H]1[C@H](C(=O)OCCOCCOC(=O)c2ccc(-c3c4nc(c(-c5cccc(S(=O)(=O)[O-])c5F)c5ccc([nH]5)c(-c5cccc(S(=O)(=O)[O-])c5F)c5nc(c(-c6cccc(S(=O)(=O)[O-])c6F)c6ccc3[nH]6)C=C5)C=C4)cc2)CCN1C(=O)CC[NH2+]C1CC1
REMARK SMILES IDX 8 1 7 2 6 3 4 4 5 5 3 6 1 7 2 8 80 9 78 10 79 11 81 12 82 13
REMARK SMILES IDX 83 14 84 15 85 16 86 19 87 20 88 21 9 22 10 23 11 24 12 25
REMARK SMILES IDX 13 26 14 27 15 28 16 29 77 30 17 31 76 32 18 33 19 34 20 35
REMARK SMILES IDX 70 36 21 37 75 38 69 39 71 40 22 41 74 42 68 43 67 44 23 46
REMARK SMILES IDX 55 47 35 48 54 49 36 50 39 51 53 52 72 53 37 54 38 55 52 57
REMARK SMILES IDX 73 58 40 59 24 60 25 61 33 62 26 63 28 64 34 65 27 66 29 67
REMARK SMILES IDX 30 68 31 69 32 70 56 71 57 72 65 73 58 74 60 75 66 76 59 77
REMARK SMILES IDX 61 78 62 79 63 80 64 81 41 82 42 83 50 84 43 85 45 86 51 87
REMARK SMILES IDX 44 88 46 89 47 90 48 91 49 92
REMARK H PARENT 85 17 85 18 71 45 39 56
REMARK Flexibility Score: inf
ROOT
ATOM      1  C   UNL A   1      31.561  28.074  23.785  1.00  0.00     0.202 C 
ENDROOT
BRANCH   1   2
ATOM      2  C   UNL A   1      30.703  26.824  23.561  1.00  0.00     0.261 C 
BRANCH   2   3
ATOM      3  O   UNL A   1      31.484  25.678  23.170  1.00  0.00    -0.463 OA
BRANCH   3   4
ATOM      4  C   UNL A   1      31.591  24.694  24.099  1.00  0.00     0.311 C 
ATOM      5  O   UNL A   1      30.657  24.228  24.741  1.00  0.00    -0.252 OA
BRANCH   4   6
ATOM      6  C   UNL A   1      33.008  24.212  24.305  1.00  0.00     0.123 C 
ATOM      7  C   UNL A   1      33.668  23.394  26.574  1.00  0.00     0.032 C 
ATOM      8  C   UNL A   1      33.188  22.960  25.187  1.00  0.00     0.096 C 
ATOM      9  N   UNL A   1      34.218  22.166  24.511  1.00  0.00    -0.339 N 
ATOM     10  C   UNL A   1      33.714  23.872  22.998  1.00  0.00     0.039 C 
ATOM     11  C   UNL A   1      34.824  22.932  23.440  1.00  0.00     0.121 C 
BRANCH   9  12
ATOM     12  C   UNL A   1      34.620  20.867  24.757  1.00  0.00     0.228 C 
ATOM     13  O   UNL A   1      35.808  20.589  24.943  1.00  0.00    -0.275 OA
BRANCH  12  14
ATOM     14  C   UNL A   1      33.576  19.760  24.780  1.00  0.00     0.161 C 
BRANCH  14  15
ATOM     15  C   UNL A   1      33.372  19.187  26.185  1.00  0.00     0.270 C 
BRANCH  15  16
ATOM     16  N   UNL A   1      32.566  17.957  26.150  1.00  0.00    -0.343 N 
ATOM     17  H   UNL A   1      31.595  18.217  25.976  1.00  0.00     0.346 HD
ATOM     18  H   UNL A   1      32.701  17.496  27.049  1.00  0.00     0.346 HD
BRANCH  16  19
ATOM     19  C   UNL A   1      32.976  16.997  25.121  1.00  0.00     0.182 C 
ATOM     20  C   UNL A   1      34.223  16.162  25.244  1.00  0.00     0.071 C 
ATOM     21  C   UNL A   1      32.881  15.526  25.442  1.00  0.00     0.071 C 
ENDBRANCH  16  19
ENDBRANCH  15  16
ENDBRANCH  14  15
ENDBRANCH  12  14
ENDBRANCH   9  12
ENDBRANCH   4   6
ENDBRANCH   3   4
ENDBRANCH   2   3
ENDBRANCH   1   2
BRANCH   1  22
ATOM     22  O   UNL A   1      31.381  28.758  25.025  1.00  0.00    -0.374 OA
BRANCH  22  23
ATOM     23  C   UNL A   1      32.296  29.808  25.327  1.00  0.00     0.202 C 
BRANCH  23  24
ATOM     24  C   UNL A   1      31.738  31.027  26.074  1.00  0.00     0.261 C 
BRANCH  24  25
ATOM     25  O   UNL A   1      32.358  31.205  27.360  1.00  0.00    -0.460 OA
BRANCH  25  26
ATOM     26  C   UNL A   1      33.212  32.258  27.425  1.00  0.00     0.338 C 
ATOM     27  O   UNL A   1      32.923  33.441  27.339  1.00  0.00    -0.246 OA
BRANCH  26  28
ATOM     28  C   UNL A   1      34.565  31.813  27.813  1.00  0.00     0.060 A 
ATOM     29  C   UNL A   1      34.721  30.456  28.119  1.00  0.00     0.016 A 
ATOM     30  C   UNL A   1      35.626  32.705  27.984  1.00  0.00     0.016 A 
ATOM     31  C   UNL A   1      35.912  29.997  28.672  1.00  0.00     0.010 A 
ATOM     32  C   UNL A   1      36.824  32.241  28.545  1.00  0.00     0.010 A 
ATOM     33  C   UNL A   1      36.952  30.897  28.940  1.00  0.00    -0.014 A 
BRANCH  33  34
ATOM     34  C   UNL A   1      38.080  30.444  29.794  1.00  0.00     0.031 A 
ATOM     35  C   UNL A   1      39.087  29.479  29.225  1.00  0.00     0.074 A 
ATOM     36  C   UNL A   1      38.247  30.936  31.035  1.00  0.00     0.049 A 
ATOM     37  N   UNL A   1      40.191  29.024  29.758  1.00  0.00    -0.248 NA
ATOM     38  C   UNL A   1      38.815  28.959  27.874  1.00  0.00     0.031 C 
ATOM     39  C   UNL A   1      37.344  31.873  31.701  1.00  0.00     0.029 A 
ATOM     40  N   UNL A   1      39.236  30.706  31.959  1.00  0.00    -0.354 N 
ATOM     41  C   UNL A   1      40.734  28.152  28.821  1.00  0.00     0.074 A 
ATOM     42  C   UNL A   1      39.828  28.125  27.693  1.00  0.00     0.031 C 
ATOM     43  C   UNL A   1      37.814  32.128  32.935  1.00  0.00     0.029 A 
ATOM     44  C   UNL A   1      39.045  31.369  33.147  1.00  0.00     0.049 A 
ATOM     45  H   UNL A   1      40.010  30.123  31.786  1.00  0.00     0.167 HD
ATOM     46  C   UNL A   1      41.894  27.455  28.879  1.00  0.00     0.034 A 
ATOM     47  C   UNL A   1      39.779  31.361  34.279  1.00  0.00     0.034 A 
ATOM     48  C   UNL A   1      42.809  27.501  29.986  1.00  0.00     0.049 A 
ATOM     49  C   UNL A   1      41.066  30.578  34.318  1.00  0.00     0.074 A 
ATOM     50  C   UNL A   1      44.031  26.866  30.120  1.00  0.00     0.029 A 
ATOM     51  N   UNL A   1      42.601  28.215  31.156  1.00  0.00    -0.354 N 
ATOM     52  N   UNL A   1      41.630  29.866  33.372  1.00  0.00    -0.248 NA
ATOM     53  C   UNL A   1      41.840  30.632  35.567  1.00  0.00     0.031 C 
ATOM     54  C   UNL A   1      44.554  27.182  31.379  1.00  0.00     0.029 A 
ATOM     55  C   UNL A   1      43.667  28.032  32.020  1.00  0.00     0.049 A 
ATOM     56  H   UNL A   1      41.811  28.771  31.344  1.00  0.00     0.167 HD
ATOM     57  C   UNL A   1      42.839  29.420  33.897  1.00  0.00     0.074 A 
ATOM     58  C   UNL A   1      42.935  29.962  35.237  1.00  0.00     0.031 C 
ATOM     59  C   UNL A   1      43.777  28.622  33.329  1.00  0.00     0.034 A 
BRANCH  46  60
ATOM     60  C   UNL A   1      42.258  26.609  27.687  1.00  0.00     0.023 A 
ATOM     61  C   UNL A   1      43.019  27.170  26.642  1.00  0.00     0.012 A 
ATOM     62  C   UNL A   1      41.891  25.250  27.623  1.00  0.00     0.148 A 
ATOM     63  C   UNL A   1      43.384  26.403  25.537  1.00  0.00     0.002 A 
ATOM     64  C   UNL A   1      42.294  24.481  26.538  1.00  0.00     0.091 A 
ATOM     65  F   UNL A   1      41.146  24.742  28.614  1.00  0.00    -0.205 F 
ATOM     66  C   UNL A   1      43.031  25.057  25.490  1.00  0.00     0.022 A 
BRANCH  64  67
ATOM     67  S   UNL A   1      41.951  22.721  26.421  1.00  0.00     0.127 S 
ATOM     68  O   UNL A   1      42.696  22.355  25.217  1.00  0.00    -0.237 OA
ATOM     69  O   UNL A   1      42.521  22.211  27.668  1.00  0.00    -0.237 OA
ATOM     70  O   UNL A   1      40.504  22.601  26.322  1.00  0.00    -0.744 OA
ENDBRANCH  64  67
ENDBRANCH  46  60
BRANCH  47  71
ATOM     71  C   UNL A   1      39.343  32.169  35.453  1.00  0.00     0.023 A 
ATOM     72  C   UNL A   1      38.467  31.605  36.401  1.00  0.00     0.012 A 
ATOM     73  C   UNL A   1      39.806  33.485  35.644  1.00  0.00     0.148 A 
ATOM     74  C   UNL A   1      38.035  32.348  37.500  1.00  0.00     0.002 A 
ATOM     75  C   UNL A   1      39.416  34.200  36.771  1.00  0.00     0.091 A 
ATOM     76  F   UNL A   1      40.624  34.012  34.721  1.00  0.00    -0.205 F 
ATOM     77  C   UNL A   1      38.517  33.640  37.691  1.00  0.00     0.022 A 
BRANCH  75  78
ATOM     78  S   UNL A   1      40.090  35.818  37.162  1.00  0.00     0.127 S 
ATOM     79  O   UNL A   1      39.351  36.168  38.371  1.00  0.00    -0.237 OA
ATOM     80  O   UNL A   1      41.506  35.513  37.370  1.00  0.00    -0.237 OA
ATOM     81  O   UNL A   1      39.824  36.646  35.992  1.00  0.00    -0.744 OA
ENDBRANCH  75  78
ENDBRANCH  47  71
BRANCH  59  82
ATOM     82  C   UNL A   1      45.010  28.308  34.137  1.00  0.00     0.023 A 
ATOM     83  C   UNL A   1      46.129  29.161  34.067  1.00  0.00     0.012 A 
ATOM     84  C   UNL A   1      45.039  27.204  35.012  1.00  0.00     0.148 A 
ATOM     85  C   UNL A   1      47.269  28.901  34.827  1.00  0.00     0.002 A 
ATOM     86  C   UNL A   1      46.160  26.977  35.801  1.00  0.00     0.091 A 
ATOM     87  F   UNL A   1      43.973  26.389  35.052  1.00  0.00    -0.205 F 
ATOM     88  C   UNL A   1      47.282  27.817  35.701  1.00  0.00     0.022 A 
BRANCH  86  89
ATOM     89  S   UNL A   1      46.219  25.659  37.022  1.00  0.00     0.127 S 
ATOM     90  O   UNL A   1      45.002  25.910  37.792  1.00  0.00    -0.237 OA
ATOM     91  O   UNL A   1      46.177  24.457  36.189  1.00  0.00    -0.237 OA
ATOM     92  O   UNL A   1      47.472  25.844  37.743  1.00  0.00    -0.744 OA
ENDBRANCH  86  89
ENDBRANCH  59  82
ENDBRANCH  33  34
ENDBRANCH  26  28
ENDBRANCH  25  26
ENDBRANCH  24  25
ENDBRANCH  23  24
ENDBRANCH  22  23
ENDBRANCH   1  22
TORSDOF 22
ENDMDL
MODEL 3
REMARK VINA RESULT:      -9.8      4.792      8.307
REMARK SMILES C[C@H]1[C@H](C(=O)OCCOCCOC(=O)c2ccc(-c3c4nc(c(-c5cccc(S(=O)(=O)[O-])c5F)c5ccc([nH]5)c(-c5cccc(S(=O)(=O)[O-])c5F)c5nc(c(-c6cccc(S(=O)(=O)[O-])c6F)c6ccc3[nH]6)C=C5)C=C4)cc2)CCN1C(=O)CC[NH2+]C1CC1
REMARK SMILES IDX 8 1 7 2 6 3 4 4 5 5 3 6 1 7 2 8 80 9 78 10 79 11 81 12 82 13
REMARK SMILES IDX 83 14 84 15 85 16 86 19 87 20 88 21 9 22 10 23 11 24 12 25
REMARK SMILES IDX 13 26 14 27 15 28 16 29 77 30 17 31 76 32 18 33 19 34 20 35
REMARK SMILES IDX 70 36 21 37 75 38 69 39 71 40 22 41 74 42 68 43 67 44 23 46
REMARK SMILES IDX 55 47 35 48 54 49 36 50 39 51 53 52 72 53 37 54 38 55 52 57
REMARK SMILES IDX 73 58 40 59 24 60 25 61 33 62 26 63 28 64 34 65 27 66 29 67
REMARK SMILES IDX 30 68 31 69 32 70 56 71 57 72 65 73 58 74 60 75 66 76 59 77
REMARK SMILES IDX 61 78 62 79 63 80 64 81 41 82 42 83 50 84 43 85 45 86 51 87
REMARK SMILES IDX 44 88 46 89 47 90 48 91 49 92
REMARK H PARENT 85 17 85 18 71 45 39 56
REMARK Flexibility Score: inf
ROOT
ATOM      1  C   UNL A   1      33.457  20.194  24.625  1.00  0.00     0.202 C 
ENDROOT
BRANCH   1   2
ATOM      2  C   UNL A   1      32.514  20.715  25.715  1.00  0.00     0.261 C 
BRANCH   2   3
ATOM      3  O   UNL A   1      31.465  21.549  25.188  1.00  0.00    -0.463 OA
BRANCH   3   4
ATOM      4  C   UNL A   1      31.353  22.781  25.750  1.00  0.00     0.311 C 
ATOM      5  O   UNL A   1      30.973  23.001  26.893  1.00  0.00    -0.252 OA
BRANCH   4   6
ATOM      6  C   UNL A   1      31.729  23.905  24.813  1.00  0.00     0.123 C 
ATOM      7  C   UNL A   1      29.976  25.581  24.204  1.00  0.00     0.032 C 
ATOM      8  C   UNL A   1      31.152  25.297  25.142  1.00  0.00     0.096 C 
ATOM      9  N   UNL A   1      32.251  26.232  24.888  1.00  0.00    -0.339 N 
ATOM     10  C   UNL A   1      33.235  24.121  24.722  1.00  0.00     0.039 C 
ATOM     11  C   UNL A   1      33.348  25.554  24.228  1.00  0.00     0.121 C 
BRANCH   9  12
ATOM     12  C   UNL A   1      32.347  27.574  25.207  1.00  0.00     0.228 C 
ATOM     13  O   UNL A   1      32.686  27.939  26.336  1.00  0.00    -0.275 OA
BRANCH  12  14
ATOM     14  C   UNL A   1      32.009  28.614  24.149  1.00  0.00     0.161 C 
BRANCH  14  15
ATOM     15  C   UNL A   1      31.039  29.676  24.672  1.00  0.00     0.270 C 
BRANCH  15  16
ATOM     16  N   UNL A   1      30.262  30.276  23.578  1.00  0.00    -0.343 N 
ATOM     17  H   UNL A   1      30.901  30.805  22.985  1.00  0.00     0.346 HD
ATOM     18  H   UNL A   1      29.549  30.860  24.014  1.00  0.00     0.346 HD
BRANCH  16  19
ATOM     19  C   UNL A   1      29.553  29.306  22.739  1.00  0.00     0.182 C 
ATOM     20  C   UNL A   1      28.204  28.748  23.110  1.00  0.00     0.071 C 
ATOM     21  C   UNL A   1      28.311  29.764  22.014  1.00  0.00     0.071 C 
ENDBRANCH  16  19
ENDBRANCH  15  16
ENDBRANCH  14  15
ENDBRANCH  12  14
ENDBRANCH   9  12
ENDBRANCH   4   6
ENDBRANCH   3   4
ENDBRANCH   2   3
ENDBRANCH   1   2
BRANCH   1  22
ATOM     22  O   UNL A   1      34.693  20.890  24.463  1.00  0.00    -0.374 OA
BRANCH  22  23
ATOM     23  C   UNL A   1      35.763  20.523  25.329  1.00  0.00     0.202 C 
BRANCH  23  24
ATOM     24  C   UNL A   1      36.772  21.620  25.695  1.00  0.00     0.261 C 
BRANCH  24  25
ATOM     25  O   UNL A   1      38.047  21.419  25.059  1.00  0.00    -0.460 OA
BRANCH  25  26
ATOM     26  C   UNL A   1      39.065  21.169  25.920  1.00  0.00     0.338 C 
ATOM     27  O   UNL A   1      39.669  20.117  26.054  1.00  0.00    -0.246 OA
BRANCH  26  28
ATOM     28  C   UNL A   1      39.513  22.412  26.580  1.00  0.00     0.060 A 
ATOM     29  C   UNL A   1      38.977  23.612  26.096  1.00  0.00     0.016 A 
ATOM     30  C   UNL A   1      40.504  22.423  27.563  1.00  0.00     0.016 A 
ATOM     31  C   UNL A   1      39.487  24.831  26.533  1.00  0.00     0.010 A 
ATOM     32  C   UNL A   1      41.019  23.652  28.000  1.00  0.00     0.010 A 
ATOM     33  C   UNL A   1      40.549  24.858  27.447  1.00  0.00    -0.014 A 
BRANCH  33  34
ATOM     34  C   UNL A   1      41.265  26.141  27.666  1.00  0.00     0.031 A 
ATOM     35  C   UNL A   1      40.572  27.245  28.422  1.00  0.00     0.074 A 
ATOM     36  C   UNL A   1      42.536  26.300  27.258  1.00  0.00     0.049 A 
ATOM     37  N   UNL A   1      41.037  28.406  28.802  1.00  0.00    -0.248 NA
ATOM     38  C   UNL A   1      39.169  27.007  28.802  1.00  0.00     0.031 C 
ATOM     39  C   UNL A   1      43.317  25.310  26.517  1.00  0.00     0.029 A 
ATOM     40  N   UNL A   1      43.394  27.362  27.409  1.00  0.00    -0.354 N 
ATOM     41  C   UNL A   1      39.984  29.045  29.446  1.00  0.00     0.074 A 
ATOM     42  C   UNL A   1      38.847  28.151  29.388  1.00  0.00     0.031 C 
ATOM     43  C   UNL A   1      44.535  25.819  26.264  1.00  0.00     0.029 A 
ATOM     44  C   UNL A   1      44.619  27.168  26.818  1.00  0.00     0.049 A 
ATOM     45  H   UNL A   1      43.154  28.184  27.894  1.00  0.00     0.167 HD
ATOM     46  C   UNL A   1      39.966  30.254  30.056  1.00  0.00     0.034 A 
ATOM     47  C   UNL A   1      45.686  27.989  26.734  1.00  0.00     0.034 A 
ATOM     48  C   UNL A   1      41.101  31.133  30.139  1.00  0.00     0.049 A 
ATOM     49  C   UNL A   1      45.643  29.330  27.420  1.00  0.00     0.074 A 
ATOM     50  C   UNL A   1      41.195  32.360  30.773  1.00  0.00     0.029 A 
ATOM     51  N   UNL A   1      42.337  30.886  29.564  1.00  0.00    -0.354 N 
ATOM     52  N   UNL A   1      44.682  29.860  28.139  1.00  0.00    -0.248 NA
ATOM     53  C   UNL A   1      46.846  30.168  27.320  1.00  0.00     0.031 C 
ATOM     54  C   UNL A   1      42.485  32.862  30.565  1.00  0.00     0.029 A 
ATOM     55  C   UNL A   1      43.199  31.937  29.821  1.00  0.00     0.049 A 
ATOM     56  H   UNL A   1      42.567  30.079  29.048  1.00  0.00     0.167 HD
ATOM     57  C   UNL A   1      45.178  31.073  28.606  1.00  0.00     0.074 A 
ATOM     58  C   UNL A   1      46.533  31.188  28.107  1.00  0.00     0.031 C 
ATOM     59  C   UNL A   1      44.564  32.014  29.365  1.00  0.00     0.034 A 
BRANCH  46  60
ATOM     60  C   UNL A   1      38.682  30.683  30.717  1.00  0.00     0.023 A 
ATOM     61  C   UNL A   1      38.493  30.440  32.092  1.00  0.00     0.012 A 
ATOM     62  C   UNL A   1      37.686  31.367  29.992  1.00  0.00     0.148 A 
ATOM     63  C   UNL A   1      37.321  30.843  32.731  1.00  0.00     0.002 A 
ATOM     64  C   UNL A   1      36.539  31.802  30.644  1.00  0.00     0.091 A 
ATOM     65  F   UNL A   1      37.873  31.566  28.679  1.00  0.00    -0.205 F 
ATOM     66  C   UNL A   1      36.350  31.533  32.010  1.00  0.00     0.022 A 
BRANCH  64  67
ATOM     67  S   UNL A   1      35.264  32.763  29.820  1.00  0.00     0.127 S 
ATOM     68  O   UNL A   1      34.326  33.010  30.915  1.00  0.00    -0.237 OA
ATOM     69  O   UNL A   1      36.004  33.942  29.374  1.00  0.00    -0.237 OA
ATOM     70  O   UNL A   1      34.761  31.920  28.744  1.00  0.00    -0.744 OA
ENDBRANCH  64  67
ENDBRANCH  46  60
BRANCH  47  71
ATOM     71  C   UNL A   1      46.913  27.541  26.016  1.00  0.00     0.023 A 
ATOM     72  C   UNL A   1      47.079  27.859  24.653  1.00  0.00     0.012 A 
ATOM     73  C   UNL A   1      47.922  26.818  26.679  1.00  0.00     0.148 A 
ATOM     74  C   UNL A   1      48.213  27.437  23.958  1.00  0.00     0.002 A 
ATOM     75  C   UNL A   1      49.075  26.449  25.994  1.00  0.00     0.091 A 
ATOM     76  F   UNL A   1      47.738  26.507  27.970  1.00  0.00    -0.205 F 
ATOM     77  C   UNL A   1      49.215  26.743  24.630  1.00  0.00     0.022 A 
BRANCH  75  78
ATOM     78  S   UNL A   1      50.470  25.668  26.814  1.00  0.00     0.127 S 
ATOM     79  O   UNL A   1      50.839  26.676  27.803  1.00  0.00    -0.237 OA
ATOM     80  O   UNL A   1      49.857  24.458  27.364  1.00  0.00    -0.237 OA
ATOM     81  O   UNL A   1      51.450  25.418  25.765  1.00  0.00    -0.744 OA
ENDBRANCH  75  78
ENDBRANCH  47  71
BRANCH  59  82
ATOM     82  C   UNL A   1      45.357  33.241  29.737  1.00  0.00     0.023 A 
ATOM     83  C   UNL A   1      46.347  33.159  30.735  1.00  0.00     0.012 A 
ATOM     84  C   UNL A   1      45.166  34.459  29.054  1.00  0.00     0.148 A 
ATOM     85  C   UNL A   1      47.109  34.277  31.074  1.00  0.00     0.002 A 
ATOM     86  C   UNL A   1      45.961  35.556  29.363  1.00  0.00     0.091 A 
ATOM     87  F   UNL A   1      44.205  34.526  28.119  1.00  0.00    -0.205 F 
ATOM     88  C   UNL A   1      46.924  35.471  30.382  1.00  0.00     0.022 A 
BRANCH  86  89
ATOM     89  S   UNL A   1      45.851  37.102  28.454  1.00  0.00     0.127 S 
ATOM     90  O   UNL A   1      46.743  37.967  29.224  1.00  0.00    -0.237 OA
ATOM     91  O   UNL A   1      46.357  36.727  27.133  1.00  0.00    -0.237 OA
ATOM     92  O   UNL A   1      44.442  37.472  28.472  1.00  0.00    -0.744 OA
ENDBRANCH  86  89
ENDBRANCH  59  82
ENDBRANCH  33  34
ENDBRANCH  26  28
ENDBRANCH  25  26
ENDBRANCH  24  25
ENDBRANCH  23  24
ENDBRANCH  22  23
ENDBRANCH   1  22
TORSDOF 22
ENDMDL
