MODEL 1
REMARK VINA RESULT:     -11.0      0.000      0.000
REMARK SMILES O=C(OCCOCCOC(=O)[C@@H]1[C@H](C(=O)Nc2ccccc2OC(F)F)[C@@H]2C=C[C@H]1C2)c1ccc(-c2c3nc(c(-c4cccc(S(=O)(=O)[O-])c4F)c4ccc([nH]4)c(-c4cccc(S(=O)(=O)[O-])c4F)c4nc(c(-c5cccc(S(=O)(=O)[O-])c5F)c5ccc2[nH]5)C=C4)C=C3)cc1
REMARK SMILES IDX 7 1 6 2 5 3 4 4 3 5 2 6 1 7 32 8 33 9 94 10 34 11 93 12
REMARK SMILES IDX 35 13 36 14 37 15 87 16 38 17 92 18 86 19 88 20 39 21 91 22
REMARK SMILES IDX 85 23 84 24 40 26 72 27 52 28 71 29 53 30 56 31 70 32 89 33
REMARK SMILES IDX 54 34 55 35 69 37 90 38 57 39 41 40 42 41 50 42 43 43 45 44
REMARK SMILES IDX 51 45 44 46 46 47 47 48 48 49 49 50 73 51 74 52 82 53 75 54
REMARK SMILES IDX 77 55 83 56 76 57 78 58 79 59 80 60 81 61 58 62 59 63 67 64
REMARK SMILES IDX 60 65 62 66 68 67 61 68 63 69 64 70 65 71 66 72 8 73 9 74
REMARK SMILES IDX 10 75 11 76 12 77 13 78 30 79 27 80 29 81 31 82 28 83 14 84
REMARK SMILES IDX 15 85 16 86 17 88 18 89 22 90 19 91 21 92 20 93 23 94 24 95
REMARK SMILES IDX 25 96 26 97
REMARK H PARENT 88 25 56 36 16 87
REMARK Flexibility Score: inf
ROOT
ATOM      1  C   UNL A   1      36.594  20.693  24.729  1.00  0.00     0.202 C 
ENDROOT
BRANCH   1   2
ATOM      2  O   UNL A   1      37.054  21.555  25.777  1.00  0.00    -0.374 OA
BRANCH   2   3
ATOM      3  C   UNL A   1      38.395  22.000  25.682  1.00  0.00     0.202 C 
BRANCH   3   4
ATOM      4  C   UNL A   1      39.517  20.987  26.051  1.00  0.00     0.261 C 
BRANCH   4   5
ATOM      5  O   UNL A   1      40.622  21.523  26.823  1.00  0.00    -0.460 OA
BRANCH   5   6
ATOM      6  C   UNL A   1      41.647  22.189  26.198  1.00  0.00     0.338 C 
ATOM      7  O   UNL A   1      42.266  21.725  25.251  1.00  0.00    -0.246 OA
BRANCH   6   8
ATOM      8  C   UNL A   1      41.923  23.527  26.760  1.00  0.00     0.060 A 
ATOM      9  C   UNL A   1      41.976  23.591  28.137  1.00  0.00     0.016 A 
ATOM     10  C   UNL A   1      41.847  24.698  26.007  1.00  0.00     0.016 A 
ATOM     11  C   UNL A   1      41.503  24.733  28.735  1.00  0.00     0.010 A 
ATOM     12  C   UNL A   1      41.753  25.928  26.680  1.00  0.00     0.010 A 
ATOM     13  C   UNL A   1      41.540  25.956  28.068  1.00  0.00    -0.014 A 
BRANCH  13  14
ATOM     14  C   UNL A   1      41.427  27.196  28.894  1.00  0.00     0.031 A 
ATOM     15  C   UNL A   1      42.511  27.589  29.855  1.00  0.00     0.074 A 
ATOM     16  C   UNL A   1      40.327  27.979  28.766  1.00  0.00     0.049 A 
ATOM     17  N   UNL A   1      42.430  28.387  30.884  1.00  0.00    -0.248 NA
ATOM     18  C   UNL A   1      43.844  26.989  29.669  1.00  0.00     0.031 C 
ATOM     19  C   UNL A   1      39.204  27.741  27.845  1.00  0.00     0.029 A 
ATOM     20  N   UNL A   1      39.965  29.151  29.381  1.00  0.00    -0.354 N 
ATOM     21  C   UNL A   1      43.642  28.273  31.553  1.00  0.00     0.074 A 
ATOM     22  C   UNL A   1      44.476  27.389  30.767  1.00  0.00     0.031 C 
ATOM     23  C   UNL A   1      38.380  28.788  27.838  1.00  0.00     0.029 A 
ATOM     24  C   UNL A   1      38.743  29.628  28.955  1.00  0.00     0.049 A 
ATOM     25  H   UNL A   1      40.519  29.603  30.058  1.00  0.00     0.167 HD
ATOM     26  C   UNL A   1      43.989  28.836  32.735  1.00  0.00     0.034 A 
ATOM     27  C   UNL A   1      37.909  30.542  29.479  1.00  0.00     0.034 A 
ATOM     28  C   UNL A   1      43.148  29.779  33.427  1.00  0.00     0.049 A 
ATOM     29  C   UNL A   1      38.320  31.162  30.772  1.00  0.00     0.074 A 
ATOM     30  C   UNL A   1      43.364  30.411  34.639  1.00  0.00     0.029 A 
ATOM     31  N   UNL A   1      41.932  30.248  32.943  1.00  0.00    -0.354 N 
ATOM     32  N   UNL A   1      39.421  30.969  31.455  1.00  0.00    -0.248 NA
ATOM     33  C   UNL A   1      37.374  32.099  31.380  1.00  0.00     0.031 C 
ATOM     34  C   UNL A   1      42.278  31.260  34.885  1.00  0.00     0.029 A 
ATOM     35  C   UNL A   1      41.394  31.174  33.818  1.00  0.00     0.049 A 
ATOM     36  H   UNL A   1      41.514  29.962  32.100  1.00  0.00     0.167 HD
ATOM     37  C   UNL A   1      39.309  31.766  32.580  1.00  0.00     0.074 A 
ATOM     38  C   UNL A   1      38.044  32.470  32.462  1.00  0.00     0.031 C 
ATOM     39  C   UNL A   1      40.155  31.885  33.631  1.00  0.00     0.034 A 
BRANCH  26  40
ATOM     40  C   UNL A   1      45.295  28.417  33.362  1.00  0.00     0.023 A 
ATOM     41  C   UNL A   1      46.476  29.144  33.116  1.00  0.00     0.012 A 
ATOM     42  C   UNL A   1      45.345  27.298  34.222  1.00  0.00     0.148 A 
ATOM     43  C   UNL A   1      47.689  28.743  33.681  1.00  0.00     0.002 A 
ATOM     44  C   UNL A   1      46.550  26.926  34.811  1.00  0.00     0.091 A 
ATOM     45  F   UNL A   1      44.218  26.603  34.432  1.00  0.00    -0.205 F 
ATOM     46  C   UNL A   1      47.724  27.641  34.531  1.00  0.00     0.022 A 
BRANCH  44  47
ATOM     47  S   UNL A   1      46.685  25.557  35.967  1.00  0.00     0.127 S 
ATOM     48  O   UNL A   1      48.104  25.606  36.316  1.00  0.00    -0.237 OA
ATOM     49  O   UNL A   1      45.780  25.967  37.040  1.00  0.00    -0.237 OA
ATOM     50  O   UNL A   1      46.261  24.371  35.236  1.00  0.00    -0.744 OA
ENDBRANCH  44  47
ENDBRANCH  26  40
BRANCH  27  51
ATOM     51  C   UNL A   1      36.601  30.831  28.818  1.00  0.00     0.023 A 
ATOM     52  C   UNL A   1      35.747  29.761  28.497  1.00  0.00     0.012 A 
ATOM     53  C   UNL A   1      36.147  32.152  28.611  1.00  0.00     0.148 A 
ATOM     54  C   UNL A   1      34.469  30.002  27.984  1.00  0.00     0.002 A 
ATOM     55  C   UNL A   1      34.846  32.385  28.178  1.00  0.00     0.091 A 
ATOM     56  F   UNL A   1      36.977  33.166  28.898  1.00  0.00    -0.205 F 
ATOM     57  C   UNL A   1      34.012  31.310  27.845  1.00  0.00     0.022 A 
BRANCH  55  58
ATOM     58  S   UNL A   1      34.128  34.034  28.172  1.00  0.00     0.127 S 
ATOM     59  O   UNL A   1      34.911  34.700  27.136  1.00  0.00    -0.237 OA
ATOM     60  O   UNL A   1      32.734  33.766  27.814  1.00  0.00    -0.237 OA
ATOM     61  O   UNL A   1      34.303  34.531  29.530  1.00  0.00    -0.744 OA
ENDBRANCH  55  58
ENDBRANCH  27  51
BRANCH  39  62
ATOM     62  C   UNL A   1      39.748  32.856  34.696  1.00  0.00     0.023 A 
ATOM     63  C   UNL A   1      40.052  34.223  34.553  1.00  0.00     0.012 A 
ATOM     64  C   UNL A   1      39.035  32.408  35.822  1.00  0.00     0.148 A 
ATOM     65  C   UNL A   1      39.673  35.131  35.538  1.00  0.00     0.002 A 
ATOM     66  C   UNL A   1      38.618  33.326  36.773  1.00  0.00     0.091 A 
ATOM     67  F   UNL A   1      38.793  31.095  35.947  1.00  0.00    -0.205 F 
ATOM     68  C   UNL A   1      38.946  34.686  36.639  1.00  0.00     0.022 A 
BRANCH  66  69
ATOM     69  S   UNL A   1      37.603  32.844  38.171  1.00  0.00     0.127 S 
ATOM     70  O   UNL A   1      38.103  33.728  39.222  1.00  0.00    -0.237 OA
ATOM     71  O   UNL A   1      36.254  33.157  37.699  1.00  0.00    -0.237 OA
ATOM     72  O   UNL A   1      37.854  31.423  38.373  1.00  0.00    -0.744 OA
ENDBRANCH  66  69
ENDBRANCH  39  62
ENDBRANCH  13  14
ENDBRANCH   6   8
ENDBRANCH   5   6
ENDBRANCH   4   5
ENDBRANCH   3   4
ENDBRANCH   2   3
ENDBRANCH   1   2
BRANCH   1  73
ATOM     73  C   UNL A   1      35.311  19.875  25.013  1.00  0.00     0.261 C 
BRANCH  73  74
ATOM     74  O   UNL A   1      34.123  20.400  24.336  1.00  0.00    -0.463 OA
BRANCH  74  75
ATOM     75  C   UNL A   1      32.979  20.533  25.088  1.00  0.00     0.310 C 
ATOM     76  O   UNL A   1      32.298  19.570  25.426  1.00  0.00    -0.252 OA
BRANCH  75  77
ATOM     77  C   UNL A   1      32.539  22.000  25.296  1.00  0.00     0.119 C 
ATOM     78  C   UNL A   1      32.855  23.410  24.601  1.00  0.00     0.100 C 
ATOM     79  C   UNL A   1      32.764  22.354  26.807  1.00  0.00     0.027 C 
ATOM     80  C   UNL A   1      33.132  24.327  25.838  1.00  0.00     0.025 C 
ATOM     81  C   UNL A   1      34.214  22.709  27.041  1.00  0.00    -0.027 C 
ATOM     82  C   UNL A   1      32.168  23.761  26.877  1.00  0.00     0.017 C 
ATOM     83  C   UNL A   1      34.429  23.905  26.478  1.00  0.00    -0.027 C 
BRANCH  78  84
ATOM     84  C   UNL A   1      33.659  24.067  23.429  1.00  0.00     0.229 C 
ATOM     85  O   UNL A   1      34.355  23.314  22.724  1.00  0.00    -0.274 OA
ATOM     86  N   UNL A   1      33.517  25.332  22.932  1.00  0.00    -0.323 N 
ATOM     87  H   UNL A   1      33.747  25.435  21.980  1.00  0.00     0.170 HD
BRANCH  86  88
ATOM     88  C   UNL A   1      33.094  26.497  23.565  1.00  0.00     0.084 A 
ATOM     89  C   UNL A   1      33.904  27.153  24.495  1.00  0.00     0.030 A 
ATOM     90  C   UNL A   1      31.855  27.013  23.284  1.00  0.00     0.149 A 
ATOM     91  C   UNL A   1      33.571  28.445  24.920  1.00  0.00     0.002 A 
ATOM     92  C   UNL A   1      31.611  28.365  23.550  1.00  0.00     0.049 A 
ATOM     93  C   UNL A   1      32.463  29.083  24.381  1.00  0.00     0.004 A 
BRANCH  90  94
ATOM     94  O   UNL A   1      30.866  26.245  22.748  1.00  0.00    -0.433 OA
BRANCH  94  95
ATOM     95  C   UNL A   1      29.823  25.644  23.547  1.00  0.00     0.542 C 
ATOM     96  F   UNL A   1      30.332  24.539  24.140  1.00  0.00    -0.167 F 
ATOM     97  F   UNL A   1      29.344  26.472  24.498  1.00  0.00    -0.167 F 
ENDBRANCH  94  95
ENDBRANCH  90  94
ENDBRANCH  86  88
ENDBRANCH  78  84
ENDBRANCH  75  77
ENDBRANCH  74  75
ENDBRANCH  73  74
ENDBRANCH   1  73
TORSDOF 21
ENDMDL
MODEL 2
REMARK VINA RESULT:     -10.8      4.932      6.755
REMARK SMILES O=C(OCCOCCOC(=O)[C@@H]1[C@H](C(=O)Nc2ccccc2OC(F)F)[C@@H]2C=C[C@H]1C2)c1ccc(-c2c3nc(c(-c4cccc(S(=O)(=O)[O-])c4F)c4ccc([nH]4)c(-c4cccc(S(=O)(=O)[O-])c4F)c4nc(c(-c5cccc(S(=O)(=O)[O-])c5F)c5ccc2[nH]5)C=C4)C=C3)cc1
REMARK SMILES IDX 7 1 6 2 5 3 4 4 3 5 2 6 1 7 32 8 33 9 94 10 34 11 93 12
REMARK SMILES IDX 35 13 36 14 37 15 87 16 38 17 92 18 86 19 88 20 39 21 91 22
REMARK SMILES IDX 85 23 84 24 40 26 72 27 52 28 71 29 53 30 56 31 70 32 89 33
REMARK SMILES IDX 54 34 55 35 69 37 90 38 57 39 41 40 42 41 50 42 43 43 45 44
REMARK SMILES IDX 51 45 44 46 46 47 47 48 48 49 49 50 73 51 74 52 82 53 75 54
REMARK SMILES IDX 77 55 83 56 76 57 78 58 79 59 80 60 81 61 58 62 59 63 67 64
REMARK SMILES IDX 60 65 62 66 68 67 61 68 63 69 64 70 65 71 66 72 8 73 9 74
REMARK SMILES IDX 10 75 11 76 12 77 13 78 30 79 27 80 29 81 31 82 28 83 14 84
REMARK SMILES IDX 15 85 16 86 17 88 18 89 22 90 19 91 21 92 20 93 23 94 24 95
REMARK SMILES IDX 25 96 26 97
REMARK H PARENT 88 25 56 36 16 87
REMARK Flexibility Score: inf
ROOT
ATOM      1  C   UNL A   1      37.024  21.899  24.248  1.00  0.00     0.202 C 
ENDROOT
BRANCH   1   2
ATOM      2  O   UNL A   1      37.726  20.663  24.427  1.00  0.00    -0.374 OA
BRANCH   2   3
ATOM      3  C   UNL A   1      38.581  20.582  25.553  1.00  0.00     0.202 C 
BRANCH   3   4
ATOM      4  C   UNL A   1      39.317  19.234  25.802  1.00  0.00     0.261 C 
BRANCH   4   5
ATOM      5  O   UNL A   1      40.733  19.222  25.490  1.00  0.00    -0.460 OA
BRANCH   5   6
ATOM      6  C   UNL A   1      41.659  19.550  26.451  1.00  0.00     0.338 C 
ATOM      7  O   UNL A   1      42.442  18.742  26.928  1.00  0.00    -0.246 OA
BRANCH   6   8
ATOM      8  C   UNL A   1      41.634  20.974  26.844  1.00  0.00     0.060 A 
ATOM      9  C   UNL A   1      41.386  21.867  25.822  1.00  0.00     0.016 A 
ATOM     10  C   UNL A   1      42.108  21.432  28.073  1.00  0.00     0.016 A 
ATOM     11  C   UNL A   1      42.026  23.081  25.875  1.00  0.00     0.010 A 
ATOM     12  C   UNL A   1      42.395  22.799  28.219  1.00  0.00     0.010 A 
ATOM     13  C   UNL A   1      42.392  23.642  27.096  1.00  0.00    -0.014 A 
BRANCH  13  14
ATOM     14  C   UNL A   1      42.675  25.109  27.123  1.00  0.00     0.031 A 
ATOM     15  C   UNL A   1      43.912  25.672  26.484  1.00  0.00     0.074 A 
ATOM     16  C   UNL A   1      41.795  25.943  27.731  1.00  0.00     0.049 A 
ATOM     17  N   UNL A   1      44.496  26.815  26.719  1.00  0.00    -0.248 NA
ATOM     18  C   UNL A   1      44.608  24.841  25.486  1.00  0.00     0.031 C 
ATOM     19  C   UNL A   1      40.530  25.543  28.367  1.00  0.00     0.029 A 
ATOM     20  N   UNL A   1      41.797  27.305  27.902  1.00  0.00    -0.354 N 
ATOM     21  C   UNL A   1      45.695  26.782  26.020  1.00  0.00     0.074 A 
ATOM     22  C   UNL A   1      45.721  25.536  25.284  1.00  0.00     0.031 C 
ATOM     23  C   UNL A   1      39.820  26.619  28.705  1.00  0.00     0.029 A 
ATOM     24  C   UNL A   1      40.693  27.763  28.589  1.00  0.00     0.049 A 
ATOM     25  H   UNL A   1      42.514  27.893  27.569  1.00  0.00     0.167 HD
ATOM     26  C   UNL A   1      46.687  27.705  26.038  1.00  0.00     0.034 A 
ATOM     27  C   UNL A   1      40.446  28.932  29.206  1.00  0.00     0.034 A 
ATOM     28  C   UNL A   1      46.566  28.967  26.721  1.00  0.00     0.049 A 
ATOM     29  C   UNL A   1      41.546  29.939  29.197  1.00  0.00     0.074 A 
ATOM     30  C   UNL A   1      47.495  29.985  26.840  1.00  0.00     0.029 A 
ATOM     31  N   UNL A   1      45.420  29.395  27.382  1.00  0.00    -0.354 N 
ATOM     32  N   UNL A   1      42.721  29.859  28.624  1.00  0.00    -0.248 NA
ATOM     33  C   UNL A   1      41.304  31.180  29.935  1.00  0.00     0.031 C 
ATOM     34  C   UNL A   1      46.910  31.025  27.572  1.00  0.00     0.029 A 
ATOM     35  C   UNL A   1      45.609  30.666  27.894  1.00  0.00     0.049 A 
ATOM     36  H   UNL A   1      44.594  28.869  27.474  1.00  0.00     0.167 HD
ATOM     37  C   UNL A   1      43.368  31.044  28.926  1.00  0.00     0.074 A 
ATOM     38  C   UNL A   1      42.432  31.838  29.704  1.00  0.00     0.031 C 
ATOM     39  C   UNL A   1      44.628  31.434  28.618  1.00  0.00     0.034 A 
BRANCH  26  40
ATOM     40  C   UNL A   1      47.983  27.365  25.345  1.00  0.00     0.023 A 
ATOM     41  C   UNL A   1      49.047  26.782  26.060  1.00  0.00     0.012 A 
ATOM     42  C   UNL A   1      48.137  27.611  23.963  1.00  0.00     0.148 A 
ATOM     43  C   UNL A   1      50.254  26.487  25.421  1.00  0.00     0.002 A 
ATOM     44  C   UNL A   1      49.329  27.281  23.327  1.00  0.00     0.091 A 
ATOM     45  F   UNL A   1      47.122  28.185  23.299  1.00  0.00    -0.205 F 
ATOM     46  C   UNL A   1      50.393  26.730  24.057  1.00  0.00     0.022 A 
BRANCH  44  47
ATOM     47  S   UNL A   1      49.581  27.500  21.561  1.00  0.00     0.127 S 
ATOM     48  O   UNL A   1      49.571  28.958  21.441  1.00  0.00    -0.237 OA
ATOM     49  O   UNL A   1      50.891  26.882  21.356  1.00  0.00    -0.237 OA
ATOM     50  O   UNL A   1      48.477  26.810  20.909  1.00  0.00    -0.744 OA
ENDBRANCH  44  47
ENDBRANCH  26  40
BRANCH  27  51
ATOM     51  C   UNL A   1      39.157  29.140  29.929  1.00  0.00     0.023 A 
ATOM     52  C   UNL A   1      38.983  28.559  31.197  1.00  0.00     0.012 A 
ATOM     53  C   UNL A   1      38.153  30.000  29.430  1.00  0.00     0.148 A 
ATOM     54  C   UNL A   1      37.837  28.827  31.951  1.00  0.00     0.002 A 
ATOM     55  C   UNL A   1      37.056  30.326  30.219  1.00  0.00     0.091 A 
ATOM     56  F   UNL A   1      38.317  30.533  28.210  1.00  0.00    -0.205 F 
ATOM     57  C   UNL A   1      36.886  29.725  31.473  1.00  0.00     0.022 A 
BRANCH  55  58
ATOM     58  S   UNL A   1      35.904  31.626  29.752  1.00  0.00     0.127 S 
ATOM     59  O   UNL A   1      35.087  30.958  28.744  1.00  0.00    -0.237 OA
ATOM     60  O   UNL A   1      35.218  31.903  31.016  1.00  0.00    -0.237 OA
ATOM     61  O   UNL A   1      36.738  32.724  29.280  1.00  0.00    -0.744 OA
ENDBRANCH  55  58
ENDBRANCH  27  51
BRANCH  39  62
ATOM     62  C   UNL A   1      45.026  32.800  29.085  1.00  0.00     0.023 A 
ATOM     63  C   UNL A   1      45.752  32.947  30.282  1.00  0.00     0.012 A 
ATOM     64  C   UNL A   1      44.704  33.930  28.313  1.00  0.00     0.148 A 
ATOM     65  C   UNL A   1      46.130  34.214  30.720  1.00  0.00     0.002 A 
ATOM     66  C   UNL A   1      45.126  35.182  28.731  1.00  0.00     0.091 A 
ATOM     67  F   UNL A   1      43.980  33.759  27.197  1.00  0.00    -0.205 F 
ATOM     68  C   UNL A   1      45.829  35.328  29.939  1.00  0.00     0.022 A 
BRANCH  66  69
ATOM     69  S   UNL A   1      44.856  36.651  27.738  1.00  0.00     0.127 S 
ATOM     70  O   UNL A   1      45.540  37.674  28.526  1.00  0.00    -0.237 OA
ATOM     71  O   UNL A   1      45.518  36.303  26.481  1.00  0.00    -0.237 OA
ATOM     72  O   UNL A   1      43.410  36.799  27.634  1.00  0.00    -0.744 OA
ENDBRANCH  66  69
ENDBRANCH  39  62
ENDBRANCH  13  14
ENDBRANCH   6   8
ENDBRANCH   5   6
ENDBRANCH   4   5
ENDBRANCH   3   4
ENDBRANCH   2   3
ENDBRANCH   1   2
BRANCH   1  73
ATOM     73  C   UNL A   1      35.548  21.934  24.714  1.00  0.00     0.261 C 
BRANCH  73  74
ATOM     74  O   UNL A   1      35.276  22.973  25.711  1.00  0.00    -0.463 OA
BRANCH  74  75
ATOM     75  C   UNL A   1      34.419  23.984  25.346  1.00  0.00     0.310 C 
ATOM     76  O   UNL A   1      34.739  25.168  25.394  1.00  0.00    -0.252 OA
BRANCH  75  77
ATOM     77  C   UNL A   1      32.978  23.505  25.059  1.00  0.00     0.119 C 
ATOM     78  C   UNL A   1      31.522  24.177  25.027  1.00  0.00     0.100 C 
ATOM     79  C   UNL A   1      32.708  22.247  25.955  1.00  0.00     0.027 C 
ATOM     80  C   UNL A   1      30.673  23.150  25.847  1.00  0.00     0.025 C 
ATOM     81  C   UNL A   1      32.331  22.683  27.352  1.00  0.00    -0.027 C 
ATOM     82  C   UNL A   1      31.322  21.822  25.466  1.00  0.00     0.017 C 
ATOM     83  C   UNL A   1      31.100  23.206  27.290  1.00  0.00    -0.027 C 
BRANCH  78  84
ATOM     84  C   UNL A   1      30.779  25.542  25.204  1.00  0.00     0.229 C 
ATOM     85  O   UNL A   1      29.660  25.516  25.750  1.00  0.00    -0.274 OA
ATOM     86  N   UNL A   1      31.298  26.797  25.046  1.00  0.00    -0.323 N 
ATOM     87  H   UNL A   1      30.874  27.496  25.595  1.00  0.00     0.170 HD
BRANCH  86  88
ATOM     88  C   UNL A   1      32.336  27.236  24.229  1.00  0.00     0.084 A 
ATOM     89  C   UNL A   1      32.562  26.667  22.974  1.00  0.00     0.030 A 
ATOM     90  C   UNL A   1      33.164  28.241  24.662  1.00  0.00     0.149 A 
ATOM     91  C   UNL A   1      33.436  27.290  22.074  1.00  0.00     0.002 A 
ATOM     92  C   UNL A   1      33.887  28.973  23.715  1.00  0.00     0.049 A 
ATOM     93  C   UNL A   1      34.037  28.493  22.419  1.00  0.00     0.004 A 
BRANCH  90  94
ATOM     94  O   UNL A   1      33.290  28.543  25.984  1.00  0.00    -0.433 OA
BRANCH  94  95
ATOM     95  C   UNL A   1      32.515  29.578  26.627  1.00  0.00     0.542 C 
ATOM     96  F   UNL A   1      32.198  30.507  25.695  1.00  0.00    -0.167 F 
ATOM     97  F   UNL A   1      31.380  29.114  27.189  1.00  0.00    -0.167 F 
ENDBRANCH  94  95
ENDBRANCH  90  94
ENDBRANCH  86  88
ENDBRANCH  78  84
ENDBRANCH  75  77
ENDBRANCH  74  75
ENDBRANCH  73  74
ENDBRANCH   1  73
TORSDOF 21
ENDMDL
MODEL 3
REMARK VINA RESULT:     -10.2      5.098      8.421
REMARK SMILES O=C(OCCOCCOC(=O)[C@@H]1[C@H](C(=O)Nc2ccccc2OC(F)F)[C@@H]2C=C[C@H]1C2)c1ccc(-c2c3nc(c(-c4cccc(S(=O)(=O)[O-])c4F)c4ccc([nH]4)c(-c4cccc(S(=O)(=O)[O-])c4F)c4nc(c(-c5cccc(S(=O)(=O)[O-])c5F)c5ccc2[nH]5)C=C4)C=C3)cc1
REMARK SMILES IDX 7 1 6 2 5 3 4 4 3 5 2 6 1 7 32 8 33 9 94 10 34 11 93 12
REMARK SMILES IDX 35 13 36 14 37 15 87 16 38 17 92 18 86 19 88 20 39 21 91 22
REMARK SMILES IDX 85 23 84 24 40 26 72 27 52 28 71 29 53 30 56 31 70 32 89 33
REMARK SMILES IDX 54 34 55 35 69 37 90 38 57 39 41 40 42 41 50 42 43 43 45 44
REMARK SMILES IDX 51 45 44 46 46 47 47 48 48 49 49 50 73 51 74 52 82 53 75 54
REMARK SMILES IDX 77 55 83 56 76 57 78 58 79 59 80 60 81 61 58 62 59 63 67 64
REMARK SMILES IDX 60 65 62 66 68 67 61 68 63 69 64 70 65 71 66 72 8 73 9 74
REMARK SMILES IDX 10 75 11 76 12 77 13 78 30 79 27 80 29 81 31 82 28 83 14 84
REMARK SMILES IDX 15 85 16 86 17 88 18 89 22 90 19 91 21 92 20 93 23 94 24 95
REMARK SMILES IDX 25 96 26 97
REMARK H PARENT 88 25 56 36 16 87
REMARK Flexibility Score: inf
ROOT
ATOM      1  C   UNL A   1      36.158  21.465  24.759  1.00  0.00     0.202 C 
ENDROOT
BRANCH   1   2
ATOM      2  O   UNL A   1      36.745  22.221  25.826  1.00  0.00    -0.374 OA
BRANCH   2   3
ATOM      3  C   UNL A   1      38.129  22.501  25.711  1.00  0.00     0.202 C 
BRANCH   3   4
ATOM      4  C   UNL A   1      39.112  21.296  25.757  1.00  0.00     0.261 C 
BRANCH   4   5
ATOM      5  O   UNL A   1      40.151  21.369  26.767  1.00  0.00    -0.460 OA
BRANCH   5   6
ATOM      6  C   UNL A   1      41.352  21.974  26.486  1.00  0.00     0.338 C 
ATOM      7  O   UNL A   1      42.115  21.573  25.619  1.00  0.00    -0.246 OA
BRANCH   6   8
ATOM      8  C   UNL A   1      41.629  23.166  27.313  1.00  0.00     0.060 A 
ATOM      9  C   UNL A   1      41.358  24.379  26.714  1.00  0.00     0.016 A 
ATOM     10  C   UNL A   1      42.377  23.118  28.489  1.00  0.00     0.016 A 
ATOM     11  C   UNL A   1      42.188  25.431  27.016  1.00  0.00     0.010 A 
ATOM     12  C   UNL A   1      42.904  24.313  29.003  1.00  0.00     0.010 A 
ATOM     13  C   UNL A   1      42.846  25.493  28.242  1.00  0.00    -0.014 A 
BRANCH  13  14
ATOM     14  C   UNL A   1      43.366  26.823  28.680  1.00  0.00     0.031 A 
ATOM     15  C   UNL A   1      42.474  27.817  29.366  1.00  0.00     0.074 A 
ATOM     16  C   UNL A   1      44.668  27.132  28.456  1.00  0.00     0.049 A 
ATOM     17  N   UNL A   1      42.635  29.107  29.478  1.00  0.00    -0.248 NA
ATOM     18  C   UNL A   1      41.229  27.317  29.973  1.00  0.00     0.031 C 
ATOM     19  C   UNL A   1      45.665  26.250  27.828  1.00  0.00     0.029 A 
ATOM     20  N   UNL A   1      45.403  28.254  28.747  1.00  0.00    -0.354 N 
ATOM     21  C   UNL A   1      41.456  29.593  30.027  1.00  0.00     0.074 A 
ATOM     22  C   UNL A   1      40.616  28.448  30.304  1.00  0.00     0.031 C 
ATOM     23  C   UNL A   1      46.882  26.784  27.924  1.00  0.00     0.029 A 
ATOM     24  C   UNL A   1      46.717  28.157  28.343  1.00  0.00     0.049 A 
ATOM     25  H   UNL A   1      45.029  29.046  29.196  1.00  0.00     0.167 HD
ATOM     26  C   UNL A   1      41.114  30.887  30.235  1.00  0.00     0.034 A 
ATOM     27  C   UNL A   1      47.670  29.089  28.170  1.00  0.00     0.034 A 
ATOM     28  C   UNL A   1      42.028  31.980  30.021  1.00  0.00     0.049 A 
ATOM     29  C   UNL A   1      47.276  30.505  28.423  1.00  0.00     0.074 A 
ATOM     30  C   UNL A   1      41.811  33.338  30.172  1.00  0.00     0.029 A 
ATOM     31  N   UNL A   1      43.355  31.829  29.635  1.00  0.00    -0.354 N 
ATOM     32  N   UNL A   1      46.124  30.969  28.840  1.00  0.00    -0.248 NA
ATOM     33  C   UNL A   1      48.293  31.524  28.161  1.00  0.00     0.031 C 
ATOM     34  C   UNL A   1      43.007  34.004  29.876  1.00  0.00     0.029 A 
ATOM     35  C   UNL A   1      43.975  33.063  29.560  1.00  0.00     0.049 A 
ATOM     36  H   UNL A   1      43.790  30.968  29.441  1.00  0.00     0.167 HD
ATOM     37  C   UNL A   1      46.272  32.343  28.896  1.00  0.00     0.074 A 
ATOM     38  C   UNL A   1      47.642  32.627  28.504  1.00  0.00     0.031 C 
ATOM     39  C   UNL A   1      45.356  33.289  29.213  1.00  0.00     0.034 A 
BRANCH  26  40
ATOM     40  C   UNL A   1      39.701  31.186  30.669  1.00  0.00     0.023 A 
ATOM     41  C   UNL A   1      38.643  31.155  29.739  1.00  0.00     0.012 A 
ATOM     42  C   UNL A   1      39.419  31.481  32.021  1.00  0.00     0.148 A 
ATOM     43  C   UNL A   1      37.338  31.451  30.138  1.00  0.00     0.002 A 
ATOM     44  C   UNL A   1      38.110  31.740  32.417  1.00  0.00     0.091 A 
ATOM     45  F   UNL A   1      40.437  31.527  32.891  1.00  0.00    -0.205 F 
ATOM     46  C   UNL A   1      37.071  31.737  31.475  1.00  0.00     0.022 A 
BRANCH  44  47
ATOM     47  S   UNL A   1      37.658  32.059  34.127  1.00  0.00     0.127 S 
ATOM     48  O   UNL A   1      36.238  32.383  34.000  1.00  0.00    -0.237 OA
ATOM     49  O   UNL A   1      37.934  30.772  34.766  1.00  0.00    -0.237 OA
ATOM     50  O   UNL A   1      38.512  33.151  34.571  1.00  0.00    -0.744 OA
ENDBRANCH  44  47
ENDBRANCH  26  40
BRANCH  27  51
ATOM     51  C   UNL A   1      49.019  28.697  27.664  1.00  0.00     0.023 A 
ATOM     52  C   UNL A   1      50.061  28.486  28.584  1.00  0.00     0.012 A 
ATOM     53  C   UNL A   1      49.250  28.420  26.298  1.00  0.00     0.148 A 
ATOM     54  C   UNL A   1      51.302  28.009  28.156  1.00  0.00     0.002 A 
ATOM     55  C   UNL A   1      50.460  27.868  25.891  1.00  0.00     0.091 A 
ATOM     56  F   UNL A   1      48.258  28.646  25.423  1.00  0.00    -0.205 F 
ATOM     57  C   UNL A   1      51.495  27.680  26.816  1.00  0.00     0.022 A 
BRANCH  55  58
ATOM     58  S   UNL A   1      50.701  27.234  24.225  1.00  0.00     0.127 S 
ATOM     59  O   UNL A   1      49.586  26.304  24.092  1.00  0.00    -0.237 OA
ATOM     60  O   UNL A   1      50.593  28.447  23.411  1.00  0.00    -0.237 OA
ATOM     61  O   UNL A   1      52.034  26.645  24.230  1.00  0.00    -0.744 OA
ENDBRANCH  55  58
ENDBRANCH  27  51
BRANCH  39  62
ATOM     62  C   UNL A   1      45.840  34.705  29.195  1.00  0.00     0.023 A 
ATOM     63  C   UNL A   1      45.756  35.460  28.010  1.00  0.00     0.012 A 
ATOM     64  C   UNL A   1      46.349  35.292  30.368  1.00  0.00     0.148 A 
ATOM     65  C   UNL A   1      46.201  36.780  27.987  1.00  0.00     0.002 A 
ATOM     66  C   UNL A   1      46.745  36.620  30.349  1.00  0.00     0.091 A 
ATOM     67  F   UNL A   1      46.451  34.535  31.470  1.00  0.00    -0.205 F 
ATOM     68  C   UNL A   1      46.682  37.362  29.157  1.00  0.00     0.022 A 
BRANCH  66  69
ATOM     69  S   UNL A   1      47.289  37.465  31.834  1.00  0.00     0.127 S 
ATOM     70  O   UNL A   1      47.510  38.823  31.340  1.00  0.00    -0.237 OA
ATOM     71  O   UNL A   1      46.134  37.316  32.719  1.00  0.00    -0.237 OA
ATOM     72  O   UNL A   1      48.482  36.756  32.279  1.00  0.00    -0.744 OA
ENDBRANCH  66  69
ENDBRANCH  39  62
ENDBRANCH  13  14
ENDBRANCH   6   8
ENDBRANCH   5   6
ENDBRANCH   4   5
ENDBRANCH   3   4
ENDBRANCH   2   3
ENDBRANCH   1   2
BRANCH   1  73
ATOM     73  C   UNL A   1      34.830  20.734  25.072  1.00  0.00     0.261 C 
BRANCH  73  74
ATOM     74  O   UNL A   1      33.733  21.108  24.176  1.00  0.00    -0.463 OA
BRANCH  74  75
ATOM     75  C   UNL A   1      32.462  21.091  24.698  1.00  0.00     0.310 C 
ATOM     76  O   UNL A   1      31.860  20.047  24.931  1.00  0.00    -0.252 OA
BRANCH  75  77
ATOM     77  C   UNL A   1      31.805  22.487  24.782  1.00  0.00     0.119 C 
ATOM     78  C   UNL A   1      32.229  23.987  24.405  1.00  0.00     0.100 C 
ATOM     79  C   UNL A   1      31.285  22.681  26.248  1.00  0.00     0.027 C 
ATOM     80  C   UNL A   1      31.812  24.775  25.692  1.00  0.00     0.025 C 
ATOM     81  C   UNL A   1      32.423  23.115  27.143  1.00  0.00    -0.027 C 
ATOM     82  C   UNL A   1      30.559  24.023  26.133  1.00  0.00     0.017 C 
ATOM     83  C   UNL A   1      32.724  24.380  26.823  1.00  0.00    -0.027 C 
BRANCH  78  84
ATOM     84  C   UNL A   1      33.388  24.831  23.779  1.00  0.00     0.229 C 
ATOM     85  O   UNL A   1      34.514  24.304  23.726  1.00  0.00    -0.274 OA
ATOM     86  N   UNL A   1      33.278  25.994  23.067  1.00  0.00    -0.323 N 
ATOM     87  H   UNL A   1      33.988  26.144  22.402  1.00  0.00     0.170 HD
BRANCH  86  88
ATOM     88  C   UNL A   1      32.314  26.995  23.138  1.00  0.00     0.084 A 
ATOM     89  C   UNL A   1      31.257  27.051  22.227  1.00  0.00     0.030 A 
ATOM     90  C   UNL A   1      32.400  27.955  24.114  1.00  0.00     0.149 A 
ATOM     91  C   UNL A   1      30.170  27.900  22.471  1.00  0.00     0.002 A 
ATOM     92  C   UNL A   1      31.246  28.662  24.468  1.00  0.00     0.049 A 
ATOM     93  C   UNL A   1      30.130  28.648  23.640  1.00  0.00     0.004 A 
BRANCH  90  94
ATOM     94  O   UNL A   1      33.575  28.227  24.746  1.00  0.00    -0.433 OA
BRANCH  94  95
ATOM     95  C   UNL A   1      33.641  28.656  26.124  1.00  0.00     0.542 C 
ATOM     96  F   UNL A   1      33.120  27.675  26.896  1.00  0.00    -0.167 F 
ATOM     97  F   UNL A   1      34.899  28.918  26.535  1.00  0.00    -0.167 F 
ENDBRANCH  94  95
ENDBRANCH  90  94
ENDBRANCH  86  88
ENDBRANCH  78  84
ENDBRANCH  75  77
ENDBRANCH  74  75
ENDBRANCH  73  74
ENDBRANCH   1  73
TORSDOF 21
ENDMDL
