MODEL 1
REMARK VINA RESULT:     -12.0      0.000      0.000
REMARK SMILES Cc1ccc(S(=O)(=O)n2cc(C(=O)C(=O)N[C@@H](Cc3cnc[nH]3)C(=O)OCCOCCOC(=O)c3ccc(-c4c5nc(c(-c6cccc(S(=O)(=O)[O-])c6F)c6ccc([nH]6)c(-c6cccc(S(=O)(=O)[O-])c6F)c6nc(c(-c7cccc(S(=O)(=O)[O-])c7F)c7ccc4[nH]7)C=C6)C=C5)cc3)c3ccccc32)cc1
REMARK SMILES IDX 28 1 27 2 26 3 24 4 25 5 17 6 16 7 14 8 15 9 12 11 13 12
REMARK SMILES IDX 11 13 9 14 10 15 103 16 98 17 102 18 99 19 101 20 100 21
REMARK SMILES IDX 6 22 7 23 8 24 5 25 1 26 2 27 3 28 105 29 4 30 104 31 18 32
REMARK SMILES IDX 19 33 20 34 23 35 21 36 22 37 29 39 30 40 31 41 32 42 33 43
REMARK SMILES IDX 34 44 35 45 36 46 97 47 37 48 96 49 38 50 39 51 40 52 90 53
REMARK SMILES IDX 41 54 95 55 89 56 91 57 42 58 94 59 88 60 87 61 43 63 75 64
REMARK SMILES IDX 55 65 74 66 56 67 59 68 73 69 92 70 57 71 58 72 72 74 93 75
REMARK SMILES IDX 60 76 44 77 45 78 53 79 46 80 48 81 54 82 47 83 49 84 50 85
REMARK SMILES IDX 51 86 52 87 76 88 77 89 85 90 78 91 80 92 86 93 79 94 81 95
REMARK SMILES IDX 82 96 83 97 84 98 61 99 62 100 70 101 63 102 65 103 71 104
REMARK SMILES IDX 64 105 66 106 67 107 68 108 69 109
REMARK H PARENT 16 10 23 38 91 62 59 73
REMARK Flexibility Score: inf
ROOT
ATOM      1  C   UNL A   1      38.646  20.163  25.442  1.00  0.00     0.202 C 
ENDROOT
BRANCH   1   2
ATOM      2  C   UNL A   1      38.195  21.585  25.382  1.00  0.00     0.261 C 
BRANCH   2   3
ATOM      3  O   UNL A   1      36.869  21.659  24.843  1.00  0.00    -0.462 OA
BRANCH   3   4
ATOM      4  C   UNL A   1      35.908  22.297  25.587  1.00  0.00     0.329 C 
ATOM      5  O   UNL A   1      35.885  23.485  25.857  1.00  0.00    -0.250 OA
BRANCH   4   6
ATOM      6  C   UNL A   1      34.968  21.257  26.179  1.00  0.00     0.198 C 
BRANCH   6   7
ATOM      7  N   UNL A   1      34.390  21.882  27.380  1.00  0.00    -0.335 N 
ATOM      8  C   UNL A   1      33.130  22.407  27.500  1.00  0.00     0.293 C 
ATOM      9  O   UNL A   1      32.602  22.512  28.602  1.00  0.00    -0.265 OA
ATOM     10  H   UNL A   1      34.966  21.927  28.177  1.00  0.00     0.164 HD
BRANCH   8  11
ATOM     11  C   UNL A   1      32.403  22.899  26.244  1.00  0.00     0.252 C 
ATOM     12  O   UNL A   1      31.792  22.088  25.558  1.00  0.00    -0.283 OA
BRANCH  11  13
ATOM     13  C   UNL A   1      32.468  24.311  25.887  1.00  0.00     0.054 A 
ATOM     14  N   UNL A   1      32.243  26.521  25.960  1.00  0.00    -0.240 N 
ATOM     15  C   UNL A   1      32.073  25.372  26.679  1.00  0.00     0.117 A 
ATOM     16  C   UNL A   1      32.780  26.260  24.718  1.00  0.00     0.065 A 
ATOM     17  C   UNL A   1      32.923  24.866  24.648  1.00  0.00     0.012 A 
ATOM     18  C   UNL A   1      33.116  27.091  23.634  1.00  0.00     0.028 A 
ATOM     19  C   UNL A   1      33.436  24.295  23.464  1.00  0.00     0.011 A 
ATOM     20  C   UNL A   1      33.598  26.491  22.467  1.00  0.00     0.002 A 
ATOM     21  C   UNL A   1      33.764  25.114  22.382  1.00  0.00     0.001 A 
BRANCH  14  22
ATOM     22  S   UNL A   1      31.709  28.036  26.512  1.00  0.00     0.268 S 
ATOM     23  O   UNL A   1      31.022  27.763  27.768  1.00  0.00    -0.201 OA
ATOM     24  O   UNL A   1      31.036  28.662  25.397  1.00  0.00    -0.201 OA
BRANCH  22  25
ATOM     25  C   UNL A   1      33.138  29.015  26.887  1.00  0.00     0.088 A 
ATOM     26  C   UNL A   1      36.368  31.519  28.212  1.00  0.00     0.044 C 
ATOM     27  C   UNL A   1      35.254  30.649  27.710  1.00  0.00    -0.051 A 
ATOM     28  C   UNL A   1      33.966  31.181  27.567  1.00  0.00     0.005 A 
ATOM     29  C   UNL A   1      35.479  29.305  27.388  1.00  0.00     0.005 A 
ATOM     30  C   UNL A   1      32.910  30.368  27.161  1.00  0.00     0.022 A 
ATOM     31  C   UNL A   1      34.428  28.488  26.963  1.00  0.00     0.022 A 
ENDBRANCH  22  25
ENDBRANCH  14  22
ENDBRANCH  11  13
ENDBRANCH   8  11
ENDBRANCH   6   7
BRANCH   6  32
ATOM     32  C   UNL A   1      33.910  20.865  25.136  1.00  0.00     0.092 C 
BRANCH  32  33
ATOM     33  C   UNL A   1      33.985  19.431  24.714  1.00  0.00     0.037 A 
ATOM     34  C   UNL A   1      33.026  18.578  24.208  1.00  0.00     0.134 A 
ATOM     35  N   UNL A   1      35.140  18.693  24.714  1.00  0.00    -0.348 N 
ATOM     36  N   UNL A   1      33.564  17.358  23.905  1.00  0.00    -0.245 NA
ATOM     37  C   UNL A   1      34.830  17.450  24.239  1.00  0.00     0.196 A 
ATOM     38  H   UNL A   1      36.030  19.001  25.004  1.00  0.00     0.167 HD
ENDBRANCH  32  33
ENDBRANCH   6  32
ENDBRANCH   4   6
ENDBRANCH   3   4
ENDBRANCH   2   3
ENDBRANCH   1   2
BRANCH   1  39
ATOM     39  O   UNL A   1      40.036  20.230  25.738  1.00  0.00    -0.374 OA
BRANCH  39  40
ATOM     40  C   UNL A   1      40.389  21.026  26.854  1.00  0.00     0.202 C 
BRANCH  40  41
ATOM     41  C   UNL A   1      41.654  21.877  26.681  1.00  0.00     0.261 C 
BRANCH  41  42
ATOM     42  O   UNL A   1      41.278  23.217  26.314  1.00  0.00    -0.460 OA
BRANCH  42  43
ATOM     43  C   UNL A   1      40.702  23.949  27.309  1.00  0.00     0.338 C 
ATOM     44  O   UNL A   1      39.508  24.172  27.385  1.00  0.00    -0.246 OA
BRANCH  43  45
ATOM     45  C   UNL A   1      41.772  24.604  28.115  1.00  0.00     0.060 A 
ATOM     46  C   UNL A   1      42.289  25.846  27.719  1.00  0.00     0.016 A 
ATOM     47  C   UNL A   1      42.438  23.852  29.085  1.00  0.00     0.016 A 
ATOM     48  C   UNL A   1      43.558  26.244  28.149  1.00  0.00     0.010 A 
ATOM     49  C   UNL A   1      43.719  24.207  29.447  1.00  0.00     0.010 A 
ATOM     50  C   UNL A   1      44.304  25.372  28.931  1.00  0.00    -0.014 A 
BRANCH  50  51
ATOM     51  C   UNL A   1      45.668  25.615  29.375  1.00  0.00     0.031 A 
ATOM     52  C   UNL A   1      46.718  25.175  28.451  1.00  0.00     0.074 A 
ATOM     53  C   UNL A   1      45.966  26.375  30.454  1.00  0.00     0.049 A 
ATOM     54  N   UNL A   1      47.944  25.000  28.789  1.00  0.00    -0.248 NA
ATOM     55  C   UNL A   1      46.438  24.804  27.066  1.00  0.00     0.031 C 
ATOM     56  C   UNL A   1      47.191  27.117  30.742  1.00  0.00     0.029 A 
ATOM     57  N   UNL A   1      45.171  26.677  31.564  1.00  0.00    -0.354 N 
ATOM     58  C   UNL A   1      48.647  24.886  27.615  1.00  0.00     0.074 A 
ATOM     59  C   UNL A   1      47.665  24.525  26.630  1.00  0.00     0.031 C 
ATOM     60  C   UNL A   1      47.181  27.509  32.033  1.00  0.00     0.029 A 
ATOM     61  C   UNL A   1      46.015  26.887  32.652  1.00  0.00     0.049 A 
ATOM     62  H   UNL A   1      44.188  26.732  31.576  1.00  0.00     0.167 HD
ATOM     63  C   UNL A   1      49.922  25.364  27.586  1.00  0.00     0.034 A 
ATOM     64  C   UNL A   1      45.958  26.093  33.756  1.00  0.00     0.034 A 
ATOM     65  C   UNL A   1      50.327  25.818  28.943  1.00  0.00     0.049 A 
ATOM     66  C   UNL A   1      47.303  25.450  33.913  1.00  0.00     0.074 A 
ATOM     67  C   UNL A   1      50.548  27.067  29.507  1.00  0.00     0.029 A 
ATOM     68  N   UNL A   1      50.242  24.929  30.021  1.00  0.00    -0.354 N 
ATOM     69  N   UNL A   1      48.120  25.308  32.906  1.00  0.00    -0.248 NA
ATOM     70  C   UNL A   1      47.904  25.081  35.184  1.00  0.00     0.031 C 
ATOM     71  C   UNL A   1      50.561  26.919  30.927  1.00  0.00     0.029 A 
ATOM     72  C   UNL A   1      50.359  25.582  31.238  1.00  0.00     0.049 A 
ATOM     73  H   UNL A   1      50.114  23.957  29.926  1.00  0.00     0.167 HD
ATOM     74  C   UNL A   1      49.350  24.950  33.352  1.00  0.00     0.074 A 
ATOM     75  C   UNL A   1      49.158  24.793  34.789  1.00  0.00     0.031 C 
ATOM     76  C   UNL A   1      50.410  24.826  32.497  1.00  0.00     0.034 A 
BRANCH  63  77
ATOM     77  C   UNL A   1      50.692  25.706  26.307  1.00  0.00     0.023 A 
ATOM     78  C   UNL A   1      51.992  25.171  26.182  1.00  0.00     0.012 A 
ATOM     79  C   UNL A   1      50.274  26.524  25.222  1.00  0.00     0.148 A 
ATOM     80  C   UNL A   1      52.832  25.456  25.095  1.00  0.00     0.002 A 
ATOM     81  C   UNL A   1      51.113  26.825  24.142  1.00  0.00     0.091 A 
ATOM     82  F   UNL A   1      49.035  26.998  25.166  1.00  0.00    -0.205 F 
ATOM     83  C   UNL A   1      52.398  26.293  24.078  1.00  0.00     0.022 A 
BRANCH  81  84
ATOM     84  S   UNL A   1      50.606  27.910  22.788  1.00  0.00     0.127 S 
ATOM     85  O   UNL A   1      51.365  29.130  23.068  1.00  0.00    -0.237 OA
ATOM     86  O   UNL A   1      51.060  27.170  21.611  1.00  0.00    -0.237 OA
ATOM     87  O   UNL A   1      49.161  28.071  22.900  1.00  0.00    -0.744 OA
ENDBRANCH  81  84
ENDBRANCH  63  77
BRANCH  64  88
ATOM     88  C   UNL A   1      44.598  25.520  34.021  1.00  0.00     0.023 A 
ATOM     89  C   UNL A   1      44.420  24.129  33.792  1.00  0.00     0.012 A 
ATOM     90  C   UNL A   1      43.657  26.175  34.830  1.00  0.00     0.148 A 
ATOM     91  C   UNL A   1      43.443  23.388  34.465  1.00  0.00     0.002 A 
ATOM     92  C   UNL A   1      42.688  25.428  35.509  1.00  0.00     0.091 A 
ATOM     93  F   UNL A   1      43.744  27.504  34.960  1.00  0.00    -0.205 F 
ATOM     94  C   UNL A   1      42.612  24.032  35.369  1.00  0.00     0.022 A 
BRANCH  92  95
ATOM     95  S   UNL A   1      41.554  26.186  36.678  1.00  0.00     0.127 S 
ATOM     96  O   UNL A   1      42.418  26.381  37.838  1.00  0.00    -0.237 OA
ATOM     97  O   UNL A   1      41.170  27.420  35.991  1.00  0.00    -0.237 OA
ATOM     98  O   UNL A   1      40.471  25.228  36.838  1.00  0.00    -0.744 OA
ENDBRANCH  92  95
ENDBRANCH  64  88
BRANCH  76  99
ATOM     99  C   UNL A   1      51.605  23.945  32.775  1.00  0.00     0.023 A 
ATOM    100  C   UNL A   1      51.509  22.542  32.813  1.00  0.00     0.012 A 
ATOM    101  C   UNL A   1      52.912  24.493  32.796  1.00  0.00     0.148 A 
ATOM    102  C   UNL A   1      52.634  21.723  32.895  1.00  0.00     0.002 A 
ATOM    103  C   UNL A   1      54.029  23.673  32.742  1.00  0.00     0.091 A 
ATOM    104  F   UNL A   1      53.091  25.818  32.877  1.00  0.00    -0.205 F 
ATOM    105  C   UNL A   1      53.896  22.287  32.823  1.00  0.00     0.022 A 
BRANCH 103 106
ATOM    106  S   UNL A   1      55.665  24.337  32.414  1.00  0.00     0.127 S 
ATOM    107  O   UNL A   1      55.473  24.949  31.102  1.00  0.00    -0.237 OA
ATOM    108  O   UNL A   1      55.830  25.286  33.516  1.00  0.00    -0.237 OA
ATOM    109  O   UNL A   1      56.573  23.199  32.460  1.00  0.00    -0.744 OA
ENDBRANCH 103 106
ENDBRANCH  76  99
ENDBRANCH  50  51
ENDBRANCH  43  45
ENDBRANCH  42  43
ENDBRANCH  41  42
ENDBRANCH  40  41
ENDBRANCH  39  40
ENDBRANCH   1  39
TORSDOF 24
ENDMDL
MODEL 2
REMARK VINA RESULT:     -11.8      1.856      2.431
REMARK SMILES Cc1ccc(S(=O)(=O)n2cc(C(=O)C(=O)N[C@@H](Cc3cnc[nH]3)C(=O)OCCOCCOC(=O)c3ccc(-c4c5nc(c(-c6cccc(S(=O)(=O)[O-])c6F)c6ccc([nH]6)c(-c6cccc(S(=O)(=O)[O-])c6F)c6nc(c(-c7cccc(S(=O)(=O)[O-])c7F)c7ccc4[nH]7)C=C6)C=C5)cc3)c3ccccc32)cc1
REMARK SMILES IDX 28 1 27 2 26 3 24 4 25 5 17 6 16 7 14 8 15 9 12 11 13 12
REMARK SMILES IDX 11 13 9 14 10 15 103 16 98 17 102 18 99 19 101 20 100 21
REMARK SMILES IDX 6 22 7 23 8 24 5 25 1 26 2 27 3 28 105 29 4 30 104 31 18 32
REMARK SMILES IDX 19 33 20 34 23 35 21 36 22 37 29 39 30 40 31 41 32 42 33 43
REMARK SMILES IDX 34 44 35 45 36 46 97 47 37 48 96 49 38 50 39 51 40 52 90 53
REMARK SMILES IDX 41 54 95 55 89 56 91 57 42 58 94 59 88 60 87 61 43 63 75 64
REMARK SMILES IDX 55 65 74 66 56 67 59 68 73 69 92 70 57 71 58 72 72 74 93 75
REMARK SMILES IDX 60 76 44 77 45 78 53 79 46 80 48 81 54 82 47 83 49 84 50 85
REMARK SMILES IDX 51 86 52 87 76 88 77 89 85 90 78 91 80 92 86 93 79 94 81 95
REMARK SMILES IDX 82 96 83 97 84 98 61 99 62 100 70 101 63 102 65 103 71 104
REMARK SMILES IDX 64 105 66 106 67 107 68 108 69 109
REMARK H PARENT 16 10 23 38 91 62 59 73
REMARK Flexibility Score: inf
ROOT
ATOM      1  C   UNL A   1      38.843  19.626  25.317  1.00  0.00     0.202 C 
ENDROOT
BRANCH   1   2
ATOM      2  C   UNL A   1      38.171  20.959  25.303  1.00  0.00     0.261 C 
BRANCH   2   3
ATOM      3  O   UNL A   1      36.918  20.871  24.614  1.00  0.00    -0.462 OA
BRANCH   3   4
ATOM      4  C   UNL A   1      35.861  21.596  25.108  1.00  0.00     0.329 C 
ATOM      5  O   UNL A   1      35.769  22.811  25.113  1.00  0.00    -0.250 OA
BRANCH   4   6
ATOM      6  C   UNL A   1      34.902  20.652  25.818  1.00  0.00     0.198 C 
BRANCH   6   7
ATOM      7  N   UNL A   1      34.425  21.386  27.002  1.00  0.00    -0.335 N 
ATOM      8  C   UNL A   1      33.175  21.913  27.187  1.00  0.00     0.293 C 
ATOM      9  O   UNL A   1      32.748  22.120  28.317  1.00  0.00    -0.265 OA
ATOM     10  H   UNL A   1      35.071  21.510  27.735  1.00  0.00     0.164 HD
BRANCH   8  11
ATOM     11  C   UNL A   1      32.330  22.280  25.962  1.00  0.00     0.252 C 
ATOM     12  O   UNL A   1      31.526  21.462  25.532  1.00  0.00    -0.283 OA
BRANCH  11  13
ATOM     13  C   UNL A   1      32.514  23.580  25.329  1.00  0.00     0.054 A 
ATOM     14  N   UNL A   1      32.634  25.777  25.012  1.00  0.00    -0.240 N 
ATOM     15  C   UNL A   1      32.472  24.808  25.962  1.00  0.00     0.117 A 
ATOM     16  C   UNL A   1      32.823  25.227  23.762  1.00  0.00     0.065 A 
ATOM     17  C   UNL A   1      32.742  23.838  23.939  1.00  0.00     0.012 A 
ATOM     18  C   UNL A   1      33.013  25.799  22.492  1.00  0.00     0.028 A 
ATOM     19  C   UNL A   1      32.877  23.001  22.811  1.00  0.00     0.011 A 
ATOM     20  C   UNL A   1      33.118  24.942  21.392  1.00  0.00     0.002 A 
ATOM     21  C   UNL A   1      33.058  23.563  21.547  1.00  0.00     0.001 A 
BRANCH  14  22
ATOM     22  S   UNL A   1      32.469  27.433  25.353  1.00  0.00     0.268 S 
ATOM     23  O   UNL A   1      33.620  28.067  24.725  1.00  0.00    -0.201 OA
ATOM     24  O   UNL A   1      32.225  27.534  26.775  1.00  0.00    -0.201 OA
BRANCH  22  25
ATOM     25  C   UNL A   1      31.017  28.018  24.524  1.00  0.00     0.088 A 
ATOM     26  C   UNL A   1      27.802  29.634  22.175  1.00  0.00     0.044 C 
ATOM     27  C   UNL A   1      28.899  29.070  23.029  1.00  0.00    -0.051 A 
ATOM     28  C   UNL A   1      29.908  29.912  23.511  1.00  0.00     0.005 A 
ATOM     29  C   UNL A   1      28.935  27.707  23.346  1.00  0.00     0.005 A 
ATOM     30  C   UNL A   1      30.966  29.390  24.253  1.00  0.00     0.022 A 
ATOM     31  C   UNL A   1      29.984  27.179  24.105  1.00  0.00     0.022 A 
ENDBRANCH  22  25
ENDBRANCH  14  22
ENDBRANCH  11  13
ENDBRANCH   8  11
ENDBRANCH   6   7
BRANCH   6  32
ATOM     32  C   UNL A   1      33.767  20.255  24.860  1.00  0.00     0.092 C 
BRANCH  32  33
ATOM     33  C   UNL A   1      33.498  18.784  24.825  1.00  0.00     0.037 A 
ATOM     34  C   UNL A   1      32.717  17.980  25.629  1.00  0.00     0.134 A 
ATOM     35  N   UNL A   1      33.989  17.939  23.864  1.00  0.00    -0.348 N 
ATOM     36  N   UNL A   1      32.722  16.687  25.185  1.00  0.00    -0.245 NA
ATOM     37  C   UNL A   1      33.511  16.689  24.136  1.00  0.00     0.196 A 
ATOM     38  H   UNL A   1      34.579  18.187  23.115  1.00  0.00     0.167 HD
ENDBRANCH  32  33
ENDBRANCH   6  32
ENDBRANCH   4   6
ENDBRANCH   3   4
ENDBRANCH   2   3
ENDBRANCH   1   2
BRANCH   1  39
ATOM     39  O   UNL A   1      40.204  19.903  25.626  1.00  0.00    -0.374 OA
BRANCH  39  40
ATOM     40  C   UNL A   1      40.432  20.578  26.849  1.00  0.00     0.202 C 
BRANCH  40  41
ATOM     41  C   UNL A   1      41.743  21.370  26.929  1.00  0.00     0.261 C 
BRANCH  41  42
ATOM     42  O   UNL A   1      41.523  22.705  26.438  1.00  0.00    -0.460 OA
BRANCH  42  43
ATOM     43  C   UNL A   1      40.906  23.549  27.315  1.00  0.00     0.338 C 
ATOM     44  O   UNL A   1      39.710  23.776  27.312  1.00  0.00    -0.246 OA
BRANCH  43  45
ATOM     45  C   UNL A   1      41.941  24.298  28.083  1.00  0.00     0.060 A 
ATOM     46  C   UNL A   1      42.433  25.518  27.594  1.00  0.00     0.016 A 
ATOM     47  C   UNL A   1      42.608  23.647  29.123  1.00  0.00     0.016 A 
ATOM     48  C   UNL A   1      43.682  25.985  28.012  1.00  0.00     0.010 A 
ATOM     49  C   UNL A   1      43.872  24.067  29.476  1.00  0.00     0.010 A 
ATOM     50  C   UNL A   1      44.435  25.202  28.876  1.00  0.00    -0.014 A 
BRANCH  50  51
ATOM     51  C   UNL A   1      45.784  25.519  29.322  1.00  0.00     0.031 A 
ATOM     52  C   UNL A   1      46.860  25.098  28.420  1.00  0.00     0.074 A 
ATOM     53  C   UNL A   1      46.038  26.324  30.379  1.00  0.00     0.049 A 
ATOM     54  N   UNL A   1      48.089  24.988  28.772  1.00  0.00    -0.248 NA
ATOM     55  C   UNL A   1      46.609  24.673  27.045  1.00  0.00     0.031 C 
ATOM     56  C   UNL A   1      47.227  27.129  30.653  1.00  0.00     0.029 A 
ATOM     57  N   UNL A   1      45.221  26.625  31.474  1.00  0.00    -0.354 N 
ATOM     58  C   UNL A   1      48.807  24.871  27.607  1.00  0.00     0.074 A 
ATOM     59  C   UNL A   1      47.851  24.436  26.627  1.00  0.00     0.031 C 
ATOM     60  C   UNL A   1      47.187  27.560  31.931  1.00  0.00     0.029 A 
ATOM     61  C   UNL A   1      46.045  26.905  32.560  1.00  0.00     0.049 A 
ATOM     62  H   UNL A   1      44.236  26.636  31.476  1.00  0.00     0.167 HD
ATOM     63  C   UNL A   1      50.059  25.404  27.572  1.00  0.00     0.034 A 
ATOM     64  C   UNL A   1      46.014  26.144  33.688  1.00  0.00     0.034 A 
ATOM     65  C   UNL A   1      50.432  25.917  28.917  1.00  0.00     0.049 A 
ATOM     66  C   UNL A   1      47.385  25.567  33.875  1.00  0.00     0.074 A 
ATOM     67  C   UNL A   1      50.592  27.191  29.444  1.00  0.00     0.029 A 
ATOM     68  N   UNL A   1      50.378  25.058  30.022  1.00  0.00    -0.354 N 
ATOM     69  N   UNL A   1      48.216  25.431  32.879  1.00  0.00    -0.248 NA
ATOM     70  C   UNL A   1      47.990  25.265  35.161  1.00  0.00     0.031 C 
ATOM     71  C   UNL A   1      50.600  27.088  30.869  1.00  0.00     0.029 A 
ATOM     72  C   UNL A   1      50.455  25.753  31.220  1.00  0.00     0.049 A 
ATOM     73  H   UNL A   1      50.294  24.080  29.956  1.00  0.00     0.167 HD
ATOM     74  C   UNL A   1      49.457  25.142  33.344  1.00  0.00     0.074 A 
ATOM     75  C   UNL A   1      49.260  25.021  34.785  1.00  0.00     0.031 C 
ATOM     76  C   UNL A   1      50.528  25.040  32.501  1.00  0.00     0.034 A 
BRANCH  63  77
ATOM     77  C   UNL A   1      50.825  25.741  26.290  1.00  0.00     0.023 A 
ATOM     78  C   UNL A   1      52.063  25.091  26.094  1.00  0.00     0.012 A 
ATOM     79  C   UNL A   1      50.460  26.654  25.263  1.00  0.00     0.148 A 
ATOM     80  C   UNL A   1      52.897  25.353  24.998  1.00  0.00     0.002 A 
ATOM     81  C   UNL A   1      51.295  26.932  24.174  1.00  0.00     0.091 A 
ATOM     82  F   UNL A   1      49.272  27.247  25.272  1.00  0.00    -0.205 F 
ATOM     83  C   UNL A   1      52.519  26.283  24.041  1.00  0.00     0.022 A 
BRANCH  81  84
ATOM     84  S   UNL A   1      50.860  28.134  22.895  1.00  0.00     0.127 S 
ATOM     85  O   UNL A   1      49.415  27.934  22.762  1.00  0.00    -0.237 OA
ATOM     86  O   UNL A   1      51.242  29.401  23.517  1.00  0.00    -0.237 OA
ATOM     87  O   UNL A   1      51.621  27.772  21.705  1.00  0.00    -0.744 OA
ENDBRANCH  81  84
ENDBRANCH  63  77
BRANCH  64  88
ATOM     88  C   UNL A   1      44.678  25.519  33.960  1.00  0.00     0.023 A 
ATOM     89  C   UNL A   1      44.572  24.112  33.800  1.00  0.00     0.012 A 
ATOM     90  C   UNL A   1      43.693  26.167  34.721  1.00  0.00     0.148 A 
ATOM     91  C   UNL A   1      43.620  23.358  34.495  1.00  0.00     0.002 A 
ATOM     92  C   UNL A   1      42.749  25.409  35.422  1.00  0.00     0.091 A 
ATOM     93  F   UNL A   1      43.714  27.503  34.785  1.00  0.00    -0.205 F 
ATOM     94  C   UNL A   1      42.742  24.005  35.352  1.00  0.00     0.022 A 
BRANCH  92  95
ATOM     95  S   UNL A   1      41.559  26.168  36.533  1.00  0.00     0.127 S 
ATOM     96  O   UNL A   1      40.523  25.142  36.596  1.00  0.00    -0.237 OA
ATOM     97  O   UNL A   1      42.333  26.327  37.764  1.00  0.00    -0.237 OA
ATOM     98  O   UNL A   1      41.185  27.421  35.896  1.00  0.00    -0.744 OA
ENDBRANCH  92  95
ENDBRANCH  64  88
BRANCH  76  99
ATOM     99  C   UNL A   1      51.759  24.222  32.816  1.00  0.00     0.023 A 
ATOM    100  C   UNL A   1      52.989  24.817  33.150  1.00  0.00     0.012 A 
ATOM    101  C   UNL A   1      51.662  22.819  32.997  1.00  0.00     0.148 A 
ATOM    102  C   UNL A   1      54.075  24.071  33.608  1.00  0.00     0.002 A 
ATOM    103  C   UNL A   1      52.697  22.103  33.579  1.00  0.00     0.091 A 
ATOM    104  F   UNL A   1      50.567  22.157  32.599  1.00  0.00    -0.205 F 
ATOM    105  C   UNL A   1      53.917  22.719  33.858  1.00  0.00     0.022 A 
BRANCH 103 106
ATOM    106  S   UNL A   1      52.469  20.412  34.138  1.00  0.00     0.127 S 
ATOM    107  O   UNL A   1      53.344  19.682  33.223  1.00  0.00    -0.237 OA
ATOM    108  O   UNL A   1      52.949  20.484  35.518  1.00  0.00    -0.237 OA
ATOM    109  O   UNL A   1      51.044  20.139  34.010  1.00  0.00    -0.744 OA
ENDBRANCH 103 106
ENDBRANCH  76  99
ENDBRANCH  50  51
ENDBRANCH  43  45
ENDBRANCH  42  43
ENDBRANCH  41  42
ENDBRANCH  40  41
ENDBRANCH  39  40
ENDBRANCH   1  39
TORSDOF 24
ENDMDL
MODEL 3
REMARK VINA RESULT:     -10.6      5.378     10.504
REMARK SMILES Cc1ccc(S(=O)(=O)n2cc(C(=O)C(=O)N[C@@H](Cc3cnc[nH]3)C(=O)OCCOCCOC(=O)c3ccc(-c4c5nc(c(-c6cccc(S(=O)(=O)[O-])c6F)c6ccc([nH]6)c(-c6cccc(S(=O)(=O)[O-])c6F)c6nc(c(-c7cccc(S(=O)(=O)[O-])c7F)c7ccc4[nH]7)C=C6)C=C5)cc3)c3ccccc32)cc1
REMARK SMILES IDX 28 1 27 2 26 3 24 4 25 5 17 6 16 7 14 8 15 9 12 11 13 12
REMARK SMILES IDX 11 13 9 14 10 15 103 16 98 17 102 18 99 19 101 20 100 21
REMARK SMILES IDX 6 22 7 23 8 24 5 25 1 26 2 27 3 28 105 29 4 30 104 31 18 32
REMARK SMILES IDX 19 33 20 34 23 35 21 36 22 37 29 39 30 40 31 41 32 42 33 43
REMARK SMILES IDX 34 44 35 45 36 46 97 47 37 48 96 49 38 50 39 51 40 52 90 53
REMARK SMILES IDX 41 54 95 55 89 56 91 57 42 58 94 59 88 60 87 61 43 63 75 64
REMARK SMILES IDX 55 65 74 66 56 67 59 68 73 69 92 70 57 71 58 72 72 74 93 75
REMARK SMILES IDX 60 76 44 77 45 78 53 79 46 80 48 81 54 82 47 83 49 84 50 85
REMARK SMILES IDX 51 86 52 87 76 88 77 89 85 90 78 91 80 92 86 93 79 94 81 95
REMARK SMILES IDX 82 96 83 97 84 98 61 99 62 100 70 101 63 102 65 103 71 104
REMARK SMILES IDX 64 105 66 106 67 107 68 108 69 109
REMARK H PARENT 16 10 23 38 91 62 59 73
REMARK Flexibility Score: inf
ROOT
ATOM      1  C   UNL A   1      47.666  26.805  24.635  1.00  0.00     0.202 C 
ENDROOT
BRANCH   1   2
ATOM      2  C   UNL A   1      47.125  27.965  23.868  1.00  0.00     0.261 C 
BRANCH   2   3
ATOM      3  O   UNL A   1      46.493  28.894  24.758  1.00  0.00    -0.462 OA
BRANCH   3   4
ATOM      4  C   UNL A   1      46.547  28.631  26.104  1.00  0.00     0.329 C 
ATOM      5  O   UNL A   1      47.561  28.449  26.756  1.00  0.00    -0.250 OA
BRANCH   4   6
ATOM      6  C   UNL A   1      45.133  28.421  26.625  1.00  0.00     0.198 C 
BRANCH   6   7
ATOM      7  N   UNL A   1      44.739  27.076  26.175  1.00  0.00    -0.335 N 
ATOM      8  C   UNL A   1      43.647  26.757  25.412  1.00  0.00     0.293 C 
ATOM      9  O   UNL A   1      43.629  25.724  24.751  1.00  0.00    -0.265 OA
ATOM     10  H   UNL A   1      45.320  26.330  26.449  1.00  0.00     0.164 HD
BRANCH   8  11
ATOM     11  C   UNL A   1      42.430  27.687  25.427  1.00  0.00     0.252 C 
ATOM     12  O   UNL A   1      42.327  28.540  24.553  1.00  0.00    -0.283 OA
BRANCH  11  13
ATOM     13  C   UNL A   1      41.435  27.548  26.483  1.00  0.00     0.054 A 
ATOM     14  N   UNL A   1      40.152  27.977  28.247  1.00  0.00    -0.240 N 
ATOM     15  C   UNL A   1      41.069  28.521  27.393  1.00  0.00     0.117 A 
ATOM     16  C   UNL A   1      39.863  26.673  27.906  1.00  0.00     0.065 A 
ATOM     17  C   UNL A   1      40.670  26.378  26.798  1.00  0.00     0.012 A 
ATOM     18  C   UNL A   1      39.014  25.708  28.477  1.00  0.00     0.028 A 
ATOM     19  C   UNL A   1      40.607  25.086  26.235  1.00  0.00     0.011 A 
ATOM     20  C   UNL A   1      38.993  24.430  27.911  1.00  0.00     0.002 A 
ATOM     21  C   UNL A   1      39.772  24.122  26.802  1.00  0.00     0.001 A 
BRANCH  14  22
ATOM     22  S   UNL A   1      39.580  28.794  29.622  1.00  0.00     0.268 S 
ATOM     23  O   UNL A   1      40.744  29.482  30.166  1.00  0.00    -0.201 OA
ATOM     24  O   UNL A   1      38.839  27.823  30.394  1.00  0.00    -0.201 OA
BRANCH  22  25
ATOM     25  C   UNL A   1      38.432  30.031  29.083  1.00  0.00     0.088 A 
ATOM     26  C   UNL A   1      35.291  32.739  27.961  1.00  0.00     0.044 C 
ATOM     27  C   UNL A   1      36.412  31.811  28.324  1.00  0.00    -0.051 A 
ATOM     28  C   UNL A   1      36.391  30.486  27.871  1.00  0.00     0.005 A 
ATOM     29  C   UNL A   1      37.480  32.248  29.116  1.00  0.00     0.005 A 
ATOM     30  C   UNL A   1      37.394  29.597  28.252  1.00  0.00     0.022 A 
ATOM     31  C   UNL A   1      38.499  31.366  29.487  1.00  0.00     0.022 A 
ENDBRANCH  22  25
ENDBRANCH  14  22
ENDBRANCH  11  13
ENDBRANCH   8  11
ENDBRANCH   6   7
BRANCH   6  32
ATOM     32  C   UNL A   1      45.121  28.570  28.155  1.00  0.00     0.092 C 
BRANCH  32  33
ATOM     33  C   UNL A   1      44.745  29.942  28.621  1.00  0.00     0.037 A 
ATOM     34  C   UNL A   1      45.456  31.124  28.644  1.00  0.00     0.134 A 
ATOM     35  N   UNL A   1      43.502  30.277  29.090  1.00  0.00    -0.348 N 
ATOM     36  N   UNL A   1      44.684  32.153  29.107  1.00  0.00    -0.245 NA
ATOM     37  C   UNL A   1      43.523  31.610  29.387  1.00  0.00     0.196 A 
ATOM     38  H   UNL A   1      42.734  29.668  29.195  1.00  0.00     0.167 HD
ENDBRANCH  32  33
ENDBRANCH   6  32
ENDBRANCH   4   6
ENDBRANCH   3   4
ENDBRANCH   2   3
ENDBRANCH   1   2
BRANCH   1  39
ATOM     39  O   UNL A   1      46.835  25.707  24.277  1.00  0.00    -0.374 OA
BRANCH  39  40
ATOM     40  C   UNL A   1      47.138  24.476  24.906  1.00  0.00     0.202 C 
BRANCH  40  41
ATOM     41  C   UNL A   1      46.175  24.053  26.023  1.00  0.00     0.261 C 
BRANCH  41  42
ATOM     42  O   UNL A   1      46.929  23.745  27.209  1.00  0.00    -0.460 OA
BRANCH  42  43
ATOM     43  C   UNL A   1      47.646  24.784  27.725  1.00  0.00     0.338 C 
ATOM     44  O   UNL A   1      48.805  25.019  27.435  1.00  0.00    -0.246 OA
BRANCH  43  45
ATOM     45  C   UNL A   1      46.875  25.404  28.839  1.00  0.00     0.060 A 
ATOM     46  C   UNL A   1      47.526  26.226  29.772  1.00  0.00     0.016 A 
ATOM     47  C   UNL A   1      45.585  24.939  29.104  1.00  0.00     0.016 A 
ATOM     48  C   UNL A   1      46.967  26.423  31.038  1.00  0.00     0.010 A 
ATOM     49  C   UNL A   1      45.072  25.070  30.376  1.00  0.00     0.010 A 
ATOM     50  C   UNL A   1      45.791  25.760  31.363  1.00  0.00    -0.014 A 
BRANCH  50  51
ATOM     51  C   UNL A   1      45.148  25.801  32.667  1.00  0.00     0.031 A 
ATOM     52  C   UNL A   1      44.432  27.042  32.978  1.00  0.00     0.074 A 
ATOM     53  C   UNL A   1      45.028  24.712  33.461  1.00  0.00     0.049 A 
ATOM     54  N   UNL A   1      44.092  27.396  34.163  1.00  0.00    -0.248 NA
ATOM     55  C   UNL A   1      44.119  28.042  31.959  1.00  0.00     0.031 C 
ATOM     56  C   UNL A   1      44.034  24.438  34.498  1.00  0.00     0.029 A 
ATOM     57  N   UNL A   1      45.802  23.547  33.482  1.00  0.00    -0.354 N 
ATOM     58  C   UNL A   1      43.203  28.431  34.007  1.00  0.00     0.074 A 
ATOM     59  C   UNL A   1      43.452  28.936  32.686  1.00  0.00     0.031 C 
ATOM     60  C   UNL A   1      44.434  23.377  35.229  1.00  0.00     0.029 A 
ATOM     61  C   UNL A   1      45.781  23.041  34.779  1.00  0.00     0.049 A 
ATOM     62  H   UNL A   1      46.279  23.155  32.715  1.00  0.00     0.167 HD
ATOM     63  C   UNL A   1      42.201  28.555  34.922  1.00  0.00     0.034 A 
ATOM     64  C   UNL A   1      46.921  22.926  35.514  1.00  0.00     0.034 A 
ATOM     65  C   UNL A   1      42.378  27.557  36.010  1.00  0.00     0.049 A 
ATOM     66  C   UNL A   1      46.747  23.767  36.742  1.00  0.00     0.074 A 
ATOM     67  C   UNL A   1      41.699  26.401  36.365  1.00  0.00     0.029 A 
ATOM     68  N   UNL A   1      43.585  27.517  36.719  1.00  0.00    -0.354 N 
ATOM     69  N   UNL A   1      45.904  24.762  36.781  1.00  0.00    -0.248 NA
ATOM     70  C   UNL A   1      47.342  23.480  38.037  1.00  0.00     0.031 C 
ATOM     71  C   UNL A   1      42.522  25.657  37.265  1.00  0.00     0.029 A 
ATOM     72  C   UNL A   1      43.703  26.358  37.471  1.00  0.00     0.049 A 
ATOM     73  H   UNL A   1      44.267  28.226  36.687  1.00  0.00     0.167 HD
ATOM     74  C   UNL A   1      45.743  25.185  38.060  1.00  0.00     0.074 A 
ATOM     75  C   UNL A   1      46.688  24.366  38.811  1.00  0.00     0.031 C 
ATOM     76  C   UNL A   1      44.840  26.161  38.379  1.00  0.00     0.034 A 
BRANCH  63  77
ATOM     77  C   UNL A   1      40.912  29.350  34.696  1.00  0.00     0.023 A 
ATOM     78  C   UNL A   1      40.117  28.979  33.590  1.00  0.00     0.012 A 
ATOM     79  C   UNL A   1      40.412  30.446  35.452  1.00  0.00     0.148 A 
ATOM     80  C   UNL A   1      38.947  29.663  33.230  1.00  0.00     0.002 A 
ATOM     81  C   UNL A   1      39.254  31.143  35.088  1.00  0.00     0.091 A 
ATOM     82  F   UNL A   1      41.007  30.822  36.578  1.00  0.00    -0.205 F 
ATOM     83  C   UNL A   1      38.519  30.753  33.972  1.00  0.00     0.022 A 
BRANCH  81  84
ATOM     84  S   UNL A   1      38.645  32.571  36.014  1.00  0.00     0.127 S 
ATOM     85  O   UNL A   1      38.252  33.489  34.942  1.00  0.00    -0.237 OA
ATOM     86  O   UNL A   1      37.527  32.002  36.764  1.00  0.00    -0.237 OA
ATOM     87  O   UNL A   1      39.758  33.049  36.825  1.00  0.00    -0.744 OA
ENDBRANCH  81  84
ENDBRANCH  63  77
BRANCH  64  88
ATOM     88  C   UNL A   1      48.153  22.698  34.689  1.00  0.00     0.023 A 
ATOM     89  C   UNL A   1      48.735  23.831  34.059  1.00  0.00     0.012 A 
ATOM     90  C   UNL A   1      48.948  21.552  34.837  1.00  0.00     0.148 A 
ATOM     91  C   UNL A   1      50.095  23.880  33.734  1.00  0.00     0.002 A 
ATOM     92  C   UNL A   1      50.310  21.607  34.520  1.00  0.00     0.091 A 
ATOM     93  F   UNL A   1      48.380  20.442  35.321  1.00  0.00    -0.205 F 
ATOM     94  C   UNL A   1      50.895  22.783  34.018  1.00  0.00     0.022 A 
BRANCH  92  95
ATOM     95  S   UNL A   1      51.413  20.224  34.830  1.00  0.00     0.127 S 
ATOM     96  O   UNL A   1      52.012  20.028  33.514  1.00  0.00    -0.237 OA
ATOM     97  O   UNL A   1      52.323  20.767  35.838  1.00  0.00    -0.237 OA
ATOM     98  O   UNL A   1      50.556  19.151  35.312  1.00  0.00    -0.744 OA
ENDBRANCH  92  95
ENDBRANCH  64  88
BRANCH  76  99
ATOM     99  C   UNL A   1      44.969  27.047  39.596  1.00  0.00     0.023 A 
ATOM    100  C   UNL A   1      44.461  26.672  40.854  1.00  0.00     0.012 A 
ATOM    101  C   UNL A   1      45.798  28.197  39.563  1.00  0.00     0.148 A 
ATOM    102  C   UNL A   1      44.729  27.403  42.010  1.00  0.00     0.002 A 
ATOM    103  C   UNL A   1      46.170  28.840  40.734  1.00  0.00     0.091 A 
ATOM    104  F   UNL A   1      46.230  28.688  38.394  1.00  0.00    -0.205 F 
ATOM    105  C   UNL A   1      45.613  28.466  41.957  1.00  0.00     0.022 A 
BRANCH 103 106
ATOM    106  S   UNL A   1      47.483  30.064  40.754  1.00  0.00     0.127 S 
ATOM    107  O   UNL A   1      47.777  30.153  42.183  1.00  0.00    -0.237 OA
ATOM    108  O   UNL A   1      48.518  29.408  39.954  1.00  0.00    -0.237 OA
ATOM    109  O   UNL A   1      46.921  31.262  40.144  1.00  0.00    -0.744 OA
ENDBRANCH 103 106
ENDBRANCH  76  99
ENDBRANCH  50  51
ENDBRANCH  43  45
ENDBRANCH  42  43
ENDBRANCH  41  42
ENDBRANCH  40  41
ENDBRANCH  39  40
ENDBRANCH   1  39
TORSDOF 24
ENDMDL
