MODEL 1
REMARK VINA RESULT:      -9.7      0.000      0.000
REMARK SMILES COC(=O)[C@H]1CC[C@]2(C)[C@H](CC[C@]3(C)[C@H]2CC=C2[C@@H]4CC(C)(C)CC[C@]4(C(=O)OCCOCCOC(=O)c4ccc(-c5c6nc(c(-c7cccc(S(=O)(=O)[O-])c7F)c7ccc([nH]7)c(-c7cccc(S(=O)(=O)[O-])c7F)c7nc(c(-c8cccc(S(=O)(=O)[O-])c8F)c8ccc5[nH]8)C=C7)C=C6)cc4)CC[C@@]23C)C1(C)C
REMARK SMILES IDX 33 1 32 2 31 3 30 4 29 5 27 6 28 7 26 8 5 9 6 10 105 11 7 12
REMARK SMILES IDX 10 13 106 14 107 15 8 16 11 17 15 18 9 19 12 20 16 21 13 22
REMARK SMILES IDX 17 23 103 24 14 25 18 26 102 27 104 28 19 29 101 30 20 31
REMARK SMILES IDX 21 32 25 33 24 34 22 35 23 36 3 37 4 38 2 39 1 40 34 41
REMARK SMILES IDX 35 42 36 43 37 44 38 45 39 46 100 47 40 48 99 49 41 50 42 51
REMARK SMILES IDX 43 52 93 53 44 54 98 55 92 56 94 57 45 58 97 59 91 60 90 61
REMARK SMILES IDX 46 63 78 64 58 65 77 66 59 67 62 68 76 69 95 70 60 71 61 72
REMARK SMILES IDX 75 74 96 75 63 76 47 77 48 78 56 79 49 80 51 81 57 82 50 83
REMARK SMILES IDX 52 84 53 85 54 86 55 87 79 88 80 89 88 90 81 91 83 92 89 93
REMARK SMILES IDX 82 94 84 95 85 96 86 97 87 98 64 99 65 100 73 101 66 102
REMARK SMILES IDX 68 103 74 104 67 105 69 106 70 107 71 108 72 109
REMARK H PARENT 94 62 62 73
REMARK Flexibility Score: inf
ROOT
ATOM      1  C   UNL A   1      50.224  26.746  36.406  1.00  0.00     0.202 C 
ENDROOT
BRANCH   1   2
ATOM      2  O   UNL A   1      50.049  27.843  35.504  1.00  0.00    -0.374 OA
BRANCH   2   3
ATOM      3  C   UNL A   1      50.571  27.710  34.174  1.00  0.00     0.202 C 
BRANCH   3   4
ATOM      4  C   UNL A   1      50.666  26.256  33.492  1.00  0.00     0.261 C 
BRANCH   4   5
ATOM      5  O   UNL A   1      49.842  26.023  32.269  1.00  0.00    -0.463 OA
BRANCH   5   6
ATOM      6  C   UNL A   1      50.283  25.267  31.168  1.00  0.00     0.312 C 
ATOM      7  O   UNL A   1      50.522  24.068  31.234  1.00  0.00    -0.252 OA
BRANCH   6   8
ATOM      8  C   UNL A   1      50.610  26.186  29.859  1.00  0.00     0.075 C 
ATOM      9  C   UNL A   1      45.720  31.833  27.926  1.00  0.00     0.105 C 
ATOM     10  C   UNL A   1      44.698  30.924  28.680  1.00  0.00     0.016 C 
ATOM     11  C   UNL A   1      47.125  31.410  28.485  1.00  0.00    -0.019 C 
ATOM     12  C   UNL A   1      44.855  29.435  28.434  1.00  0.00     0.008 C 
ATOM     13  C   UNL A   1      47.225  29.870  27.972  1.00  0.00     0.002 C 
ATOM     14  C   UNL A   1      47.136  31.765  30.011  1.00  0.00     0.012 C 
ATOM     15  C   UNL A   1      48.231  32.359  27.966  1.00  0.00     0.012 C 
ATOM     16  C   UNL A   1      46.280  28.883  28.689  1.00  0.00    -0.026 C 
ATOM     17  C   UNL A   1      48.530  29.330  27.393  1.00  0.00     0.005 C 
ATOM     18  C   UNL A   1      46.225  27.477  27.934  1.00  0.00     0.006 C 
ATOM     19  C   UNL A   1      46.397  28.865  30.261  1.00  0.00     0.012 C 
ATOM     20  C   UNL A   1      48.387  28.130  26.473  1.00  0.00     0.008 C 
ATOM     21  C   UNL A   1      45.868  26.453  29.012  1.00  0.00     0.032 C 
ATOM     22  C   UNL A   1      47.475  26.983  26.934  1.00  0.00    -0.020 C 
ATOM     23  C   UNL A   1      47.129  26.058  29.707  1.00  0.00    -0.027 C 
ATOM     24  C   UNL A   1      48.288  25.818  27.691  1.00  0.00    -0.006 C 
ATOM     25  C   UNL A   1      46.810  26.452  25.604  1.00  0.00     0.012 C 
ATOM     26  C   UNL A   1      48.261  26.421  29.086  1.00  0.00    -0.063 C 
ATOM     27  C   UNL A   1      49.711  25.276  27.449  1.00  0.00     0.013 C 
ATOM     28  C   UNL A   1      47.470  24.478  27.370  1.00  0.00     0.017 C 
ATOM     29  C   UNL A   1      49.411  27.122  29.857  1.00  0.00     0.033 C 
ATOM     30  C   UNL A   1      50.757  25.293  28.581  1.00  0.00     0.020 C 
ATOM     31  C   UNL A   1      49.678  28.636  30.318  1.00  0.00     0.015 C 
ATOM     32  C   UNL A   1      51.062  29.338  30.225  1.00  0.00    -0.035 C 
ATOM     33  C   UNL A   1      51.972  26.977  29.831  1.00  0.00     0.020 C 
ATOM     34  C   UNL A   1      52.162  28.322  30.517  1.00  0.00     0.007 C 
ATOM     35  C   UNL A   1      51.143  30.447  31.316  1.00  0.00     0.011 C 
ATOM     36  C   UNL A   1      51.297  30.101  28.898  1.00  0.00     0.011 C 
BRANCH   9  37
ATOM     37  C   UNL A   1      45.826  31.830  26.348  1.00  0.00     0.309 C 
ATOM     38  O   UNL A   1      46.092  30.839  25.670  1.00  0.00    -0.252 OA
BRANCH  37  39
ATOM     39  O   UNL A   1      45.574  33.007  25.760  1.00  0.00    -0.469 OA
ATOM     40  C   UNL A   1      44.203  33.181  25.381  1.00  0.00     0.282 C 
ENDBRANCH  37  39
ENDBRANCH   9  37
ENDBRANCH   6   8
ENDBRANCH   5   6
ENDBRANCH   4   5
ENDBRANCH   3   4
ENDBRANCH   2   3
ENDBRANCH   1   2
BRANCH   1  41
ATOM     41  C   UNL A   1      49.477  26.754  37.798  1.00  0.00     0.261 C 
BRANCH  41  42
ATOM     42  O   UNL A   1      48.019  26.683  37.782  1.00  0.00    -0.460 OA
BRANCH  42  43
ATOM     43  C   UNL A   1      47.323  27.869  37.667  1.00  0.00     0.338 C 
ATOM     44  O   UNL A   1      47.485  28.836  38.398  1.00  0.00    -0.246 OA
BRANCH  43  45
ATOM     45  C   UNL A   1      46.310  27.904  36.530  1.00  0.00     0.060 A 
ATOM     46  C   UNL A   1      46.416  28.871  35.527  1.00  0.00     0.016 A 
ATOM     47  C   UNL A   1      45.164  27.085  36.502  1.00  0.00     0.016 A 
ATOM     48  C   UNL A   1      45.400  29.038  34.541  1.00  0.00     0.010 A 
ATOM     49  C   UNL A   1      44.150  27.245  35.500  1.00  0.00     0.010 A 
ATOM     50  C   UNL A   1      44.229  28.252  34.518  1.00  0.00    -0.014 A 
BRANCH  50  51
ATOM     51  C   UNL A   1      43.038  28.688  33.656  1.00  0.00     0.031 A 
ATOM     52  C   UNL A   1      42.076  29.682  34.209  1.00  0.00     0.074 A 
ATOM     53  C   UNL A   1      42.740  28.289  32.395  1.00  0.00     0.049 A 
ATOM     54  N   UNL A   1      40.983  30.131  33.653  1.00  0.00    -0.248 NA
ATOM     55  C   UNL A   1      42.325  30.169  35.568  1.00  0.00     0.031 C 
ATOM     56  C   UNL A   1      43.390  27.183  31.779  1.00  0.00     0.029 A 
ATOM     57  N   UNL A   1      41.858  28.696  31.399  1.00  0.00    -0.354 N 
ATOM     58  C   UNL A   1      40.353  30.874  34.625  1.00  0.00     0.074 A 
ATOM     59  C   UNL A   1      41.215  30.857  35.792  1.00  0.00     0.031 C 
ATOM     60  C   UNL A   1      43.084  27.131  30.477  1.00  0.00     0.029 A 
ATOM     61  C   UNL A   1      42.036  28.048  30.182  1.00  0.00     0.049 A 
ATOM     62  H   UNL A   1      41.168  29.383  31.542  1.00  0.00     0.167 HD
ATOM     63  C   UNL A   1      39.148  31.479  34.553  1.00  0.00     0.034 A 
ATOM     64  C   UNL A   1      41.430  28.026  28.972  1.00  0.00     0.034 A 
ATOM     65  C   UNL A   1      38.288  31.484  33.397  1.00  0.00     0.049 A 
ATOM     66  C   UNL A   1      40.134  28.737  28.907  1.00  0.00     0.074 A 
ATOM     67  C   UNL A   1      37.069  32.123  33.252  1.00  0.00     0.029 A 
ATOM     68  N   UNL A   1      38.525  30.812  32.204  1.00  0.00    -0.354 N 
ATOM     69  N   UNL A   1      39.587  29.466  29.839  1.00  0.00    -0.248 NA
ATOM     70  C   UNL A   1      39.330  28.569  27.690  1.00  0.00     0.031 C 
ATOM     71  C   UNL A   1      36.560  31.824  31.985  1.00  0.00     0.029 A 
ATOM     72  C   UNL A   1      37.477  31.030  31.320  1.00  0.00     0.049 A 
ATOM     73  H   UNL A   1      39.319  30.262  32.014  1.00  0.00     0.167 HD
ATOM     74  C   UNL A   1      38.354  29.824  29.344  1.00  0.00     0.074 A 
ATOM     75  C   UNL A   1      38.257  29.283  28.000  1.00  0.00     0.031 C 
ATOM     76  C   UNL A   1      37.384  30.509  29.980  1.00  0.00     0.034 A 
BRANCH  63  77
ATOM     77  C   UNL A   1      38.685  32.160  35.805  1.00  0.00     0.023 A 
ATOM     78  C   UNL A   1      38.917  33.538  35.984  1.00  0.00     0.012 A 
ATOM     79  C   UNL A   1      38.039  31.422  36.814  1.00  0.00     0.148 A 
ATOM     80  C   UNL A   1      38.553  34.164  37.173  1.00  0.00     0.002 A 
ATOM     81  C   UNL A   1      37.630  32.064  37.972  1.00  0.00     0.091 A 
ATOM     82  F   UNL A   1      37.860  30.106  36.630  1.00  0.00    -0.205 F 
ATOM     83  C   UNL A   1      37.902  33.429  38.161  1.00  0.00     0.022 A 
BRANCH  81  84
ATOM     84  S   UNL A   1      36.722  31.227  39.273  1.00  0.00     0.127 S 
ATOM     85  O   UNL A   1      36.236  30.038  38.574  1.00  0.00    -0.237 OA
ATOM     86  O   UNL A   1      37.775  30.971  40.255  1.00  0.00    -0.237 OA
ATOM     87  O   UNL A   1      35.689  32.155  39.709  1.00  0.00    -0.744 OA
ENDBRANCH  81  84
ENDBRANCH  63  77
BRANCH  64  88
ATOM     88  C   UNL A   1      41.919  27.243  27.769  1.00  0.00     0.023 A 
ATOM     89  C   UNL A   1      42.583  27.924  26.728  1.00  0.00     0.012 A 
ATOM     90  C   UNL A   1      41.704  25.857  27.610  1.00  0.00     0.148 A 
ATOM     91  C   UNL A   1      43.015  27.252  25.575  1.00  0.00     0.002 A 
ATOM     92  C   UNL A   1      42.212  25.176  26.500  1.00  0.00     0.091 A 
ATOM     93  F   UNL A   1      41.006  25.216  28.553  1.00  0.00    -0.205 F 
ATOM     94  C   UNL A   1      42.846  25.876  25.468  1.00  0.00     0.022 A 
BRANCH  92  95
ATOM     95  S   UNL A   1      42.150  23.384  26.356  1.00  0.00     0.127 S 
ATOM     96  O   UNL A   1      42.796  23.142  25.068  1.00  0.00    -0.237 OA
ATOM     97  O   UNL A   1      42.928  22.978  27.523  1.00  0.00    -0.237 OA
ATOM     98  O   UNL A   1      40.729  23.044  26.392  1.00  0.00    -0.744 OA
ENDBRANCH  92  95
ENDBRANCH  64  88
BRANCH  76  99
ATOM     99  C   UNL A   1      36.143  30.768  29.190  1.00  0.00     0.023 A 
ATOM    100  C   UNL A   1      35.417  29.698  28.634  1.00  0.00     0.012 A 
ATOM    101  C   UNL A   1      35.700  32.089  29.013  1.00  0.00     0.148 A 
ATOM    102  C   UNL A   1      34.265  29.947  27.894  1.00  0.00     0.002 A 
ATOM    103  C   UNL A   1      34.525  32.325  28.322  1.00  0.00     0.091 A 
ATOM    104  F   UNL A   1      36.445  33.083  29.517  1.00  0.00    -0.205 F 
ATOM    105  C   UNL A   1      33.811  31.258  27.751  1.00  0.00     0.022 A 
BRANCH 103 106
ATOM    106  S   UNL A   1      33.826  33.968  28.166  1.00  0.00     0.127 S 
ATOM    107  O   UNL A   1      33.864  34.440  29.550  1.00  0.00    -0.237 OA
ATOM    108  O   UNL A   1      34.780  34.620  27.270  1.00  0.00    -0.237 OA
ATOM    109  O   UNL A   1      32.491  33.790  27.611  1.00  0.00    -0.744 OA
ENDBRANCH 103 106
ENDBRANCH  76  99
ENDBRANCH  50  51
ENDBRANCH  43  45
ENDBRANCH  42  43
ENDBRANCH  41  42
ENDBRANCH   1  41
TORSDOF 19
ENDMDL
MODEL 2
REMARK VINA RESULT:      -9.3      6.534     11.227
REMARK SMILES COC(=O)[C@H]1CC[C@]2(C)[C@H](CC[C@]3(C)[C@H]2CC=C2[C@@H]4CC(C)(C)CC[C@]4(C(=O)OCCOCCOC(=O)c4ccc(-c5c6nc(c(-c7cccc(S(=O)(=O)[O-])c7F)c7ccc([nH]7)c(-c7cccc(S(=O)(=O)[O-])c7F)c7nc(c(-c8cccc(S(=O)(=O)[O-])c8F)c8ccc5[nH]8)C=C7)C=C6)cc4)CC[C@@]23C)C1(C)C
REMARK SMILES IDX 33 1 32 2 31 3 30 4 29 5 27 6 28 7 26 8 5 9 6 10 105 11 7 12
REMARK SMILES IDX 10 13 106 14 107 15 8 16 11 17 15 18 9 19 12 20 16 21 13 22
REMARK SMILES IDX 17 23 103 24 14 25 18 26 102 27 104 28 19 29 101 30 20 31
REMARK SMILES IDX 21 32 25 33 24 34 22 35 23 36 3 37 4 38 2 39 1 40 34 41
REMARK SMILES IDX 35 42 36 43 37 44 38 45 39 46 100 47 40 48 99 49 41 50 42 51
REMARK SMILES IDX 43 52 93 53 44 54 98 55 92 56 94 57 45 58 97 59 91 60 90 61
REMARK SMILES IDX 46 63 78 64 58 65 77 66 59 67 62 68 76 69 95 70 60 71 61 72
REMARK SMILES IDX 75 74 96 75 63 76 47 77 48 78 56 79 49 80 51 81 57 82 50 83
REMARK SMILES IDX 52 84 53 85 54 86 55 87 79 88 80 89 88 90 81 91 83 92 89 93
REMARK SMILES IDX 82 94 84 95 85 96 86 97 87 98 64 99 65 100 73 101 66 102
REMARK SMILES IDX 68 103 74 104 67 105 69 106 70 107 71 108 72 109
REMARK H PARENT 94 62 62 73
REMARK Flexibility Score: inf
ROOT
ATOM      1  C   UNL A   1      51.204  38.000  37.116  1.00  0.00     0.202 C 
ENDROOT
BRANCH   1   2
ATOM      2  O   UNL A   1      50.671  39.318  36.953  1.00  0.00    -0.374 OA
BRANCH   2   3
ATOM      3  C   UNL A   1      50.426  39.786  35.620  1.00  0.00     0.202 C 
BRANCH   3   4
ATOM      4  C   UNL A   1      49.397  38.995  34.669  1.00  0.00     0.261 C 
BRANCH   4   5
ATOM      5  O   UNL A   1      48.451  39.817  33.856  1.00  0.00    -0.463 OA
BRANCH   5   6
ATOM      6  C   UNL A   1      47.064  39.858  34.085  1.00  0.00     0.312 C 
ATOM      7  O   UNL A   1      46.568  40.342  35.094  1.00  0.00    -0.252 OA
BRANCH   6   8
ATOM      8  C   UNL A   1      46.213  39.037  32.960  1.00  0.00     0.075 C 
ATOM      9  C   UNL A   1      45.109  42.234  26.024  1.00  0.00     0.105 C 
ATOM     10  C   UNL A   1      45.298  43.557  26.834  1.00  0.00     0.016 C 
ATOM     11  C   UNL A   1      45.803  41.126  26.894  1.00  0.00    -0.019 C 
ATOM     12  C   UNL A   1      44.641  43.575  28.201  1.00  0.00     0.008 C 
ATOM     13  C   UNL A   1      44.871  41.132  28.227  1.00  0.00     0.002 C 
ATOM     14  C   UNL A   1      47.327  41.485  26.961  1.00  0.00     0.012 C 
ATOM     15  C   UNL A   1      45.863  39.784  26.128  1.00  0.00     0.012 C 
ATOM     16  C   UNL A   1      45.018  42.384  29.118  1.00  0.00    -0.026 C 
ATOM     17  C   UNL A   1      44.455  39.820  28.886  1.00  0.00     0.005 C 
ATOM     18  C   UNL A   1      43.870  42.448  30.225  1.00  0.00     0.006 C 
ATOM     19  C   UNL A   1      46.492  42.714  29.571  1.00  0.00     0.012 C 
ATOM     20  C   UNL A   1      43.199  39.889  29.738  1.00  0.00     0.008 C 
ATOM     21  C   UNL A   1      44.469  43.250  31.382  1.00  0.00     0.032 C 
ATOM     22  C   UNL A   1      43.067  41.064  30.719  1.00  0.00    -0.020 C 
ATOM     23  C   UNL A   1      45.266  42.312  32.228  1.00  0.00    -0.027 C 
ATOM     24  C   UNL A   1      43.583  40.690  32.198  1.00  0.00    -0.006 C 
ATOM     25  C   UNL A   1      41.526  41.406  30.716  1.00  0.00     0.012 C 
ATOM     26  C   UNL A   1      45.054  41.009  31.990  1.00  0.00    -0.063 C 
ATOM     27  C   UNL A   1      43.503  39.360  32.975  1.00  0.00     0.013 C 
ATOM     28  C   UNL A   1      42.689  41.588  33.179  1.00  0.00     0.017 C 
ATOM     29  C   UNL A   1      46.238  40.024  31.802  1.00  0.00     0.033 C 
ATOM     30  C   UNL A   1      44.785  38.683  33.498  1.00  0.00     0.020 C 
ATOM     31  C   UNL A   1      47.195  39.659  30.566  1.00  0.00     0.015 C 
ATOM     32  C   UNL A   1      47.633  38.211  30.207  1.00  0.00    -0.035 C 
ATOM     33  C   UNL A   1      46.733  37.614  32.529  1.00  0.00     0.020 C 
ATOM     34  C   UNL A   1      47.828  37.412  31.492  1.00  0.00     0.007 C 
ATOM     35  C   UNL A   1      49.004  38.263  29.471  1.00  0.00     0.011 C 
ATOM     36  C   UNL A   1      46.696  37.498  29.202  1.00  0.00     0.011 C 
BRANCH   9  37
ATOM     37  C   UNL A   1      43.673  41.693  25.642  1.00  0.00     0.309 C 
ATOM     38  O   UNL A   1      42.826  41.328  26.456  1.00  0.00    -0.252 OA
BRANCH  37  39
ATOM     39  O   UNL A   1      43.403  41.679  24.329  1.00  0.00    -0.469 OA
ATOM     40  C   UNL A   1      43.877  42.837  23.630  1.00  0.00     0.282 C 
ENDBRANCH  37  39
ENDBRANCH   9  37
ENDBRANCH   6   8
ENDBRANCH   5   6
ENDBRANCH   4   5
ENDBRANCH   3   4
ENDBRANCH   2   3
ENDBRANCH   1   2
BRANCH   1  41
ATOM     41  C   UNL A   1      50.330  36.885  37.812  1.00  0.00     0.261 C 
BRANCH  41  42
ATOM     42  O   UNL A   1      50.307  35.562  37.195  1.00  0.00    -0.460 OA
BRANCH  42  43
ATOM     43  C   UNL A   1      49.782  35.461  35.923  1.00  0.00     0.338 C 
ATOM     44  O   UNL A   1      50.447  35.495  34.897  1.00  0.00    -0.246 OA
BRANCH  43  45
ATOM     45  C   UNL A   1      48.269  35.288  35.872  1.00  0.00     0.060 A 
ATOM     46  C   UNL A   1      47.715  34.033  35.602  1.00  0.00     0.016 A 
ATOM     47  C   UNL A   1      47.373  36.374  35.946  1.00  0.00     0.016 A 
ATOM     48  C   UNL A   1      46.316  33.867  35.386  1.00  0.00     0.010 A 
ATOM     49  C   UNL A   1      45.964  36.200  35.743  1.00  0.00     0.010 A 
ATOM     50  C   UNL A   1      45.408  34.946  35.420  1.00  0.00    -0.014 A 
BRANCH  50  51
ATOM     51  C   UNL A   1      43.992  34.766  34.861  1.00  0.00     0.031 A 
ATOM     52  C   UNL A   1      43.806  34.701  33.384  1.00  0.00     0.074 A 
ATOM     53  C   UNL A   1      42.838  34.631  35.559  1.00  0.00     0.049 A 
ATOM     54  N   UNL A   1      42.683  34.606  32.724  1.00  0.00    -0.248 NA
ATOM     55  C   UNL A   1      45.004  34.836  32.552  1.00  0.00     0.031 C 
ATOM     56  C   UNL A   1      42.765  34.896  36.956  1.00  0.00     0.029 A 
ATOM     57  N   UNL A   1      41.527  34.271  35.265  1.00  0.00    -0.354 N 
ATOM     58  C   UNL A   1      43.018  34.771  31.400  1.00  0.00     0.074 A 
ATOM     59  C   UNL A   1      44.461  34.922  31.347  1.00  0.00     0.031 C 
ATOM     60  C   UNL A   1      41.590  34.483  37.445  1.00  0.00     0.029 A 
ATOM     61  C   UNL A   1      40.712  34.129  36.383  1.00  0.00     0.049 A 
ATOM     62  H   UNL A   1      41.204  34.129  34.346  1.00  0.00     0.167 HD
ATOM     63  C   UNL A   1      42.188  34.830  30.337  1.00  0.00     0.034 A 
ATOM     64  C   UNL A   1      39.407  33.871  36.632  1.00  0.00     0.034 A 
ATOM     65  C   UNL A   1      40.755  34.693  30.393  1.00  0.00     0.049 A 
ATOM     66  C   UNL A   1      38.525  33.894  35.443  1.00  0.00     0.074 A 
ATOM     67  C   UNL A   1      39.862  34.698  29.336  1.00  0.00     0.029 A 
ATOM     68  N   UNL A   1      39.996  34.553  31.549  1.00  0.00    -0.354 N 
ATOM     69  N   UNL A   1      38.886  34.013  34.196  1.00  0.00    -0.248 NA
ATOM     70  C   UNL A   1      37.077  33.835  35.674  1.00  0.00     0.031 C 
ATOM     71  C   UNL A   1      38.567  34.581  29.849  1.00  0.00     0.029 A 
ATOM     72  C   UNL A   1      38.649  34.464  31.225  1.00  0.00     0.049 A 
ATOM     73  H   UNL A   1      40.360  34.521  32.463  1.00  0.00     0.167 HD
ATOM     74  C   UNL A   1      37.711  34.080  33.483  1.00  0.00     0.074 A 
ATOM     75  C   UNL A   1      36.623  33.924  34.432  1.00  0.00     0.031 C 
ATOM     76  C   UNL A   1      37.568  34.292  32.160  1.00  0.00     0.034 A 
BRANCH  63  77
ATOM     77  C   UNL A   1      42.841  35.094  29.014  1.00  0.00     0.023 A 
ATOM     78  C   UNL A   1      42.907  36.408  28.512  1.00  0.00     0.012 A 
ATOM     79  C   UNL A   1      43.368  34.028  28.261  1.00  0.00     0.148 A 
ATOM     80  C   UNL A   1      43.449  36.654  27.253  1.00  0.00     0.002 A 
ATOM     81  C   UNL A   1      43.956  34.288  27.033  1.00  0.00     0.091 A 
ATOM     82  F   UNL A   1      43.263  32.784  28.750  1.00  0.00    -0.205 F 
ATOM     83  C   UNL A   1      43.982  35.595  26.520  1.00  0.00     0.022 A 
BRANCH  81  84
ATOM     84  S   UNL A   1      44.734  33.010  26.044  1.00  0.00     0.127 S 
ATOM     85  O   UNL A   1      45.954  33.682  25.599  1.00  0.00    -0.237 OA
ATOM     86  O   UNL A   1      44.945  31.953  27.034  1.00  0.00    -0.237 OA
ATOM     87  O   UNL A   1      43.788  32.681  24.988  1.00  0.00    -0.744 OA
ENDBRANCH  81  84
ENDBRANCH  63  77
BRANCH  64  88
ATOM     88  C   UNL A   1      38.804  33.696  38.012  1.00  0.00     0.023 A 
ATOM     89  C   UNL A   1      38.865  34.765  38.931  1.00  0.00     0.012 A 
ATOM     90  C   UNL A   1      38.215  32.491  38.451  1.00  0.00     0.148 A 
ATOM     91  C   UNL A   1      38.362  34.638  40.233  1.00  0.00     0.002 A 
ATOM     92  C   UNL A   1      37.637  32.397  39.720  1.00  0.00     0.091 A 
ATOM     93  F   UNL A   1      38.223  31.446  37.617  1.00  0.00    -0.205 F 
ATOM     94  C   UNL A   1      37.731  33.461  40.623  1.00  0.00     0.022 A 
BRANCH  92  95
ATOM     95  S   UNL A   1      36.691  30.959  40.245  1.00  0.00     0.127 S 
ATOM     96  O   UNL A   1      35.761  31.524  41.220  1.00  0.00    -0.237 OA
ATOM     97  O   UNL A   1      36.085  30.542  38.984  1.00  0.00    -0.237 OA
ATOM     98  O   UNL A   1      37.674  30.038  40.812  1.00  0.00    -0.744 OA
ENDBRANCH  92  95
ENDBRANCH  64  88
BRANCH  76  99
ATOM     99  C   UNL A   1      36.164  34.303  31.651  1.00  0.00     0.023 A 
ATOM    100  C   UNL A   1      35.711  33.286  30.789  1.00  0.00     0.012 A 
ATOM    101  C   UNL A   1      35.293  35.332  32.045  1.00  0.00     0.148 A 
ATOM    102  C   UNL A   1      34.403  33.304  30.313  1.00  0.00     0.002 A 
ATOM    103  C   UNL A   1      33.979  35.315  31.611  1.00  0.00     0.091 A 
ATOM    104  F   UNL A   1      35.774  36.308  32.828  1.00  0.00    -0.205 F 
ATOM    105  C   UNL A   1      33.534  34.309  30.736  1.00  0.00     0.022 A 
BRANCH 103 106
ATOM    106  S   UNL A   1      32.775  36.516  32.175  1.00  0.00     0.127 S 
ATOM    107  O   UNL A   1      32.894  37.558  31.155  1.00  0.00    -0.237 OA
ATOM    108  O   UNL A   1      31.532  35.747  32.122  1.00  0.00    -0.237 OA
ATOM    109  O   UNL A   1      33.191  36.911  33.514  1.00  0.00    -0.744 OA
ENDBRANCH 103 106
ENDBRANCH  76  99
ENDBRANCH  50  51
ENDBRANCH  43  45
ENDBRANCH  42  43
ENDBRANCH  41  42
ENDBRANCH   1  41
TORSDOF 19
ENDMDL
MODEL 3
REMARK VINA RESULT:      -9.2      5.001     11.994
REMARK SMILES COC(=O)[C@H]1CC[C@]2(C)[C@H](CC[C@]3(C)[C@H]2CC=C2[C@@H]4CC(C)(C)CC[C@]4(C(=O)OCCOCCOC(=O)c4ccc(-c5c6nc(c(-c7cccc(S(=O)(=O)[O-])c7F)c7ccc([nH]7)c(-c7cccc(S(=O)(=O)[O-])c7F)c7nc(c(-c8cccc(S(=O)(=O)[O-])c8F)c8ccc5[nH]8)C=C7)C=C6)cc4)CC[C@@]23C)C1(C)C
REMARK SMILES IDX 33 1 32 2 31 3 30 4 29 5 27 6 28 7 26 8 5 9 6 10 105 11 7 12
REMARK SMILES IDX 10 13 106 14 107 15 8 16 11 17 15 18 9 19 12 20 16 21 13 22
REMARK SMILES IDX 17 23 103 24 14 25 18 26 102 27 104 28 19 29 101 30 20 31
REMARK SMILES IDX 21 32 25 33 24 34 22 35 23 36 3 37 4 38 2 39 1 40 34 41
REMARK SMILES IDX 35 42 36 43 37 44 38 45 39 46 100 47 40 48 99 49 41 50 42 51
REMARK SMILES IDX 43 52 93 53 44 54 98 55 92 56 94 57 45 58 97 59 91 60 90 61
REMARK SMILES IDX 46 63 78 64 58 65 77 66 59 67 62 68 76 69 95 70 60 71 61 72
REMARK SMILES IDX 75 74 96 75 63 76 47 77 48 78 56 79 49 80 51 81 57 82 50 83
REMARK SMILES IDX 52 84 53 85 54 86 55 87 79 88 80 89 88 90 81 91 83 92 89 93
REMARK SMILES IDX 82 94 84 95 85 96 86 97 87 98 64 99 65 100 73 101 66 102
REMARK SMILES IDX 68 103 74 104 67 105 69 106 70 107 71 108 72 109
REMARK H PARENT 94 62 62 73
REMARK Flexibility Score: inf
ROOT
ATOM      1  C   UNL A   1      40.631  31.744  31.712  1.00  0.00     0.202 C 
ENDROOT
BRANCH   1   2
ATOM      2  O   UNL A   1      41.425  31.081  30.723  1.00  0.00    -0.374 OA
BRANCH   2   3
ATOM      3  C   UNL A   1      42.463  31.831  30.079  1.00  0.00     0.202 C 
BRANCH   3   4
ATOM      4  C   UNL A   1      43.999  31.603  30.503  1.00  0.00     0.261 C 
BRANCH   4   5
ATOM      5  O   UNL A   1      44.679  30.386  29.967  1.00  0.00    -0.463 OA
BRANCH   5   6
ATOM      6  C   UNL A   1      45.699  30.430  28.999  1.00  0.00     0.312 C 
ATOM      7  O   UNL A   1      46.760  31.014  29.174  1.00  0.00    -0.252 OA
BRANCH   6   8
ATOM      8  C   UNL A   1      45.245  29.782  27.571  1.00  0.00     0.075 C 
ATOM      9  C   UNL A   1      42.188  22.698  27.473  1.00  0.00     0.105 C 
ATOM     10  C   UNL A   1      43.016  22.547  28.789  1.00  0.00     0.016 C 
ATOM     11  C   UNL A   1      41.990  24.245  27.295  1.00  0.00    -0.019 C 
ATOM     12  C   UNL A   1      44.394  23.181  28.760  1.00  0.00     0.008 C 
ATOM     13  C   UNL A   1      43.523  24.744  27.080  1.00  0.00     0.002 C 
ATOM     14  C   UNL A   1      41.134  24.739  28.511  1.00  0.00     0.012 C 
ATOM     15  C   UNL A   1      41.022  24.545  26.127  1.00  0.00     0.012 C 
ATOM     16  C   UNL A   1      44.413  24.673  28.339  1.00  0.00    -0.026 C 
ATOM     17  C   UNL A   1      43.856  25.788  26.018  1.00  0.00     0.005 C 
ATOM     18  C   UNL A   1      45.953  24.889  27.976  1.00  0.00     0.006 C 
ATOM     19  C   UNL A   1      43.846  25.424  29.604  1.00  0.00     0.012 C 
ATOM     20  C   UNL A   1      45.293  25.782  25.526  1.00  0.00     0.008 C 
ATOM     21  C   UNL A   1      46.590  25.461  29.244  1.00  0.00     0.032 C 
ATOM     22  C   UNL A   1      46.407  25.696  26.581  1.00  0.00    -0.020 C 
ATOM     23  C   UNL A   1      46.358  26.936  29.250  1.00  0.00    -0.027 C 
ATOM     24  C   UNL A   1      46.965  27.146  27.003  1.00  0.00    -0.006 C 
ATOM     25  C   UNL A   1      47.530  24.824  25.896  1.00  0.00     0.012 C 
ATOM     26  C   UNL A   1      45.944  27.454  28.085  1.00  0.00    -0.063 C 
ATOM     27  C   UNL A   1      47.150  28.427  26.164  1.00  0.00     0.013 C 
ATOM     28  C   UNL A   1      48.501  26.894  27.386  1.00  0.00     0.017 C 
ATOM     29  C   UNL A   1      44.733  28.422  28.022  1.00  0.00     0.033 C 
ATOM     30  C   UNL A   1      46.455  29.739  26.577  1.00  0.00     0.020 C 
ATOM     31  C   UNL A   1      43.141  28.212  28.009  1.00  0.00     0.015 C 
ATOM     32  C   UNL A   1      42.169  29.015  27.099  1.00  0.00    -0.035 C 
ATOM     33  C   UNL A   1      44.177  30.557  26.712  1.00  0.00     0.020 C 
ATOM     34  C   UNL A   1      42.679  30.446  26.957  1.00  0.00     0.007 C 
ATOM     35  C   UNL A   1      40.770  29.078  27.783  1.00  0.00     0.011 C 
ATOM     36  C   UNL A   1      41.887  28.348  25.731  1.00  0.00     0.011 C 
BRANCH   9  37
ATOM     37  C   UNL A   1      42.716  22.135  26.092  1.00  0.00     0.309 C 
ATOM     38  O   UNL A   1      43.665  22.604  25.465  1.00  0.00    -0.252 OA
BRANCH  37  39
ATOM     39  O   UNL A   1      42.065  21.057  25.633  1.00  0.00    -0.469 OA
ATOM     40  C   UNL A   1      40.745  20.907  26.170  1.00  0.00     0.282 C 
ENDBRANCH  37  39
ENDBRANCH   9  37
ENDBRANCH   6   8
ENDBRANCH   5   6
ENDBRANCH   4   5
ENDBRANCH   3   4
ENDBRANCH   2   3
ENDBRANCH   1   2
BRANCH   1  41
ATOM     41  C   UNL A   1      41.096  31.736  33.221  1.00  0.00     0.261 C 
BRANCH  41  42
ATOM     42  O   UNL A   1      40.305  30.954  34.166  1.00  0.00    -0.460 OA
BRANCH  42  43
ATOM     43  C   UNL A   1      39.984  29.659  33.812  1.00  0.00     0.338 C 
ATOM     44  O   UNL A   1      38.848  29.269  33.583  1.00  0.00    -0.246 OA
BRANCH  43  45
ATOM     45  C   UNL A   1      41.175  28.714  33.712  1.00  0.00     0.060 A 
ATOM     46  C   UNL A   1      41.949  28.440  34.842  1.00  0.00     0.016 A 
ATOM     47  C   UNL A   1      41.636  28.194  32.486  1.00  0.00     0.016 A 
ATOM     48  C   UNL A   1      43.161  27.695  34.753  1.00  0.00     0.010 A 
ATOM     49  C   UNL A   1      42.848  27.431  32.402  1.00  0.00     0.010 A 
ATOM     50  C   UNL A   1      43.658  27.196  33.531  1.00  0.00    -0.014 A 
BRANCH  50  51
ATOM     51  C   UNL A   1      45.106  26.700  33.444  1.00  0.00     0.031 A 
ATOM     52  C   UNL A   1      45.408  25.294  33.829  1.00  0.00     0.074 A 
ATOM     53  C   UNL A   1      46.194  27.394  33.027  1.00  0.00     0.049 A 
ATOM     54  N   UNL A   1      46.576  24.711  33.873  1.00  0.00    -0.248 NA
ATOM     55  C   UNL A   1      44.288  24.471  34.290  1.00  0.00     0.031 C 
ATOM     56  C   UNL A   1      46.165  28.804  32.841  1.00  0.00     0.029 A 
ATOM     57  N   UNL A   1      47.510  27.086  32.694  1.00  0.00    -0.354 N 
ATOM     58  C   UNL A   1      46.356  23.486  34.461  1.00  0.00     0.074 A 
ATOM     59  C   UNL A   1      44.930  23.391  34.712  1.00  0.00     0.031 C 
ATOM     60  C   UNL A   1      47.280  29.214  32.223  1.00  0.00     0.029 A 
ATOM     61  C   UNL A   1      48.225  28.152  32.161  1.00  0.00     0.049 A 
ATOM     62  H   UNL A   1      47.900  26.192  32.824  1.00  0.00     0.167 HD
ATOM     63  C   UNL A   1      47.271  22.550  34.794  1.00  0.00     0.034 A 
ATOM     64  C   UNL A   1      49.495  28.391  31.757  1.00  0.00     0.034 A 
ATOM     65  C   UNL A   1      48.688  22.653  34.556  1.00  0.00     0.049 A 
ATOM     66  C   UNL A   1      50.470  27.329  32.092  1.00  0.00     0.074 A 
ATOM     67  C   UNL A   1      49.662  21.710  34.833  1.00  0.00     0.029 A 
ATOM     68  N   UNL A   1      49.345  23.752  34.017  1.00  0.00    -0.354 N 
ATOM     69  N   UNL A   1      50.216  26.162  32.614  1.00  0.00    -0.248 NA
ATOM     70  C   UNL A   1      51.891  27.622  31.873  1.00  0.00     0.031 C 
ATOM     71  C   UNL A   1      50.907  22.243  34.481  1.00  0.00     0.029 A 
ATOM     72  C   UNL A   1      50.709  23.504  33.949  1.00  0.00     0.049 A 
ATOM     73  H   UNL A   1      48.907  24.585  33.727  1.00  0.00     0.167 HD
ATOM     74  C   UNL A   1      51.446  25.583  32.825  1.00  0.00     0.074 A 
ATOM     75  C   UNL A   1      52.447  26.502  32.314  1.00  0.00     0.031 C 
ATOM     76  C   UNL A   1      51.704  24.406  33.428  1.00  0.00     0.034 A 
BRANCH  63  77
ATOM     77  C   UNL A   1      46.738  21.338  35.496  1.00  0.00     0.023 A 
ATOM     78  C   UNL A   1      46.156  20.294  34.752  1.00  0.00     0.012 A 
ATOM     79  C   UNL A   1      46.797  21.251  36.899  1.00  0.00     0.148 A 
ATOM     80  C   UNL A   1      45.596  19.196  35.399  1.00  0.00     0.002 A 
ATOM     81  C   UNL A   1      46.287  20.129  37.533  1.00  0.00     0.091 A 
ATOM     82  F   UNL A   1      47.328  22.275  37.583  1.00  0.00    -0.205 F 
ATOM     83  C   UNL A   1      45.670  19.110  36.788  1.00  0.00     0.022 A 
BRANCH  81  84
ATOM     84  S   UNL A   1      46.396  19.888  39.307  1.00  0.00     0.127 S 
ATOM     85  O   UNL A   1      45.657  18.639  39.481  1.00  0.00    -0.237 OA
ATOM     86  O   UNL A   1      47.841  19.775  39.504  1.00  0.00    -0.237 OA
ATOM     87  O   UNL A   1      45.784  21.060  39.916  1.00  0.00    -0.744 OA
ENDBRANCH  81  84
ENDBRANCH  63  77
BRANCH  64  88
ATOM     88  C   UNL A   1      49.977  29.682  31.125  1.00  0.00     0.023 A 
ATOM     89  C   UNL A   1      50.520  30.691  31.949  1.00  0.00     0.012 A 
ATOM     90  C   UNL A   1      49.871  29.954  29.744  1.00  0.00     0.148 A 
ATOM     91  C   UNL A   1      50.939  31.919  31.418  1.00  0.00     0.002 A 
ATOM     92  C   UNL A   1      50.370  31.144  29.208  1.00  0.00     0.091 A 
ATOM     93  F   UNL A   1      49.286  29.038  28.966  1.00  0.00    -0.205 F 
ATOM     94  C   UNL A   1      50.881  32.141  30.046  1.00  0.00     0.022 A 
BRANCH  92  95
ATOM     95  S   UNL A   1      50.452  31.444  27.436  1.00  0.00     0.127 S 
ATOM     96  O   UNL A   1      51.585  32.359  27.316  1.00  0.00    -0.237 OA
ATOM     97  O   UNL A   1      50.691  30.096  26.930  1.00  0.00    -0.237 OA
ATOM     98  O   UNL A   1      49.161  32.034  27.086  1.00  0.00    -0.744 OA
ENDBRANCH  92  95
ENDBRANCH  64  88
BRANCH  76  99
ATOM     99  C   UNL A   1      53.144  24.016  33.507  1.00  0.00     0.023 A 
ATOM    100  C   UNL A   1      53.752  23.319  32.446  1.00  0.00     0.012 A 
ATOM    101  C   UNL A   1      53.890  24.359  34.646  1.00  0.00     0.148 A 
ATOM    102  C   UNL A   1      55.093  22.955  32.529  1.00  0.00     0.002 A 
ATOM    103  C   UNL A   1      55.236  24.040  34.699  1.00  0.00     0.091 A 
ATOM    104  F   UNL A   1      53.263  24.981  35.655  1.00  0.00    -0.205 F 
ATOM    105  C   UNL A   1      55.838  23.328  33.647  1.00  0.00     0.022 A 
BRANCH 103 106
ATOM    106  S   UNL A   1      56.284  24.558  36.057  1.00  0.00     0.127 S 
ATOM    107  O   UNL A   1      55.724  23.796  37.173  1.00  0.00    -0.237 OA
ATOM    108  O   UNL A   1      57.603  24.109  35.610  1.00  0.00    -0.237 OA
ATOM    109  O   UNL A   1      56.134  26.003  36.158  1.00  0.00    -0.744 OA
ENDBRANCH 103 106
ENDBRANCH  76  99
ENDBRANCH  50  51
ENDBRANCH  43  45
ENDBRANCH  42  43
ENDBRANCH  41  42
ENDBRANCH   1  41
TORSDOF 19
ENDMDL
