MODEL 1
REMARK VINA RESULT:      -8.0      0.000      0.000
REMARK SMILES CC(=O)N[C@@H](C(=O)N(CC(=O)OCCOCCOC(=O)c1ccc(-c2c3nc(c(-c4cccc(S(=O)(=O)[O-])c4F)c4ccc([nH]4)c(-c4cccc(S(=O)(=O)[O-])c4F)c4nc(c(-c5cccc(S(=O)(=O)[O-])c5F)c5ccc2[nH]5)C=C4)C=C3)cc1)CC(F)(F)F)C(C)C
REMARK SMILES IDX 14 1 13 2 12 3 10 4 11 5 9 6 8 7 6 8 7 9 5 10 4 11 1 12 2 13
REMARK SMILES IDX 3 14 89 16 90 17 91 18 84 19 85 20 86 21 87 22 88 23 15 24
REMARK SMILES IDX 16 25 17 26 18 27 19 28 20 29 21 30 22 31 83 32 23 33 82 34
REMARK SMILES IDX 24 35 25 36 26 37 76 38 27 39 81 40 75 41 77 42 28 43 80 44
REMARK SMILES IDX 74 45 73 46 29 48 61 49 41 50 60 51 42 52 45 53 59 54 78 55
REMARK SMILES IDX 43 56 44 57 58 59 79 60 46 61 30 62 31 63 39 64 32 65 34 66
REMARK SMILES IDX 40 67 33 68 35 69 36 70 37 71 38 72 62 73 63 74 71 75 64 76
REMARK SMILES IDX 66 77 72 78 65 79 67 80 68 81 69 82 70 83 47 84 48 85 56 86
REMARK SMILES IDX 49 87 51 88 57 89 50 90 52 91 53 92 54 93 55 94
REMARK H PARENT 4 15 77 47 45 58
REMARK Flexibility Score: inf
ROOT
ATOM      1  C   UNL A   1      36.746  33.182  36.615  1.00  0.00     0.202 C 
ENDROOT
BRANCH   1   2
ATOM      2  C   UNL A   1      36.124  34.054  35.518  1.00  0.00     0.261 C 
BRANCH   2   3
ATOM      3  O   UNL A   1      36.469  33.612  34.190  1.00  0.00    -0.462 OA
BRANCH   3   4
ATOM      4  C   UNL A   1      37.108  34.530  33.419  1.00  0.00     0.325 C 
ATOM      5  O   UNL A   1      38.260  34.922  33.580  1.00  0.00    -0.250 OA
BRANCH   4   6
ATOM      6  C   UNL A   1      36.292  34.979  32.204  1.00  0.00     0.242 C 
BRANCH   6   7
ATOM      7  N   UNL A   1      34.979  34.383  31.928  1.00  0.00    -0.321 N 
BRANCH   7   8
ATOM      8  C   UNL A   1      34.789  33.089  31.452  1.00  0.00     0.246 C 
ATOM      9  O   UNL A   1      34.208  32.267  32.161  1.00  0.00    -0.272 OA
BRANCH   8  10
ATOM     10  C   UNL A   1      35.385  32.671  30.067  1.00  0.00     0.174 C 
BRANCH  10  11
ATOM     11  N   UNL A   1      36.655  33.381  29.907  1.00  0.00    -0.344 N 
ATOM     12  C   UNL A   1      38.020  31.450  29.184  1.00  0.00     0.114 C 
ATOM     13  C   UNL A   1      37.879  32.905  29.539  1.00  0.00     0.217 C 
ATOM     14  O   UNL A   1      38.849  33.658  29.563  1.00  0.00    -0.275 OA
ATOM     15  H   UNL A   1      36.621  34.347  30.093  1.00  0.00     0.164 HD
ENDBRANCH  10  11
BRANCH  10  16
ATOM     16  C   UNL A   1      34.386  32.978  28.915  1.00  0.00     0.015 C 
ATOM     17  C   UNL A   1      34.735  34.253  28.140  1.00  0.00     0.010 C 
ATOM     18  C   UNL A   1      34.328  31.816  27.908  1.00  0.00     0.010 C 
ENDBRANCH  10  16
ENDBRANCH   8  10
ENDBRANCH   7   8
BRANCH   7  19
ATOM     19  C   UNL A   1      33.795  35.114  32.441  1.00  0.00     0.235 C 
BRANCH  19  20
ATOM     20  C   UNL A   1      32.890  35.913  31.485  1.00  0.00     0.406 C 
ATOM     21  F   UNL A   1      31.744  36.320  32.069  1.00  0.00    -0.169 F 
ATOM     22  F   UNL A   1      33.545  37.050  31.121  1.00  0.00    -0.169 F 
ATOM     23  F   UNL A   1      32.604  35.245  30.352  1.00  0.00    -0.169 F 
ENDBRANCH  19  20
ENDBRANCH   7  19
ENDBRANCH   6   7
ENDBRANCH   4   6
ENDBRANCH   3   4
ENDBRANCH   2   3
ENDBRANCH   1   2
BRANCH   1  24
ATOM     24  O   UNL A   1      38.020  32.602  36.329  1.00  0.00    -0.374 OA
BRANCH  24  25
ATOM     25  C   UNL A   1      38.094  31.181  36.243  1.00  0.00     0.202 C 
BRANCH  25  26
ATOM     26  C   UNL A   1      38.436  30.585  34.873  1.00  0.00     0.261 C 
BRANCH  26  27
ATOM     27  O   UNL A   1      37.447  30.915  33.881  1.00  0.00    -0.460 OA
BRANCH  27  28
ATOM     28  C   UNL A   1      37.441  30.091  32.804  1.00  0.00     0.338 C 
ATOM     29  O   UNL A   1      36.502  29.904  32.035  1.00  0.00    -0.246 OA
BRANCH  28  30
ATOM     30  C   UNL A   1      38.786  29.558  32.527  1.00  0.00     0.060 A 
ATOM     31  C   UNL A   1      38.973  28.178  32.681  1.00  0.00     0.016 A 
ATOM     32  C   UNL A   1      39.872  30.390  32.251  1.00  0.00     0.016 A 
ATOM     33  C   UNL A   1      40.255  27.634  32.622  1.00  0.00     0.010 A 
ATOM     34  C   UNL A   1      41.159  29.840  32.188  1.00  0.00     0.010 A 
ATOM     35  C   UNL A   1      41.364  28.468  32.419  1.00  0.00    -0.014 A 
BRANCH  35  36
ATOM     36  C   UNL A   1      42.730  27.913  32.595  1.00  0.00     0.031 A 
ATOM     37  C   UNL A   1      43.537  27.536  31.379  1.00  0.00     0.074 A 
ATOM     38  C   UNL A   1      43.267  27.778  33.822  1.00  0.00     0.049 A 
ATOM     39  N   UNL A   1      44.762  27.079  31.307  1.00  0.00    -0.248 NA
ATOM     40  C   UNL A   1      42.881  27.698  30.071  1.00  0.00     0.031 C 
ATOM     41  C   UNL A   1      42.593  28.103  35.078  1.00  0.00     0.029 A 
ATOM     42  N   UNL A   1      44.501  27.317  34.211  1.00  0.00    -0.354 N 
ATOM     43  C   UNL A   1      45.016  26.881  29.955  1.00  0.00     0.074 A 
ATOM     44  C   UNL A   1      43.812  27.250  29.241  1.00  0.00     0.031 C 
ATOM     45  C   UNL A   1      43.415  27.813  36.100  1.00  0.00     0.029 A 
ATOM     46  C   UNL A   1      44.666  27.268  35.574  1.00  0.00     0.049 A 
ATOM     47  H   UNL A   1      45.201  27.048  33.573  1.00  0.00     0.167 HD
ATOM     48  C   UNL A   1      46.153  26.453  29.356  1.00  0.00     0.034 A 
ATOM     49  C   UNL A   1      45.702  26.826  36.315  1.00  0.00     0.034 A 
ATOM     50  C   UNL A   1      47.359  26.108  30.060  1.00  0.00     0.049 A 
ATOM     51  C   UNL A   1      46.950  26.336  35.625  1.00  0.00     0.074 A 
ATOM     52  C   UNL A   1      48.577  25.712  29.535  1.00  0.00     0.029 A 
ATOM     53  N   UNL A   1      47.499  26.106  31.438  1.00  0.00    -0.354 N 
ATOM     54  N   UNL A   1      47.220  26.285  34.343  1.00  0.00    -0.248 NA
ATOM     55  C   UNL A   1      48.051  25.876  36.485  1.00  0.00     0.031 C 
ATOM     56  C   UNL A   1      49.448  25.448  30.598  1.00  0.00     0.029 A 
ATOM     57  C   UNL A   1      48.778  25.704  31.785  1.00  0.00     0.049 A 
ATOM     58  H   UNL A   1      46.793  26.354  32.078  1.00  0.00     0.167 HD
ATOM     59  C   UNL A   1      48.529  25.824  34.244  1.00  0.00     0.074 A 
ATOM     60  C   UNL A   1      49.005  25.629  35.598  1.00  0.00     0.031 C 
ATOM     61  C   UNL A   1      49.264  25.570  33.134  1.00  0.00     0.034 A 
BRANCH  48  62
ATOM     62  C   UNL A   1      46.166  26.369  27.852  1.00  0.00     0.023 A 
ATOM     63  C   UNL A   1      46.521  27.505  27.098  1.00  0.00     0.012 A 
ATOM     64  C   UNL A   1      45.895  25.155  27.191  1.00  0.00     0.148 A 
ATOM     65  C   UNL A   1      46.581  27.443  25.707  1.00  0.00     0.002 A 
ATOM     66  C   UNL A   1      45.997  25.091  25.806  1.00  0.00     0.091 A 
ATOM     67  F   UNL A   1      45.540  24.091  27.925  1.00  0.00    -0.205 F 
ATOM     68  C   UNL A   1      46.330  26.235  25.062  1.00  0.00     0.022 A 
BRANCH  66  69
ATOM     69  S   UNL A   1      45.767  23.563  24.888  1.00  0.00     0.127 S 
ATOM     70  O   UNL A   1      46.235  22.568  25.852  1.00  0.00    -0.237 OA
ATOM     71  O   UNL A   1      44.321  23.555  24.659  1.00  0.00    -0.237 OA
ATOM     72  O   UNL A   1      46.572  23.693  23.682  1.00  0.00    -0.744 OA
ENDBRANCH  66  69
ENDBRANCH  48  62
BRANCH  49  73
ATOM     73  C   UNL A   1      45.625  26.866  37.802  1.00  0.00     0.023 A 
ATOM     74  C   UNL A   1      45.134  25.748  38.505  1.00  0.00     0.012 A 
ATOM     75  C   UNL A   1      46.041  28.001  38.525  1.00  0.00     0.148 A 
ATOM     76  C   UNL A   1      45.032  25.771  39.897  1.00  0.00     0.002 A 
ATOM     77  C   UNL A   1      45.986  27.997  39.913  1.00  0.00     0.091 A 
ATOM     78  F   UNL A   1      46.483  29.065  37.839  1.00  0.00    -0.205 F 
ATOM     79  C   UNL A   1      45.467  26.889  40.601  1.00  0.00     0.022 A 
BRANCH  77  80
ATOM     80  S   UNL A   1      46.636  29.349  40.903  1.00  0.00     0.127 S 
ATOM     81  O   UNL A   1      46.956  28.675  42.158  1.00  0.00    -0.237 OA
ATOM     82  O   UNL A   1      47.797  29.772  40.117  1.00  0.00    -0.237 OA
ATOM     83  O   UNL A   1      45.566  30.336  40.966  1.00  0.00    -0.744 OA
ENDBRANCH  77  80
ENDBRANCH  49  73
BRANCH  61  84
ATOM     84  C   UNL A   1      50.678  25.083  33.319  1.00  0.00     0.023 A 
ATOM     85  C   UNL A   1      51.698  26.001  33.640  1.00  0.00     0.012 A 
ATOM     86  C   UNL A   1      50.982  23.707  33.259  1.00  0.00     0.148 A 
ATOM     87  C   UNL A   1      53.001  25.562  33.869  1.00  0.00     0.002 A 
ATOM     88  C   UNL A   1      52.273  23.273  33.535  1.00  0.00     0.091 A 
ATOM     89  F   UNL A   1      50.002  22.851  32.935  1.00  0.00    -0.205 F 
ATOM     90  C   UNL A   1      53.287  24.198  33.830  1.00  0.00     0.022 A 
BRANCH  88  91
ATOM     91  S   UNL A   1      52.710  21.531  33.598  1.00  0.00     0.127 S 
ATOM     92  O   UNL A   1      51.849  21.046  34.675  1.00  0.00    -0.237 OA
ATOM     93  O   UNL A   1      52.334  21.067  32.262  1.00  0.00    -0.237 OA
ATOM     94  O   UNL A   1      54.141  21.486  33.871  1.00  0.00    -0.744 OA
ENDBRANCH  88  91
ENDBRANCH  61  84
ENDBRANCH  35  36
ENDBRANCH  28  30
ENDBRANCH  27  28
ENDBRANCH  26  27
ENDBRANCH  25  26
ENDBRANCH  24  25
ENDBRANCH   1  24
TORSDOF 24
ENDMDL
MODEL 2
REMARK VINA RESULT:      -8.0      4.419      7.596
REMARK SMILES CC(=O)N[C@@H](C(=O)N(CC(=O)OCCOCCOC(=O)c1ccc(-c2c3nc(c(-c4cccc(S(=O)(=O)[O-])c4F)c4ccc([nH]4)c(-c4cccc(S(=O)(=O)[O-])c4F)c4nc(c(-c5cccc(S(=O)(=O)[O-])c5F)c5ccc2[nH]5)C=C4)C=C3)cc1)CC(F)(F)F)C(C)C
REMARK SMILES IDX 14 1 13 2 12 3 10 4 11 5 9 6 8 7 6 8 7 9 5 10 4 11 1 12 2 13
REMARK SMILES IDX 3 14 89 16 90 17 91 18 84 19 85 20 86 21 87 22 88 23 15 24
REMARK SMILES IDX 16 25 17 26 18 27 19 28 20 29 21 30 22 31 83 32 23 33 82 34
REMARK SMILES IDX 24 35 25 36 26 37 76 38 27 39 81 40 75 41 77 42 28 43 80 44
REMARK SMILES IDX 74 45 73 46 29 48 61 49 41 50 60 51 42 52 45 53 59 54 78 55
REMARK SMILES IDX 43 56 44 57 58 59 79 60 46 61 30 62 31 63 39 64 32 65 34 66
REMARK SMILES IDX 40 67 33 68 35 69 36 70 37 71 38 72 62 73 63 74 71 75 64 76
REMARK SMILES IDX 66 77 72 78 65 79 67 80 68 81 69 82 70 83 47 84 48 85 56 86
REMARK SMILES IDX 49 87 51 88 57 89 50 90 52 91 53 92 54 93 55 94
REMARK H PARENT 4 15 77 47 45 58
REMARK Flexibility Score: inf
ROOT
ATOM      1  C   UNL A   1      35.189  35.230  32.960  1.00  0.00     0.202 C 
ENDROOT
BRANCH   1   2
ATOM      2  C   UNL A   1      36.078  34.415  32.013  1.00  0.00     0.261 C 
BRANCH   2   3
ATOM      3  O   UNL A   1      35.482  34.222  30.715  1.00  0.00    -0.462 OA
BRANCH   3   4
ATOM      4  C   UNL A   1      34.994  32.976  30.477  1.00  0.00     0.325 C 
ATOM      5  O   UNL A   1      34.023  32.710  29.776  1.00  0.00    -0.250 OA
BRANCH   4   6
ATOM      6  C   UNL A   1      35.853  31.862  31.080  1.00  0.00     0.242 C 
BRANCH   6   7
ATOM      7  N   UNL A   1      36.678  31.008  30.217  1.00  0.00    -0.321 N 
BRANCH   7   8
ATOM      8  C   UNL A   1      38.069  30.977  30.242  1.00  0.00     0.246 C 
ATOM      9  O   UNL A   1      38.693  32.039  30.216  1.00  0.00    -0.272 OA
BRANCH   8  10
ATOM     10  C   UNL A   1      38.821  29.607  30.217  1.00  0.00     0.174 C 
BRANCH  10  11
ATOM     11  N   UNL A   1      39.109  29.292  28.816  1.00  0.00    -0.344 N 
ATOM     12  C   UNL A   1      41.573  29.209  28.999  1.00  0.00     0.114 C 
ATOM     13  C   UNL A   1      40.308  29.121  28.190  1.00  0.00     0.217 C 
ATOM     14  O   UNL A   1      40.333  28.961  26.973  1.00  0.00    -0.275 OA
ATOM     15  H   UNL A   1      38.318  29.189  28.240  1.00  0.00     0.164 HD
ENDBRANCH  10  11
BRANCH  10  16
ATOM     16  C   UNL A   1      37.982  28.497  30.912  1.00  0.00     0.015 C 
ATOM     17  C   UNL A   1      38.558  27.091  30.710  1.00  0.00     0.010 C 
ATOM     18  C   UNL A   1      37.876  28.749  32.426  1.00  0.00     0.010 C 
ENDBRANCH  10  16
ENDBRANCH   8  10
ENDBRANCH   7   8
BRANCH   7  19
ATOM     19  C   UNL A   1      35.974  29.936  29.473  1.00  0.00     0.235 C 
BRANCH  19  20
ATOM     20  C   UNL A   1      35.642  30.104  27.978  1.00  0.00     0.406 C 
ATOM     21  F   UNL A   1      35.892  28.990  27.260  1.00  0.00    -0.169 F 
ATOM     22  F   UNL A   1      34.304  30.331  27.858  1.00  0.00    -0.169 F 
ATOM     23  F   UNL A   1      36.270  31.152  27.416  1.00  0.00    -0.169 F 
ENDBRANCH  19  20
ENDBRANCH   7  19
ENDBRANCH   6   7
ENDBRANCH   4   6
ENDBRANCH   3   4
ENDBRANCH   2   3
ENDBRANCH   1   2
BRANCH   1  24
ATOM     24  O   UNL A   1      35.265  34.907  34.350  1.00  0.00    -0.374 OA
BRANCH  24  25
ATOM     25  C   UNL A   1      35.903  33.683  34.709  1.00  0.00     0.202 C 
BRANCH  25  26
ATOM     26  C   UNL A   1      36.710  33.677  36.012  1.00  0.00     0.261 C 
BRANCH  26  27
ATOM     27  O   UNL A   1      37.046  32.342  36.430  1.00  0.00    -0.460 OA
BRANCH  27  28
ATOM     28  C   UNL A   1      38.322  32.198  36.864  1.00  0.00     0.338 C 
ATOM     29  O   UNL A   1      38.678  31.973  38.018  1.00  0.00    -0.246 OA
BRANCH  28  30
ATOM     30  C   UNL A   1      39.271  32.153  35.739  1.00  0.00     0.060 A 
ATOM     31  C   UNL A   1      38.840  31.525  34.562  1.00  0.00     0.016 A 
ATOM     32  C   UNL A   1      40.591  32.591  35.862  1.00  0.00     0.016 A 
ATOM     33  C   UNL A   1      39.744  31.277  33.530  1.00  0.00     0.010 A 
ATOM     34  C   UNL A   1      41.496  32.344  34.821  1.00  0.00     0.010 A 
ATOM     35  C   UNL A   1      41.090  31.646  33.670  1.00  0.00    -0.014 A 
BRANCH  35  36
ATOM     36  C   UNL A   1      42.080  31.166  32.671  1.00  0.00     0.031 A 
ATOM     37  C   UNL A   1      42.493  32.076  31.544  1.00  0.00     0.074 A 
ATOM     38  C   UNL A   1      42.638  29.946  32.785  1.00  0.00     0.049 A 
ATOM     39  N   UNL A   1      43.372  31.873  30.595  1.00  0.00    -0.248 NA
ATOM     40  C   UNL A   1      41.831  33.390  31.476  1.00  0.00     0.031 C 
ATOM     41  C   UNL A   1      42.325  28.969  33.827  1.00  0.00     0.029 A 
ATOM     42  N   UNL A   1      43.577  29.318  32.004  1.00  0.00    -0.354 N 
ATOM     43  C   UNL A   1      43.356  33.020  29.809  1.00  0.00     0.074 A 
ATOM     44  C   UNL A   1      42.367  33.909  30.380  1.00  0.00     0.031 C 
ATOM     45  C   UNL A   1      43.046  27.856  33.609  1.00  0.00     0.029 A 
ATOM     46  C   UNL A   1      43.858  28.034  32.406  1.00  0.00     0.049 A 
ATOM     47  H   UNL A   1      44.007  29.747  31.230  1.00  0.00     0.167 HD
ATOM     48  C   UNL A   1      44.111  33.318  28.724  1.00  0.00     0.034 A 
ATOM     49  C   UNL A   1      44.669  27.105  31.862  1.00  0.00     0.034 A 
ATOM     50  C   UNL A   1      45.112  32.448  28.169  1.00  0.00     0.049 A 
ATOM     51  C   UNL A   1      45.483  27.455  30.642  1.00  0.00     0.074 A 
ATOM     52  C   UNL A   1      45.960  32.685  27.101  1.00  0.00     0.029 A 
ATOM     53  N   UNL A   1      45.392  31.170  28.625  1.00  0.00    -0.354 N 
ATOM     54  N   UNL A   1      45.555  28.593  29.994  1.00  0.00    -0.248 NA
ATOM     55  C   UNL A   1      46.357  26.404  30.099  1.00  0.00     0.031 C 
ATOM     56  C   UNL A   1      46.739  31.541  26.898  1.00  0.00     0.029 A 
ATOM     57  C   UNL A   1      46.392  30.600  27.855  1.00  0.00     0.049 A 
ATOM     58  H   UNL A   1      44.946  30.732  29.386  1.00  0.00     0.167 HD
ATOM     59  C   UNL A   1      46.504  28.406  28.995  1.00  0.00     0.074 A 
ATOM     60  C   UNL A   1      46.995  27.051  29.135  1.00  0.00     0.031 C 
ATOM     61  C   UNL A   1      46.919  29.273  28.038  1.00  0.00     0.034 A 
BRANCH  48  62
ATOM     62  C   UNL A   1      43.913  34.667  28.082  1.00  0.00     0.023 A 
ATOM     63  C   UNL A   1      42.943  34.817  27.071  1.00  0.00     0.012 A 
ATOM     64  C   UNL A   1      44.633  35.793  28.525  1.00  0.00     0.148 A 
ATOM     65  C   UNL A   1      42.710  36.063  26.491  1.00  0.00     0.002 A 
ATOM     66  C   UNL A   1      44.366  37.040  27.969  1.00  0.00     0.091 A 
ATOM     67  F   UNL A   1      45.564  35.626  29.475  1.00  0.00    -0.205 F 
ATOM     68  C   UNL A   1      43.414  37.175  26.947  1.00  0.00     0.022 A 
BRANCH  66  69
ATOM     69  S   UNL A   1      45.164  38.545  28.541  1.00  0.00     0.127 S 
ATOM     70  O   UNL A   1      44.770  38.571  29.949  1.00  0.00    -0.237 OA
ATOM     71  O   UNL A   1      46.580  38.251  28.310  1.00  0.00    -0.237 OA
ATOM     72  O   UNL A   1      44.627  39.622  27.721  1.00  0.00    -0.744 OA
ENDBRANCH  66  69
ENDBRANCH  48  62
BRANCH  49  73
ATOM     73  C   UNL A   1      44.787  25.759  32.491  1.00  0.00     0.023 A 
ATOM     74  C   UNL A   1      44.083  24.669  31.944  1.00  0.00     0.012 A 
ATOM     75  C   UNL A   1      45.598  25.552  33.624  1.00  0.00     0.148 A 
ATOM     76  C   UNL A   1      44.161  23.405  32.530  1.00  0.00     0.002 A 
ATOM     77  C   UNL A   1      45.713  24.280  34.171  1.00  0.00     0.091 A 
ATOM     78  F   UNL A   1      46.243  26.606  34.146  1.00  0.00    -0.205 F 
ATOM     79  C   UNL A   1      44.983  23.208  33.635  1.00  0.00     0.022 A 
BRANCH  77  80
ATOM     80  S   UNL A   1      46.842  23.915  35.521  1.00  0.00     0.127 S 
ATOM     81  O   UNL A   1      48.122  24.345  34.966  1.00  0.00    -0.237 OA
ATOM     82  O   UNL A   1      46.319  24.764  36.593  1.00  0.00    -0.237 OA
ATOM     83  O   UNL A   1      46.704  22.486  35.768  1.00  0.00    -0.744 OA
ENDBRANCH  77  80
ENDBRANCH  49  73
BRANCH  61  84
ATOM     84  C   UNL A   1      47.983  28.807  27.077  1.00  0.00     0.023 A 
ATOM     85  C   UNL A   1      49.336  28.828  27.469  1.00  0.00     0.012 A 
ATOM     86  C   UNL A   1      47.636  28.271  25.821  1.00  0.00     0.148 A 
ATOM     87  C   UNL A   1      50.329  28.351  26.614  1.00  0.00     0.002 A 
ATOM     88  C   UNL A   1      48.626  27.754  24.993  1.00  0.00     0.091 A 
ATOM     89  F   UNL A   1      46.345  28.275  25.458  1.00  0.00    -0.205 F 
ATOM     90  C   UNL A   1      49.974  27.802  25.383  1.00  0.00     0.022 A 
BRANCH  88  91
ATOM     91  S   UNL A   1      48.253  26.945  23.433  1.00  0.00     0.127 S 
ATOM     92  O   UNL A   1      47.551  25.743  23.880  1.00  0.00    -0.237 OA
ATOM     93  O   UNL A   1      47.405  27.933  22.765  1.00  0.00    -0.237 OA
ATOM     94  O   UNL A   1      49.536  26.715  22.783  1.00  0.00    -0.744 OA
ENDBRANCH  88  91
ENDBRANCH  61  84
ENDBRANCH  35  36
ENDBRANCH  28  30
ENDBRANCH  27  28
ENDBRANCH  26  27
ENDBRANCH  25  26
ENDBRANCH  24  25
ENDBRANCH   1  24
TORSDOF 24
ENDMDL
MODEL 3
REMARK VINA RESULT:      -7.9      2.335      8.280
REMARK SMILES CC(=O)N[C@@H](C(=O)N(CC(=O)OCCOCCOC(=O)c1ccc(-c2c3nc(c(-c4cccc(S(=O)(=O)[O-])c4F)c4ccc([nH]4)c(-c4cccc(S(=O)(=O)[O-])c4F)c4nc(c(-c5cccc(S(=O)(=O)[O-])c5F)c5ccc2[nH]5)C=C4)C=C3)cc1)CC(F)(F)F)C(C)C
REMARK SMILES IDX 14 1 13 2 12 3 10 4 11 5 9 6 8 7 6 8 7 9 5 10 4 11 1 12 2 13
REMARK SMILES IDX 3 14 89 16 90 17 91 18 84 19 85 20 86 21 87 22 88 23 15 24
REMARK SMILES IDX 16 25 17 26 18 27 19 28 20 29 21 30 22 31 83 32 23 33 82 34
REMARK SMILES IDX 24 35 25 36 26 37 76 38 27 39 81 40 75 41 77 42 28 43 80 44
REMARK SMILES IDX 74 45 73 46 29 48 61 49 41 50 60 51 42 52 45 53 59 54 78 55
REMARK SMILES IDX 43 56 44 57 58 59 79 60 46 61 30 62 31 63 39 64 32 65 34 66
REMARK SMILES IDX 40 67 33 68 35 69 36 70 37 71 38 72 62 73 63 74 71 75 64 76
REMARK SMILES IDX 66 77 72 78 65 79 67 80 68 81 69 82 70 83 47 84 48 85 56 86
REMARK SMILES IDX 49 87 51 88 57 89 50 90 52 91 53 92 54 93 55 94
REMARK H PARENT 4 15 77 47 45 58
REMARK Flexibility Score: inf
ROOT
ATOM      1  C   UNL A   1      34.511  35.939  32.441  1.00  0.00     0.202 C 
ENDROOT
BRANCH   1   2
ATOM      2  C   UNL A   1      34.014  34.784  31.564  1.00  0.00     0.261 C 
BRANCH   2   3
ATOM      3  O   UNL A   1      34.689  34.717  30.291  1.00  0.00    -0.462 OA
BRANCH   3   4
ATOM      4  C   UNL A   1      34.398  33.627  29.534  1.00  0.00     0.325 C 
ATOM      5  O   UNL A   1      33.836  33.642  28.443  1.00  0.00    -0.250 OA
BRANCH   4   6
ATOM      6  C   UNL A   1      34.951  32.321  30.111  1.00  0.00     0.242 C 
BRANCH   6   7
ATOM      7  N   UNL A   1      36.192  31.741  29.582  1.00  0.00    -0.321 N 
BRANCH   7   8
ATOM      8  C   UNL A   1      36.422  30.376  29.441  1.00  0.00     0.246 C 
ATOM      9  O   UNL A   1      35.641  29.703  28.767  1.00  0.00    -0.272 OA
BRANCH   8  10
ATOM     10  C   UNL A   1      37.609  29.700  30.202  1.00  0.00     0.174 C 
BRANCH  10  11
ATOM     11  N   UNL A   1      38.017  28.529  29.423  1.00  0.00    -0.344 N 
ATOM     12  C   UNL A   1      39.969  29.548  28.298  1.00  0.00     0.114 C 
ATOM     13  C   UNL A   1      39.042  28.387  28.535  1.00  0.00     0.217 C 
ATOM     14  O   UNL A   1      39.151  27.339  27.906  1.00  0.00    -0.275 OA
ATOM     15  H   UNL A   1      37.467  27.724  29.559  1.00  0.00     0.164 HD
ENDBRANCH  10  11
BRANCH  10  16
ATOM     16  C   UNL A   1      37.201  29.330  31.656  1.00  0.00     0.015 C 
ATOM     17  C   UNL A   1      38.211  28.408  32.349  1.00  0.00     0.010 C 
ATOM     18  C   UNL A   1      37.041  30.590  32.525  1.00  0.00     0.010 C 
ENDBRANCH  10  16
ENDBRANCH   8  10
ENDBRANCH   7   8
BRANCH   7  19
ATOM     19  C   UNL A   1      37.135  32.675  28.922  1.00  0.00     0.235 C 
BRANCH  19  20
ATOM     20  C   UNL A   1      38.159  33.475  29.749  1.00  0.00     0.406 C 
ATOM     21  F   UNL A   1      37.708  33.783  30.983  1.00  0.00    -0.169 F 
ATOM     22  F   UNL A   1      39.261  32.696  29.939  1.00  0.00    -0.169 F 
ATOM     23  F   UNL A   1      38.574  34.595  29.130  1.00  0.00    -0.169 F 
ENDBRANCH  19  20
ENDBRANCH   7  19
ENDBRANCH   6   7
ENDBRANCH   4   6
ENDBRANCH   3   4
ENDBRANCH   2   3
ENDBRANCH   1   2
BRANCH   1  24
ATOM     24  O   UNL A   1      34.994  35.597  33.741  1.00  0.00    -0.374 OA
BRANCH  24  25
ATOM     25  C   UNL A   1      35.175  34.214  34.035  1.00  0.00     0.202 C 
BRANCH  25  26
ATOM     26  C   UNL A   1      35.887  33.870  35.348  1.00  0.00     0.261 C 
BRANCH  26  27
ATOM     27  O   UNL A   1      36.791  32.762  35.196  1.00  0.00    -0.460 OA
BRANCH  27  28
ATOM     28  C   UNL A   1      37.985  32.927  35.817  1.00  0.00     0.338 C 
ATOM     29  O   UNL A   1      38.184  33.538  36.863  1.00  0.00    -0.246 OA
BRANCH  28  30
ATOM     30  C   UNL A   1      39.037  32.112  35.186  1.00  0.00     0.060 A 
ATOM     31  C   UNL A   1      39.080  30.751  35.518  1.00  0.00     0.016 A 
ATOM     32  C   UNL A   1      40.038  32.676  34.393  1.00  0.00     0.016 A 
ATOM     33  C   UNL A   1      40.157  29.965  35.111  1.00  0.00     0.010 A 
ATOM     34  C   UNL A   1      41.117  31.882  33.982  1.00  0.00     0.010 A 
ATOM     35  C   UNL A   1      41.207  30.536  34.377  1.00  0.00    -0.014 A 
BRANCH  35  36
ATOM     36  C   UNL A   1      42.448  29.750  34.157  1.00  0.00     0.031 A 
ATOM     37  C   UNL A   1      43.410  29.553  35.300  1.00  0.00     0.074 A 
ATOM     38  C   UNL A   1      42.703  29.183  32.963  1.00  0.00     0.049 A 
ATOM     39  N   UNL A   1      44.524  28.866  35.336  1.00  0.00    -0.248 NA
ATOM     40  C   UNL A   1      43.073  30.213  36.572  1.00  0.00     0.031 C 
ATOM     41  C   UNL A   1      41.856  29.298  31.777  1.00  0.00     0.029 A 
ATOM     42  N   UNL A   1      43.758  28.408  32.550  1.00  0.00    -0.354 N 
ATOM     43  C   UNL A   1      45.030  29.026  36.621  1.00  0.00     0.074 A 
ATOM     44  C   UNL A   1      44.111  29.890  37.331  1.00  0.00     0.031 C 
ATOM     45  C   UNL A   1      42.435  28.633  30.763  1.00  0.00     0.029 A 
ATOM     46  C   UNL A   1      43.700  28.059  31.222  1.00  0.00     0.049 A 
ATOM     47  H   UNL A   1      44.488  28.128  33.149  1.00  0.00     0.167 HD
ATOM     48  C   UNL A   1      46.144  28.487  37.170  1.00  0.00     0.034 A 
ATOM     49  C   UNL A   1      44.569  27.366  30.460  1.00  0.00     0.034 A 
ATOM     50  C   UNL A   1      47.047  27.608  36.475  1.00  0.00     0.049 A 
ATOM     51  C   UNL A   1      45.813  26.792  31.091  1.00  0.00     0.074 A 
ATOM     52  C   UNL A   1      48.175  26.973  36.965  1.00  0.00     0.029 A 
ATOM     53  N   UNL A   1      46.934  27.250  35.142  1.00  0.00    -0.354 N 
ATOM     54  N   UNL A   1      46.203  26.840  32.342  1.00  0.00    -0.248 NA
ATOM     55  C   UNL A   1      46.719  26.037  30.212  1.00  0.00     0.031 C 
ATOM     56  C   UNL A   1      48.758  26.249  35.920  1.00  0.00     0.029 A 
ATOM     57  C   UNL A   1      47.978  26.413  34.786  1.00  0.00     0.049 A 
ATOM     58  H   UNL A   1      46.217  27.547  34.536  1.00  0.00     0.167 HD
ATOM     59  C   UNL A   1      47.376  26.095  32.407  1.00  0.00     0.074 A 
ATOM     60  C   UNL A   1      47.622  25.589  31.073  1.00  0.00     0.031 C 
ATOM     61  C   UNL A   1      48.184  25.864  33.471  1.00  0.00     0.034 A 
BRANCH  48  62
ATOM     62  C   UNL A   1      46.435  28.798  38.616  1.00  0.00     0.023 A 
ATOM     63  C   UNL A   1      45.921  27.956  39.622  1.00  0.00     0.012 A 
ATOM     64  C   UNL A   1      47.269  29.876  38.972  1.00  0.00     0.148 A 
ATOM     65  C   UNL A   1      46.211  28.198  40.965  1.00  0.00     0.002 A 
ATOM     66  C   UNL A   1      47.585  30.086  40.309  1.00  0.00     0.091 A 
ATOM     67  F   UNL A   1      47.732  30.676  38.001  1.00  0.00    -0.205 F 
ATOM     68  C   UNL A   1      47.050  29.254  41.306  1.00  0.00     0.022 A 
BRANCH  66  69
ATOM     69  S   UNL A   1      48.718  31.373  40.845  1.00  0.00     0.127 S 
ATOM     70  O   UNL A   1      48.733  31.168  42.293  1.00  0.00    -0.237 OA
ATOM     71  O   UNL A   1      49.958  30.997  40.164  1.00  0.00    -0.237 OA
ATOM     72  O   UNL A   1      48.138  32.631  40.397  1.00  0.00    -0.744 OA
ENDBRANCH  66  69
ENDBRANCH  48  62
BRANCH  49  73
ATOM     73  C   UNL A   1      44.276  27.135  29.017  1.00  0.00     0.023 A 
ATOM     74  C   UNL A   1      44.704  28.075  28.060  1.00  0.00     0.012 A 
ATOM     75  C   UNL A   1      43.581  25.987  28.589  1.00  0.00     0.148 A 
ATOM     76  C   UNL A   1      44.421  27.890  26.706  1.00  0.00     0.002 A 
ATOM     77  C   UNL A   1      43.348  25.783  27.234  1.00  0.00     0.091 A 
ATOM     78  F   UNL A   1      43.160  25.115  29.516  1.00  0.00    -0.205 F 
ATOM     79  C   UNL A   1      43.754  26.741  26.292  1.00  0.00     0.022 A 
BRANCH  77  80
ATOM     80  S   UNL A   1      42.602  24.275  26.605  1.00  0.00     0.127 S 
ATOM     81  O   UNL A   1      42.666  24.487  25.162  1.00  0.00    -0.237 OA
ATOM     82  O   UNL A   1      43.510  23.248  27.119  1.00  0.00    -0.237 OA
ATOM     83  O   UNL A   1      41.265  24.232  27.182  1.00  0.00    -0.744 OA
ENDBRANCH  77  80
ENDBRANCH  49  73
BRANCH  61  84
ATOM     84  C   UNL A   1      49.400  24.998  33.260  1.00  0.00     0.023 A 
ATOM     85  C   UNL A   1      50.586  25.570  32.759  1.00  0.00     0.012 A 
ATOM     86  C   UNL A   1      49.393  23.640  33.636  1.00  0.00     0.148 A 
ATOM     87  C   UNL A   1      51.737  24.797  32.609  1.00  0.00     0.002 A 
ATOM     88  C   UNL A   1      50.556  22.887  33.526  1.00  0.00     0.091 A 
ATOM     89  F   UNL A   1      48.249  23.109  34.093  1.00  0.00    -0.205 F 
ATOM     90  C   UNL A   1      51.727  23.461  33.004  1.00  0.00     0.022 A 
BRANCH  88  91
ATOM     91  S   UNL A   1      50.661  21.187  34.097  1.00  0.00     0.127 S 
ATOM     92  O   UNL A   1      52.082  20.897  33.915  1.00  0.00    -0.237 OA
ATOM     93  O   UNL A   1      50.236  21.300  35.493  1.00  0.00    -0.237 OA
ATOM     94  O   UNL A   1      49.752  20.423  33.252  1.00  0.00    -0.744 OA
ENDBRANCH  88  91
ENDBRANCH  61  84
ENDBRANCH  35  36
ENDBRANCH  28  30
ENDBRANCH  27  28
ENDBRANCH  26  27
ENDBRANCH  25  26
ENDBRANCH  24  25
ENDBRANCH   1  24
TORSDOF 24
ENDMDL
