MODEL 1
REMARK VINA RESULT:     -10.1      0.000      0.000
REMARK SMILES C[C@H](c1ccc(Br)s1)[NH+]1CCC(CC(=O)OCCOCCOC(=O)c2ccc(-c3c4nc(c(-c5cccc(S(=O)(=O)[O-])c5F)c5ccc([nH]5)c(-c5cccc(S(=O)(=O)[O-])c5F)c5nc(c(-c6cccc(S(=O)(=O)[O-])c6F)c6ccc3[nH]6)C=C5)C=C4)cc2)CC1
REMARK SMILES IDX 19 1 18 2 17 3 16 4 14 5 15 6 13 7 12 8 9 9 10 10 89 11
REMARK SMILES IDX 11 13 88 14 2 15 1 16 3 17 4 18 8 19 5 20 6 21 7 22 20 23
REMARK SMILES IDX 21 24 22 25 23 26 24 27 25 28 26 29 87 30 27 31 86 32 28 33
REMARK SMILES IDX 29 34 30 35 80 36 31 37 85 38 79 39 81 40 32 41 84 42 78 43
REMARK SMILES IDX 77 44 33 46 65 47 45 48 64 49 46 50 49 51 63 52 82 53 47 54
REMARK SMILES IDX 48 55 62 57 83 58 50 59 34 60 35 61 43 62 36 63 38 64 44 65
REMARK SMILES IDX 37 66 39 67 40 68 41 69 42 70 66 71 67 72 75 73 68 74 70 75
REMARK SMILES IDX 76 76 69 77 71 78 72 79 73 80 74 81 51 82 52 83 60 84 53 85
REMARK SMILES IDX 55 86 61 87 54 88 56 89 57 90 58 91 59 92
REMARK H PARENT 9 12 81 45 49 56
REMARK Flexibility Score: inf
ROOT
ATOM      1  O   UNL A   1      37.356  20.804  24.336  1.00  0.00    -0.374 OA
ENDROOT
BRANCH   1   2
ATOM      2  C   UNL A   1      36.694  21.932  24.914  1.00  0.00     0.202 C 
BRANCH   2   3
ATOM      3  C   UNL A   1      35.164  21.893  24.880  1.00  0.00     0.261 C 
BRANCH   3   4
ATOM      4  O   UNL A   1      34.669  20.722  25.559  1.00  0.00    -0.463 OA
BRANCH   4   5
ATOM      5  C   UNL A   1      33.457  20.258  25.171  1.00  0.00     0.306 C 
ATOM      6  O   UNL A   1      32.857  19.327  25.698  1.00  0.00    -0.252 OA
BRANCH   5   7
ATOM      7  C   UNL A   1      32.912  20.989  23.963  1.00  0.00     0.126 C 
BRANCH   7   8
ATOM      8  C   UNL A   1      31.719  21.946  24.171  1.00  0.00     0.011 C 
ATOM      9  N   UNL A   1      31.046  24.715  24.908  1.00  0.00    -0.328 N 
ATOM     10  C   UNL A   1      30.647  23.604  25.793  1.00  0.00     0.263 C 
ATOM     11  C   UNL A   1      30.905  24.291  23.514  1.00  0.00     0.263 C 
ATOM     12  H   UNL A   1      32.032  24.945  25.037  1.00  0.00     0.348 HD
ATOM     13  C   UNL A   1      31.599  22.419  25.627  1.00  0.00     0.066 C 
ATOM     14  C   UNL A   1      31.884  23.152  23.228  1.00  0.00     0.066 C 
BRANCH   9  15
ATOM     15  C   UNL A   1      30.336  25.966  25.264  1.00  0.00     0.222 C 
ATOM     16  C   UNL A   1      29.815  26.761  24.050  1.00  0.00     0.082 C 
BRANCH  15  17
ATOM     17  C   UNL A   1      31.278  26.877  26.037  1.00  0.00     0.063 A 
ATOM     18  C   UNL A   1      31.060  27.514  27.248  1.00  0.00     0.023 A 
ATOM     19  S   UNL A   1      32.838  27.244  25.416  1.00  0.00    -0.127 S 
ATOM     20  C   UNL A   1      32.167  28.319  27.650  1.00  0.00     0.028 A 
ATOM     21  C   UNL A   1      33.184  28.252  26.732  1.00  0.00     0.070 A 
ATOM     22  Br  UNL A   1      34.799  29.182  26.912  1.00  0.00    -0.039 Br
ENDBRANCH  15  17
ENDBRANCH   9  15
ENDBRANCH   7   8
ENDBRANCH   5   7
ENDBRANCH   4   5
ENDBRANCH   3   4
ENDBRANCH   2   3
ENDBRANCH   1   2
BRANCH   1  23
ATOM     23  C   UNL A   1      38.288  20.111  25.164  1.00  0.00     0.202 C 
BRANCH  23  24
ATOM     24  C   UNL A   1      39.195  20.983  26.041  1.00  0.00     0.261 C 
BRANCH  24  25
ATOM     25  O   UNL A   1      40.039  20.200  26.904  1.00  0.00    -0.460 OA
BRANCH  25  26
ATOM     26  C   UNL A   1      41.240  19.883  26.365  1.00  0.00     0.338 C 
ATOM     27  O   UNL A   1      41.516  18.863  25.744  1.00  0.00    -0.246 OA
BRANCH  26  28
ATOM     28  C   UNL A   1      42.183  21.010  26.474  1.00  0.00     0.060 A 
ATOM     29  C   UNL A   1      42.505  21.445  27.768  1.00  0.00     0.016 A 
ATOM     30  C   UNL A   1      42.668  21.695  25.357  1.00  0.00     0.016 A 
ATOM     31  C   UNL A   1      43.234  22.616  27.950  1.00  0.00     0.010 A 
ATOM     32  C   UNL A   1      43.403  22.873  25.543  1.00  0.00     0.010 A 
ATOM     33  C   UNL A   1      43.637  23.368  26.840  1.00  0.00    -0.014 A 
BRANCH  33  34
ATOM     34  C   UNL A   1      44.117  24.757  27.053  1.00  0.00     0.031 A 
ATOM     35  C   UNL A   1      43.154  25.779  27.601  1.00  0.00     0.074 A 
ATOM     36  C   UNL A   1      45.396  25.095  26.816  1.00  0.00     0.049 A 
ATOM     37  N   UNL A   1      43.360  27.035  27.901  1.00  0.00    -0.248 NA
ATOM     38  C   UNL A   1      41.775  25.322  27.847  1.00  0.00     0.031 C 
ATOM     39  C   UNL A   1      46.426  24.198  26.295  1.00  0.00     0.029 A 
ATOM     40  N   UNL A   1      46.042  26.296  26.972  1.00  0.00    -0.354 N 
ATOM     41  C   UNL A   1      42.137  27.525  28.341  1.00  0.00     0.074 A 
ATOM     42  C   UNL A   1      41.188  26.437  28.256  1.00  0.00     0.031 C 
ATOM     43  C   UNL A   1      47.572  24.887  26.156  1.00  0.00     0.029 A 
ATOM     44  C   UNL A   1      47.353  26.275  26.561  1.00  0.00     0.049 A 
ATOM     45  H   UNL A   1      45.607  27.097  27.345  1.00  0.00     0.167 HD
ATOM     46  C   UNL A   1      41.831  28.763  28.798  1.00  0.00     0.034 A 
ATOM     47  C   UNL A   1      48.268  27.264  26.510  1.00  0.00     0.034 A 
ATOM     48  C   UNL A   1      42.779  29.837  28.913  1.00  0.00     0.049 A 
ATOM     49  C   UNL A   1      47.900  28.635  27.016  1.00  0.00     0.074 A 
ATOM     50  C   UNL A   1      42.576  31.114  29.405  1.00  0.00     0.029 A 
ATOM     51  N   UNL A   1      44.108  29.762  28.529  1.00  0.00    -0.354 N 
ATOM     52  N   UNL A   1      46.772  29.049  27.541  1.00  0.00    -0.248 NA
ATOM     53  C   UNL A   1      48.947  29.668  26.959  1.00  0.00     0.031 C 
ATOM     54  C   UNL A   1      43.779  31.819  29.298  1.00  0.00     0.029 A 
ATOM     55  C   UNL A   1      44.737  30.971  28.766  1.00  0.00     0.049 A 
ATOM     56  H   UNL A   1      44.540  28.966  28.144  1.00  0.00     0.167 HD
ATOM     57  C   UNL A   1      46.985  30.372  27.915  1.00  0.00     0.074 A 
ATOM     58  C   UNL A   1      48.357  30.687  27.570  1.00  0.00     0.031 C 
ATOM     59  C   UNL A   1      46.121  31.251  28.479  1.00  0.00     0.034 A 
BRANCH  46  60
ATOM     60  C   UNL A   1      40.413  29.013  29.238  1.00  0.00     0.023 A 
ATOM     61  C   UNL A   1      39.436  29.352  28.278  1.00  0.00     0.012 A 
ATOM     62  C   UNL A   1      40.035  28.864  30.586  1.00  0.00     0.148 A 
ATOM     63  C   UNL A   1      38.113  29.568  28.659  1.00  0.00     0.002 A 
ATOM     64  C   UNL A   1      38.705  29.042  30.952  1.00  0.00     0.091 A 
ATOM     65  F   UNL A   1      40.983  28.567  31.487  1.00  0.00    -0.205 F 
ATOM     66  C   UNL A   1      37.746  29.403  29.992  1.00  0.00     0.022 A 
BRANCH  64  67
ATOM     67  S   UNL A   1      38.121  28.778  32.630  1.00  0.00     0.127 S 
ATOM     68  O   UNL A   1      36.751  29.284  32.548  1.00  0.00    -0.237 OA
ATOM     69  O   UNL A   1      38.227  27.325  32.769  1.00  0.00    -0.237 OA
ATOM     70  O   UNL A   1      39.019  29.536  33.490  1.00  0.00    -0.744 OA
ENDBRANCH  64  67
ENDBRANCH  46  60
BRANCH  47  71
ATOM     71  C   UNL A   1      49.641  26.983  26.001  1.00  0.00     0.023 A 
ATOM     72  C   UNL A   1      50.600  26.416  26.863  1.00  0.00     0.012 A 
ATOM     73  C   UNL A   1      49.996  27.260  24.667  1.00  0.00     0.148 A 
ATOM     74  C   UNL A   1      51.897  26.160  26.414  1.00  0.00     0.002 A 
ATOM     75  C   UNL A   1      51.272  26.954  24.211  1.00  0.00     0.091 A 
ATOM     76  F   UNL A   1      49.074  27.818  23.867  1.00  0.00    -0.205 F 
ATOM     77  C   UNL A   1      52.229  26.419  25.086  1.00  0.00     0.022 A 
BRANCH  75  78
ATOM     78  S   UNL A   1      51.748  27.135  22.488  1.00  0.00     0.127 S 
ATOM     79  O   UNL A   1      52.863  26.199  22.385  1.00  0.00    -0.237 OA
ATOM     80  O   UNL A   1      50.529  26.722  21.792  1.00  0.00    -0.237 OA
ATOM     81  O   UNL A   1      52.084  28.543  22.321  1.00  0.00    -0.744 OA
ENDBRANCH  75  78
ENDBRANCH  47  71
BRANCH  59  82
ATOM     82  C   UNL A   1      46.633  32.629  28.811  1.00  0.00     0.023 A 
ATOM     83  C   UNL A   1      47.227  32.874  30.065  1.00  0.00     0.012 A 
ATOM     84  C   UNL A   1      46.602  33.657  27.848  1.00  0.00     0.148 A 
ATOM     85  C   UNL A   1      47.753  34.131  30.366  1.00  0.00     0.002 A 
ATOM     86  C   UNL A   1      47.170  34.892  28.138  1.00  0.00     0.091 A 
ATOM     87  F   UNL A   1      46.016  33.411  26.667  1.00  0.00    -0.205 F 
ATOM     88  C   UNL A   1      47.735  35.134  29.400  1.00  0.00     0.022 A 
BRANCH  86  89
ATOM     89  S   UNL A   1      47.278  36.208  26.920  1.00  0.00     0.127 S 
ATOM     90  O   UNL A   1      45.963  36.834  27.038  1.00  0.00    -0.237 OA
ATOM     91  O   UNL A   1      48.387  37.017  27.429  1.00  0.00    -0.237 OA
ATOM     92  O   UNL A   1      47.549  35.552  25.647  1.00  0.00    -0.744 OA
ENDBRANCH  86  89
ENDBRANCH  59  82
ENDBRANCH  33  34
ENDBRANCH  26  28
ENDBRANCH  25  26
ENDBRANCH  24  25
ENDBRANCH  23  24
ENDBRANCH   1  23
TORSDOF 20
ENDMDL
MODEL 2
REMARK VINA RESULT:     -10.1      3.374      8.279
REMARK SMILES C[C@H](c1ccc(Br)s1)[NH+]1CCC(CC(=O)OCCOCCOC(=O)c2ccc(-c3c4nc(c(-c5cccc(S(=O)(=O)[O-])c5F)c5ccc([nH]5)c(-c5cccc(S(=O)(=O)[O-])c5F)c5nc(c(-c6cccc(S(=O)(=O)[O-])c6F)c6ccc3[nH]6)C=C5)C=C4)cc2)CC1
REMARK SMILES IDX 19 1 18 2 17 3 16 4 14 5 15 6 13 7 12 8 9 9 10 10 89 11
REMARK SMILES IDX 11 13 88 14 2 15 1 16 3 17 4 18 8 19 5 20 6 21 7 22 20 23
REMARK SMILES IDX 21 24 22 25 23 26 24 27 25 28 26 29 87 30 27 31 86 32 28 33
REMARK SMILES IDX 29 34 30 35 80 36 31 37 85 38 79 39 81 40 32 41 84 42 78 43
REMARK SMILES IDX 77 44 33 46 65 47 45 48 64 49 46 50 49 51 63 52 82 53 47 54
REMARK SMILES IDX 48 55 62 57 83 58 50 59 34 60 35 61 43 62 36 63 38 64 44 65
REMARK SMILES IDX 37 66 39 67 40 68 41 69 42 70 66 71 67 72 75 73 68 74 70 75
REMARK SMILES IDX 76 76 69 77 71 78 72 79 73 80 74 81 51 82 52 83 60 84 53 85
REMARK SMILES IDX 55 86 61 87 54 88 56 89 57 90 58 91 59 92
REMARK H PARENT 9 12 81 45 49 56
REMARK Flexibility Score: inf
ROOT
ATOM      1  O   UNL A   1      37.801  21.818  25.107  1.00  0.00    -0.374 OA
ENDROOT
BRANCH   1   2
ATOM      2  C   UNL A   1      36.652  20.989  25.305  1.00  0.00     0.202 C 
BRANCH   2   3
ATOM      3  C   UNL A   1      35.364  21.467  24.632  1.00  0.00     0.261 C 
BRANCH   3   4
ATOM      4  O   UNL A   1      34.210  21.075  25.401  1.00  0.00    -0.463 OA
BRANCH   4   5
ATOM      5  C   UNL A   1      33.035  20.977  24.735  1.00  0.00     0.306 C 
ATOM      6  O   UNL A   1      32.138  20.185  25.000  1.00  0.00    -0.252 OA
BRANCH   5   7
ATOM      7  C   UNL A   1      32.945  21.938  23.569  1.00  0.00     0.126 C 
BRANCH   7   8
ATOM      8  C   UNL A   1      31.826  23.002  23.590  1.00  0.00     0.011 C 
ATOM      9  N   UNL A   1      31.280  25.806  24.296  1.00  0.00    -0.328 N 
ATOM     10  C   UNL A   1      30.623  24.721  25.049  1.00  0.00     0.263 C 
ATOM     11  C   UNL A   1      31.365  25.427  22.885  1.00  0.00     0.263 C 
ATOM     12  H   UNL A   1      32.240  25.937  24.614  1.00  0.00     0.348 HD
ATOM     13  C   UNL A   1      31.478  23.453  25.016  1.00  0.00     0.066 C 
ATOM     14  C   UNL A   1      32.273  24.205  22.740  1.00  0.00     0.066 C 
BRANCH   9  15
ATOM     15  C   UNL A   1      30.631  27.112  24.562  1.00  0.00     0.222 C 
ATOM     16  C   UNL A   1      30.077  27.807  23.304  1.00  0.00     0.082 C 
BRANCH  15  17
ATOM     17  C   UNL A   1      31.642  28.055  25.197  1.00  0.00     0.063 A 
ATOM     18  C   UNL A   1      31.625  29.441  25.233  1.00  0.00     0.023 A 
ATOM     19  S   UNL A   1      33.035  27.433  25.989  1.00  0.00    -0.127 S 
ATOM     20  C   UNL A   1      32.767  29.985  25.892  1.00  0.00     0.028 A 
ATOM     21  C   UNL A   1      33.600  28.991  26.337  1.00  0.00     0.070 A 
ATOM     22  Br  UNL A   1      35.206  29.319  27.242  1.00  0.00    -0.039 Br
ENDBRANCH  15  17
ENDBRANCH   9  15
ENDBRANCH   7   8
ENDBRANCH   5   7
ENDBRANCH   4   5
ENDBRANCH   3   4
ENDBRANCH   2   3
ENDBRANCH   1   2
BRANCH   1  23
ATOM     23  C   UNL A   1      38.774  21.830  26.149  1.00  0.00     0.202 C 
BRANCH  23  24
ATOM     24  C   UNL A   1      39.991  20.919  25.950  1.00  0.00     0.261 C 
BRANCH  24  25
ATOM     25  O   UNL A   1      41.127  21.344  26.724  1.00  0.00    -0.460 OA
BRANCH  25  26
ATOM     26  C   UNL A   1      41.848  22.336  26.150  1.00  0.00     0.338 C 
ATOM     27  O   UNL A   1      42.524  22.252  25.130  1.00  0.00    -0.246 OA
BRANCH  26  28
ATOM     28  C   UNL A   1      41.605  23.625  26.821  1.00  0.00     0.060 A 
ATOM     29  C   UNL A   1      41.305  24.721  26.000  1.00  0.00     0.016 A 
ATOM     30  C   UNL A   1      41.759  23.795  28.199  1.00  0.00     0.016 A 
ATOM     31  C   UNL A   1      41.250  26.003  26.538  1.00  0.00     0.010 A 
ATOM     32  C   UNL A   1      41.702  25.087  28.739  1.00  0.00     0.010 A 
ATOM     33  C   UNL A   1      41.506  26.201  27.900  1.00  0.00    -0.014 A 
BRANCH  33  34
ATOM     34  C   UNL A   1      41.764  27.579  28.387  1.00  0.00     0.031 A 
ATOM     35  C   UNL A   1      43.180  28.097  28.376  1.00  0.00     0.074 A 
ATOM     36  C   UNL A   1      40.757  28.378  28.781  1.00  0.00     0.049 A 
ATOM     37  N   UNL A   1      43.635  29.274  28.717  1.00  0.00    -0.248 NA
ATOM     38  C   UNL A   1      44.221  27.162  27.915  1.00  0.00     0.031 C 
ATOM     39  C   UNL A   1      39.347  28.000  28.830  1.00  0.00     0.029 A 
ATOM     40  N   UNL A   1      40.775  29.675  29.231  1.00  0.00    -0.354 N 
ATOM     41  C   UNL A   1      45.012  29.214  28.542  1.00  0.00     0.074 A 
ATOM     42  C   UNL A   1      45.323  27.880  28.078  1.00  0.00     0.031 C 
ATOM     43  C   UNL A   1      38.635  29.037  29.303  1.00  0.00     0.029 A 
ATOM     44  C   UNL A   1      39.540  30.145  29.607  1.00  0.00     0.049 A 
ATOM     45  H   UNL A   1      41.595  30.218  29.279  1.00  0.00     0.167 HD
ATOM     46  C   UNL A   1      45.936  30.186  28.727  1.00  0.00     0.034 A 
ATOM     47  C   UNL A   1      39.183  31.330  30.142  1.00  0.00     0.034 A 
ATOM     48  C   UNL A   1      45.627  31.522  29.158  1.00  0.00     0.049 A 
ATOM     49  C   UNL A   1      40.232  32.393  30.347  1.00  0.00     0.074 A 
ATOM     50  C   UNL A   1      46.488  32.591  29.333  1.00  0.00     0.029 A 
ATOM     51  N   UNL A   1      44.358  31.973  29.485  1.00  0.00    -0.354 N 
ATOM     52  N   UNL A   1      41.511  32.358  30.062  1.00  0.00    -0.248 NA
ATOM     53  C   UNL A   1      39.779  33.674  30.911  1.00  0.00     0.031 C 
ATOM     54  C   UNL A   1      45.741  33.683  29.787  1.00  0.00     0.029 A 
ATOM     55  C   UNL A   1      44.411  33.301  29.867  1.00  0.00     0.049 A 
ATOM     56  H   UNL A   1      43.539  31.427  29.450  1.00  0.00     0.167 HD
ATOM     57  C   UNL A   1      42.007  33.621  30.371  1.00  0.00     0.074 A 
ATOM     58  C   UNL A   1      40.886  34.403  30.850  1.00  0.00     0.031 C 
ATOM     59  C   UNL A   1      43.277  34.087  30.279  1.00  0.00     0.034 A 
BRANCH  46  60
ATOM     60  C   UNL A   1      47.374  29.847  28.433  1.00  0.00     0.023 A 
ATOM     61  C   UNL A   1      47.902  30.109  27.151  1.00  0.00     0.012 A 
ATOM     62  C   UNL A   1      48.213  29.321  29.433  1.00  0.00     0.148 A 
ATOM     63  C   UNL A   1      49.235  29.822  26.862  1.00  0.00     0.002 A 
ATOM     64  C   UNL A   1      49.552  29.076  29.149  1.00  0.00     0.091 A 
ATOM     65  F   UNL A   1      47.686  29.056  30.637  1.00  0.00    -0.205 F 
ATOM     66  C   UNL A   1      50.062  29.316  27.863  1.00  0.00     0.022 A 
BRANCH  64  67
ATOM     67  S   UNL A   1      50.713  28.496  30.391  1.00  0.00     0.127 S 
ATOM     68  O   UNL A   1      51.938  28.352  29.605  1.00  0.00    -0.237 OA
ATOM     69  O   UNL A   1      50.726  29.607  31.343  1.00  0.00    -0.237 OA
ATOM     70  O   UNL A   1      50.154  27.256  30.913  1.00  0.00    -0.744 OA
ENDBRANCH  64  67
ENDBRANCH  46  60
BRANCH  47  71
ATOM     71  C   UNL A   1      37.755  31.594  30.481  1.00  0.00     0.023 A 
ATOM     72  C   UNL A   1      37.238  31.149  31.713  1.00  0.00     0.012 A 
ATOM     73  C   UNL A   1      36.913  32.295  29.596  1.00  0.00     0.148 A 
ATOM     74  C   UNL A   1      35.900  31.369  32.044  1.00  0.00     0.002 A 
ATOM     75  C   UNL A   1      35.597  32.558  29.954  1.00  0.00     0.091 A 
ATOM     76  F   UNL A   1      37.419  32.694  28.419  1.00  0.00    -0.205 F 
ATOM     77  C   UNL A   1      35.083  32.082  31.170  1.00  0.00     0.022 A 
BRANCH  75  78
ATOM     78  S   UNL A   1      34.512  33.578  28.949  1.00  0.00     0.127 S 
ATOM     79  O   UNL A   1      33.975  32.602  28.005  1.00  0.00    -0.237 OA
ATOM     80  O   UNL A   1      33.554  34.070  29.939  1.00  0.00    -0.237 OA
ATOM     81  O   UNL A   1      35.364  34.611  28.377  1.00  0.00    -0.744 OA
ENDBRANCH  75  78
ENDBRANCH  47  71
BRANCH  59  82
ATOM     82  C   UNL A   1      43.529  35.524  30.657  1.00  0.00     0.023 A 
ATOM     83  C   UNL A   1      43.941  35.844  31.965  1.00  0.00     0.012 A 
ATOM     84  C   UNL A   1      43.441  36.546  29.691  1.00  0.00     0.148 A 
ATOM     85  C   UNL A   1      44.230  37.164  32.315  1.00  0.00     0.002 A 
ATOM     86  C   UNL A   1      43.774  37.852  30.034  1.00  0.00     0.091 A 
ATOM     87  F   UNL A   1      43.029  36.226  28.456  1.00  0.00    -0.205 F 
ATOM     88  C   UNL A   1      44.158  38.163  31.348  1.00  0.00     0.022 A 
BRANCH  86  89
ATOM     89  S   UNL A   1      43.805  39.182  28.828  1.00  0.00     0.127 S 
ATOM     90  O   UNL A   1      42.408  39.229  28.399  1.00  0.00    -0.237 OA
ATOM     91  O   UNL A   1      44.234  40.327  29.634  1.00  0.00    -0.237 OA
ATOM     92  O   UNL A   1      44.762  38.774  27.808  1.00  0.00    -0.744 OA
ENDBRANCH  86  89
ENDBRANCH  59  82
ENDBRANCH  33  34
ENDBRANCH  26  28
ENDBRANCH  25  26
ENDBRANCH  24  25
ENDBRANCH  23  24
ENDBRANCH   1  23
TORSDOF 20
ENDMDL
MODEL 3
REMARK VINA RESULT:     -10.1      5.462     11.006
REMARK SMILES C[C@H](c1ccc(Br)s1)[NH+]1CCC(CC(=O)OCCOCCOC(=O)c2ccc(-c3c4nc(c(-c5cccc(S(=O)(=O)[O-])c5F)c5ccc([nH]5)c(-c5cccc(S(=O)(=O)[O-])c5F)c5nc(c(-c6cccc(S(=O)(=O)[O-])c6F)c6ccc3[nH]6)C=C5)C=C4)cc2)CC1
REMARK SMILES IDX 19 1 18 2 17 3 16 4 14 5 15 6 13 7 12 8 9 9 10 10 89 11
REMARK SMILES IDX 11 13 88 14 2 15 1 16 3 17 4 18 8 19 5 20 6 21 7 22 20 23
REMARK SMILES IDX 21 24 22 25 23 26 24 27 25 28 26 29 87 30 27 31 86 32 28 33
REMARK SMILES IDX 29 34 30 35 80 36 31 37 85 38 79 39 81 40 32 41 84 42 78 43
REMARK SMILES IDX 77 44 33 46 65 47 45 48 64 49 46 50 49 51 63 52 82 53 47 54
REMARK SMILES IDX 48 55 62 57 83 58 50 59 34 60 35 61 43 62 36 63 38 64 44 65
REMARK SMILES IDX 37 66 39 67 40 68 41 69 42 70 66 71 67 72 75 73 68 74 70 75
REMARK SMILES IDX 76 76 69 77 71 78 72 79 73 80 74 81 51 82 52 83 60 84 53 85
REMARK SMILES IDX 55 86 61 87 54 88 56 89 57 90 58 91 59 92
REMARK H PARENT 9 12 81 45 49 56
REMARK Flexibility Score: inf
ROOT
ATOM      1  O   UNL A   1      43.412  21.711  24.726  1.00  0.00    -0.374 OA
ENDROOT
BRANCH   1   2
ATOM      2  C   UNL A   1      44.817  21.958  24.609  1.00  0.00     0.202 C 
BRANCH   2   3
ATOM      3  C   UNL A   1      45.224  23.430  24.497  1.00  0.00     0.261 C 
BRANCH   3   4
ATOM      4  O   UNL A   1      44.066  24.285  24.555  1.00  0.00    -0.463 OA
BRANCH   4   5
ATOM      5  C   UNL A   1      43.941  25.071  25.651  1.00  0.00     0.306 C 
ATOM      6  O   UNL A   1      43.836  24.663  26.802  1.00  0.00    -0.252 OA
BRANCH   5   7
ATOM      7  C   UNL A   1      43.899  26.545  25.309  1.00  0.00     0.126 C 
BRANCH   7   8
ATOM      8  C   UNL A   1      44.736  27.514  26.172  1.00  0.00     0.011 C 
ATOM      9  N   UNL A   1      45.847  30.238  26.215  1.00  0.00    -0.328 N 
ATOM     10  C   UNL A   1      46.756  29.078  26.170  1.00  0.00     0.263 C 
ATOM     11  C   UNL A   1      44.704  29.919  27.072  1.00  0.00     0.263 C 
ATOM     12  H   UNL A   1      45.464  30.435  25.291  1.00  0.00     0.348 HD
ATOM     13  C   UNL A   1      46.069  27.885  25.505  1.00  0.00     0.066 C 
ATOM     14  C   UNL A   1      43.901  28.779  26.443  1.00  0.00     0.066 C 
BRANCH   9  15
ATOM     15  C   UNL A   1      46.577  31.478  26.572  1.00  0.00     0.222 C 
ATOM     16  C   UNL A   1      47.572  31.310  27.737  1.00  0.00     0.082 C 
BRANCH  15  17
ATOM     17  C   UNL A   1      45.578  32.551  26.977  1.00  0.00     0.063 A 
ATOM     18  C   UNL A   1      45.184  32.926  28.252  1.00  0.00     0.023 A 
ATOM     19  S   UNL A   1      44.758  33.474  25.780  1.00  0.00    -0.127 S 
ATOM     20  C   UNL A   1      44.195  33.954  28.239  1.00  0.00     0.028 A 
ATOM     21  C   UNL A   1      43.885  34.324  26.956  1.00  0.00     0.070 A 
ATOM     22  Br  UNL A   1      42.621  35.640  26.538  1.00  0.00    -0.039 Br
ENDBRANCH  15  17
ENDBRANCH   9  15
ENDBRANCH   7   8
ENDBRANCH   5   7
ENDBRANCH   4   5
ENDBRANCH   3   4
ENDBRANCH   2   3
ENDBRANCH   1   2
BRANCH   1  23
ATOM     23  C   UNL A   1      42.990  20.909  25.827  1.00  0.00     0.202 C 
BRANCH  23  24
ATOM     24  C   UNL A   1      41.652  21.294  26.471  1.00  0.00     0.261 C 
BRANCH  24  25
ATOM     25  O   UNL A   1      41.116  22.515  25.933  1.00  0.00    -0.460 OA
BRANCH  25  26
ATOM     26  C   UNL A   1      39.853  22.791  26.337  1.00  0.00     0.338 C 
ATOM     27  O   UNL A   1      38.904  22.015  26.354  1.00  0.00    -0.246 OA
BRANCH  26  28
ATOM     28  C   UNL A   1      39.769  24.140  26.927  1.00  0.00     0.060 A 
ATOM     29  C   UNL A   1      40.338  25.189  26.191  1.00  0.00     0.016 A 
ATOM     30  C   UNL A   1      39.244  24.371  28.201  1.00  0.00     0.016 A 
ATOM     31  C   UNL A   1      40.467  26.452  26.762  1.00  0.00     0.010 A 
ATOM     32  C   UNL A   1      39.375  25.644  28.773  1.00  0.00     0.010 A 
ATOM     33  C   UNL A   1      40.039  26.671  28.077  1.00  0.00    -0.014 A 
BRANCH  33  34
ATOM     34  C   UNL A   1      40.475  27.908  28.774  1.00  0.00     0.031 A 
ATOM     35  C   UNL A   1      41.880  27.976  29.317  1.00  0.00     0.074 A 
ATOM     36  C   UNL A   1      39.660  28.972  28.877  1.00  0.00     0.049 A 
ATOM     37  N   UNL A   1      42.486  28.961  29.925  1.00  0.00    -0.248 NA
ATOM     38  C   UNL A   1      42.711  26.772  29.149  1.00  0.00     0.031 C 
ATOM     39  C   UNL A   1      38.286  29.036  28.386  1.00  0.00     0.029 A 
ATOM     40  N   UNL A   1      39.873  30.204  29.445  1.00  0.00    -0.354 N 
ATOM     41  C   UNL A   1      43.755  28.490  30.238  1.00  0.00     0.074 A 
ATOM     42  C   UNL A   1      43.829  27.124  29.767  1.00  0.00     0.031 C 
ATOM     43  C   UNL A   1      37.770  30.239  28.692  1.00  0.00     0.029 A 
ATOM     44  C   UNL A   1      38.771  31.023  29.415  1.00  0.00     0.049 A 
ATOM     45  H   UNL A   1      40.735  30.474  29.838  1.00  0.00     0.167 HD
ATOM     46  C   UNL A   1      44.780  29.139  30.842  1.00  0.00     0.034 A 
ATOM     47  C   UNL A   1      38.589  32.259  29.920  1.00  0.00     0.034 A 
ATOM     48  C   UNL A   1      44.719  30.505  31.283  1.00  0.00     0.049 A 
ATOM     49  C   UNL A   1      39.741  32.958  30.596  1.00  0.00     0.074 A 
ATOM     50  C   UNL A   1      45.717  31.265  31.867  1.00  0.00     0.029 A 
ATOM     51  N   UNL A   1      43.600  31.317  31.193  1.00  0.00    -0.354 N 
ATOM     52  N   UNL A   1      40.971  32.540  30.776  1.00  0.00    -0.248 NA
ATOM     53  C   UNL A   1      39.490  34.316  31.105  1.00  0.00     0.031 C 
ATOM     54  C   UNL A   1      45.194  32.531  32.149  1.00  0.00     0.029 A 
ATOM     55  C   UNL A   1      43.878  32.566  31.715  1.00  0.00     0.049 A 
ATOM     56  H   UNL A   1      42.734  31.043  30.813  1.00  0.00     0.167 HD
ATOM     57  C   UNL A   1      41.650  33.595  31.377  1.00  0.00     0.074 A 
ATOM     58  C   UNL A   1      40.698  34.678  31.517  1.00  0.00     0.031 C 
ATOM     59  C   UNL A   1      42.940  33.658  31.789  1.00  0.00     0.034 A 
BRANCH  46  60
ATOM     60  C   UNL A   1      46.068  28.383  31.034  1.00  0.00     0.023 A 
ATOM     61  C   UNL A   1      47.072  28.457  30.046  1.00  0.00     0.012 A 
ATOM     62  C   UNL A   1      46.306  27.645  32.209  1.00  0.00     0.148 A 
ATOM     63  C   UNL A   1      48.280  27.783  30.212  1.00  0.00     0.002 A 
ATOM     64  C   UNL A   1      47.530  27.009  32.386  1.00  0.00     0.091 A 
ATOM     65  F   UNL A   1      45.330  27.567  33.125  1.00  0.00    -0.205 F 
ATOM     66  C   UNL A   1      48.513  27.068  31.385  1.00  0.00     0.022 A 
BRANCH  64  67
ATOM     67  S   UNL A   1      47.952  26.128  33.893  1.00  0.00     0.127 S 
ATOM     68  O   UNL A   1      47.843  27.188  34.895  1.00  0.00    -0.237 OA
ATOM     69  O   UNL A   1      46.901  25.113  33.962  1.00  0.00    -0.237 OA
ATOM     70  O   UNL A   1      49.294  25.599  33.685  1.00  0.00    -0.744 OA
ENDBRANCH  64  67
ENDBRANCH  46  60
BRANCH  47  71
ATOM     71  C   UNL A   1      37.271  32.941  29.764  1.00  0.00     0.023 A 
ATOM     72  C   UNL A   1      36.806  33.270  28.476  1.00  0.00     0.012 A 
ATOM     73  C   UNL A   1      36.473  33.251  30.883  1.00  0.00     0.148 A 
ATOM     74  C   UNL A   1      35.584  33.923  28.307  1.00  0.00     0.002 A 
ATOM     75  C   UNL A   1      35.234  33.853  30.704  1.00  0.00     0.091 A 
ATOM     76  F   UNL A   1      36.943  32.947  32.102  1.00  0.00    -0.205 F 
ATOM     77  C   UNL A   1      34.794  34.205  29.419  1.00  0.00     0.022 A 
BRANCH  75  78
ATOM     78  S   UNL A   1      34.097  34.137  32.066  1.00  0.00     0.127 S 
ATOM     79  O   UNL A   1      34.896  34.977  32.953  1.00  0.00    -0.237 OA
ATOM     80  O   UNL A   1      32.990  34.823  31.398  1.00  0.00    -0.237 OA
ATOM     81  O   UNL A   1      33.760  32.815  32.576  1.00  0.00    -0.744 OA
ENDBRANCH  75  78
ENDBRANCH  47  71
BRANCH  59  82
ATOM     82  C   UNL A   1      43.427  34.952  32.388  1.00  0.00     0.023 A 
ATOM     83  C   UNL A   1      43.930  35.968  31.552  1.00  0.00     0.012 A 
ATOM     84  C   UNL A   1      43.306  35.192  33.772  1.00  0.00     0.148 A 
ATOM     85  C   UNL A   1      44.335  37.191  32.088  1.00  0.00     0.002 A 
ATOM     86  C   UNL A   1      43.668  36.429  34.292  1.00  0.00     0.091 A 
ATOM     87  F   UNL A   1      42.843  34.206  34.554  1.00  0.00    -0.205 F 
ATOM     88  C   UNL A   1      44.193  37.425  33.453  1.00  0.00     0.022 A 
BRANCH  86  89
ATOM     89  S   UNL A   1      43.426  36.849  36.022  1.00  0.00     0.127 S 
ATOM     90  O   UNL A   1      43.926  38.222  36.068  1.00  0.00    -0.237 OA
ATOM     91  O   UNL A   1      41.976  36.722  36.176  1.00  0.00    -0.237 OA
ATOM     92  O   UNL A   1      44.198  35.874  36.781  1.00  0.00    -0.744 OA
ENDBRANCH  86  89
ENDBRANCH  59  82
ENDBRANCH  33  34
ENDBRANCH  26  28
ENDBRANCH  25  26
ENDBRANCH  24  25
ENDBRANCH  23  24
ENDBRANCH   1  23
TORSDOF 20
ENDMDL
