MODEL 1
REMARK VINA RESULT:     -10.7      0.000      0.000
REMARK SMILES O=C(OCCOCCOC(=O)[C@H](CO)NC(=O)[C@H]1CC(=O)N(CC(F)(F)F)C1)c1ccc(-c2c3nc(c(-c4cccc(S(=O)(=O)[O-])c4F)c4ccc([nH]4)c(-c4cccc(S(=O)(=O)[O-])c4F)c4nc(c(-c5cccc(S(=O)(=O)[O-])c5F)c5ccc2[nH]5)C=C4)C=C3)cc1
REMARK SMILES IDX 7 1 6 2 5 3 4 4 3 5 2 6 1 7 29 8 30 9 91 10 31 11 90 12
REMARK SMILES IDX 32 13 33 14 34 15 84 16 35 17 89 18 83 19 85 20 36 21 88 22
REMARK SMILES IDX 82 23 81 24 37 26 69 27 49 28 68 29 50 30 53 31 67 32 86 33
REMARK SMILES IDX 51 34 52 35 66 37 87 38 54 39 38 40 39 41 47 42 40 43 42 44
REMARK SMILES IDX 48 45 41 46 43 47 44 48 45 49 46 50 70 51 71 52 79 53 72 54
REMARK SMILES IDX 74 55 80 56 73 57 75 58 76 59 77 60 78 61 55 62 56 63 64 64
REMARK SMILES IDX 57 65 59 66 65 67 58 68 60 69 61 70 62 71 63 72 8 73 9 74
REMARK SMILES IDX 10 75 11 76 12 77 15 78 16 79 17 81 18 82 19 83 28 84 20 85
REMARK SMILES IDX 22 86 21 87 23 88 24 89 25 90 26 91 27 92 13 93 14 94
REMARK H PARENT 85 25 53 36 15 80 14 95
REMARK Flexibility Score: inf
ROOT
ATOM      1  C   UNL A   1      33.351  24.946  25.770  1.00  0.00     0.202 C 
ENDROOT
BRANCH   1   2
ATOM      2  O   UNL A   1      33.789  23.616  25.453  1.00  0.00    -0.374 OA
BRANCH   2   3
ATOM      3  C   UNL A   1      35.059  23.168  25.931  1.00  0.00     0.202 C 
BRANCH   3   4
ATOM      4  C   UNL A   1      35.805  22.026  25.233  1.00  0.00     0.261 C 
BRANCH   4   5
ATOM      5  O   UNL A   1      36.768  21.405  26.095  1.00  0.00    -0.460 OA
BRANCH   5   6
ATOM      6  C   UNL A   1      38.105  21.364  25.847  1.00  0.00     0.338 C 
ATOM      7  O   UNL A   1      38.597  20.372  25.320  1.00  0.00    -0.246 OA
BRANCH   6   8
ATOM      8  C   UNL A   1      38.982  22.501  26.246  1.00  0.00     0.060 A 
ATOM      9  C   UNL A   1      38.751  23.806  25.810  1.00  0.00     0.016 A 
ATOM     10  C   UNL A   1      40.021  22.277  27.151  1.00  0.00     0.016 A 
ATOM     11  C   UNL A   1      39.570  24.853  26.151  1.00  0.00     0.010 A 
ATOM     12  C   UNL A   1      40.796  23.353  27.595  1.00  0.00     0.010 A 
ATOM     13  C   UNL A   1      40.560  24.641  27.094  1.00  0.00    -0.014 A 
BRANCH  13  14
ATOM     14  C   UNL A   1      41.297  25.826  27.539  1.00  0.00     0.031 A 
ATOM     15  C   UNL A   1      40.603  26.814  28.407  1.00  0.00     0.074 A 
ATOM     16  C   UNL A   1      42.604  25.921  27.227  1.00  0.00     0.049 A 
ATOM     17  N   UNL A   1      41.033  27.964  28.834  1.00  0.00    -0.248 NA
ATOM     18  C   UNL A   1      39.248  26.458  28.869  1.00  0.00     0.031 C 
ATOM     19  C   UNL A   1      43.371  24.915  26.478  1.00  0.00     0.029 A 
ATOM     20  N   UNL A   1      43.521  26.898  27.494  1.00  0.00    -0.354 N 
ATOM     21  C   UNL A   1      39.977  28.512  29.543  1.00  0.00     0.074 A 
ATOM     22  C   UNL A   1      38.901  27.546  29.540  1.00  0.00     0.031 C 
ATOM     23  C   UNL A   1      44.634  25.339  26.333  1.00  0.00     0.029 A 
ATOM     24  C   UNL A   1      44.737  26.678  26.889  1.00  0.00     0.049 A 
ATOM     25  H   UNL A   1      43.331  27.680  28.063  1.00  0.00     0.167 HD
ATOM     26  C   UNL A   1      39.919  29.733  30.112  1.00  0.00     0.034 A 
ATOM     27  C   UNL A   1      45.783  27.509  26.736  1.00  0.00     0.034 A 
ATOM     28  C   UNL A   1      41.020  30.653  30.096  1.00  0.00     0.049 A 
ATOM     29  C   UNL A   1      45.658  28.885  27.328  1.00  0.00     0.074 A 
ATOM     30  C   UNL A   1      41.091  31.920  30.642  1.00  0.00     0.029 A 
ATOM     31  N   UNL A   1      42.236  30.409  29.473  1.00  0.00    -0.354 N 
ATOM     32  N   UNL A   1      44.677  29.385  28.044  1.00  0.00    -0.248 NA
ATOM     33  C   UNL A   1      46.772  29.811  27.098  1.00  0.00     0.031 C 
ATOM     34  C   UNL A   1      42.333  32.461  30.305  1.00  0.00     0.029 A 
ATOM     35  C   UNL A   1      43.055  31.515  29.589  1.00  0.00     0.049 A 
ATOM     36  H   UNL A   1      42.480  29.572  29.016  1.00  0.00     0.167 HD
ATOM     37  C   UNL A   1      45.060  30.679  28.362  1.00  0.00     0.074 A 
ATOM     38  C   UNL A   1      46.381  30.871  27.793  1.00  0.00     0.031 C 
ATOM     39  C   UNL A   1      44.381  31.637  29.039  1.00  0.00     0.034 A 
BRANCH  26  40
ATOM     40  C   UNL A   1      38.616  30.164  30.713  1.00  0.00     0.023 A 
ATOM     41  C   UNL A   1      38.292  29.837  32.044  1.00  0.00     0.012 A 
ATOM     42  C   UNL A   1      37.720  30.933  29.947  1.00  0.00     0.148 A 
ATOM     43  C   UNL A   1      37.082  30.258  32.598  1.00  0.00     0.002 A 
ATOM     44  C   UNL A   1      36.539  31.386  30.518  1.00  0.00     0.091 A 
ATOM     45  F   UNL A   1      38.037  31.198  28.672  1.00  0.00    -0.205 F 
ATOM     46  C   UNL A   1      36.214  31.042  31.839  1.00  0.00     0.022 A 
BRANCH  44  47
ATOM     47  S   UNL A   1      35.390  32.452  29.645  1.00  0.00     0.127 S 
ATOM     48  O   UNL A   1      34.931  31.573  28.570  1.00  0.00    -0.237 OA
ATOM     49  O   UNL A   1      34.392  32.728  30.677  1.00  0.00    -0.237 OA
ATOM     50  O   UNL A   1      36.160  33.608  29.207  1.00  0.00    -0.744 OA
ENDBRANCH  44  47
ENDBRANCH  26  40
BRANCH  27  51
ATOM     51  C   UNL A   1      46.976  27.103  25.938  1.00  0.00     0.023 A 
ATOM     52  C   UNL A   1      47.986  26.322  26.530  1.00  0.00     0.012 A 
ATOM     53  C   UNL A   1      47.126  27.508  24.594  1.00  0.00     0.148 A 
ATOM     54  C   UNL A   1      49.140  25.992  25.816  1.00  0.00     0.002 A 
ATOM     55  C   UNL A   1      48.247  27.122  23.870  1.00  0.00     0.091 A 
ATOM     56  F   UNL A   1      46.167  28.268  24.046  1.00  0.00    -0.205 F 
ATOM     57  C   UNL A   1      49.268  26.385  24.486  1.00  0.00     0.022 A 
BRANCH  55  58
ATOM     58  S   UNL A   1      48.424  27.478  22.119  1.00  0.00     0.127 S 
ATOM     59  O   UNL A   1      47.182  28.192  21.831  1.00  0.00    -0.237 OA
ATOM     60  O   UNL A   1      49.630  28.305  22.095  1.00  0.00    -0.237 OA
ATOM     61  O   UNL A   1      48.579  26.182  21.471  1.00  0.00    -0.744 OA
ENDBRANCH  55  58
ENDBRANCH  27  51
BRANCH  39  62
ATOM     62  C   UNL A   1      45.066  32.961  29.218  1.00  0.00     0.023 A 
ATOM     63  C   UNL A   1      45.930  33.157  30.312  1.00  0.00     0.012 A 
ATOM     64  C   UNL A   1      44.932  33.964  28.241  1.00  0.00     0.148 A 
ATOM     65  C   UNL A   1      46.637  34.350  30.443  1.00  0.00     0.002 A 
ATOM     66  C   UNL A   1      45.684  35.124  28.347  1.00  0.00     0.091 A 
ATOM     67  F   UNL A   1      44.091  33.753  27.219  1.00  0.00    -0.205 F 
ATOM     68  C   UNL A   1      46.526  35.324  29.454  1.00  0.00     0.022 A 
BRANCH  66  69
ATOM     69  S   UNL A   1      45.694  36.381  27.067  1.00  0.00     0.127 S 
ATOM     70  O   UNL A   1      46.571  37.394  27.653  1.00  0.00    -0.237 OA
ATOM     71  O   UNL A   1      46.268  35.658  25.932  1.00  0.00    -0.237 OA
ATOM     72  O   UNL A   1      44.307  36.791  26.889  1.00  0.00    -0.744 OA
ENDBRANCH  66  69
ENDBRANCH  39  62
ENDBRANCH  13  14
ENDBRANCH   6   8
ENDBRANCH   5   6
ENDBRANCH   4   5
ENDBRANCH   3   4
ENDBRANCH   2   3
ENDBRANCH   1   2
BRANCH   1  73
ATOM     73  C   UNL A   1      31.832  24.946  26.029  1.00  0.00     0.261 C 
BRANCH  73  74
ATOM     74  O   UNL A   1      31.185  25.606  24.929  1.00  0.00    -0.462 OA
BRANCH  74  75
ATOM     75  C   UNL A   1      31.185  24.844  23.790  1.00  0.00     0.331 C 
ATOM     76  O   UNL A   1      30.618  23.768  23.669  1.00  0.00    -0.250 OA
BRANCH  75  77
ATOM     77  C   UNL A   1      31.707  25.706  22.636  1.00  0.00     0.218 C 
BRANCH  77  78
ATOM     78  N   UNL A   1      32.116  27.038  23.075  1.00  0.00    -0.341 N 
ATOM     79  C   UNL A   1      31.511  28.244  23.096  1.00  0.00     0.226 C 
ATOM     80  H   UNL A   1      33.033  27.061  23.434  1.00  0.00     0.164 HD
ATOM     81  O   UNL A   1      32.098  29.123  23.740  1.00  0.00    -0.275 OA
BRANCH  79  82
ATOM     82  C   UNL A   1      30.200  28.615  22.409  1.00  0.00     0.107 C 
ATOM     83  C   UNL A   1      29.045  28.000  23.221  1.00  0.00     0.115 C 
ATOM     84  C   UNL A   1      29.750  30.049  22.247  1.00  0.00     0.133 C 
ATOM     85  C   UNL A   1      27.851  28.863  22.903  1.00  0.00     0.223 C 
ATOM     86  N   UNL A   1      28.312  30.004  22.277  1.00  0.00    -0.333 N 
ATOM     87  O   UNL A   1      26.696  28.622  23.194  1.00  0.00    -0.275 OA
BRANCH  86  88
ATOM     88  C   UNL A   1      27.462  31.149  21.918  1.00  0.00     0.234 C 
BRANCH  88  89
ATOM     89  C   UNL A   1      28.185  32.320  21.254  1.00  0.00     0.406 C 
ATOM     90  F   UNL A   1      29.189  32.775  22.047  1.00  0.00    -0.169 F 
ATOM     91  F   UNL A   1      28.745  31.945  20.082  1.00  0.00    -0.169 F 
ATOM     92  F   UNL A   1      27.362  33.360  21.009  1.00  0.00    -0.169 F 
ENDBRANCH  88  89
ENDBRANCH  86  88
ENDBRANCH  79  82
ENDBRANCH  77  78
BRANCH  77  93
ATOM     93  C   UNL A   1      32.759  24.953  21.812  1.00  0.00     0.193 C 
BRANCH  93  94
ATOM     94  O   UNL A   1      34.013  24.848  22.487  1.00  0.00    -0.394 OA
ATOM     95  H   UNL A   1      34.636  24.349  21.936  1.00  0.00     0.210 HD
ENDBRANCH  93  94
ENDBRANCH  77  93
ENDBRANCH  75  77
ENDBRANCH  74  75
ENDBRANCH  73  74
ENDBRANCH   1  73
TORSDOF 23
ENDMDL
MODEL 2
REMARK VINA RESULT:     -10.5      2.103      7.958
REMARK SMILES O=C(OCCOCCOC(=O)[C@H](CO)NC(=O)[C@H]1CC(=O)N(CC(F)(F)F)C1)c1ccc(-c2c3nc(c(-c4cccc(S(=O)(=O)[O-])c4F)c4ccc([nH]4)c(-c4cccc(S(=O)(=O)[O-])c4F)c4nc(c(-c5cccc(S(=O)(=O)[O-])c5F)c5ccc2[nH]5)C=C4)C=C3)cc1
REMARK SMILES IDX 7 1 6 2 5 3 4 4 3 5 2 6 1 7 29 8 30 9 91 10 31 11 90 12
REMARK SMILES IDX 32 13 33 14 34 15 84 16 35 17 89 18 83 19 85 20 36 21 88 22
REMARK SMILES IDX 82 23 81 24 37 26 69 27 49 28 68 29 50 30 53 31 67 32 86 33
REMARK SMILES IDX 51 34 52 35 66 37 87 38 54 39 38 40 39 41 47 42 40 43 42 44
REMARK SMILES IDX 48 45 41 46 43 47 44 48 45 49 46 50 70 51 71 52 79 53 72 54
REMARK SMILES IDX 74 55 80 56 73 57 75 58 76 59 77 60 78 61 55 62 56 63 64 64
REMARK SMILES IDX 57 65 59 66 65 67 58 68 60 69 61 70 62 71 63 72 8 73 9 74
REMARK SMILES IDX 10 75 11 76 12 77 15 78 16 79 17 81 18 82 19 83 28 84 20 85
REMARK SMILES IDX 22 86 21 87 23 88 24 89 25 90 26 91 27 92 13 93 14 94
REMARK H PARENT 85 25 53 36 15 80 14 95
REMARK Flexibility Score: inf
ROOT
ATOM      1  C   UNL A   1      36.524  22.101  23.788  1.00  0.00     0.202 C 
ENDROOT
BRANCH   1   2
ATOM      2  O   UNL A   1      36.798  21.047  24.723  1.00  0.00    -0.374 OA
BRANCH   2   3
ATOM      3  C   UNL A   1      38.050  21.036  25.412  1.00  0.00     0.202 C 
BRANCH   3   4
ATOM      4  C   UNL A   1      38.836  19.734  25.597  1.00  0.00     0.261 C 
BRANCH   4   5
ATOM      5  O   UNL A   1      40.212  19.975  25.920  1.00  0.00    -0.460 OA
BRANCH   5   6
ATOM      6  C   UNL A   1      40.647  20.446  27.120  1.00  0.00     0.338 C 
ATOM      7  O   UNL A   1      40.774  19.677  28.066  1.00  0.00    -0.246 OA
BRANCH   6   8
ATOM      8  C   UNL A   1      40.935  21.897  27.301  1.00  0.00     0.060 A 
ATOM      9  C   UNL A   1      41.830  22.362  28.263  1.00  0.00     0.016 A 
ATOM     10  C   UNL A   1      40.357  22.821  26.428  1.00  0.00     0.016 A 
ATOM     11  C   UNL A   1      42.079  23.699  28.454  1.00  0.00     0.010 A 
ATOM     12  C   UNL A   1      40.686  24.176  26.538  1.00  0.00     0.010 A 
ATOM     13  C   UNL A   1      41.554  24.606  27.551  1.00  0.00    -0.014 A 
BRANCH  13  14
ATOM     14  C   UNL A   1      41.983  25.999  27.706  1.00  0.00     0.031 A 
ATOM     15  C   UNL A   1      43.310  26.401  27.170  1.00  0.00     0.074 A 
ATOM     16  C   UNL A   1      41.114  26.879  28.239  1.00  0.00     0.049 A 
ATOM     17  N   UNL A   1      43.918  27.545  27.279  1.00  0.00    -0.248 NA
ATOM     18  C   UNL A   1      44.050  25.387  26.395  1.00  0.00     0.031 C 
ATOM     19  C   UNL A   1      39.745  26.562  28.672  1.00  0.00     0.029 A 
ATOM     20  N   UNL A   1      41.241  28.213  28.509  1.00  0.00    -0.354 N 
ATOM     21  C   UNL A   1      45.147  27.369  26.665  1.00  0.00     0.074 A 
ATOM     22  C   UNL A   1      45.181  26.025  26.133  1.00  0.00     0.031 C 
ATOM     23  C   UNL A   1      39.171  27.667  29.168  1.00  0.00     0.029 A 
ATOM     24  C   UNL A   1      40.157  28.735  29.176  1.00  0.00     0.049 A 
ATOM     25  H   UNL A   1      42.028  28.746  28.251  1.00  0.00     0.167 HD
ATOM     26  C   UNL A   1      46.159  28.257  26.592  1.00  0.00     0.034 A 
ATOM     27  C   UNL A   1      40.019  29.921  29.796  1.00  0.00     0.034 A 
ATOM     28  C   UNL A   1      46.073  29.584  27.130  1.00  0.00     0.049 A 
ATOM     29  C   UNL A   1      41.193  30.859  29.749  1.00  0.00     0.074 A 
ATOM     30  C   UNL A   1      47.027  30.582  27.115  1.00  0.00     0.029 A 
ATOM     31  N   UNL A   1      44.968  30.086  27.804  1.00  0.00    -0.354 N 
ATOM     32  N   UNL A   1      42.338  30.711  29.123  1.00  0.00    -0.248 NA
ATOM     33  C   UNL A   1      41.065  32.120  30.486  1.00  0.00     0.031 C 
ATOM     34  C   UNL A   1      46.517  31.670  27.827  1.00  0.00     0.029 A 
ATOM     35  C   UNL A   1      45.228  31.369  28.245  1.00  0.00     0.049 A 
ATOM     36  H   UNL A   1      44.124  29.600  27.949  1.00  0.00     0.167 HD
ATOM     37  C   UNL A   1      43.062  31.866  29.378  1.00  0.00     0.074 A 
ATOM     38  C   UNL A   1      42.208  32.719  30.184  1.00  0.00     0.031 C 
ATOM     39  C   UNL A   1      44.324  32.192  29.008  1.00  0.00     0.034 A 
BRANCH  26  40
ATOM     40  C   UNL A   1      47.452  27.795  25.993  1.00  0.00     0.023 A 
ATOM     41  C   UNL A   1      48.482  27.280  26.805  1.00  0.00     0.012 A 
ATOM     42  C   UNL A   1      47.627  27.845  24.596  1.00  0.00     0.148 A 
ATOM     43  C   UNL A   1      49.675  26.837  26.233  1.00  0.00     0.002 A 
ATOM     44  C   UNL A   1      48.798  27.362  24.031  1.00  0.00     0.091 A 
ATOM     45  F   UNL A   1      46.646  28.374  23.852  1.00  0.00    -0.205 F 
ATOM     46  C   UNL A   1      49.827  26.867  24.847  1.00  0.00     0.022 A 
BRANCH  44  47
ATOM     47  S   UNL A   1      49.060  27.299  22.257  1.00  0.00     0.127 S 
ATOM     48  O   UNL A   1      48.440  26.019  21.913  1.00  0.00    -0.237 OA
ATOM     49  O   UNL A   1      48.324  28.477  21.802  1.00  0.00    -0.237 OA
ATOM     50  O   UNL A   1      50.501  27.357  22.057  1.00  0.00    -0.744 OA
ENDBRANCH  44  47
ENDBRANCH  26  40
BRANCH  27  51
ATOM     51  C   UNL A   1      38.785  30.245  30.567  1.00  0.00     0.023 A 
ATOM     52  C   UNL A   1      38.631  29.772  31.883  1.00  0.00     0.012 A 
ATOM     53  C   UNL A   1      37.746  31.008  29.991  1.00  0.00     0.148 A 
ATOM     54  C   UNL A   1      37.452  30.010  32.591  1.00  0.00     0.002 A 
ATOM     55  C   UNL A   1      36.601  31.296  30.724  1.00  0.00     0.091 A 
ATOM     56  F   UNL A   1      37.894  31.438  28.729  1.00  0.00    -0.205 F 
ATOM     57  C   UNL A   1      36.442  30.778  32.017  1.00  0.00     0.022 A 
BRANCH  55  58
ATOM     58  S   UNL A   1      35.314  32.383  30.103  1.00  0.00     0.127 S 
ATOM     59  O   UNL A   1      34.401  32.447  31.241  1.00  0.00    -0.237 OA
ATOM     60  O   UNL A   1      36.057  33.616  29.838  1.00  0.00    -0.237 OA
ATOM     61  O   UNL A   1      34.797  31.732  28.906  1.00  0.00    -0.744 OA
ENDBRANCH  55  58
ENDBRANCH  27  51
BRANCH  39  62
ATOM     62  C   UNL A   1      44.841  33.530  29.449  1.00  0.00     0.023 A 
ATOM     63  C   UNL A   1      45.589  33.633  30.637  1.00  0.00     0.012 A 
ATOM     64  C   UNL A   1      44.673  34.659  28.625  1.00  0.00     0.148 A 
ATOM     65  C   UNL A   1      46.145  34.853  31.013  1.00  0.00     0.002 A 
ATOM     66  C   UNL A   1      45.280  35.855  28.976  1.00  0.00     0.091 A 
ATOM     67  F   UNL A   1      43.943  34.531  27.508  1.00  0.00    -0.205 F 
ATOM     68  C   UNL A   1      46.005  35.957  30.175  1.00  0.00     0.022 A 
BRANCH  66  69
ATOM     69  S   UNL A   1      45.250  37.295  27.906  1.00  0.00     0.127 S 
ATOM     70  O   UNL A   1      43.843  37.339  27.507  1.00  0.00    -0.237 OA
ATOM     71  O   UNL A   1      45.660  38.362  28.819  1.00  0.00    -0.237 OA
ATOM     72  O   UNL A   1      46.191  37.021  26.829  1.00  0.00    -0.744 OA
ENDBRANCH  66  69
ENDBRANCH  39  62
ENDBRANCH  13  14
ENDBRANCH   6   8
ENDBRANCH   5   6
ENDBRANCH   4   5
ENDBRANCH   3   4
ENDBRANCH   2   3
ENDBRANCH   1   2
BRANCH   1  73
ATOM     73  C   UNL A   1      35.683  23.198  24.471  1.00  0.00     0.261 C 
BRANCH  73  74
ATOM     74  O   UNL A   1      34.328  23.086  24.006  1.00  0.00    -0.462 OA
BRANCH  74  75
ATOM     75  C   UNL A   1      33.424  23.581  24.908  1.00  0.00     0.331 C 
ATOM     76  O   UNL A   1      33.599  23.630  26.117  1.00  0.00    -0.250 OA
BRANCH  75  77
ATOM     77  C   UNL A   1      32.346  24.348  24.137  1.00  0.00     0.218 C 
BRANCH  77  78
ATOM     78  N   UNL A   1      32.716  24.582  22.743  1.00  0.00    -0.341 N 
ATOM     79  C   UNL A   1      33.039  25.682  22.032  1.00  0.00     0.226 C 
ATOM     80  H   UNL A   1      32.734  23.757  22.206  1.00  0.00     0.164 HD
ATOM     81  O   UNL A   1      33.505  25.468  20.904  1.00  0.00    -0.275 OA
BRANCH  79  82
ATOM     82  C   UNL A   1      32.884  27.132  22.479  1.00  0.00     0.107 C 
ATOM     83  C   UNL A   1      31.381  27.420  22.654  1.00  0.00     0.115 C 
ATOM     84  C   UNL A   1      33.461  27.645  23.778  1.00  0.00     0.133 C 
ATOM     85  C   UNL A   1      31.321  28.561  23.636  1.00  0.00     0.223 C 
ATOM     86  N   UNL A   1      32.572  28.691  24.205  1.00  0.00    -0.333 N 
ATOM     87  O   UNL A   1      30.334  29.214  23.915  1.00  0.00    -0.275 OA
BRANCH  86  88
ATOM     88  C   UNL A   1      32.885  29.618  25.303  1.00  0.00     0.234 C 
BRANCH  88  89
ATOM     89  C   UNL A   1      32.791  29.025  26.709  1.00  0.00     0.406 C 
ATOM     90  F   UNL A   1      33.971  28.460  27.070  1.00  0.00    -0.169 F 
ATOM     91  F   UNL A   1      32.513  29.981  27.623  1.00  0.00    -0.169 F 
ATOM     92  F   UNL A   1      31.842  28.071  26.801  1.00  0.00    -0.169 F 
ENDBRANCH  88  89
ENDBRANCH  86  88
ENDBRANCH  79  82
ENDBRANCH  77  78
BRANCH  77  93
ATOM     93  C   UNL A   1      30.963  23.714  24.334  1.00  0.00     0.193 C 
BRANCH  93  94
ATOM     94  O   UNL A   1      30.004  24.185  23.387  1.00  0.00    -0.394 OA
ATOM     95  H   UNL A   1      30.327  25.003  22.979  1.00  0.00     0.210 HD
ENDBRANCH  93  94
ENDBRANCH  77  93
ENDBRANCH  75  77
ENDBRANCH  74  75
ENDBRANCH  73  74
ENDBRANCH   1  73
TORSDOF 23
ENDMDL
MODEL 3
REMARK VINA RESULT:     -10.2      3.765      5.654
REMARK SMILES O=C(OCCOCCOC(=O)[C@H](CO)NC(=O)[C@H]1CC(=O)N(CC(F)(F)F)C1)c1ccc(-c2c3nc(c(-c4cccc(S(=O)(=O)[O-])c4F)c4ccc([nH]4)c(-c4cccc(S(=O)(=O)[O-])c4F)c4nc(c(-c5cccc(S(=O)(=O)[O-])c5F)c5ccc2[nH]5)C=C4)C=C3)cc1
REMARK SMILES IDX 7 1 6 2 5 3 4 4 3 5 2 6 1 7 29 8 30 9 91 10 31 11 90 12
REMARK SMILES IDX 32 13 33 14 34 15 84 16 35 17 89 18 83 19 85 20 36 21 88 22
REMARK SMILES IDX 82 23 81 24 37 26 69 27 49 28 68 29 50 30 53 31 67 32 86 33
REMARK SMILES IDX 51 34 52 35 66 37 87 38 54 39 38 40 39 41 47 42 40 43 42 44
REMARK SMILES IDX 48 45 41 46 43 47 44 48 45 49 46 50 70 51 71 52 79 53 72 54
REMARK SMILES IDX 74 55 80 56 73 57 75 58 76 59 77 60 78 61 55 62 56 63 64 64
REMARK SMILES IDX 57 65 59 66 65 67 58 68 60 69 61 70 62 71 63 72 8 73 9 74
REMARK SMILES IDX 10 75 11 76 12 77 15 78 16 79 17 81 18 82 19 83 28 84 20 85
REMARK SMILES IDX 22 86 21 87 23 88 24 89 25 90 26 91 27 92 13 93 14 94
REMARK H PARENT 85 25 53 36 15 80 14 95
REMARK Flexibility Score: inf
ROOT
ATOM      1  C   UNL A   1      34.586  25.258  24.858  1.00  0.00     0.202 C 
ENDROOT
BRANCH   1   2
ATOM      2  O   UNL A   1      35.088  23.916  24.766  1.00  0.00    -0.374 OA
BRANCH   2   3
ATOM      3  C   UNL A   1      36.361  23.608  25.338  1.00  0.00     0.202 C 
BRANCH   3   4
ATOM      4  C   UNL A   1      37.133  22.354  24.913  1.00  0.00     0.261 C 
BRANCH   4   5
ATOM      5  O   UNL A   1      37.787  21.722  26.021  1.00  0.00    -0.460 OA
BRANCH   5   6
ATOM      6  C   UNL A   1      39.136  21.680  26.193  1.00  0.00     0.338 C 
ATOM      7  O   UNL A   1      39.741  20.629  26.014  1.00  0.00    -0.246 OA
BRANCH   6   8
ATOM      8  C   UNL A   1      39.878  22.895  26.633  1.00  0.00     0.060 A 
ATOM      9  C   UNL A   1      39.726  24.129  26.000  1.00  0.00     0.016 A 
ATOM     10  C   UNL A   1      40.690  22.825  27.767  1.00  0.00     0.016 A 
ATOM     11  C   UNL A   1      40.428  25.245  26.383  1.00  0.00     0.010 A 
ATOM     12  C   UNL A   1      41.325  23.979  28.236  1.00  0.00     0.010 A 
ATOM     13  C   UNL A   1      41.183  25.189  27.541  1.00  0.00    -0.014 A 
BRANCH  13  14
ATOM     14  C   UNL A   1      41.778  26.450  27.990  1.00  0.00     0.031 A 
ATOM     15  C   UNL A   1      40.933  27.406  28.754  1.00  0.00     0.074 A 
ATOM     16  C   UNL A   1      43.094  26.646  27.779  1.00  0.00     0.049 A 
ATOM     17  N   UNL A   1      41.228  28.605  29.161  1.00  0.00    -0.248 NA
ATOM     18  C   UNL A   1      39.580  26.951  29.121  1.00  0.00     0.031 C 
ATOM     19  C   UNL A   1      44.003  25.684  27.141  1.00  0.00     0.029 A 
ATOM     20  N   UNL A   1      43.901  27.710  28.075  1.00  0.00    -0.354 N 
ATOM     21  C   UNL A   1      40.074  29.084  29.757  1.00  0.00     0.074 A 
ATOM     22  C   UNL A   1      39.087  28.029  29.712  1.00  0.00     0.031 C 
ATOM     23  C   UNL A   1      45.233  26.210  27.078  1.00  0.00     0.029 A 
ATOM     24  C   UNL A   1      45.177  27.574  27.580  1.00  0.00     0.049 A 
ATOM     25  H   UNL A   1      43.599  28.493  28.590  1.00  0.00     0.167 HD
ATOM     26  C   UNL A   1      39.867  30.317  30.264  1.00  0.00     0.034 A 
ATOM     27  C   UNL A   1      46.159  28.487  27.474  1.00  0.00     0.034 A 
ATOM     28  C   UNL A   1      40.883  31.329  30.295  1.00  0.00     0.049 A 
ATOM     29  C   UNL A   1      45.869  29.868  27.991  1.00  0.00     0.074 A 
ATOM     30  C   UNL A   1      40.802  32.616  30.787  1.00  0.00     0.029 A 
ATOM     31  N   UNL A   1      42.164  31.168  29.783  1.00  0.00    -0.354 N 
ATOM     32  N   UNL A   1      44.793  30.307  28.602  1.00  0.00    -0.248 NA
ATOM     33  C   UNL A   1      46.916  30.879  27.809  1.00  0.00     0.031 C 
ATOM     34  C   UNL A   1      42.018  33.251  30.526  1.00  0.00     0.029 A 
ATOM     35  C   UNL A   1      42.875  32.345  29.914  1.00  0.00     0.049 A 
ATOM     36  H   UNL A   1      42.515  30.339  29.386  1.00  0.00     0.167 HD
ATOM     37  C   UNL A   1      45.038  31.642  28.891  1.00  0.00     0.074 A 
ATOM     38  C   UNL A   1      46.381  31.926  28.421  1.00  0.00     0.031 C 
ATOM     39  C   UNL A   1      44.227  32.562  29.467  1.00  0.00     0.034 A 
BRANCH  26  40
ATOM     40  C   UNL A   1      38.486  30.655  30.739  1.00  0.00     0.023 A 
ATOM     41  C   UNL A   1      38.065  30.309  32.037  1.00  0.00     0.012 A 
ATOM     42  C   UNL A   1      37.612  31.356  29.886  1.00  0.00     0.148 A 
ATOM     43  C   UNL A   1      36.782  30.645  32.474  1.00  0.00     0.002 A 
ATOM     44  C   UNL A   1      36.354  31.724  30.342  1.00  0.00     0.091 A 
ATOM     45  F   UNL A   1      38.026  31.638  28.643  1.00  0.00    -0.205 F 
ATOM     46  C   UNL A   1      35.934  31.361  31.631  1.00  0.00     0.022 A 
BRANCH  44  47
ATOM     47  S   UNL A   1      35.218  32.702  29.356  1.00  0.00     0.127 S 
ATOM     48  O   UNL A   1      36.079  33.800  28.916  1.00  0.00    -0.237 OA
ATOM     49  O   UNL A   1      34.844  31.759  28.304  1.00  0.00    -0.237 OA
ATOM     50  O   UNL A   1      34.136  33.090  30.250  1.00  0.00    -0.744 OA
ENDBRANCH  44  47
ENDBRANCH  26  40
BRANCH  27  51
ATOM     51  C   UNL A   1      47.444  28.157  26.793  1.00  0.00     0.023 A 
ATOM     52  C   UNL A   1      48.635  28.073  27.539  1.00  0.00     0.012 A 
ATOM     53  C   UNL A   1      47.497  27.944  25.399  1.00  0.00     0.148 A 
ATOM     54  C   UNL A   1      49.855  27.833  26.906  1.00  0.00     0.002 A 
ATOM     55  C   UNL A   1      48.706  27.642  24.783  1.00  0.00     0.091 A 
ATOM     56  F   UNL A   1      46.360  28.044  24.694  1.00  0.00    -0.205 F 
ATOM     57  C   UNL A   1      49.891  27.609  25.531  1.00  0.00     0.022 A 
BRANCH  55  58
ATOM     58  S   UNL A   1      48.813  27.215  23.043  1.00  0.00     0.127 S 
ATOM     59  O   UNL A   1      50.258  27.154  22.837  1.00  0.00    -0.237 OA
ATOM     60  O   UNL A   1      48.130  25.921  23.003  1.00  0.00    -0.237 OA
ATOM     61  O   UNL A   1      48.112  28.279  22.336  1.00  0.00    -0.744 OA
ENDBRANCH  55  58
ENDBRANCH  27  51
BRANCH  39  62
ATOM     62  C   UNL A   1      44.781  33.946  29.641  1.00  0.00     0.023 A 
ATOM     63  C   UNL A   1      45.634  34.225  30.725  1.00  0.00     0.012 A 
ATOM     64  C   UNL A   1      44.538  34.932  28.666  1.00  0.00     0.148 A 
ATOM     65  C   UNL A   1      46.222  35.482  30.850  1.00  0.00     0.002 A 
ATOM     66  C   UNL A   1      45.174  36.160  28.766  1.00  0.00     0.091 A 
ATOM     67  F   UNL A   1      43.710  34.639  27.654  1.00  0.00    -0.205 F 
ATOM     68  C   UNL A   1      46.005  36.441  29.864  1.00  0.00     0.022 A 
BRANCH  66  69
ATOM     69  S   UNL A   1      45.046  37.412  27.488  1.00  0.00     0.127 S 
ATOM     70  O   UNL A   1      46.143  37.040  26.596  1.00  0.00    -0.237 OA
ATOM     71  O   UNL A   1      43.709  37.164  26.949  1.00  0.00    -0.237 OA
ATOM     72  O   UNL A   1      45.201  38.696  28.159  1.00  0.00    -0.744 OA
ENDBRANCH  66  69
ENDBRANCH  39  62
ENDBRANCH  13  14
ENDBRANCH   6   8
ENDBRANCH   5   6
ENDBRANCH   4   5
ENDBRANCH   3   4
ENDBRANCH   2   3
ENDBRANCH   1   2
BRANCH   1  73
ATOM     73  C   UNL A   1      33.080  25.229  25.187  1.00  0.00     0.261 C 
BRANCH  73  74
ATOM     74  O   UNL A   1      32.577  23.917  24.889  1.00  0.00    -0.462 OA
BRANCH  74  75
ATOM     75  C   UNL A   1      31.240  23.795  25.166  1.00  0.00     0.331 C 
ATOM     76  O   UNL A   1      30.346  24.360  24.553  1.00  0.00    -0.250 OA
BRANCH  75  77
ATOM     77  C   UNL A   1      31.052  22.608  26.115  1.00  0.00     0.218 C 
BRANCH  77  78
ATOM     78  N   UNL A   1      32.306  22.182  26.733  1.00  0.00    -0.341 N 
ATOM     79  C   UNL A   1      33.252  21.278  26.403  1.00  0.00     0.226 C 
ATOM     80  H   UNL A   1      32.503  22.658  27.571  1.00  0.00     0.164 HD
ATOM     81  O   UNL A   1      34.296  21.336  27.067  1.00  0.00    -0.275 OA
BRANCH  79  82
ATOM     82  C   UNL A   1      33.153  20.214  25.315  1.00  0.00     0.107 C 
ATOM     83  C   UNL A   1      34.576  19.711  25.009  1.00  0.00     0.115 C 
ATOM     84  C   UNL A   1      32.393  18.922  25.513  1.00  0.00     0.133 C 
ATOM     85  C   UNL A   1      34.381  18.325  24.449  1.00  0.00     0.223 C 
ATOM     86  N   UNL A   1      33.078  17.948  24.707  1.00  0.00    -0.333 N 
ATOM     87  O   UNL A   1      35.232  17.643  23.914  1.00  0.00    -0.275 OA
BRANCH  86  88
ATOM     88  C   UNL A   1      32.536  16.611  24.423  1.00  0.00     0.234 C 
BRANCH  88  89
ATOM     89  C   UNL A   1      32.887  15.530  25.446  1.00  0.00     0.406 C 
ATOM     90  F   UNL A   1      32.488  14.309  25.007  1.00  0.00    -0.169 F 
ATOM     91  F   UNL A   1      34.222  15.463  25.644  1.00  0.00    -0.169 F 
ATOM     92  F   UNL A   1      32.297  15.743  26.640  1.00  0.00    -0.169 F 
ENDBRANCH  88  89
ENDBRANCH  86  88
ENDBRANCH  79  82
ENDBRANCH  77  78
BRANCH  77  93
ATOM     93  C   UNL A   1      29.905  22.862  27.103  1.00  0.00     0.193 C 
BRANCH  93  94
ATOM     94  O   UNL A   1      29.213  24.082  26.837  1.00  0.00    -0.394 OA
ATOM     95  H   UNL A   1      28.832  24.050  25.945  1.00  0.00     0.210 HD
ENDBRANCH  93  94
ENDBRANCH  77  93
ENDBRANCH  75  77
ENDBRANCH  74  75
ENDBRANCH  73  74
ENDBRANCH   1  73
TORSDOF 23
ENDMDL
