MODEL 1
REMARK VINA RESULT:      -9.8      0.000      0.000
REMARK SMILES N#CCNC(=O)Cn1ccc(C(=O)OCCOCCOC(=O)c2ccc(-c3c4nc(c(-c5cccc(S(=O)(=O)[O-])c5F)c5ccc([nH]5)c(-c5cccc(S(=O)(=O)[O-])c5F)c5nc(c(-c6cccc(S(=O)(=O)[O-])c6F)c6ccc3[nH]6)C=C5)C=C4)cc2)c1
REMARK SMILES IDX 16 1 15 2 14 3 12 4 13 5 11 6 8 7 9 8 86 9 10 10 7 11 5 12
REMARK SMILES IDX 4 13 6 15 3 16 2 17 1 18 17 19 18 20 19 21 20 22 21 23 22 24
REMARK SMILES IDX 23 25 24 26 85 27 25 28 84 29 26 30 27 31 28 32 78 33 29 34
REMARK SMILES IDX 83 35 77 36 79 37 30 38 82 39 76 40 75 41 31 43 63 44 43 45
REMARK SMILES IDX 62 46 44 47 47 48 61 49 80 50 45 51 46 52 60 54 81 55 48 56
REMARK SMILES IDX 32 57 33 58 41 59 34 60 36 61 42 62 35 63 37 64 38 65 39 66
REMARK SMILES IDX 40 67 64 68 65 69 73 70 66 71 68 72 74 73 67 74 69 75 70 76
REMARK SMILES IDX 71 77 72 78 49 79 50 80 58 81 51 82 53 83 59 84 52 85 54 86
REMARK SMILES IDX 55 87 56 88 57 89
REMARK H PARENT 4 14 79 42 47 53
REMARK Flexibility Score: inf
ROOT
ATOM      1  C   UNL A   1      36.058  21.499  25.083  1.00  0.00     0.202 C 
ENDROOT
BRANCH   1   2
ATOM      2  C   UNL A   1      35.106  20.307  25.001  1.00  0.00     0.261 C 
BRANCH   2   3
ATOM      3  O   UNL A   1      33.908  20.533  25.746  1.00  0.00    -0.460 OA
BRANCH   3   4
ATOM      4  C   UNL A   1      32.876  21.023  24.991  1.00  0.00     0.339 C 
ATOM      5  O   UNL A   1      32.352  20.448  24.063  1.00  0.00    -0.246 OA
BRANCH   4   6
ATOM      6  C   UNL A   1      32.376  22.292  25.520  1.00  0.00     0.077 A 
ATOM      7  N   UNL A   1      32.189  24.448  25.972  1.00  0.00    -0.344 N 
ATOM      8  C   UNL A   1      30.945  23.915  26.179  1.00  0.00     0.087 A 
ATOM      9  C   UNL A   1      33.098  23.431  25.831  1.00  0.00     0.101 A 
ATOM     10  C   UNL A   1      31.022  22.580  25.855  1.00  0.00     0.035 A 
BRANCH   7  11
ATOM     11  C   UNL A   1      32.444  25.844  25.656  1.00  0.00     0.221 C 
BRANCH  11  12
ATOM     12  C   UNL A   1      31.217  26.687  25.992  1.00  0.00     0.240 C 
ATOM     13  N   UNL A   1      30.285  26.985  25.037  1.00  0.00    -0.341 N 
ATOM     14  H   UNL A   1      29.502  27.485  25.360  1.00  0.00     0.164 HD
ATOM     15  O   UNL A   1      31.031  27.129  27.128  1.00  0.00    -0.273 OA
BRANCH  13  16
ATOM     16  C   UNL A   1      30.277  26.672  23.616  1.00  0.00     0.236 C 
BRANCH  16  17
ATOM     17  C   UNL A   1      30.077  27.894  22.733  1.00  0.00     0.084 C 
ATOM     18  N   UNL A   1      29.912  28.907  22.002  1.00  0.00    -0.196 NA
ENDBRANCH  16  17
ENDBRANCH  13  16
ENDBRANCH  11  12
ENDBRANCH   7  11
ENDBRANCH   4   6
ENDBRANCH   3   4
ENDBRANCH   2   3
ENDBRANCH   1   2
BRANCH   1  19
ATOM     19  O   UNL A   1      37.399  21.360  24.614  1.00  0.00    -0.374 OA
BRANCH  19  20
ATOM     20  C   UNL A   1      38.325  20.460  25.220  1.00  0.00     0.202 C 
BRANCH  20  21
ATOM     21  C   UNL A   1      39.495  20.971  26.048  1.00  0.00     0.261 C 
BRANCH  21  22
ATOM     22  O   UNL A   1      40.054  19.974  26.878  1.00  0.00    -0.460 OA
BRANCH  22  23
ATOM     23  C   UNL A   1      41.179  19.475  26.320  1.00  0.00     0.338 C 
ATOM     24  O   UNL A   1      41.316  18.401  25.751  1.00  0.00    -0.246 OA
BRANCH  23  25
ATOM     25  C   UNL A   1      42.304  20.343  26.629  1.00  0.00     0.060 A 
ATOM     26  C   UNL A   1      42.279  20.861  27.927  1.00  0.00     0.016 A 
ATOM     27  C   UNL A   1      42.821  21.031  25.531  1.00  0.00     0.016 A 
ATOM     28  C   UNL A   1      42.522  22.201  28.078  1.00  0.00     0.010 A 
ATOM     29  C   UNL A   1      42.978  22.381  25.668  1.00  0.00     0.010 A 
ATOM     30  C   UNL A   1      42.804  22.952  26.931  1.00  0.00    -0.014 A 
BRANCH  30  31
ATOM     31  C   UNL A   1      43.200  24.342  27.111  1.00  0.00     0.031 A 
ATOM     32  C   UNL A   1      41.887  25.167  27.348  1.00  0.00     0.074 A 
ATOM     33  C   UNL A   1      44.553  24.557  26.997  1.00  0.00     0.049 A 
ATOM     34  N   UNL A   1      41.617  26.413  27.112  1.00  0.00    -0.248 NA
ATOM     35  C   UNL A   1      40.640  24.468  27.818  1.00  0.00     0.031 C 
ATOM     36  C   UNL A   1      45.607  23.517  26.801  1.00  0.00     0.029 A 
ATOM     37  N   UNL A   1      45.339  25.683  27.024  1.00  0.00    -0.354 N 
ATOM     38  C   UNL A   1      40.337  26.684  27.670  1.00  0.00     0.074 A 
ATOM     39  C   UNL A   1      39.727  25.430  27.942  1.00  0.00     0.031 C 
ATOM     40  C   UNL A   1      46.831  24.075  26.616  1.00  0.00     0.029 A 
ATOM     41  C   UNL A   1      46.718  25.518  26.703  1.00  0.00     0.049 A 
ATOM     42  H   UNL A   1      44.966  26.564  27.255  1.00  0.00     0.167 HD
ATOM     43  C   UNL A   1      39.932  27.939  28.023  1.00  0.00     0.034 A 
ATOM     44  C   UNL A   1      47.652  26.505  26.479  1.00  0.00     0.034 A 
ATOM     45  C   UNL A   1      40.964  28.860  27.685  1.00  0.00     0.049 A 
ATOM     46  C   UNL A   1      46.937  27.735  26.840  1.00  0.00     0.074 A 
ATOM     47  C   UNL A   1      41.364  29.359  26.476  1.00  0.00     0.029 A 
ATOM     48  N   UNL A   1      41.978  28.976  28.608  1.00  0.00    -0.354 N 
ATOM     49  N   UNL A   1      46.597  28.051  28.054  1.00  0.00    -0.248 NA
ATOM     50  C   UNL A   1      46.393  28.567  25.765  1.00  0.00     0.031 C 
ATOM     51  C   UNL A   1      42.765  29.265  26.569  1.00  0.00     0.029 A 
ATOM     52  C   UNL A   1      43.149  29.038  27.898  1.00  0.00     0.049 A 
ATOM     53  H   UNL A   1      41.881  29.008  29.587  1.00  0.00     0.167 HD
ATOM     54  C   UNL A   1      45.514  28.865  27.847  1.00  0.00     0.074 A 
ATOM     55  C   UNL A   1      45.646  29.384  26.499  1.00  0.00     0.031 C 
ATOM     56  C   UNL A   1      44.374  28.689  28.570  1.00  0.00     0.034 A 
BRANCH  43  57
ATOM     57  C   UNL A   1      38.806  28.497  28.853  1.00  0.00     0.023 A 
ATOM     58  C   UNL A   1      37.945  29.396  28.159  1.00  0.00     0.012 A 
ATOM     59  C   UNL A   1      38.747  28.496  30.256  1.00  0.00     0.148 A 
ATOM     60  C   UNL A   1      37.197  30.367  28.814  1.00  0.00     0.002 A 
ATOM     61  C   UNL A   1      37.947  29.438  30.911  1.00  0.00     0.091 A 
ATOM     62  F   UNL A   1      39.518  27.648  30.945  1.00  0.00    -0.205 F 
ATOM     63  C   UNL A   1      37.216  30.401  30.194  1.00  0.00     0.022 A 
BRANCH  61  64
ATOM     64  S   UNL A   1      37.799  29.535  32.699  1.00  0.00     0.127 S 
ATOM     65  O   UNL A   1      39.133  29.977  33.091  1.00  0.00    -0.237 OA
ATOM     66  O   UNL A   1      36.754  30.551  32.857  1.00  0.00    -0.237 OA
ATOM     67  O   UNL A   1      37.402  28.204  33.136  1.00  0.00    -0.744 OA
ENDBRANCH  61  64
ENDBRANCH  43  57
BRANCH  44  68
ATOM     68  C   UNL A   1      49.034  26.689  25.870  1.00  0.00     0.023 A 
ATOM     69  C   UNL A   1      49.282  27.008  24.529  1.00  0.00     0.012 A 
ATOM     70  C   UNL A   1      50.190  26.678  26.724  1.00  0.00     0.148 A 
ATOM     71  C   UNL A   1      50.571  27.406  24.099  1.00  0.00     0.002 A 
ATOM     72  C   UNL A   1      51.418  27.205  26.334  1.00  0.00     0.091 A 
ATOM     73  F   UNL A   1      50.111  26.124  27.938  1.00  0.00    -0.205 F 
ATOM     74  C   UNL A   1      51.621  27.562  25.008  1.00  0.00     0.022 A 
BRANCH  72  75
ATOM     75  S   UNL A   1      52.712  27.611  27.532  1.00  0.00     0.127 S 
ATOM     76  O   UNL A   1      53.382  26.327  27.721  1.00  0.00    -0.237 OA
ATOM     77  O   UNL A   1      53.490  28.606  26.792  1.00  0.00    -0.237 OA
ATOM     78  O   UNL A   1      52.030  28.131  28.710  1.00  0.00    -0.744 OA
ENDBRANCH  72  75
ENDBRANCH  44  68
BRANCH  56  79
ATOM     79  C   UNL A   1      44.537  27.918  29.895  1.00  0.00     0.023 A 
ATOM     80  C   UNL A   1      44.090  26.581  29.893  1.00  0.00     0.012 A 
ATOM     81  C   UNL A   1      44.989  28.428  31.142  1.00  0.00     0.148 A 
ATOM     82  C   UNL A   1      44.059  25.799  31.052  1.00  0.00     0.002 A 
ATOM     83  C   UNL A   1      44.944  27.649  32.313  1.00  0.00     0.091 A 
ATOM     84  F   UNL A   1      45.469  29.668  31.197  1.00  0.00    -0.205 F 
ATOM     85  C   UNL A   1      44.480  26.332  32.262  1.00  0.00     0.022 A 
BRANCH  83  86
ATOM     86  S   UNL A   1      45.407  28.235  33.961  1.00  0.00     0.127 S 
ATOM     87  O   UNL A   1      44.361  29.216  34.257  1.00  0.00    -0.237 OA
ATOM     88  O   UNL A   1      45.325  27.017  34.764  1.00  0.00    -0.237 OA
ATOM     89  O   UNL A   1      46.742  28.804  33.837  1.00  0.00    -0.744 OA
ENDBRANCH  83  86
ENDBRANCH  56  79
ENDBRANCH  30  31
ENDBRANCH  23  25
ENDBRANCH  22  23
ENDBRANCH  21  22
ENDBRANCH  20  21
ENDBRANCH  19  20
ENDBRANCH   1  19
TORSDOF 21
ENDMDL
MODEL 2
REMARK VINA RESULT:      -9.8      5.040     11.248
REMARK SMILES N#CCNC(=O)Cn1ccc(C(=O)OCCOCCOC(=O)c2ccc(-c3c4nc(c(-c5cccc(S(=O)(=O)[O-])c5F)c5ccc([nH]5)c(-c5cccc(S(=O)(=O)[O-])c5F)c5nc(c(-c6cccc(S(=O)(=O)[O-])c6F)c6ccc3[nH]6)C=C5)C=C4)cc2)c1
REMARK SMILES IDX 16 1 15 2 14 3 12 4 13 5 11 6 8 7 9 8 86 9 10 10 7 11 5 12
REMARK SMILES IDX 4 13 6 15 3 16 2 17 1 18 17 19 18 20 19 21 20 22 21 23 22 24
REMARK SMILES IDX 23 25 24 26 85 27 25 28 84 29 26 30 27 31 28 32 78 33 29 34
REMARK SMILES IDX 83 35 77 36 79 37 30 38 82 39 76 40 75 41 31 43 63 44 43 45
REMARK SMILES IDX 62 46 44 47 47 48 61 49 80 50 45 51 46 52 60 54 81 55 48 56
REMARK SMILES IDX 32 57 33 58 41 59 34 60 36 61 42 62 35 63 37 64 38 65 39 66
REMARK SMILES IDX 40 67 64 68 65 69 73 70 66 71 68 72 74 73 67 74 69 75 70 76
REMARK SMILES IDX 71 77 72 78 49 79 50 80 58 81 51 82 53 83 59 84 52 85 54 86
REMARK SMILES IDX 55 87 56 88 57 89
REMARK H PARENT 4 14 79 42 47 53
REMARK Flexibility Score: inf
ROOT
ATOM      1  C   UNL A   1      31.321  29.950  24.779  1.00  0.00     0.202 C 
ENDROOT
BRANCH   1   2
ATOM      2  C   UNL A   1      32.155  28.774  25.283  1.00  0.00     0.261 C 
BRANCH   2   3
ATOM      3  O   UNL A   1      31.846  27.567  24.583  1.00  0.00    -0.460 OA
BRANCH   3   4
ATOM      4  C   UNL A   1      32.790  27.214  23.655  1.00  0.00     0.339 C 
ATOM      5  O   UNL A   1      33.357  27.977  22.907  1.00  0.00    -0.246 OA
BRANCH   4   6
ATOM      6  C   UNL A   1      33.141  25.797  23.756  1.00  0.00     0.077 A 
ATOM      7  N   UNL A   1      34.260  23.938  24.181  1.00  0.00    -0.344 N 
ATOM      8  C   UNL A   1      32.945  23.567  24.081  1.00  0.00     0.087 A 
ATOM      9  C   UNL A   1      34.401  25.225  23.729  1.00  0.00     0.101 A 
ATOM     10  C   UNL A   1      32.219  24.716  23.866  1.00  0.00     0.035 A 
BRANCH   7  11
ATOM     11  C   UNL A   1      35.269  23.197  24.921  1.00  0.00     0.221 C 
BRANCH  11  12
ATOM     12  C   UNL A   1      36.461  22.895  24.018  1.00  0.00     0.240 C 
ATOM     13  N   UNL A   1      37.667  22.526  24.545  1.00  0.00    -0.341 N 
ATOM     14  H   UNL A   1      38.359  22.297  23.885  1.00  0.00     0.164 HD
ATOM     15  O   UNL A   1      36.376  22.978  22.790  1.00  0.00    -0.273 OA
BRANCH  13  16
ATOM     16  C   UNL A   1      38.081  22.421  25.937  1.00  0.00     0.236 C 
BRANCH  16  17
ATOM     17  C   UNL A   1      39.383  21.658  26.120  1.00  0.00     0.084 C 
ATOM     18  N   UNL A   1      40.463  21.026  26.272  1.00  0.00    -0.196 NA
ENDBRANCH  16  17
ENDBRANCH  13  16
ENDBRANCH  11  12
ENDBRANCH   7  11
ENDBRANCH   4   6
ENDBRANCH   3   4
ENDBRANCH   2   3
ENDBRANCH   1   2
BRANCH   1  19
ATOM     19  O   UNL A   1      31.135  31.090  25.619  1.00  0.00    -0.374 OA
BRANCH  19  20
ATOM     20  C   UNL A   1      32.061  31.433  26.647  1.00  0.00     0.202 C 
BRANCH  20  21
ATOM     21  C   UNL A   1      31.984  32.774  27.363  1.00  0.00     0.261 C 
BRANCH  21  22
ATOM     22  O   UNL A   1      33.256  33.304  27.672  1.00  0.00    -0.460 OA
BRANCH  22  23
ATOM     23  C   UNL A   1      33.131  34.440  28.392  1.00  0.00     0.338 C 
ATOM     24  O   UNL A   1      32.312  35.335  28.237  1.00  0.00    -0.246 OA
BRANCH  23  25
ATOM     25  C   UNL A   1      34.240  34.551  29.326  1.00  0.00     0.060 A 
ATOM     26  C   UNL A   1      35.496  34.553  28.713  1.00  0.00     0.016 A 
ATOM     27  C   UNL A   1      33.993  34.003  30.584  1.00  0.00     0.016 A 
ATOM     28  C   UNL A   1      36.463  33.743  29.250  1.00  0.00     0.010 A 
ATOM     29  C   UNL A   1      34.927  33.131  31.070  1.00  0.00     0.010 A 
ATOM     30  C   UNL A   1      36.138  32.994  30.386  1.00  0.00    -0.014 A 
BRANCH  30  31
ATOM     31  C   UNL A   1      37.206  32.247  31.035  1.00  0.00     0.031 A 
ATOM     32  C   UNL A   1      37.492  30.987  30.145  1.00  0.00     0.074 A 
ATOM     33  C   UNL A   1      37.636  32.800  32.218  1.00  0.00     0.049 A 
ATOM     34  N   UNL A   1      37.970  29.823  30.455  1.00  0.00    -0.248 NA
ATOM     35  C   UNL A   1      37.076  30.984  28.698  1.00  0.00     0.031 C 
ATOM     36  C   UNL A   1      37.180  34.089  32.816  1.00  0.00     0.029 A 
ATOM     37  N   UNL A   1      38.546  32.410  33.170  1.00  0.00    -0.354 N 
ATOM     38  C   UNL A   1      38.181  29.111  29.242  1.00  0.00     0.074 A 
ATOM     39  C   UNL A   1      37.473  29.804  28.223  1.00  0.00     0.031 C 
ATOM     40  C   UNL A   1      37.721  34.289  34.045  1.00  0.00     0.029 A 
ATOM     41  C   UNL A   1      38.604  33.183  34.365  1.00  0.00     0.049 A 
ATOM     42  H   UNL A   1      39.132  31.631  33.032  1.00  0.00     0.167 HD
ATOM     43  C   UNL A   1      39.071  28.081  29.131  1.00  0.00     0.034 A 
ATOM     44  C   UNL A   1      39.286  32.888  35.525  1.00  0.00     0.034 A 
ATOM     45  C   UNL A   1      39.655  27.848  30.408  1.00  0.00     0.049 A 
ATOM     46  C   UNL A   1      40.076  31.707  35.161  1.00  0.00     0.074 A 
ATOM     47  C   UNL A   1      39.151  27.255  31.533  1.00  0.00     0.029 A 
ATOM     48  N   UNL A   1      40.712  28.666  30.732  1.00  0.00    -0.354 N 
ATOM     49  N   UNL A   1      41.081  31.727  34.336  1.00  0.00    -0.248 NA
ATOM     50  C   UNL A   1      39.597  30.389  35.583  1.00  0.00     0.031 C 
ATOM     51  C   UNL A   1      39.570  28.141  32.543  1.00  0.00     0.029 A 
ATOM     52  C   UNL A   1      40.550  29.013  32.049  1.00  0.00     0.049 A 
ATOM     53  H   UNL A   1      41.443  28.947  30.135  1.00  0.00     0.167 HD
ATOM     54  C   UNL A   1      41.092  30.442  33.863  1.00  0.00     0.074 A 
ATOM     55  C   UNL A   1      40.418  29.634  34.861  1.00  0.00     0.031 C 
ATOM     56  C   UNL A   1      41.205  30.202  32.527  1.00  0.00     0.034 A 
BRANCH  43  57
ATOM     57  C   UNL A   1      39.701  27.343  27.979  1.00  0.00     0.023 A 
ATOM     58  C   UNL A   1      39.393  25.953  27.926  1.00  0.00     0.012 A 
ATOM     59  C   UNL A   1      40.788  27.797  27.215  1.00  0.00     0.148 A 
ATOM     60  C   UNL A   1      40.221  25.030  27.296  1.00  0.00     0.002 A 
ATOM     61  C   UNL A   1      41.585  26.870  26.534  1.00  0.00     0.091 A 
ATOM     62  F   UNL A   1      41.094  29.099  27.216  1.00  0.00    -0.205 F 
ATOM     63  C   UNL A   1      41.332  25.489  26.617  1.00  0.00     0.022 A 
BRANCH  61  64
ATOM     64  S   UNL A   1      43.003  27.333  25.533  1.00  0.00     0.127 S 
ATOM     65  O   UNL A   1      43.395  26.053  24.950  1.00  0.00    -0.237 OA
ATOM     66  O   UNL A   1      42.400  28.271  24.581  1.00  0.00    -0.237 OA
ATOM     67  O   UNL A   1      43.952  27.947  26.450  1.00  0.00    -0.744 OA
ENDBRANCH  61  64
ENDBRANCH  43  57
BRANCH  44  68
ATOM     68  C   UNL A   1      39.332  33.299  36.989  1.00  0.00     0.023 A 
ATOM     69  C   UNL A   1      40.080  34.369  37.497  1.00  0.00     0.012 A 
ATOM     70  C   UNL A   1      38.457  32.658  37.931  1.00  0.00     0.148 A 
ATOM     71  C   UNL A   1      39.878  34.841  38.817  1.00  0.00     0.002 A 
ATOM     72  C   UNL A   1      38.156  33.209  39.174  1.00  0.00     0.091 A 
ATOM     73  F   UNL A   1      37.915  31.473  37.632  1.00  0.00    -0.205 F 
ATOM     74  C   UNL A   1      38.878  34.302  39.632  1.00  0.00     0.022 A 
BRANCH  72  75
ATOM     75  S   UNL A   1      36.731  32.663  40.146  1.00  0.00     0.127 S 
ATOM     76  O   UNL A   1      36.605  33.721  41.145  1.00  0.00    -0.237 OA
ATOM     77  O   UNL A   1      35.676  32.649  39.131  1.00  0.00    -0.237 OA
ATOM     78  O   UNL A   1      37.075  31.351  40.677  1.00  0.00    -0.744 OA
ENDBRANCH  72  75
ENDBRANCH  44  68
BRANCH  56  79
ATOM     79  C   UNL A   1      41.799  31.354  31.691  1.00  0.00     0.023 A 
ATOM     80  C   UNL A   1      40.875  32.127  30.958  1.00  0.00     0.012 A 
ATOM     81  C   UNL A   1      43.173  31.660  31.494  1.00  0.00     0.148 A 
ATOM     82  C   UNL A   1      41.277  33.122  30.061  1.00  0.00     0.002 A 
ATOM     83  C   UNL A   1      43.580  32.650  30.580  1.00  0.00     0.091 A 
ATOM     84  F   UNL A   1      44.089  30.997  32.195  1.00  0.00    -0.205 F 
ATOM     85  C   UNL A   1      42.626  33.381  29.867  1.00  0.00     0.022 A 
BRANCH  83  86
ATOM     86  S   UNL A   1      45.301  33.049  30.190  1.00  0.00     0.127 S 
ATOM     87  O   UNL A   1      45.717  33.835  31.354  1.00  0.00    -0.237 OA
ATOM     88  O   UNL A   1      45.922  31.729  30.111  1.00  0.00    -0.237 OA
ATOM     89  O   UNL A   1      45.279  33.797  28.940  1.00  0.00    -0.744 OA
ENDBRANCH  83  86
ENDBRANCH  56  79
ENDBRANCH  30  31
ENDBRANCH  23  25
ENDBRANCH  22  23
ENDBRANCH  21  22
ENDBRANCH  20  21
ENDBRANCH  19  20
ENDBRANCH   1  19
TORSDOF 21
ENDMDL
MODEL 3
REMARK VINA RESULT:      -9.7      5.251     10.868
REMARK SMILES N#CCNC(=O)Cn1ccc(C(=O)OCCOCCOC(=O)c2ccc(-c3c4nc(c(-c5cccc(S(=O)(=O)[O-])c5F)c5ccc([nH]5)c(-c5cccc(S(=O)(=O)[O-])c5F)c5nc(c(-c6cccc(S(=O)(=O)[O-])c6F)c6ccc3[nH]6)C=C5)C=C4)cc2)c1
REMARK SMILES IDX 16 1 15 2 14 3 12 4 13 5 11 6 8 7 9 8 86 9 10 10 7 11 5 12
REMARK SMILES IDX 4 13 6 15 3 16 2 17 1 18 17 19 18 20 19 21 20 22 21 23 22 24
REMARK SMILES IDX 23 25 24 26 85 27 25 28 84 29 26 30 27 31 28 32 78 33 29 34
REMARK SMILES IDX 83 35 77 36 79 37 30 38 82 39 76 40 75 41 31 43 63 44 43 45
REMARK SMILES IDX 62 46 44 47 47 48 61 49 80 50 45 51 46 52 60 54 81 55 48 56
REMARK SMILES IDX 32 57 33 58 41 59 34 60 36 61 42 62 35 63 37 64 38 65 39 66
REMARK SMILES IDX 40 67 64 68 65 69 73 70 66 71 68 72 74 73 67 74 69 75 70 76
REMARK SMILES IDX 71 77 72 78 49 79 50 80 58 81 51 82 53 83 59 84 52 85 54 86
REMARK SMILES IDX 55 87 56 88 57 89
REMARK H PARENT 4 14 79 42 47 53
REMARK Flexibility Score: inf
ROOT
ATOM      1  C   UNL A   1      31.729  29.642  25.024  1.00  0.00     0.202 C 
ENDROOT
BRANCH   1   2
ATOM      2  C   UNL A   1      32.512  28.543  25.738  1.00  0.00     0.261 C 
BRANCH   2   3
ATOM      3  O   UNL A   1      31.866  27.273  25.625  1.00  0.00    -0.460 OA
BRANCH   3   4
ATOM      4  C   UNL A   1      32.345  26.504  24.597  1.00  0.00     0.339 C 
ATOM      5  O   UNL A   1      32.288  26.789  23.423  1.00  0.00    -0.246 OA
BRANCH   4   6
ATOM      6  C   UNL A   1      33.067  25.331  25.094  1.00  0.00     0.077 A 
ATOM      7  N   UNL A   1      33.642  23.233  25.488  1.00  0.00    -0.344 N 
ATOM      8  C   UNL A   1      34.769  23.977  25.715  1.00  0.00     0.087 A 
ATOM      9  C   UNL A   1      32.564  24.073  25.371  1.00  0.00     0.101 A 
ATOM     10  C   UNL A   1      34.451  25.285  25.428  1.00  0.00     0.035 A 
BRANCH   7  11
ATOM     11  C   UNL A   1      33.644  21.824  25.133  1.00  0.00     0.221 C 
BRANCH  11  12
ATOM     12  C   UNL A   1      33.510  20.969  26.390  1.00  0.00     0.240 C 
ATOM     13  N   UNL A   1      33.284  19.623  26.304  1.00  0.00    -0.341 N 
ATOM     14  H   UNL A   1      33.268  19.147  27.165  1.00  0.00     0.164 HD
ATOM     15  O   UNL A   1      33.596  21.462  27.517  1.00  0.00    -0.273 OA
BRANCH  13  16
ATOM     16  C   UNL A   1      33.063  18.790  25.132  1.00  0.00     0.236 C 
BRANCH  16  17
ATOM     17  C   UNL A   1      32.902  17.315  25.465  1.00  0.00     0.084 C 
ATOM     18  N   UNL A   1      32.768  16.092  25.741  1.00  0.00    -0.196 NA
ENDBRANCH  16  17
ENDBRANCH  13  16
ENDBRANCH  11  12
ENDBRANCH   7  11
ENDBRANCH   4   6
ENDBRANCH   3   4
ENDBRANCH   2   3
ENDBRANCH   1   2
BRANCH   1  19
ATOM     19  O   UNL A   1      31.376  30.829  25.735  1.00  0.00    -0.374 OA
BRANCH  19  20
ATOM     20  C   UNL A   1      32.144  31.309  26.836  1.00  0.00     0.202 C 
BRANCH  20  21
ATOM     21  C   UNL A   1      32.146  32.784  27.214  1.00  0.00     0.261 C 
BRANCH  21  22
ATOM     22  O   UNL A   1      33.368  33.200  27.786  1.00  0.00    -0.460 OA
BRANCH  22  23
ATOM     23  C   UNL A   1      33.195  34.343  28.486  1.00  0.00     0.338 C 
ATOM     24  O   UNL A   1      32.358  35.214  28.296  1.00  0.00    -0.246 OA
BRANCH  23  25
ATOM     25  C   UNL A   1      34.275  34.495  29.447  1.00  0.00     0.060 A 
ATOM     26  C   UNL A   1      35.543  34.571  28.864  1.00  0.00     0.016 A 
ATOM     27  C   UNL A   1      34.028  33.915  30.691  1.00  0.00     0.016 A 
ATOM     28  C   UNL A   1      36.538  33.803  29.412  1.00  0.00     0.010 A 
ATOM     29  C   UNL A   1      34.994  33.083  31.186  1.00  0.00     0.010 A 
ATOM     30  C   UNL A   1      36.225  33.020  30.529  1.00  0.00    -0.014 A 
BRANCH  30  31
ATOM     31  C   UNL A   1      37.316  32.318  31.191  1.00  0.00     0.031 A 
ATOM     32  C   UNL A   1      37.598  31.017  30.360  1.00  0.00     0.074 A 
ATOM     33  C   UNL A   1      37.764  32.935  32.335  1.00  0.00     0.049 A 
ATOM     34  N   UNL A   1      38.095  29.875  30.719  1.00  0.00    -0.248 NA
ATOM     35  C   UNL A   1      37.151  30.936  28.925  1.00  0.00     0.031 C 
ATOM     36  C   UNL A   1      37.306  34.248  32.877  1.00  0.00     0.029 A 
ATOM     37  N   UNL A   1      38.698  32.603  33.286  1.00  0.00    -0.354 N 
ATOM     38  C   UNL A   1      38.289  29.105  29.539  1.00  0.00     0.074 A 
ATOM     39  C   UNL A   1      37.551  29.738  28.502  1.00  0.00     0.031 C 
ATOM     40  C   UNL A   1      37.871  34.516  34.083  1.00  0.00     0.029 A 
ATOM     41  C   UNL A   1      38.772  33.437  34.439  1.00  0.00     0.049 A 
ATOM     42  H   UNL A   1      39.290  31.824  33.175  1.00  0.00     0.167 HD
ATOM     43  C   UNL A   1      39.187  28.080  29.461  1.00  0.00     0.034 A 
ATOM     44  C   UNL A   1      39.482  33.209  35.597  1.00  0.00     0.034 A 
ATOM     45  C   UNL A   1      39.801  27.919  30.735  1.00  0.00     0.049 A 
ATOM     46  C   UNL A   1      40.278  32.018  35.276  1.00  0.00     0.074 A 
ATOM     47  C   UNL A   1      39.327  27.378  31.899  1.00  0.00     0.029 A 
ATOM     48  N   UNL A   1      40.855  28.763  30.994  1.00  0.00    -0.354 N 
ATOM     49  N   UNL A   1      41.265  32.007  34.430  1.00  0.00    -0.248 NA
ATOM     50  C   UNL A   1      39.823  30.718  35.775  1.00  0.00     0.031 C 
ATOM     51  C   UNL A   1      39.757  28.318  32.854  1.00  0.00     0.029 A 
ATOM     52  C   UNL A   1      40.717  29.174  32.295  1.00  0.00     0.049 A 
ATOM     53  H   UNL A   1      41.570  29.021  30.369  1.00  0.00     0.167 HD
ATOM     54  C   UNL A   1      41.281  30.699  34.023  1.00  0.00     0.074 A 
ATOM     55  C   UNL A   1      40.637  29.936  35.074  1.00  0.00     0.031 C 
ATOM     56  C   UNL A   1      41.369  30.393  32.699  1.00  0.00     0.034 A 
BRANCH  43  57
ATOM     57  C   UNL A   1      39.802  27.291  28.335  1.00  0.00     0.023 A 
ATOM     58  C   UNL A   1      39.571  25.886  28.400  1.00  0.00     0.012 A 
ATOM     59  C   UNL A   1      40.823  27.742  27.483  1.00  0.00     0.148 A 
ATOM     60  C   UNL A   1      40.418  24.963  27.796  1.00  0.00     0.002 A 
ATOM     61  C   UNL A   1      41.637  26.809  26.831  1.00  0.00     0.091 A 
ATOM     62  F   UNL A   1      41.054  29.055  27.372  1.00  0.00    -0.205 F 
ATOM     63  C   UNL A   1      41.467  25.427  27.028  1.00  0.00     0.022 A 
BRANCH  61  64
ATOM     64  S   UNL A   1      42.975  27.270  25.725  1.00  0.00     0.127 S 
ATOM     65  O   UNL A   1      43.850  28.035  26.608  1.00  0.00    -0.237 OA
ATOM     66  O   UNL A   1      43.505  25.959  25.337  1.00  0.00    -0.237 OA
ATOM     67  O   UNL A   1      42.352  28.004  24.634  1.00  0.00    -0.744 OA
ENDBRANCH  61  64
ENDBRANCH  43  57
BRANCH  44  68
ATOM     68  C   UNL A   1      39.554  33.694  37.037  1.00  0.00     0.023 A 
ATOM     69  C   UNL A   1      39.056  32.994  38.144  1.00  0.00     0.012 A 
ATOM     70  C   UNL A   1      40.299  34.883  37.346  1.00  0.00     0.148 A 
ATOM     71  C   UNL A   1      39.382  33.388  39.465  1.00  0.00     0.002 A 
ATOM     72  C   UNL A   1      40.736  35.184  38.633  1.00  0.00     0.091 A 
ATOM     73  F   UNL A   1      40.577  35.761  36.376  1.00  0.00    -0.205 F 
ATOM     74  C   UNL A   1      40.266  34.442  39.708  1.00  0.00     0.022 A 
BRANCH  72  75
ATOM     75  S   UNL A   1      42.038  36.401  38.944  1.00  0.00     0.127 S 
ATOM     76  O   UNL A   1      42.978  36.142  37.856  1.00  0.00    -0.237 OA
ATOM     77  O   UNL A   1      41.296  37.657  38.827  1.00  0.00    -0.237 OA
ATOM     78  O   UNL A   1      42.549  36.123  40.280  1.00  0.00    -0.744 OA
ENDBRANCH  72  75
ENDBRANCH  44  68
BRANCH  56  79
ATOM     79  C   UNL A   1      41.931  31.507  31.792  1.00  0.00     0.023 A 
ATOM     80  C   UNL A   1      40.998  32.159  30.960  1.00  0.00     0.012 A 
ATOM     81  C   UNL A   1      43.293  31.880  31.626  1.00  0.00     0.148 A 
ATOM     82  C   UNL A   1      41.382  33.100  29.999  1.00  0.00     0.002 A 
ATOM     83  C   UNL A   1      43.682  32.815  30.648  1.00  0.00     0.091 A 
ATOM     84  F   UNL A   1      44.213  31.335  32.417  1.00  0.00    -0.205 F 
ATOM     85  C   UNL A   1      42.721  33.425  29.838  1.00  0.00     0.022 A 
BRANCH  83  86
ATOM     86  S   UNL A   1      45.393  33.287  30.295  1.00  0.00     0.127 S 
ATOM     87  O   UNL A   1      45.230  34.399  29.356  1.00  0.00    -0.237 OA
ATOM     88  O   UNL A   1      45.888  33.687  31.611  1.00  0.00    -0.237 OA
ATOM     89  O   UNL A   1      46.036  32.111  29.725  1.00  0.00    -0.744 OA
ENDBRANCH  83  86
ENDBRANCH  56  79
ENDBRANCH  30  31
ENDBRANCH  23  25
ENDBRANCH  22  23
ENDBRANCH  21  22
ENDBRANCH  20  21
ENDBRANCH  19  20
ENDBRANCH   1  19
TORSDOF 21
ENDMDL
