MODEL 1
REMARK VINA RESULT:      -8.3      0.000      0.000
REMARK SMILES COC(=O)NNC(=O)CCC(=O)OCCOCCOC(=O)c1ccc(-c2c3nc(c(-c4cccc(S(=O)(=O)[O-])c4F)c4ccc([nH]4)c(-c4cccc(S(=O)(=O)[O-])c4F)c4nc(c(-c5cccc(S(=O)(=O)[O-])c5F)c5ccc2[nH]5)C=C4)C=C3)cc1
REMARK SMILES IDX 15 1 14 2 13 3 11 4 12 5 10 6 9 7 7 8 6 9 8 11 5 12 3 13
REMARK SMILES IDX 4 14 2 16 1 17 16 18 17 19 18 20 19 21 20 22 21 23 22 24
REMARK SMILES IDX 23 25 84 26 24 27 83 28 25 29 26 30 27 31 77 32 28 33 82 34
REMARK SMILES IDX 76 35 78 36 29 37 81 38 75 39 74 40 30 42 62 43 42 44 61 45
REMARK SMILES IDX 43 46 46 47 60 48 79 49 44 50 45 51 59 53 80 54 47 55 31 56
REMARK SMILES IDX 32 57 40 58 33 59 35 60 41 61 34 62 36 63 37 64 38 65 39 66
REMARK SMILES IDX 63 67 64 68 72 69 65 70 67 71 73 72 66 73 68 74 69 75 70 76
REMARK SMILES IDX 71 77 48 78 49 79 57 80 50 81 52 82 58 83 51 84 53 85 54 86
REMARK SMILES IDX 55 87 56 88
REMARK H PARENT 6 10 5 15 78 41 46 52
REMARK Flexibility Score: inf
ROOT
ATOM      1  C   UNL A   1      45.892  21.559  25.183  1.00  0.00     0.202 C 
ENDROOT
BRANCH   1   2
ATOM      2  C   UNL A   1      45.612  22.869  24.428  1.00  0.00     0.261 C 
BRANCH   2   3
ATOM      3  O   UNL A   1      46.822  23.428  23.876  1.00  0.00    -0.463 OA
BRANCH   3   4
ATOM      4  C   UNL A   1      47.138  24.702  24.204  1.00  0.00     0.306 C 
ATOM      5  O   UNL A   1      47.973  25.390  23.631  1.00  0.00    -0.252 OA
BRANCH   4   6
ATOM      6  C   UNL A   1      46.351  25.204  25.397  1.00  0.00     0.132 C 
BRANCH   6   7
ATOM      7  C   UNL A   1      46.461  26.693  25.720  1.00  0.00     0.113 C 
BRANCH   7   8
ATOM      8  C   UNL A   1      45.136  27.416  25.557  1.00  0.00     0.239 C 
ATOM      9  N   UNL A   1      45.042  28.747  25.885  1.00  0.00    -0.265 N 
ATOM     10  H   UNL A   1      44.193  29.210  25.700  1.00  0.00     0.191 HD
ATOM     11  O   UNL A   1      44.154  26.806  25.133  1.00  0.00    -0.273 OA
BRANCH   9  12
ATOM     12  N   UNL A   1      46.070  29.474  26.460  1.00  0.00    -0.232 N 
ATOM     13  C   UNL A   1      46.260  30.828  26.316  1.00  0.00     0.425 C 
ATOM     14  O   UNL A   1      47.243  31.382  26.786  1.00  0.00    -0.223 OA
ATOM     15  H   UNL A   1      46.717  28.983  27.017  1.00  0.00     0.195 HD
BRANCH  13  16
ATOM     16  O   UNL A   1      45.284  31.477  25.633  1.00  0.00    -0.452 OA
ATOM     17  C   UNL A   1      44.813  32.611  26.372  1.00  0.00     0.284 C 
ENDBRANCH  13  16
ENDBRANCH   9  12
ENDBRANCH   7   8
ENDBRANCH   6   7
ENDBRANCH   4   6
ENDBRANCH   3   4
ENDBRANCH   2   3
ENDBRANCH   1   2
BRANCH   1  18
ATOM     18  O   UNL A   1      45.786  20.381  24.385  1.00  0.00    -0.374 OA
BRANCH  18  19
ATOM     19  C   UNL A   1      45.562  19.162  25.094  1.00  0.00     0.202 C 
BRANCH  19  20
ATOM     20  C   UNL A   1      44.093  18.792  25.376  1.00  0.00     0.261 C 
BRANCH  20  21
ATOM     21  O   UNL A   1      43.127  19.789  24.943  1.00  0.00    -0.460 OA
BRANCH  21  22
ATOM     22  C   UNL A   1      42.079  19.967  25.808  1.00  0.00     0.338 C 
ATOM     23  O   UNL A   1      41.204  19.147  26.041  1.00  0.00    -0.246 OA
BRANCH  22  24
ATOM     24  C   UNL A   1      42.131  21.265  26.533  1.00  0.00     0.060 A 
ATOM     25  C   UNL A   1      42.350  22.421  25.774  1.00  0.00     0.016 A 
ATOM     26  C   UNL A   1      42.028  21.376  27.927  1.00  0.00     0.016 A 
ATOM     27  C   UNL A   1      42.446  23.675  26.392  1.00  0.00     0.010 A 
ATOM     28  C   UNL A   1      42.138  22.640  28.549  1.00  0.00     0.010 A 
ATOM     29  C   UNL A   1      42.362  23.800  27.787  1.00  0.00    -0.014 A 
BRANCH  29  30
ATOM     30  C   UNL A   1      42.694  25.127  28.394  1.00  0.00     0.031 A 
ATOM     31  C   UNL A   1      44.131  25.427  28.717  1.00  0.00     0.074 A 
ATOM     32  C   UNL A   1      41.780  26.102  28.575  1.00  0.00     0.049 A 
ATOM     33  N   UNL A   1      44.686  26.564  29.050  1.00  0.00    -0.248 NA
ATOM     34  C   UNL A   1      45.061  24.291  28.654  1.00  0.00     0.031 C 
ATOM     35  C   UNL A   1      40.350  25.953  28.365  1.00  0.00     0.029 A 
ATOM     36  N   UNL A   1      41.920  27.418  28.958  1.00  0.00    -0.354 N 
ATOM     37  C   UNL A   1      46.031  26.282  29.244  1.00  0.00     0.074 A 
ATOM     38  C   UNL A   1      46.204  24.865  29.001  1.00  0.00     0.031 C 
ATOM     39  C   UNL A   1      39.743  27.137  28.559  1.00  0.00     0.029 A 
ATOM     40  C   UNL A   1      40.739  28.129  28.962  1.00  0.00     0.049 A 
ATOM     41  H   UNL A   1      42.787  27.815  29.208  1.00  0.00     0.167 HD
ATOM     42  C   UNL A   1      47.037  27.119  29.590  1.00  0.00     0.034 A 
ATOM     43  C   UNL A   1      40.484  29.421  29.265  1.00  0.00     0.034 A 
ATOM     44  C   UNL A   1      46.877  28.518  29.879  1.00  0.00     0.049 A 
ATOM     45  C   UNL A   1      41.620  30.328  29.676  1.00  0.00     0.074 A 
ATOM     46  C   UNL A   1      47.848  29.437  30.238  1.00  0.00     0.029 A 
ATOM     47  N   UNL A   1      45.670  29.198  29.877  1.00  0.00    -0.354 N 
ATOM     48  N   UNL A   1      42.905  30.074  29.728  1.00  0.00    -0.248 NA
ATOM     49  C   UNL A   1      41.271  31.709  30.054  1.00  0.00     0.031 C 
ATOM     50  C   UNL A   1      47.223  30.661  30.495  1.00  0.00     0.029 A 
ATOM     51  C   UNL A   1      45.869  30.520  30.242  1.00  0.00     0.049 A 
ATOM     52  H   UNL A   1      44.798  28.800  29.652  1.00  0.00     0.167 HD
ATOM     53  C   UNL A   1      43.517  31.265  30.106  1.00  0.00     0.074 A 
ATOM     54  C   UNL A   1      42.466  32.250  30.247  1.00  0.00     0.031 C 
ATOM     55  C   UNL A   1      44.831  31.516  30.329  1.00  0.00     0.034 A 
BRANCH  42  56
ATOM     56  C   UNL A   1      48.414  26.523  29.687  1.00  0.00     0.023 A 
ATOM     57  C   UNL A   1      48.809  25.861  30.867  1.00  0.00     0.012 A 
ATOM     58  C   UNL A   1      49.310  26.606  28.604  1.00  0.00     0.148 A 
ATOM     59  C   UNL A   1      50.090  25.326  30.984  1.00  0.00     0.002 A 
ATOM     60  C   UNL A   1      50.568  26.028  28.710  1.00  0.00     0.091 A 
ATOM     61  F   UNL A   1      48.921  27.261  27.501  1.00  0.00    -0.205 F 
ATOM     62  C   UNL A   1      50.965  25.402  29.903  1.00  0.00     0.022 A 
BRANCH  60  63
ATOM     63  S   UNL A   1      51.739  26.009  27.350  1.00  0.00     0.127 S 
ATOM     64  O   UNL A   1      53.016  25.987  28.062  1.00  0.00    -0.237 OA
ATOM     65  O   UNL A   1      51.398  24.759  26.672  1.00  0.00    -0.237 OA
ATOM     66  O   UNL A   1      51.478  27.213  26.575  1.00  0.00    -0.744 OA
ENDBRANCH  60  63
ENDBRANCH  42  56
BRANCH  43  67
ATOM     67  C   UNL A   1      39.092  29.969  29.189  1.00  0.00     0.023 A 
ATOM     68  C   UNL A   1      38.432  30.044  27.945  1.00  0.00     0.012 A 
ATOM     69  C   UNL A   1      38.441  30.459  30.336  1.00  0.00     0.148 A 
ATOM     70  C   UNL A   1      37.169  30.634  27.841  1.00  0.00     0.002 A 
ATOM     71  C   UNL A   1      37.158  30.987  30.235  1.00  0.00     0.091 A 
ATOM     72  F   UNL A   1      39.090  30.404  31.507  1.00  0.00    -0.205 F 
ATOM     73  C   UNL A   1      36.529  31.097  28.986  1.00  0.00     0.022 A 
BRANCH  71  74
ATOM     74  S   UNL A   1      36.209  31.491  31.674  1.00  0.00     0.127 S 
ATOM     75  O   UNL A   1      37.071  32.516  32.258  1.00  0.00    -0.237 OA
ATOM     76  O   UNL A   1      34.980  31.995  31.058  1.00  0.00    -0.237 OA
ATOM     77  O   UNL A   1      36.032  30.286  32.472  1.00  0.00    -0.744 OA
ENDBRANCH  71  74
ENDBRANCH  43  67
BRANCH  55  78
ATOM     78  C   UNL A   1      45.237  32.925  30.686  1.00  0.00     0.023 A 
ATOM     79  C   UNL A   1      45.601  33.843  29.681  1.00  0.00     0.012 A 
ATOM     80  C   UNL A   1      45.185  33.359  32.027  1.00  0.00     0.148 A 
ATOM     81  C   UNL A   1      45.946  35.155  30.008  1.00  0.00     0.002 A 
ATOM     82  C   UNL A   1      45.476  34.682  32.339  1.00  0.00     0.091 A 
ATOM     83  F   UNL A   1      44.856  32.470  32.975  1.00  0.00    -0.205 F 
ATOM     84  C   UNL A   1      45.871  35.578  31.334  1.00  0.00     0.022 A 
BRANCH  82  85
ATOM     85  S   UNL A   1      45.307  35.337  34.004  1.00  0.00     0.127 S 
ATOM     86  O   UNL A   1      46.306  34.559  34.734  1.00  0.00    -0.237 OA
ATOM     87  O   UNL A   1      45.648  36.748  33.818  1.00  0.00    -0.237 OA
ATOM     88  O   UNL A   1      43.922  35.098  34.390  1.00  0.00    -0.744 OA
ENDBRANCH  82  85
ENDBRANCH  55  78
ENDBRANCH  29  30
ENDBRANCH  22  24
ENDBRANCH  21  22
ENDBRANCH  20  21
ENDBRANCH  19  20
ENDBRANCH  18  19
ENDBRANCH   1  18
TORSDOF 21
ENDMDL
MODEL 2
REMARK VINA RESULT:      -8.1      4.843      7.305
REMARK SMILES COC(=O)NNC(=O)CCC(=O)OCCOCCOC(=O)c1ccc(-c2c3nc(c(-c4cccc(S(=O)(=O)[O-])c4F)c4ccc([nH]4)c(-c4cccc(S(=O)(=O)[O-])c4F)c4nc(c(-c5cccc(S(=O)(=O)[O-])c5F)c5ccc2[nH]5)C=C4)C=C3)cc1
REMARK SMILES IDX 15 1 14 2 13 3 11 4 12 5 10 6 9 7 7 8 6 9 8 11 5 12 3 13
REMARK SMILES IDX 4 14 2 16 1 17 16 18 17 19 18 20 19 21 20 22 21 23 22 24
REMARK SMILES IDX 23 25 84 26 24 27 83 28 25 29 26 30 27 31 77 32 28 33 82 34
REMARK SMILES IDX 76 35 78 36 29 37 81 38 75 39 74 40 30 42 62 43 42 44 61 45
REMARK SMILES IDX 43 46 46 47 60 48 79 49 44 50 45 51 59 53 80 54 47 55 31 56
REMARK SMILES IDX 32 57 40 58 33 59 35 60 41 61 34 62 36 63 37 64 38 65 39 66
REMARK SMILES IDX 63 67 64 68 72 69 65 70 67 71 73 72 66 73 68 74 69 75 70 76
REMARK SMILES IDX 71 77 48 78 49 79 57 80 50 81 52 82 58 83 51 84 53 85 54 86
REMARK SMILES IDX 55 87 56 88
REMARK H PARENT 6 10 5 15 78 41 46 52
REMARK Flexibility Score: inf
ROOT
ATOM      1  C   UNL A   1      34.747  22.773  23.656  1.00  0.00     0.202 C 
ENDROOT
BRANCH   1   2
ATOM      2  C   UNL A   1      33.581  23.455  22.924  1.00  0.00     0.261 C 
BRANCH   2   3
ATOM      3  O   UNL A   1      33.246  24.720  23.530  1.00  0.00    -0.463 OA
BRANCH   3   4
ATOM      4  C   UNL A   1      33.609  24.921  24.819  1.00  0.00     0.306 C 
ATOM      5  O   UNL A   1      34.737  25.215  25.194  1.00  0.00    -0.252 OA
BRANCH   4   6
ATOM      6  C   UNL A   1      32.457  24.722  25.782  1.00  0.00     0.132 C 
BRANCH   6   7
ATOM      7  C   UNL A   1      31.137  24.233  25.186  1.00  0.00     0.113 C 
BRANCH   7   8
ATOM      8  C   UNL A   1      29.946  25.016  25.710  1.00  0.00     0.239 C 
ATOM      9  N   UNL A   1      29.272  25.870  24.871  1.00  0.00    -0.265 N 
ATOM     10  H   UNL A   1      28.460  26.308  25.214  1.00  0.00     0.191 HD
ATOM     11  O   UNL A   1      29.593  24.883  26.882  1.00  0.00    -0.273 OA
BRANCH   9  12
ATOM     12  N   UNL A   1      29.666  26.150  23.575  1.00  0.00    -0.232 N 
ATOM     13  C   UNL A   1      30.388  27.254  23.187  1.00  0.00     0.425 C 
ATOM     14  O   UNL A   1      30.622  27.472  22.007  1.00  0.00    -0.223 OA
ATOM     15  H   UNL A   1      29.410  25.507  22.874  1.00  0.00     0.195 HD
BRANCH  13  16
ATOM     16  O   UNL A   1      30.811  28.050  24.200  1.00  0.00    -0.452 OA
ATOM     17  C   UNL A   1      31.736  29.034  23.721  1.00  0.00     0.284 C 
ENDBRANCH  13  16
ENDBRANCH   9  12
ENDBRANCH   7   8
ENDBRANCH   6   7
ENDBRANCH   4   6
ENDBRANCH   3   4
ENDBRANCH   2   3
ENDBRANCH   1   2
BRANCH   1  18
ATOM     18  O   UNL A   1      34.371  21.651  24.455  1.00  0.00    -0.374 OA
BRANCH  18  19
ATOM     19  C   UNL A   1      35.420  20.743  24.793  1.00  0.00     0.202 C 
BRANCH  19  20
ATOM     20  C   UNL A   1      36.508  21.276  25.745  1.00  0.00     0.261 C 
BRANCH  20  21
ATOM     21  O   UNL A   1      37.735  21.695  25.086  1.00  0.00    -0.460 OA
BRANCH  21  22
ATOM     22  C   UNL A   1      38.874  21.431  25.800  1.00  0.00     0.338 C 
ATOM     23  O   UNL A   1      39.455  20.357  25.838  1.00  0.00    -0.246 OA
BRANCH  22  24
ATOM     24  C   UNL A   1      39.417  22.627  26.500  1.00  0.00     0.060 A 
ATOM     25  C   UNL A   1      38.884  23.875  26.156  1.00  0.00     0.016 A 
ATOM     26  C   UNL A   1      40.462  22.567  27.433  1.00  0.00     0.016 A 
ATOM     27  C   UNL A   1      39.370  25.048  26.747  1.00  0.00     0.010 A 
ATOM     28  C   UNL A   1      40.960  23.754  28.018  1.00  0.00     0.010 A 
ATOM     29  C   UNL A   1      40.427  25.007  27.670  1.00  0.00    -0.014 A 
BRANCH  29  30
ATOM     30  C   UNL A   1      41.043  26.304  28.090  1.00  0.00     0.031 A 
ATOM     31  C   UNL A   1      42.391  26.670  27.534  1.00  0.00     0.074 A 
ATOM     32  C   UNL A   1      40.405  27.204  28.866  1.00  0.00     0.049 A 
ATOM     33  N   UNL A   1      43.027  27.812  27.586  1.00  0.00    -0.248 NA
ATOM     34  C   UNL A   1      43.114  25.603  26.828  1.00  0.00     0.031 C 
ATOM     35  C   UNL A   1      39.128  26.981  29.523  1.00  0.00     0.029 A 
ATOM     36  N   UNL A   1      40.734  28.495  29.218  1.00  0.00    -0.354 N 
ATOM     37  C   UNL A   1      44.229  27.602  26.924  1.00  0.00     0.074 A 
ATOM     38  C   UNL A   1      44.237  26.220  26.492  1.00  0.00     0.031 C 
ATOM     39  C   UNL A   1      38.743  28.107  30.149  1.00  0.00     0.029 A 
ATOM     40  C   UNL A   1      39.778  29.128  29.983  1.00  0.00     0.049 A 
ATOM     41  H   UNL A   1      41.578  28.926  28.948  1.00  0.00     0.167 HD
ATOM     42  C   UNL A   1      45.239  28.473  26.692  1.00  0.00     0.034 A 
ATOM     43  C   UNL A   1      39.741  30.375  30.501  1.00  0.00     0.034 A 
ATOM     44  C   UNL A   1      45.269  29.835  27.154  1.00  0.00     0.049 A 
ATOM     45  C   UNL A   1      40.894  31.320  30.251  1.00  0.00     0.074 A 
ATOM     46  C   UNL A   1      46.258  30.784  26.960  1.00  0.00     0.029 A 
ATOM     47  N   UNL A   1      44.289  30.435  27.927  1.00  0.00    -0.354 N 
ATOM     48  N   UNL A   1      41.962  31.144  29.514  1.00  0.00    -0.248 NA
ATOM     49  C   UNL A   1      40.824  32.644  30.893  1.00  0.00     0.031 C 
ATOM     50  C   UNL A   1      45.895  31.945  27.652  1.00  0.00     0.029 A 
ATOM     51  C   UNL A   1      44.654  31.737  28.230  1.00  0.00     0.049 A 
ATOM     52  H   UNL A   1      43.455  30.000  28.219  1.00  0.00     0.167 HD
ATOM     53  C   UNL A   1      42.671  32.341  29.573  1.00  0.00     0.074 A 
ATOM     54  C   UNL A   1      41.898  33.244  30.399  1.00  0.00     0.031 C 
ATOM     55  C   UNL A   1      43.861  32.656  29.005  1.00  0.00     0.034 A 
BRANCH  42  56
ATOM     56  C   UNL A   1      46.412  27.960  25.904  1.00  0.00     0.023 A 
ATOM     57  C   UNL A   1      46.403  28.050  24.497  1.00  0.00     0.012 A 
ATOM     58  C   UNL A   1      47.528  27.404  26.558  1.00  0.00     0.148 A 
ATOM     59  C   UNL A   1      47.470  27.556  23.750  1.00  0.00     0.002 A 
ATOM     60  C   UNL A   1      48.608  26.958  25.809  1.00  0.00     0.091 A 
ATOM     61  F   UNL A   1      47.503  27.308  27.894  1.00  0.00    -0.205 F 
ATOM     62  C   UNL A   1      48.575  27.019  24.406  1.00  0.00     0.022 A 
BRANCH  60  63
ATOM     63  S   UNL A   1      50.106  26.318  26.562  1.00  0.00     0.127 S 
ATOM     64  O   UNL A   1      50.702  27.535  27.113  1.00  0.00    -0.237 OA
ATOM     65  O   UNL A   1      49.574  25.393  27.563  1.00  0.00    -0.237 OA
ATOM     66  O   UNL A   1      50.860  25.685  25.489  1.00  0.00    -0.744 OA
ENDBRANCH  60  63
ENDBRANCH  42  56
BRANCH  43  67
ATOM     67  C   UNL A   1      38.569  30.838  31.310  1.00  0.00     0.023 A 
ATOM     68  C   UNL A   1      38.545  30.623  32.704  1.00  0.00     0.012 A 
ATOM     69  C   UNL A   1      37.458  31.447  30.697  1.00  0.00     0.148 A 
ATOM     70  C   UNL A   1      37.423  30.967  33.461  1.00  0.00     0.002 A 
ATOM     71  C   UNL A   1      36.370  31.845  31.466  1.00  0.00     0.091 A 
ATOM     72  F   UNL A   1      37.483  31.621  29.369  1.00  0.00    -0.205 F 
ATOM     73  C   UNL A   1      36.339  31.586  32.845  1.00  0.00     0.022 A 
BRANCH  71  74
ATOM     74  S   UNL A   1      34.987  32.761  30.777  1.00  0.00     0.127 S 
ATOM     75  O   UNL A   1      34.037  32.748  31.886  1.00  0.00    -0.237 OA
ATOM     76  O   UNL A   1      35.600  34.062  30.504  1.00  0.00    -0.237 OA
ATOM     77  O   UNL A   1      34.580  32.024  29.589  1.00  0.00    -0.744 OA
ENDBRANCH  71  74
ENDBRANCH  43  67
BRANCH  55  78
ATOM     78  C   UNL A   1      44.388  34.059  29.190  1.00  0.00     0.023 A 
ATOM     79  C   UNL A   1      45.327  34.344  30.200  1.00  0.00     0.012 A 
ATOM     80  C   UNL A   1      43.999  35.085  28.304  1.00  0.00     0.148 A 
ATOM     81  C   UNL A   1      45.839  35.634  30.352  1.00  0.00     0.002 A 
ATOM     82  C   UNL A   1      44.554  36.353  28.426  1.00  0.00     0.091 A 
ATOM     83  F   UNL A   1      43.091  34.803  27.359  1.00  0.00    -0.205 F 
ATOM     84  C   UNL A   1      45.463  36.634  29.458  1.00  0.00     0.022 A 
BRANCH  82  85
ATOM     85  S   UNL A   1      44.205  37.673  27.257  1.00  0.00     0.127 S 
ATOM     86  O   UNL A   1      43.080  37.116  26.507  1.00  0.00    -0.237 OA
ATOM     87  O   UNL A   1      43.859  38.787  28.140  1.00  0.00    -0.237 OA
ATOM     88  O   UNL A   1      45.431  37.867  26.494  1.00  0.00    -0.744 OA
ENDBRANCH  82  85
ENDBRANCH  55  78
ENDBRANCH  29  30
ENDBRANCH  22  24
ENDBRANCH  21  22
ENDBRANCH  20  21
ENDBRANCH  19  20
ENDBRANCH  18  19
ENDBRANCH   1  18
TORSDOF 21
ENDMDL
MODEL 3
REMARK VINA RESULT:      -8.0      1.508      2.142
REMARK SMILES COC(=O)NNC(=O)CCC(=O)OCCOCCOC(=O)c1ccc(-c2c3nc(c(-c4cccc(S(=O)(=O)[O-])c4F)c4ccc([nH]4)c(-c4cccc(S(=O)(=O)[O-])c4F)c4nc(c(-c5cccc(S(=O)(=O)[O-])c5F)c5ccc2[nH]5)C=C4)C=C3)cc1
REMARK SMILES IDX 15 1 14 2 13 3 11 4 12 5 10 6 9 7 7 8 6 9 8 11 5 12 3 13
REMARK SMILES IDX 4 14 2 16 1 17 16 18 17 19 18 20 19 21 20 22 21 23 22 24
REMARK SMILES IDX 23 25 84 26 24 27 83 28 25 29 26 30 27 31 77 32 28 33 82 34
REMARK SMILES IDX 76 35 78 36 29 37 81 38 75 39 74 40 30 42 62 43 42 44 61 45
REMARK SMILES IDX 43 46 46 47 60 48 79 49 44 50 45 51 59 53 80 54 47 55 31 56
REMARK SMILES IDX 32 57 40 58 33 59 35 60 41 61 34 62 36 63 37 64 38 65 39 66
REMARK SMILES IDX 63 67 64 68 72 69 65 70 67 71 73 72 66 73 68 74 69 75 70 76
REMARK SMILES IDX 71 77 48 78 49 79 57 80 50 81 52 82 58 83 51 84 53 85 54 86
REMARK SMILES IDX 55 87 56 88
REMARK H PARENT 6 10 5 15 78 41 46 52
REMARK Flexibility Score: inf
ROOT
ATOM      1  C   UNL A   1      45.876  21.675  25.444  1.00  0.00     0.202 C 
ENDROOT
BRANCH   1   2
ATOM      2  C   UNL A   1      45.603  23.046  24.807  1.00  0.00     0.261 C 
BRANCH   2   3
ATOM      3  O   UNL A   1      46.757  23.536  24.093  1.00  0.00    -0.463 OA
BRANCH   3   4
ATOM      4  C   UNL A   1      47.189  24.788  24.371  1.00  0.00     0.306 C 
ATOM      5  O   UNL A   1      48.305  25.221  24.111  1.00  0.00    -0.252 OA
BRANCH   4   6
ATOM      6  C   UNL A   1      46.136  25.620  25.073  1.00  0.00     0.132 C 
BRANCH   6   7
ATOM      7  C   UNL A   1      46.637  26.741  25.984  1.00  0.00     0.113 C 
BRANCH   7   8
ATOM      8  C   UNL A   1      46.194  28.111  25.505  1.00  0.00     0.239 C 
ATOM      9  N   UNL A   1      44.885  28.313  25.136  1.00  0.00    -0.265 N 
ATOM     10  H   UNL A   1      44.607  29.227  24.900  1.00  0.00     0.191 HD
ATOM     11  O   UNL A   1      47.008  29.034  25.448  1.00  0.00    -0.273 OA
BRANCH   9  12
ATOM     12  N   UNL A   1      43.937  27.307  25.076  1.00  0.00    -0.232 N 
ATOM     13  C   UNL A   1      42.577  27.502  25.016  1.00  0.00     0.425 C 
ATOM     14  O   UNL A   1      41.802  26.558  25.053  1.00  0.00    -0.223 OA
ATOM     15  H   UNL A   1      44.261  26.377  25.077  1.00  0.00     0.195 HD
BRANCH  13  16
ATOM     16  O   UNL A   1      42.186  28.796  24.906  1.00  0.00    -0.452 OA
ATOM     17  C   UNL A   1      41.064  29.062  25.758  1.00  0.00     0.284 C 
ENDBRANCH  13  16
ENDBRANCH   9  12
ENDBRANCH   7   8
ENDBRANCH   6   7
ENDBRANCH   4   6
ENDBRANCH   3   4
ENDBRANCH   2   3
ENDBRANCH   1   2
BRANCH   1  18
ATOM     18  O   UNL A   1      45.730  20.569  24.554  1.00  0.00    -0.374 OA
BRANCH  18  19
ATOM     19  C   UNL A   1      45.567  19.289  25.167  1.00  0.00     0.202 C 
BRANCH  19  20
ATOM     20  C   UNL A   1      44.118  18.822  25.405  1.00  0.00     0.261 C 
BRANCH  20  21
ATOM     21  O   UNL A   1      43.101  19.732  24.902  1.00  0.00    -0.460 OA
BRANCH  21  22
ATOM     22  C   UNL A   1      42.039  19.909  25.749  1.00  0.00     0.338 C 
ATOM     23  O   UNL A   1      41.145  19.100  25.947  1.00  0.00    -0.246 OA
BRANCH  22  24
ATOM     24  C   UNL A   1      42.097  21.192  26.503  1.00  0.00     0.060 A 
ATOM     25  C   UNL A   1      42.223  22.372  25.760  1.00  0.00     0.016 A 
ATOM     26  C   UNL A   1      42.089  21.266  27.902  1.00  0.00     0.016 A 
ATOM     27  C   UNL A   1      42.319  23.614  26.402  1.00  0.00     0.010 A 
ATOM     28  C   UNL A   1      42.199  22.519  28.548  1.00  0.00     0.010 A 
ATOM     29  C   UNL A   1      42.329  23.703  27.802  1.00  0.00    -0.014 A 
BRANCH  29  30
ATOM     30  C   UNL A   1      42.658  25.026  28.419  1.00  0.00     0.031 A 
ATOM     31  C   UNL A   1      44.095  25.329  28.741  1.00  0.00     0.074 A 
ATOM     32  C   UNL A   1      41.742  25.997  28.609  1.00  0.00     0.049 A 
ATOM     33  N   UNL A   1      44.646  26.465  29.082  1.00  0.00    -0.248 NA
ATOM     34  C   UNL A   1      45.029  24.197  28.668  1.00  0.00     0.031 C 
ATOM     35  C   UNL A   1      40.311  25.845  28.400  1.00  0.00     0.029 A 
ATOM     36  N   UNL A   1      41.878  27.311  29.002  1.00  0.00    -0.354 N 
ATOM     37  C   UNL A   1      45.993  26.186  29.271  1.00  0.00     0.074 A 
ATOM     38  C   UNL A   1      46.171  24.772  29.018  1.00  0.00     0.031 C 
ATOM     39  C   UNL A   1      39.701  27.025  28.604  1.00  0.00     0.029 A 
ATOM     40  C   UNL A   1      40.694  28.018  29.013  1.00  0.00     0.049 A 
ATOM     41  H   UNL A   1      42.744  27.709  29.253  1.00  0.00     0.167 HD
ATOM     42  C   UNL A   1      46.997  27.024  29.622  1.00  0.00     0.034 A 
ATOM     43  C   UNL A   1      40.435  29.306  29.326  1.00  0.00     0.034 A 
ATOM     44  C   UNL A   1      46.832  28.421  29.922  1.00  0.00     0.049 A 
ATOM     45  C   UNL A   1      41.569  30.214  29.742  1.00  0.00     0.074 A 
ATOM     46  C   UNL A   1      47.801  29.340  30.286  1.00  0.00     0.029 A 
ATOM     47  N   UNL A   1      45.623  29.096  29.928  1.00  0.00    -0.354 N 
ATOM     48  N   UNL A   1      42.855  29.964  29.790  1.00  0.00    -0.248 NA
ATOM     49  C   UNL A   1      41.216  31.591  30.131  1.00  0.00     0.031 C 
ATOM     50  C   UNL A   1      47.172  30.560  30.554  1.00  0.00     0.029 A 
ATOM     51  C   UNL A   1      45.818  30.416  30.302  1.00  0.00     0.049 A 
ATOM     52  H   UNL A   1      44.752  28.697  29.700  1.00  0.00     0.167 HD
ATOM     53  C   UNL A   1      43.464  31.154  30.176  1.00  0.00     0.074 A 
ATOM     54  C   UNL A   1      42.409  32.135  30.326  1.00  0.00     0.031 C 
ATOM     55  C   UNL A   1      44.777  31.408  30.398  1.00  0.00     0.034 A 
BRANCH  42  56
ATOM     56  C   UNL A   1      48.376  26.432  29.712  1.00  0.00     0.023 A 
ATOM     57  C   UNL A   1      48.759  25.723  30.868  1.00  0.00     0.012 A 
ATOM     58  C   UNL A   1      49.285  26.565  28.645  1.00  0.00     0.148 A 
ATOM     59  C   UNL A   1      50.042  25.191  30.980  1.00  0.00     0.002 A 
ATOM     60  C   UNL A   1      50.545  25.991  28.744  1.00  0.00     0.091 A 
ATOM     61  F   UNL A   1      48.907  27.263  27.566  1.00  0.00    -0.205 F 
ATOM     62  C   UNL A   1      50.931  25.317  29.915  1.00  0.00     0.022 A 
BRANCH  60  63
ATOM     63  S   UNL A   1      51.734  26.034  27.400  1.00  0.00     0.127 S 
ATOM     64  O   UNL A   1      51.346  24.856  26.625  1.00  0.00    -0.237 OA
ATOM     65  O   UNL A   1      51.424  27.313  26.760  1.00  0.00    -0.237 OA
ATOM     66  O   UNL A   1      53.049  25.967  28.021  1.00  0.00    -0.744 OA
ENDBRANCH  60  63
ENDBRANCH  42  56
BRANCH  43  67
ATOM     67  C   UNL A   1      39.042  29.850  29.257  1.00  0.00     0.023 A 
ATOM     68  C   UNL A   1      38.365  29.898  28.020  1.00  0.00     0.012 A 
ATOM     69  C   UNL A   1      38.404  30.363  30.402  1.00  0.00     0.148 A 
ATOM     70  C   UNL A   1      37.100  30.483  27.920  1.00  0.00     0.002 A 
ATOM     71  C   UNL A   1      37.119  30.886  30.306  1.00  0.00     0.091 A 
ATOM     72  F   UNL A   1      39.069  30.334  31.565  1.00  0.00    -0.205 F 
ATOM     73  C   UNL A   1      36.473  30.969  29.064  1.00  0.00     0.022 A 
BRANCH  71  74
ATOM     74  S   UNL A   1      36.187  31.419  31.747  1.00  0.00     0.127 S 
ATOM     75  O   UNL A   1      36.111  30.186  32.527  1.00  0.00    -0.237 OA
ATOM     76  O   UNL A   1      37.066  32.449  32.304  1.00  0.00    -0.237 OA
ATOM     77  O   UNL A   1      34.921  31.920  31.234  1.00  0.00    -0.744 OA
ENDBRANCH  71  74
ENDBRANCH  43  67
BRANCH  55  78
ATOM     78  C   UNL A   1      45.179  32.816  30.766  1.00  0.00     0.023 A 
ATOM     79  C   UNL A   1      45.324  33.190  32.116  1.00  0.00     0.012 A 
ATOM     80  C   UNL A   1      45.483  33.752  29.756  1.00  0.00     0.148 A 
ATOM     81  C   UNL A   1      45.725  34.483  32.456  1.00  0.00     0.002 A 
ATOM     82  C   UNL A   1      45.935  35.021  30.101  1.00  0.00     0.091 A 
ATOM     83  F   UNL A   1      45.322  33.388  28.476  1.00  0.00    -0.205 F 
ATOM     84  C   UNL A   1      46.043  35.394  31.450  1.00  0.00     0.022 A 
BRANCH  82  85
ATOM     85  S   UNL A   1      46.464  36.220  28.872  1.00  0.00     0.127 S 
ATOM     86  O   UNL A   1      45.201  36.547  28.212  1.00  0.00    -0.237 OA
ATOM     87  O   UNL A   1      47.015  37.292  29.702  1.00  0.00    -0.237 OA
ATOM     88  O   UNL A   1      47.446  35.537  28.041  1.00  0.00    -0.744 OA
ENDBRANCH  82  85
ENDBRANCH  55  78
ENDBRANCH  29  30
ENDBRANCH  22  24
ENDBRANCH  21  22
ENDBRANCH  20  21
ENDBRANCH  19  20
ENDBRANCH  18  19
ENDBRANCH   1  18
TORSDOF 21
ENDMDL
