MODEL 1
REMARK VINA RESULT:     -11.0      0.000      0.000
REMARK SMILES COC(=O)C[C@H](NC(=O)N[C@@H]1CCCCC1(C)C)C(=O)OCCOCCOC(=O)c1ccc(-c2c3nc(c(-c4cccc(S(=O)(=O)[O-])c4F)c4ccc([nH]4)c(-c4cccc(S(=O)(=O)[O-])c4F)c4nc(c(-c5cccc(S(=O)(=O)[O-])c5F)c5ccc2[nH]5)C=C4)C=C3)cc1
REMARK SMILES IDX 24 1 23 2 22 3 21 4 19 5 20 6 6 7 5 8 3 9 4 10 2 11 1 12
REMARK SMILES IDX 7 13 8 14 9 16 10 17 11 19 12 20 16 21 13 22 15 23 17 24
REMARK SMILES IDX 18 25 14 26 25 27 26 28 27 29 28 30 29 31 30 32 31 33 92 34
REMARK SMILES IDX 32 35 91 36 33 37 34 38 35 39 85 40 36 41 90 42 84 43 86 44
REMARK SMILES IDX 37 45 89 46 83 47 82 48 38 50 70 51 50 52 69 53 51 54 54 55
REMARK SMILES IDX 68 56 87 57 52 58 53 59 67 61 88 62 55 63 39 64 40 65 48 66
REMARK SMILES IDX 41 67 43 68 49 69 42 70 44 71 45 72 46 73 47 74 71 75 72 76
REMARK SMILES IDX 80 77 73 78 75 79 81 80 74 81 76 82 77 83 78 84 79 85 56 86
REMARK SMILES IDX 57 87 65 88 58 89 60 90 66 91 59 92 61 93 62 94 63 95 64 96
REMARK H PARENT 7 15 10 18 86 49 54 60
REMARK Flexibility Score: inf
ROOT
ATOM      1  O   UNL A   1      32.528  30.503  27.223  1.00  0.00    -0.374 OA
ENDROOT
BRANCH   1   2
ATOM      2  C   UNL A   1      33.628  29.903  26.548  1.00  0.00     0.202 C 
BRANCH   2   3
ATOM      3  C   UNL A   1      33.427  28.503  25.954  1.00  0.00     0.261 C 
BRANCH   3   4
ATOM      4  O   UNL A   1      32.090  28.261  25.446  1.00  0.00    -0.462 OA
BRANCH   4   5
ATOM      5  C   UNL A   1      31.356  27.367  26.170  1.00  0.00     0.329 C 
ATOM      6  O   UNL A   1      31.119  27.497  27.369  1.00  0.00    -0.250 OA
BRANCH   5   7
ATOM      7  C   UNL A   1      30.876  26.115  25.382  1.00  0.00     0.204 C 
BRANCH   7   8
ATOM      8  C   UNL A   1      29.818  26.595  24.374  1.00  0.00     0.159 C 
BRANCH   8   9
ATOM      9  C   UNL A   1      30.419  26.713  22.989  1.00  0.00     0.308 C 
ATOM     10  O   UNL A   1      30.228  27.662  22.239  1.00  0.00    -0.252 OA
BRANCH   9  11
ATOM     11  O   UNL A   1      31.185  25.625  22.683  1.00  0.00    -0.469 OA
ATOM     12  C   UNL A   1      32.217  25.824  21.705  1.00  0.00     0.282 C 
ENDBRANCH   9  11
ENDBRANCH   8   9
ENDBRANCH   7   8
BRANCH   7  13
ATOM     13  N   UNL A   1      30.458  24.933  26.191  1.00  0.00    -0.324 N 
ATOM     14  C   UNL A   1      30.819  23.720  26.599  1.00  0.00     0.315 C 
ATOM     15  H   UNL A   1      29.569  25.125  26.567  1.00  0.00     0.166 HD
ATOM     16  O   UNL A   1      30.012  23.202  27.390  1.00  0.00    -0.249 OA
ATOM     17  N   UNL A   1      31.855  22.930  26.336  1.00  0.00    -0.335 N 
ATOM     18  H   UNL A   1      31.732  22.148  26.922  1.00  0.00     0.165 HD
BRANCH  17  19
ATOM     19  C   UNL A   1      33.133  22.647  25.576  1.00  0.00     0.089 C 
ATOM     20  C   UNL A   1      32.928  22.801  24.056  1.00  0.00     0.025 C 
ATOM     21  C   UNL A   1      33.837  21.331  25.900  1.00  0.00    -0.015 C 
ATOM     22  C   UNL A   1      32.095  21.668  23.478  1.00  0.00     0.002 C 
ATOM     23  C   UNL A   1      32.900  20.219  25.375  1.00  0.00     0.008 C 
ATOM     24  C   UNL A   1      35.213  21.105  25.224  1.00  0.00     0.013 C 
ATOM     25  C   UNL A   1      34.174  21.412  27.397  1.00  0.00     0.013 C 
ATOM     26  C   UNL A   1      32.599  20.281  23.877  1.00  0.00     0.001 C 
ENDBRANCH  17  19
ENDBRANCH   7  13
ENDBRANCH   5   7
ENDBRANCH   4   5
ENDBRANCH   3   4
ENDBRANCH   2   3
ENDBRANCH   1   2
BRANCH   1  27
ATOM     27  C   UNL A   1      31.831  31.536  26.540  1.00  0.00     0.202 C 
BRANCH  27  28
ATOM     28  C   UNL A   1      31.787  32.940  27.163  1.00  0.00     0.261 C 
BRANCH  28  29
ATOM     29  O   UNL A   1      33.035  33.635  27.119  1.00  0.00    -0.460 OA
BRANCH  29  30
ATOM     30  C   UNL A   1      33.487  34.055  28.329  1.00  0.00     0.338 C 
ATOM     31  O   UNL A   1      32.940  34.812  29.106  1.00  0.00    -0.246 OA
BRANCH  30  32
ATOM     32  C   UNL A   1      34.677  33.263  28.677  1.00  0.00     0.060 A 
ATOM     33  C   UNL A   1      34.475  32.079  29.398  1.00  0.00     0.016 A 
ATOM     34  C   UNL A   1      35.960  33.682  28.321  1.00  0.00     0.016 A 
ATOM     35  C   UNL A   1      35.564  31.313  29.787  1.00  0.00     0.010 A 
ATOM     36  C   UNL A   1      37.055  32.925  28.734  1.00  0.00     0.010 A 
ATOM     37  C   UNL A   1      36.859  31.757  29.493  1.00  0.00    -0.014 A 
BRANCH  37  38
ATOM     38  C   UNL A   1      38.001  31.085  30.145  1.00  0.00     0.031 A 
ATOM     39  C   UNL A   1      38.351  31.482  31.549  1.00  0.00     0.074 A 
ATOM     40  C   UNL A   1      38.677  30.117  29.505  1.00  0.00     0.049 A 
ATOM     41  N   UNL A   1      39.306  31.037  32.319  1.00  0.00    -0.248 NA
ATOM     42  C   UNL A   1      37.510  32.521  32.168  1.00  0.00     0.031 C 
ATOM     43  C   UNL A   1      38.396  29.648  28.148  1.00  0.00     0.029 A 
ATOM     44  N   UNL A   1      39.751  29.370  29.907  1.00  0.00    -0.354 N 
ATOM     45  C   UNL A   1      39.200  31.758  33.502  1.00  0.00     0.074 A 
ATOM     46  C   UNL A   1      38.097  32.679  33.344  1.00  0.00     0.031 C 
ATOM     47  C   UNL A   1      39.299  28.710  27.818  1.00  0.00     0.029 A 
ATOM     48  C   UNL A   1      40.235  28.536  28.927  1.00  0.00     0.049 A 
ATOM     49  H   UNL A   1      40.139  29.424  30.810  1.00  0.00     0.167 HD
ATOM     50  C   UNL A   1      39.950  31.651  34.623  1.00  0.00     0.034 A 
ATOM     51  C   UNL A   1      41.326  27.748  28.923  1.00  0.00     0.034 A 
ATOM     52  C   UNL A   1      41.043  30.728  34.762  1.00  0.00     0.049 A 
ATOM     53  C   UNL A   1      42.168  27.674  30.169  1.00  0.00     0.074 A 
ATOM     54  C   UNL A   1      41.853  30.512  35.861  1.00  0.00     0.029 A 
ATOM     55  N   UNL A   1      41.489  29.879  33.760  1.00  0.00    -0.354 N 
ATOM     56  N   UNL A   1      42.001  28.287  31.317  1.00  0.00    -0.248 NA
ATOM     57  C   UNL A   1      43.330  26.774  30.135  1.00  0.00     0.031 C 
ATOM     58  C   UNL A   1      42.815  29.560  35.510  1.00  0.00     0.029 A 
ATOM     59  C   UNL A   1      42.575  29.148  34.208  1.00  0.00     0.049 A 
ATOM     60  H   UNL A   1      41.092  29.808  32.862  1.00  0.00     0.167 HD
ATOM     61  C   UNL A   1      43.011  27.823  32.151  1.00  0.00     0.074 A 
ATOM     62  C   UNL A   1      43.774  26.862  31.381  1.00  0.00     0.031 C 
ATOM     63  C   UNL A   1      43.291  28.165  33.434  1.00  0.00     0.034 A 
BRANCH  50  64
ATOM     64  C   UNL A   1      39.609  32.554  35.779  1.00  0.00     0.023 A 
ATOM     65  C   UNL A   1      40.114  33.870  35.816  1.00  0.00     0.012 A 
ATOM     66  C   UNL A   1      38.766  32.108  36.815  1.00  0.00     0.148 A 
ATOM     67  C   UNL A   1      39.811  34.717  36.883  1.00  0.00     0.002 A 
ATOM     68  C   UNL A   1      38.430  32.973  37.849  1.00  0.00     0.091 A 
ATOM     69  F   UNL A   1      38.319  30.844  36.775  1.00  0.00    -0.205 F 
ATOM     70  C   UNL A   1      38.963  34.272  37.892  1.00  0.00     0.022 A 
BRANCH  68  71
ATOM     71  S   UNL A   1      37.283  32.521  39.155  1.00  0.00     0.127 S 
ATOM     72  O   UNL A   1      37.472  33.615  40.106  1.00  0.00    -0.237 OA
ATOM     73  O   UNL A   1      36.000  32.539  38.452  1.00  0.00    -0.237 OA
ATOM     74  O   UNL A   1      37.702  31.208  39.624  1.00  0.00    -0.744 OA
ENDBRANCH  68  71
ENDBRANCH  50  64
BRANCH  51  75
ATOM     75  C   UNL A   1      41.671  26.961  27.706  1.00  0.00     0.023 A 
ATOM     76  C   UNL A   1      42.279  27.596  26.607  1.00  0.00     0.012 A 
ATOM     77  C   UNL A   1      41.419  25.576  27.646  1.00  0.00     0.148 A 
ATOM     78  C   UNL A   1      42.603  26.872  25.459  1.00  0.00     0.002 A 
ATOM     79  C   UNL A   1      41.797  24.851  26.523  1.00  0.00     0.091 A 
ATOM     80  F   UNL A   1      40.827  24.992  28.698  1.00  0.00    -0.205 F 
ATOM     81  C   UNL A   1      42.372  25.500  25.421  1.00  0.00     0.022 A 
BRANCH  79  82
ATOM     82  S   UNL A   1      41.660  23.062  26.442  1.00  0.00     0.127 S 
ATOM     83  O   UNL A   1      40.211  22.873  26.426  1.00  0.00    -0.237 OA
ATOM     84  O   UNL A   1      42.335  22.767  25.177  1.00  0.00    -0.237 OA
ATOM     85  O   UNL A   1      42.349  22.557  27.622  1.00  0.00    -0.744 OA
ENDBRANCH  79  82
ENDBRANCH  51  75
BRANCH  63  86
ATOM     86  C   UNL A   1      44.442  27.464  34.105  1.00  0.00     0.023 A 
ATOM     87  C   UNL A   1      45.726  28.042  34.092  1.00  0.00     0.012 A 
ATOM     88  C   UNL A   1      44.229  26.266  34.815  1.00  0.00     0.148 A 
ATOM     89  C   UNL A   1      46.790  27.418  34.745  1.00  0.00     0.002 A 
ATOM     90  C   UNL A   1      45.280  25.679  35.508  1.00  0.00     0.091 A 
ATOM     91  F   UNL A   1      43.003  25.724  34.802  1.00  0.00    -0.205 F 
ATOM     92  C   UNL A   1      46.563  26.246  35.462  1.00  0.00     0.022 A 
BRANCH  90  93
ATOM     93  S   UNL A   1      45.061  24.226  36.541  1.00  0.00     0.127 S 
ATOM     94  O   UNL A   1      44.241  23.372  35.684  1.00  0.00    -0.237 OA
ATOM     95  O   UNL A   1      46.438  23.767  36.722  1.00  0.00    -0.237 OA
ATOM     96  O   UNL A   1      44.413  24.691  37.760  1.00  0.00    -0.744 OA
ENDBRANCH  90  93
ENDBRANCH  63  86
ENDBRANCH  37  38
ENDBRANCH  30  32
ENDBRANCH  29  30
ENDBRANCH  28  29
ENDBRANCH  27  28
ENDBRANCH   1  27
TORSDOF 22
ENDMDL
MODEL 2
REMARK VINA RESULT:     -10.3      1.764      2.358
REMARK SMILES COC(=O)C[C@H](NC(=O)N[C@@H]1CCCCC1(C)C)C(=O)OCCOCCOC(=O)c1ccc(-c2c3nc(c(-c4cccc(S(=O)(=O)[O-])c4F)c4ccc([nH]4)c(-c4cccc(S(=O)(=O)[O-])c4F)c4nc(c(-c5cccc(S(=O)(=O)[O-])c5F)c5ccc2[nH]5)C=C4)C=C3)cc1
REMARK SMILES IDX 24 1 23 2 22 3 21 4 19 5 20 6 6 7 5 8 3 9 4 10 2 11 1 12
REMARK SMILES IDX 7 13 8 14 9 16 10 17 11 19 12 20 16 21 13 22 15 23 17 24
REMARK SMILES IDX 18 25 14 26 25 27 26 28 27 29 28 30 29 31 30 32 31 33 92 34
REMARK SMILES IDX 32 35 91 36 33 37 34 38 35 39 85 40 36 41 90 42 84 43 86 44
REMARK SMILES IDX 37 45 89 46 83 47 82 48 38 50 70 51 50 52 69 53 51 54 54 55
REMARK SMILES IDX 68 56 87 57 52 58 53 59 67 61 88 62 55 63 39 64 40 65 48 66
REMARK SMILES IDX 41 67 43 68 49 69 42 70 44 71 45 72 46 73 47 74 71 75 72 76
REMARK SMILES IDX 80 77 73 78 75 79 81 80 74 81 76 82 77 83 78 84 79 85 56 86
REMARK SMILES IDX 57 87 65 88 58 89 60 90 66 91 59 92 61 93 62 94 63 95 64 96
REMARK H PARENT 7 15 10 18 86 49 54 60
REMARK Flexibility Score: inf
ROOT
ATOM      1  O   UNL A   1      33.550  30.046  27.660  1.00  0.00    -0.374 OA
ENDROOT
BRANCH   1   2
ATOM      2  C   UNL A   1      34.450  29.026  27.242  1.00  0.00     0.202 C 
BRANCH   2   3
ATOM      3  C   UNL A   1      33.929  27.967  26.262  1.00  0.00     0.261 C 
BRANCH   3   4
ATOM      4  O   UNL A   1      32.534  28.131  25.900  1.00  0.00    -0.462 OA
BRANCH   4   5
ATOM      5  C   UNL A   1      31.685  27.223  26.464  1.00  0.00     0.329 C 
ATOM      6  O   UNL A   1      31.038  27.442  27.485  1.00  0.00    -0.250 OA
BRANCH   5   7
ATOM      7  C   UNL A   1      31.630  25.841  25.753  1.00  0.00     0.204 C 
BRANCH   7   8
ATOM      8  C   UNL A   1      31.268  26.105  24.282  1.00  0.00     0.159 C 
BRANCH   8   9
ATOM      9  C   UNL A   1      29.852  26.629  24.168  1.00  0.00     0.308 C 
ATOM     10  O   UNL A   1      28.880  26.091  24.682  1.00  0.00    -0.252 OA
BRANCH   9  11
ATOM     11  O   UNL A   1      29.800  27.765  23.413  1.00  0.00    -0.469 OA
ATOM     12  C   UNL A   1      30.985  28.095  22.672  1.00  0.00     0.282 C 
ENDBRANCH   9  11
ENDBRANCH   8   9
ENDBRANCH   7   8
BRANCH   7  13
ATOM     13  N   UNL A   1      30.803  24.784  26.405  1.00  0.00    -0.324 N 
ATOM     14  C   UNL A   1      30.815  23.544  26.885  1.00  0.00     0.315 C 
ATOM     15  H   UNL A   1      29.894  25.145  26.527  1.00  0.00     0.166 HD
ATOM     16  O   UNL A   1      29.745  23.208  27.420  1.00  0.00    -0.249 OA
ATOM     17  N   UNL A   1      31.724  22.574  26.907  1.00  0.00    -0.335 N 
ATOM     18  H   UNL A   1      31.309  21.850  27.429  1.00  0.00     0.165 HD
BRANCH  17  19
ATOM     19  C   UNL A   1      33.087  22.041  26.522  1.00  0.00     0.089 C 
ATOM     20  C   UNL A   1      34.211  23.006  26.951  1.00  0.00     0.025 C 
ATOM     21  C   UNL A   1      33.262  21.614  25.066  1.00  0.00    -0.015 C 
ATOM     22  C   UNL A   1      34.236  24.262  26.094  1.00  0.00     0.002 C 
ATOM     23  C   UNL A   1      33.184  22.919  24.240  1.00  0.00     0.008 C 
ATOM     24  C   UNL A   1      34.611  20.942  24.705  1.00  0.00     0.013 C 
ATOM     25  C   UNL A   1      32.227  20.500  24.845  1.00  0.00     0.013 C 
ATOM     26  C   UNL A   1      34.236  23.971  24.593  1.00  0.00     0.001 C 
ENDBRANCH  17  19
ENDBRANCH   7  13
ENDBRANCH   5   7
ENDBRANCH   4   5
ENDBRANCH   3   4
ENDBRANCH   2   3
ENDBRANCH   1   2
BRANCH   1  27
ATOM     27  C   UNL A   1      33.874  31.384  27.307  1.00  0.00     0.202 C 
BRANCH  27  28
ATOM     28  C   UNL A   1      32.868  32.501  27.629  1.00  0.00     0.261 C 
BRANCH  28  29
ATOM     29  O   UNL A   1      33.432  33.815  27.611  1.00  0.00    -0.460 OA
BRANCH  29  30
ATOM     30  C   UNL A   1      33.403  34.453  28.809  1.00  0.00     0.338 C 
ATOM     31  O   UNL A   1      32.521  35.159  29.255  1.00  0.00    -0.246 OA
BRANCH  30  32
ATOM     32  C   UNL A   1      34.540  33.977  29.613  1.00  0.00     0.060 A 
ATOM     33  C   UNL A   1      35.828  34.240  29.127  1.00  0.00     0.016 A 
ATOM     34  C   UNL A   1      34.346  33.275  30.803  1.00  0.00     0.016 A 
ATOM     35  C   UNL A   1      36.936  33.780  29.823  1.00  0.00     0.010 A 
ATOM     36  C   UNL A   1      35.460  32.791  31.488  1.00  0.00     0.010 A 
ATOM     37  C   UNL A   1      36.752  33.017  30.982  1.00  0.00    -0.014 A 
BRANCH  37  38
ATOM     38  C   UNL A   1      37.916  32.309  31.552  1.00  0.00     0.031 A 
ATOM     39  C   UNL A   1      38.480  32.802  32.852  1.00  0.00     0.074 A 
ATOM     40  C   UNL A   1      38.424  31.229  30.937  1.00  0.00     0.049 A 
ATOM     41  N   UNL A   1      39.491  32.347  33.540  1.00  0.00    -0.248 NA
ATOM     42  C   UNL A   1      37.811  33.966  33.460  1.00  0.00     0.031 C 
ATOM     43  C   UNL A   1      37.930  30.662  29.683  1.00  0.00     0.029 A 
ATOM     44  N   UNL A   1      39.482  30.429  31.278  1.00  0.00    -0.354 N 
ATOM     45  C   UNL A   1      39.600  33.182  34.645  1.00  0.00     0.074 A 
ATOM     46  C   UNL A   1      38.559  34.180  34.531  1.00  0.00     0.031 C 
ATOM     47  C   UNL A   1      38.707  29.620  29.342  1.00  0.00     0.029 A 
ATOM     48  C   UNL A   1      39.765  29.468  30.338  1.00  0.00     0.049 A 
ATOM     49  H   UNL A   1      39.990  30.532  32.115  1.00  0.00     0.167 HD
ATOM     50  C   UNL A   1      40.481  33.113  35.669  1.00  0.00     0.034 A 
ATOM     51  C   UNL A   1      40.783  28.587  30.280  1.00  0.00     0.034 A 
ATOM     52  C   UNL A   1      41.509  32.113  35.766  1.00  0.00     0.049 A 
ATOM     53  C   UNL A   1      41.775  28.555  31.412  1.00  0.00     0.074 A 
ATOM     54  C   UNL A   1      42.439  31.929  36.771  1.00  0.00     0.029 A 
ATOM     55  N   UNL A   1      41.751  31.138  34.809  1.00  0.00    -0.354 N 
ATOM     56  N   UNL A   1      41.809  29.285  32.501  1.00  0.00    -0.248 NA
ATOM     57  C   UNL A   1      42.849  27.555  31.327  1.00  0.00     0.031 C 
ATOM     58  C   UNL A   1      43.270  30.866  36.404  1.00  0.00     0.029 A 
ATOM     59  C   UNL A   1      42.827  30.357  35.193  1.00  0.00     0.049 A 
ATOM     60  H   UNL A   1      41.234  31.019  33.981  1.00  0.00     0.167 HD
ATOM     61  C   UNL A   1      42.882  28.812  33.246  1.00  0.00     0.074 A 
ATOM     62  C   UNL A   1      43.460  27.719  32.492  1.00  0.00     0.031 C 
ATOM     63  C   UNL A   1      43.356  29.246  34.442  1.00  0.00     0.034 A 
BRANCH  50  64
ATOM     64  C   UNL A   1      40.368  34.147  36.758  1.00  0.00     0.023 A 
ATOM     65  C   UNL A   1      40.846  35.456  36.539  1.00  0.00     0.012 A 
ATOM     66  C   UNL A   1      39.762  33.830  37.989  1.00  0.00     0.148 A 
ATOM     67  C   UNL A   1      40.753  36.423  37.540  1.00  0.00     0.002 A 
ATOM     68  C   UNL A   1      39.629  34.813  38.963  1.00  0.00     0.091 A 
ATOM     69  F   UNL A   1      39.338  32.574  38.188  1.00  0.00    -0.205 F 
ATOM     70  C   UNL A   1      40.136  36.104  38.746  1.00  0.00     0.022 A 
BRANCH  68  71
ATOM     71  S   UNL A   1      38.781  34.524  40.519  1.00  0.00     0.127 S 
ATOM     72  O   UNL A   1      39.751  33.697  41.235  1.00  0.00    -0.237 OA
ATOM     73  O   UNL A   1      38.634  35.882  41.043  1.00  0.00    -0.237 OA
ATOM     74  O   UNL A   1      37.528  33.863  40.180  1.00  0.00    -0.744 OA
ENDBRANCH  68  71
ENDBRANCH  50  64
BRANCH  51  75
ATOM     75  C   UNL A   1      40.901  27.663  29.118  1.00  0.00     0.023 A 
ATOM     76  C   UNL A   1      40.137  26.482  29.079  1.00  0.00     0.012 A 
ATOM     77  C   UNL A   1      41.754  27.965  28.038  1.00  0.00     0.148 A 
ATOM     78  C   UNL A   1      40.242  25.604  27.999  1.00  0.00     0.002 A 
ATOM     79  C   UNL A   1      41.810  27.116  26.940  1.00  0.00     0.091 A 
ATOM     80  F   UNL A   1      42.484  29.088  28.101  1.00  0.00    -0.205 F 
ATOM     81  C   UNL A   1      41.069  25.925  26.926  1.00  0.00     0.022 A 
BRANCH  79  82
ATOM     82  S   UNL A   1      42.744  27.517  25.460  1.00  0.00     0.127 S 
ATOM     83  O   UNL A   1      44.102  27.637  25.986  1.00  0.00    -0.237 OA
ATOM     84  O   UNL A   1      42.507  26.338  24.627  1.00  0.00    -0.237 OA
ATOM     85  O   UNL A   1      42.158  28.746  24.942  1.00  0.00    -0.744 OA
ENDBRANCH  79  82
ENDBRANCH  51  75
BRANCH  63  86
ATOM     86  C   UNL A   1      44.529  28.510  35.034  1.00  0.00     0.023 A 
ATOM     87  C   UNL A   1      45.839  28.986  34.829  1.00  0.00     0.012 A 
ATOM     88  C   UNL A   1      44.321  27.387  35.859  1.00  0.00     0.148 A 
ATOM     89  C   UNL A   1      46.928  28.332  35.406  1.00  0.00     0.002 A 
ATOM     90  C   UNL A   1      45.406  26.774  36.474  1.00  0.00     0.091 A 
ATOM     91  F   UNL A   1      43.069  26.940  36.028  1.00  0.00    -0.205 F 
ATOM     92  C   UNL A   1      46.710  27.236  36.237  1.00  0.00     0.022 A 
BRANCH  90  93
ATOM     93  S   UNL A   1      45.213  25.422  37.640  1.00  0.00     0.127 S 
ATOM     94  O   UNL A   1      44.850  24.316  36.756  1.00  0.00    -0.237 OA
ATOM     95  O   UNL A   1      46.552  25.323  38.221  1.00  0.00    -0.237 OA
ATOM     96  O   UNL A   1      44.177  25.839  38.575  1.00  0.00    -0.744 OA
ENDBRANCH  90  93
ENDBRANCH  63  86
ENDBRANCH  37  38
ENDBRANCH  30  32
ENDBRANCH  29  30
ENDBRANCH  28  29
ENDBRANCH  27  28
ENDBRANCH   1  27
TORSDOF 22
ENDMDL
MODEL 3
REMARK VINA RESULT:     -10.1      5.592     11.029
REMARK SMILES COC(=O)C[C@H](NC(=O)N[C@@H]1CCCCC1(C)C)C(=O)OCCOCCOC(=O)c1ccc(-c2c3nc(c(-c4cccc(S(=O)(=O)[O-])c4F)c4ccc([nH]4)c(-c4cccc(S(=O)(=O)[O-])c4F)c4nc(c(-c5cccc(S(=O)(=O)[O-])c5F)c5ccc2[nH]5)C=C4)C=C3)cc1
REMARK SMILES IDX 24 1 23 2 22 3 21 4 19 5 20 6 6 7 5 8 3 9 4 10 2 11 1 12
REMARK SMILES IDX 7 13 8 14 9 16 10 17 11 19 12 20 16 21 13 22 15 23 17 24
REMARK SMILES IDX 18 25 14 26 25 27 26 28 27 29 28 30 29 31 30 32 31 33 92 34
REMARK SMILES IDX 32 35 91 36 33 37 34 38 35 39 85 40 36 41 90 42 84 43 86 44
REMARK SMILES IDX 37 45 89 46 83 47 82 48 38 50 70 51 50 52 69 53 51 54 54 55
REMARK SMILES IDX 68 56 87 57 52 58 53 59 67 61 88 62 55 63 39 64 40 65 48 66
REMARK SMILES IDX 41 67 43 68 49 69 42 70 44 71 45 72 46 73 47 74 71 75 72 76
REMARK SMILES IDX 80 77 73 78 75 79 81 80 74 81 76 82 77 83 78 84 79 85 56 86
REMARK SMILES IDX 57 87 65 88 58 89 60 90 66 91 59 92 61 93 62 94 63 95 64 96
REMARK H PARENT 7 15 10 18 86 49 54 60
REMARK Flexibility Score: inf
ROOT
ATOM      1  O   UNL A   1      37.934  21.430  24.987  1.00  0.00    -0.374 OA
ENDROOT
BRANCH   1   2
ATOM      2  C   UNL A   1      36.670  21.654  25.600  1.00  0.00     0.202 C 
BRANCH   2   3
ATOM      3  C   UNL A   1      36.071  23.064  25.518  1.00  0.00     0.261 C 
BRANCH   3   4
ATOM      4  O   UNL A   1      34.651  23.121  25.809  1.00  0.00    -0.462 OA
BRANCH   4   5
ATOM      5  C   UNL A   1      33.867  22.374  24.979  1.00  0.00     0.329 C 
ATOM      6  O   UNL A   1      33.945  22.415  23.753  1.00  0.00    -0.250 OA
BRANCH   5   7
ATOM      7  C   UNL A   1      32.804  21.491  25.692  1.00  0.00     0.204 C 
BRANCH   7   8
ATOM      8  C   UNL A   1      32.254  20.510  24.642  1.00  0.00     0.159 C 
BRANCH   8   9
ATOM      9  C   UNL A   1      32.780  19.112  24.895  1.00  0.00     0.308 C 
ATOM     10  O   UNL A   1      32.183  18.264  25.545  1.00  0.00    -0.252 OA
BRANCH   9  11
ATOM     11  O   UNL A   1      34.003  18.927  24.317  1.00  0.00    -0.469 OA
ATOM     12  C   UNL A   1      34.510  17.584  24.308  1.00  0.00     0.282 C 
ENDBRANCH   9  11
ENDBRANCH   8   9
ENDBRANCH   7   8
BRANCH   7  13
ATOM     13  N   UNL A   1      31.750  22.206  26.470  1.00  0.00    -0.324 N 
ATOM     14  C   UNL A   1      31.023  23.317  26.538  1.00  0.00     0.315 C 
ATOM     15  H   UNL A   1      31.495  21.632  27.229  1.00  0.00     0.166 HD
ATOM     16  O   UNL A   1      30.182  23.305  27.453  1.00  0.00    -0.249 OA
ATOM     17  N   UNL A   1      31.007  24.451  25.845  1.00  0.00    -0.335 N 
ATOM     18  H   UNL A   1      30.251  24.963  26.214  1.00  0.00     0.165 HD
BRANCH  17  19
ATOM     19  C   UNL A   1      31.583  25.339  24.763  1.00  0.00     0.089 C 
ATOM     20  C   UNL A   1      33.072  25.645  25.021  1.00  0.00     0.025 C 
ATOM     21  C   UNL A   1      30.811  26.620  24.454  1.00  0.00    -0.015 C 
ATOM     22  C   UNL A   1      33.261  26.601  26.189  1.00  0.00     0.002 C 
ATOM     23  C   UNL A   1      30.960  27.508  25.710  1.00  0.00     0.008 C 
ATOM     24  C   UNL A   1      31.323  27.458  23.256  1.00  0.00     0.013 C 
ATOM     25  C   UNL A   1      29.418  26.151  24.003  1.00  0.00     0.013 C 
ATOM     26  C   UNL A   1      32.400  27.860  26.086  1.00  0.00     0.001 C 
ENDBRANCH  17  19
ENDBRANCH   7  13
ENDBRANCH   5   7
ENDBRANCH   4   5
ENDBRANCH   3   4
ENDBRANCH   2   3
ENDBRANCH   1   2
BRANCH   1  27
ATOM     27  C   UNL A   1      39.040  21.186  25.846  1.00  0.00     0.202 C 
BRANCH  27  28
ATOM     28  C   UNL A   1      39.597  19.757  25.949  1.00  0.00     0.261 C 
BRANCH  28  29
ATOM     29  O   UNL A   1      40.883  19.590  25.346  1.00  0.00    -0.460 OA
BRANCH  29  30
ATOM     30  C   UNL A   1      41.908  19.483  26.231  1.00  0.00     0.338 C 
ATOM     31  O   UNL A   1      42.436  18.468  26.639  1.00  0.00    -0.246 OA
BRANCH  30  32
ATOM     32  C   UNL A   1      42.452  20.828  26.471  1.00  0.00     0.060 A 
ATOM     33  C   UNL A   1      42.599  21.236  27.804  1.00  0.00     0.016 A 
ATOM     34  C   UNL A   1      42.792  21.675  25.415  1.00  0.00     0.016 A 
ATOM     35  C   UNL A   1      43.071  22.508  28.089  1.00  0.00     0.010 A 
ATOM     36  C   UNL A   1      43.242  22.963  25.703  1.00  0.00     0.010 A 
ATOM     37  C   UNL A   1      43.352  23.389  27.039  1.00  0.00    -0.014 A 
BRANCH  37  38
ATOM     38  C   UNL A   1      43.585  24.813  27.355  1.00  0.00     0.031 A 
ATOM     39  C   UNL A   1      44.957  25.376  27.124  1.00  0.00     0.074 A 
ATOM     40  C   UNL A   1      42.581  25.586  27.799  1.00  0.00     0.049 A 
ATOM     41  N   UNL A   1      45.398  26.587  27.328  1.00  0.00    -0.248 NA
ATOM     42  C   UNL A   1      45.967  24.447  26.589  1.00  0.00     0.031 C 
ATOM     43  C   UNL A   1      41.209  25.134  28.033  1.00  0.00     0.029 A 
ATOM     44  N   UNL A   1      42.567  26.909  28.149  1.00  0.00    -0.354 N 
ATOM     45  C   UNL A   1      46.741  26.561  26.975  1.00  0.00     0.074 A 
ATOM     46  C   UNL A   1      47.047  25.212  26.555  1.00  0.00     0.031 C 
ATOM     47  C   UNL A   1      40.492  26.159  28.521  1.00  0.00     0.029 A 
ATOM     48  C   UNL A   1      41.360  27.327  28.658  1.00  0.00     0.049 A 
ATOM     49  H   UNL A   1      43.344  27.504  28.048  1.00  0.00     0.167 HD
ATOM     50  C   UNL A   1      47.634  27.577  26.987  1.00  0.00     0.034 A 
ATOM     51  C   UNL A   1      41.012  28.510  29.198  1.00  0.00     0.034 A 
ATOM     52  C   UNL A   1      47.312  28.913  27.407  1.00  0.00     0.049 A 
ATOM     53  C   UNL A   1      42.035  29.614  29.238  1.00  0.00     0.074 A 
ATOM     54  C   UNL A   1      48.128  30.029  27.435  1.00  0.00     0.029 A 
ATOM     55  N   UNL A   1      46.073  29.309  27.891  1.00  0.00    -0.354 N 
ATOM     56  N   UNL A   1      43.275  29.608  28.809  1.00  0.00    -0.248 NA
ATOM     57  C   UNL A   1      41.603  30.901  29.803  1.00  0.00     0.031 C 
ATOM     58  C   UNL A   1      47.394  31.090  27.972  1.00  0.00     0.029 A 
ATOM     59  C   UNL A   1      46.106  30.649  28.235  1.00  0.00     0.049 A 
ATOM     60  H   UNL A   1      45.287  28.723  27.977  1.00  0.00     0.167 HD
ATOM     61  C   UNL A   1      43.760  30.893  29.019  1.00  0.00     0.074 A 
ATOM     62  C   UNL A   1      42.672  31.657  29.596  1.00  0.00     0.031 C 
ATOM     63  C   UNL A   1      44.994  31.397  28.768  1.00  0.00     0.034 A 
BRANCH  50  64
ATOM     64  C   UNL A   1      49.039  27.277  26.536  1.00  0.00     0.023 A 
ATOM     65  C   UNL A   1      49.954  26.682  27.429  1.00  0.00     0.012 A 
ATOM     66  C   UNL A   1      49.445  27.557  25.217  1.00  0.00     0.148 A 
ATOM     67  C   UNL A   1      51.260  26.404  27.027  1.00  0.00     0.002 A 
ATOM     68  C   UNL A   1      50.733  27.231  24.809  1.00  0.00     0.091 A 
ATOM     69  F   UNL A   1      48.570  28.147  24.391  1.00  0.00    -0.205 F 
ATOM     70  C   UNL A   1      51.646  26.668  25.716  1.00  0.00     0.022 A 
BRANCH  68  71
ATOM     71  S   UNL A   1      51.302  27.460  23.122  1.00  0.00     0.127 S 
ATOM     72  O   UNL A   1      50.264  26.762  22.363  1.00  0.00    -0.237 OA
ATOM     73  O   UNL A   1      51.279  28.917  22.988  1.00  0.00    -0.237 OA
ATOM     74  O   UNL A   1      52.628  26.864  23.058  1.00  0.00    -0.744 OA
ENDBRANCH  68  71
ENDBRANCH  50  64
BRANCH  51  75
ATOM     75  C   UNL A   1      39.635  28.709  29.729  1.00  0.00     0.023 A 
ATOM     76  C   UNL A   1      39.313  28.277  31.029  1.00  0.00     0.012 A 
ATOM     77  C   UNL A   1      38.647  29.350  28.954  1.00  0.00     0.148 A 
ATOM     78  C   UNL A   1      38.025  28.453  31.537  1.00  0.00     0.002 A 
ATOM     79  C   UNL A   1      37.384  29.574  29.487  1.00  0.00     0.091 A 
ATOM     80  F   UNL A   1      38.970  29.742  27.713  1.00  0.00    -0.205 F 
ATOM     81  C   UNL A   1      37.065  29.110  30.772  1.00  0.00     0.022 A 
BRANCH  79  82
ATOM     82  S   UNL A   1      36.130  30.527  28.625  1.00  0.00     0.127 S 
ATOM     83  O   UNL A   1      35.251  30.926  29.721  1.00  0.00    -0.237 OA
ATOM     84  O   UNL A   1      36.925  31.611  28.046  1.00  0.00    -0.237 OA
ATOM     85  O   UNL A   1      35.547  29.621  27.646  1.00  0.00    -0.744 OA
ENDBRANCH  79  82
ENDBRANCH  51  75
BRANCH  63  86
ATOM     86  C   UNL A   1      45.226  32.854  29.070  1.00  0.00     0.023 A 
ATOM     87  C   UNL A   1      45.769  33.241  30.311  1.00  0.00     0.012 A 
ATOM     88  C   UNL A   1      44.974  33.832  28.088  1.00  0.00     0.148 A 
ATOM     89  C   UNL A   1      46.022  34.585  30.584  1.00  0.00     0.002 A 
ATOM     90  C   UNL A   1      45.280  35.162  28.347  1.00  0.00     0.091 A 
ATOM     91  F   UNL A   1      44.443  33.445  26.920  1.00  0.00    -0.205 F 
ATOM     92  C   UNL A   1      45.790  35.542  29.598  1.00  0.00     0.022 A 
BRANCH  90  93
ATOM     93  S   UNL A   1      45.111  36.449  27.105  1.00  0.00     0.127 S 
ATOM     94  O   UNL A   1      45.488  37.643  27.859  1.00  0.00    -0.237 OA
ATOM     95  O   UNL A   1      46.084  36.032  26.095  1.00  0.00    -0.237 OA
ATOM     96  O   UNL A   1      43.723  36.403  26.663  1.00  0.00    -0.744 OA
ENDBRANCH  90  93
ENDBRANCH  63  86
ENDBRANCH  37  38
ENDBRANCH  30  32
ENDBRANCH  29  30
ENDBRANCH  28  29
ENDBRANCH  27  28
ENDBRANCH   1  27
TORSDOF 22
ENDMDL
