MODEL 1
REMARK VINA RESULT:     -11.1      0.000      0.000
REMARK SMILES CC(C)[C@@](C)(CC(=O)N[C@H]1CCCC1(C)C)C(=O)OCCOCCOC(=O)c1ccc(-c2c3nc(c(-c4cccc(S(=O)(=O)[O-])c4F)c4ccc([nH]4)c(-c4cccc(S(=O)(=O)[O-])c4F)c4nc(c(-c5cccc(S(=O)(=O)[O-])c5F)c5ccc2[nH]5)C=C4)C=C3)cc1
REMARK SMILES IDX 22 1 21 2 20 3 19 4 17 5 18 6 4 7 5 8 2 9 1 10 3 11 6 12
REMARK SMILES IDX 7 13 8 14 9 15 10 17 11 18 14 19 12 20 13 21 15 22 16 23
REMARK SMILES IDX 23 24 24 25 25 26 26 27 27 28 28 29 29 30 90 31 30 32 89 33
REMARK SMILES IDX 31 34 32 35 33 36 83 37 34 38 88 39 82 40 84 41 35 42 87 43
REMARK SMILES IDX 81 44 80 45 36 47 68 48 48 49 67 50 49 51 52 52 66 53 85 54
REMARK SMILES IDX 50 55 51 56 65 58 86 59 53 60 37 61 38 62 46 63 39 64 41 65
REMARK SMILES IDX 47 66 40 67 42 68 43 69 44 70 45 71 69 72 70 73 78 74 71 75
REMARK SMILES IDX 73 76 79 77 72 78 74 79 75 80 76 81 77 82 54 83 55 84 63 85
REMARK SMILES IDX 56 86 58 87 64 88 57 89 59 90 60 91 61 92 62 93
REMARK H PARENT 9 16 84 46 52 57
REMARK Flexibility Score: inf
ROOT
ATOM      1  O   UNL A   1      36.405  22.266  23.878  1.00  0.00    -0.374 OA
ENDROOT
BRANCH   1   2
ATOM      2  C   UNL A   1      36.027  23.474  24.543  1.00  0.00     0.202 C 
BRANCH   2   3
ATOM      3  C   UNL A   1      35.133  24.465  23.792  1.00  0.00     0.261 C 
BRANCH   3   4
ATOM      4  O   UNL A   1      34.318  23.859  22.758  1.00  0.00    -0.463 OA
BRANCH   4   5
ATOM      5  C   UNL A   1      33.005  24.171  22.908  1.00  0.00     0.312 C 
ATOM      6  O   UNL A   1      32.404  24.886  22.107  1.00  0.00    -0.252 OA
BRANCH   5   7
ATOM      7  C   UNL A   1      32.254  23.391  24.011  1.00  0.00     0.076 C 
ATOM      8  C   UNL A   1      30.754  23.672  23.680  1.00  0.00     0.024 C 
BRANCH   7   9
ATOM      9  C   UNL A   1      32.597  21.902  23.855  1.00  0.00     0.000 C 
ATOM     10  C   UNL A   1      32.248  20.939  24.987  1.00  0.00     0.008 C 
ATOM     11  C   UNL A   1      32.000  21.303  22.579  1.00  0.00     0.008 C 
ENDBRANCH   7   9
BRANCH   7  12
ATOM     12  C   UNL A   1      32.392  23.810  25.511  1.00  0.00     0.118 C 
BRANCH  12  13
ATOM     13  C   UNL A   1      31.349  24.547  26.362  1.00  0.00     0.221 C 
ATOM     14  O   UNL A   1      30.660  23.821  27.107  1.00  0.00    -0.275 OA
ATOM     15  N   UNL A   1      31.039  25.844  26.562  1.00  0.00    -0.353 N 
ATOM     16  H   UNL A   1      30.120  25.829  26.918  1.00  0.00     0.163 HD
BRANCH  15  17
ATOM     17  C   UNL A   1      31.406  27.309  26.511  1.00  0.00     0.087 C 
ATOM     18  C   UNL A   1      32.810  27.817  26.923  1.00  0.00     0.025 C 
ATOM     19  C   UNL A   1      31.407  27.810  24.993  1.00  0.00    -0.015 C 
ATOM     20  C   UNL A   1      33.711  27.834  25.676  1.00  0.00     0.003 C 
ATOM     21  C   UNL A   1      32.815  27.382  24.537  1.00  0.00     0.008 C 
ATOM     22  C   UNL A   1      30.342  27.217  24.063  1.00  0.00     0.013 C 
ATOM     23  C   UNL A   1      31.281  29.353  24.885  1.00  0.00     0.013 C 
ENDBRANCH  15  17
ENDBRANCH  12  13
ENDBRANCH   7  12
ENDBRANCH   5   7
ENDBRANCH   4   5
ENDBRANCH   3   4
ENDBRANCH   2   3
ENDBRANCH   1   2
BRANCH   1  24
ATOM     24  C   UNL A   1      36.273  21.064  24.627  1.00  0.00     0.202 C 
BRANCH  24  25
ATOM     25  C   UNL A   1      37.367  20.704  25.634  1.00  0.00     0.261 C 
BRANCH  25  26
ATOM     26  O   UNL A   1      38.649  21.211  25.251  1.00  0.00    -0.460 OA
BRANCH  26  27
ATOM     27  C   UNL A   1      39.626  20.976  26.153  1.00  0.00     0.338 C 
ATOM     28  O   UNL A   1      40.274  19.941  26.295  1.00  0.00    -0.246 OA
BRANCH  27  29
ATOM     29  C   UNL A   1      39.994  22.232  26.818  1.00  0.00     0.060 A 
ATOM     30  C   UNL A   1      39.345  23.392  26.375  1.00  0.00     0.016 A 
ATOM     31  C   UNL A   1      40.958  22.287  27.827  1.00  0.00     0.016 A 
ATOM     32  C   UNL A   1      39.693  24.626  26.902  1.00  0.00     0.010 A 
ATOM     33  C   UNL A   1      41.330  23.535  28.335  1.00  0.00     0.010 A 
ATOM     34  C   UNL A   1      40.727  24.707  27.841  1.00  0.00    -0.014 A 
BRANCH  34  35
ATOM     35  C   UNL A   1      41.300  26.037  28.126  1.00  0.00     0.031 A 
ATOM     36  C   UNL A   1      42.683  26.337  27.616  1.00  0.00     0.074 A 
ATOM     37  C   UNL A   1      40.575  26.977  28.756  1.00  0.00     0.049 A 
ATOM     38  N   UNL A   1      43.375  27.439  27.704  1.00  0.00    -0.248 NA
ATOM     39  C   UNL A   1      43.372  25.245  26.906  1.00  0.00     0.031 C 
ATOM     40  C   UNL A   1      39.214  26.796  29.257  1.00  0.00     0.029 A 
ATOM     41  N   UNL A   1      40.892  28.268  29.087  1.00  0.00    -0.354 N 
ATOM     42  C   UNL A   1      44.591  27.169  27.086  1.00  0.00     0.074 A 
ATOM     43  C   UNL A   1      44.545  25.797  26.634  1.00  0.00     0.031 C 
ATOM     44  C   UNL A   1      38.819  27.932  29.858  1.00  0.00     0.029 A 
ATOM     45  C   UNL A   1      39.907  28.906  29.801  1.00  0.00     0.049 A 
ATOM     46  H   UNL A   1      41.742  28.697  28.838  1.00  0.00     0.167 HD
ATOM     47  C   UNL A   1      45.645  27.996  26.903  1.00  0.00     0.034 A 
ATOM     48  C   UNL A   1      39.902  30.131  30.364  1.00  0.00     0.034 A 
ATOM     49  C   UNL A   1      45.671  29.362  27.347  1.00  0.00     0.049 A 
ATOM     50  C   UNL A   1      41.104  31.019  30.177  1.00  0.00     0.074 A 
ATOM     51  C   UNL A   1      46.674  30.301  27.184  1.00  0.00     0.029 A 
ATOM     52  N   UNL A   1      44.652  29.981  28.056  1.00  0.00    -0.354 N 
ATOM     53  N   UNL A   1      42.207  30.787  29.506  1.00  0.00    -0.248 NA
ATOM     54  C   UNL A   1      41.050  32.350  30.799  1.00  0.00     0.031 C 
ATOM     55  C   UNL A   1      46.276  31.476  27.830  1.00  0.00     0.029 A 
ATOM     56  C   UNL A   1      45.008  31.284  28.357  1.00  0.00     0.049 A 
ATOM     57  H   UNL A   1      43.802  29.556  28.309  1.00  0.00     0.167 HD
ATOM     58  C   UNL A   1      42.961  31.953  29.592  1.00  0.00     0.074 A 
ATOM     59  C   UNL A   1      42.178  32.896  30.366  1.00  0.00     0.031 C 
ATOM     60  C   UNL A   1      44.191  32.219  29.088  1.00  0.00     0.034 A 
BRANCH  47  61
ATOM     61  C   UNL A   1      46.852  27.445  26.193  1.00  0.00     0.023 A 
ATOM     62  C   UNL A   1      47.007  27.642  24.806  1.00  0.00     0.012 A 
ATOM     63  C   UNL A   1      47.856  26.765  26.911  1.00  0.00     0.148 A 
ATOM     64  C   UNL A   1      48.127  27.146  24.139  1.00  0.00     0.002 A 
ATOM     65  C   UNL A   1      48.991  26.314  26.247  1.00  0.00     0.091 A 
ATOM     66  F   UNL A   1      47.678  26.563  28.224  1.00  0.00    -0.205 F 
ATOM     67  C   UNL A   1      49.122  26.492  24.860  1.00  0.00     0.022 A 
BRANCH  65  68
ATOM     68  S   UNL A   1      50.363  25.530  27.100  1.00  0.00     0.127 S 
ATOM     69  O   UNL A   1      50.703  26.540  28.103  1.00  0.00    -0.237 OA
ATOM     70  O   UNL A   1      49.740  24.322  27.639  1.00  0.00    -0.237 OA
ATOM     71  O   UNL A   1      51.383  25.291  26.089  1.00  0.00    -0.744 OA
ENDBRANCH  65  68
ENDBRANCH  47  61
BRANCH  48  72
ATOM     72  C   UNL A   1      38.713  30.592  31.135  1.00  0.00     0.023 A 
ATOM     73  C   UNL A   1      38.650  30.370  32.525  1.00  0.00     0.012 A 
ATOM     74  C   UNL A   1      37.652  31.264  30.498  1.00  0.00     0.148 A 
ATOM     75  C   UNL A   1      37.538  30.782  33.261  1.00  0.00     0.002 A 
ATOM     76  C   UNL A   1      36.573  31.722  31.246  1.00  0.00     0.091 A 
ATOM     77  F   UNL A   1      37.723  31.450  29.173  1.00  0.00    -0.205 F 
ATOM     78  C   UNL A   1      36.505  31.466  32.624  1.00  0.00     0.022 A 
BRANCH  76  79
ATOM     79  S   UNL A   1      35.260  32.719  30.532  1.00  0.00     0.127 S 
ATOM     80  O   UNL A   1      34.828  31.887  29.412  1.00  0.00    -0.237 OA
ATOM     81  O   UNL A   1      34.310  32.802  31.640  1.00  0.00    -0.237 OA
ATOM     82  O   UNL A   1      35.880  33.988  30.174  1.00  0.00    -0.744 OA
ENDBRANCH  76  79
ENDBRANCH  48  72
BRANCH  60  83
ATOM     83  C   UNL A   1      44.756  33.596  29.316  1.00  0.00     0.023 A 
ATOM     84  C   UNL A   1      45.493  33.871  30.485  1.00  0.00     0.012 A 
ATOM     85  C   UNL A   1      44.620  34.596  28.332  1.00  0.00     0.148 A 
ATOM     86  C   UNL A   1      46.056  35.131  30.686  1.00  0.00     0.002 A 
ATOM     87  C   UNL A   1      45.229  35.831  28.516  1.00  0.00     0.091 A 
ATOM     88  F   UNL A   1      43.902  34.318  27.233  1.00  0.00    -0.205 F 
ATOM     89  C   UNL A   1      45.935  36.105  29.698  1.00  0.00     0.022 A 
BRANCH  87  90
ATOM     90  S   UNL A   1      45.214  37.109  27.253  1.00  0.00     0.127 S 
ATOM     91  O   UNL A   1      43.792  37.176  26.917  1.00  0.00    -0.237 OA
ATOM     92  O   UNL A   1      45.723  38.270  27.982  1.00  0.00    -0.237 OA
ATOM     93  O   UNL A   1      46.085  36.634  26.187  1.00  0.00    -0.744 OA
ENDBRANCH  87  90
ENDBRANCH  60  83
ENDBRANCH  34  35
ENDBRANCH  27  29
ENDBRANCH  26  27
ENDBRANCH  25  26
ENDBRANCH  24  25
ENDBRANCH   1  24
TORSDOF 21
ENDMDL
MODEL 2
REMARK VINA RESULT:     -10.4      2.346      8.030
REMARK SMILES CC(C)[C@@](C)(CC(=O)N[C@H]1CCCC1(C)C)C(=O)OCCOCCOC(=O)c1ccc(-c2c3nc(c(-c4cccc(S(=O)(=O)[O-])c4F)c4ccc([nH]4)c(-c4cccc(S(=O)(=O)[O-])c4F)c4nc(c(-c5cccc(S(=O)(=O)[O-])c5F)c5ccc2[nH]5)C=C4)C=C3)cc1
REMARK SMILES IDX 22 1 21 2 20 3 19 4 17 5 18 6 4 7 5 8 2 9 1 10 3 11 6 12
REMARK SMILES IDX 7 13 8 14 9 15 10 17 11 18 14 19 12 20 13 21 15 22 16 23
REMARK SMILES IDX 23 24 24 25 25 26 26 27 27 28 28 29 29 30 90 31 30 32 89 33
REMARK SMILES IDX 31 34 32 35 33 36 83 37 34 38 88 39 82 40 84 41 35 42 87 43
REMARK SMILES IDX 81 44 80 45 36 47 68 48 48 49 67 50 49 51 52 52 66 53 85 54
REMARK SMILES IDX 50 55 51 56 65 58 86 59 53 60 37 61 38 62 46 63 39 64 41 65
REMARK SMILES IDX 47 66 40 67 42 68 43 69 44 70 45 71 69 72 70 73 78 74 71 75
REMARK SMILES IDX 73 76 79 77 72 78 74 79 75 80 76 81 77 82 54 83 55 84 63 85
REMARK SMILES IDX 56 86 58 87 64 88 57 89 59 90 60 91 61 92 62 93
REMARK H PARENT 9 16 84 46 52 57
REMARK Flexibility Score: inf
ROOT
ATOM      1  O   UNL A   1      38.127  21.510  25.333  1.00  0.00    -0.374 OA
ENDROOT
BRANCH   1   2
ATOM      2  C   UNL A   1      36.781  21.880  25.643  1.00  0.00     0.202 C 
BRANCH   2   3
ATOM      3  C   UNL A   1      35.659  21.361  24.738  1.00  0.00     0.261 C 
BRANCH   3   4
ATOM      4  O   UNL A   1      35.168  22.339  23.788  1.00  0.00    -0.463 OA
BRANCH   4   5
ATOM      5  C   UNL A   1      33.812  22.354  23.742  1.00  0.00     0.312 C 
ATOM      6  O   UNL A   1      33.140  21.327  23.834  1.00  0.00    -0.252 OA
BRANCH   5   7
ATOM      7  C   UNL A   1      33.155  23.753  23.802  1.00  0.00     0.076 C 
ATOM      8  C   UNL A   1      31.748  23.508  23.173  1.00  0.00     0.024 C 
BRANCH   7   9
ATOM      9  C   UNL A   1      33.051  24.163  25.279  1.00  0.00     0.000 C 
ATOM     10  C   UNL A   1      32.792  23.086  26.329  1.00  0.00     0.008 C 
ATOM     11  C   UNL A   1      34.284  24.938  25.751  1.00  0.00     0.008 C 
ENDBRANCH   7   9
BRANCH   7  12
ATOM     12  C   UNL A   1      33.739  24.937  22.965  1.00  0.00     0.118 C 
BRANCH  12  13
ATOM     13  C   UNL A   1      33.020  25.730  21.865  1.00  0.00     0.221 C 
ATOM     14  O   UNL A   1      33.266  25.364  20.697  1.00  0.00    -0.275 OA
ATOM     15  N   UNL A   1      32.094  26.710  21.859  1.00  0.00    -0.353 N 
ATOM     16  H   UNL A   1      32.174  27.123  20.968  1.00  0.00     0.163 HD
BRANCH  15  17
ATOM     17  C   UNL A   1      30.995  27.488  22.544  1.00  0.00     0.087 C 
ATOM     18  C   UNL A   1      29.859  26.783  23.328  1.00  0.00     0.025 C 
ATOM     19  C   UNL A   1      31.610  28.349  23.741  1.00  0.00    -0.015 C 
ATOM     20  C   UNL A   1      30.293  26.640  24.797  1.00  0.00     0.003 C 
ATOM     21  C   UNL A   1      31.656  27.304  24.871  1.00  0.00     0.008 C 
ATOM     22  C   UNL A   1      33.002  28.955  23.519  1.00  0.00     0.013 C 
ATOM     23  C   UNL A   1      30.680  29.518  24.161  1.00  0.00     0.013 C 
ENDBRANCH  15  17
ENDBRANCH  12  13
ENDBRANCH   7  12
ENDBRANCH   5   7
ENDBRANCH   4   5
ENDBRANCH   3   4
ENDBRANCH   2   3
ENDBRANCH   1   2
BRANCH   1  24
ATOM     24  C   UNL A   1      38.353  20.138  25.034  1.00  0.00     0.202 C 
BRANCH  24  25
ATOM     25  C   UNL A   1      39.341  19.353  25.899  1.00  0.00     0.261 C 
BRANCH  25  26
ATOM     26  O   UNL A   1      40.673  19.390  25.376  1.00  0.00    -0.460 OA
BRANCH  26  27
ATOM     27  C   UNL A   1      41.630  19.539  26.316  1.00  0.00     0.338 C 
ATOM     28  O   UNL A   1      42.438  18.694  26.695  1.00  0.00    -0.246 OA
BRANCH  27  29
ATOM     29  C   UNL A   1      41.744  20.956  26.682  1.00  0.00     0.060 A 
ATOM     30  C   UNL A   1      41.641  21.885  25.638  1.00  0.00     0.016 A 
ATOM     31  C   UNL A   1      41.968  21.372  27.995  1.00  0.00     0.016 A 
ATOM     32  C   UNL A   1      41.813  23.236  25.892  1.00  0.00     0.010 A 
ATOM     33  C   UNL A   1      42.172  22.732  28.245  1.00  0.00     0.010 A 
ATOM     34  C   UNL A   1      42.136  23.657  27.186  1.00  0.00    -0.014 A 
BRANCH  34  35
ATOM     35  C   UNL A   1      42.642  25.034  27.359  1.00  0.00     0.031 A 
ATOM     36  C   UNL A   1      41.739  26.043  28.013  1.00  0.00     0.074 A 
ATOM     37  C   UNL A   1      43.900  25.352  27.012  1.00  0.00     0.049 A 
ATOM     38  N   UNL A   1      41.973  27.292  28.309  1.00  0.00    -0.248 NA
ATOM     39  C   UNL A   1      40.393  25.576  28.387  1.00  0.00     0.031 C 
ATOM     40  C   UNL A   1      44.865  24.437  26.405  1.00  0.00     0.029 A 
ATOM     41  N   UNL A   1      44.576  26.540  27.115  1.00  0.00    -0.354 N 
ATOM     42  C   UNL A   1      40.798  27.769  28.879  1.00  0.00     0.074 A 
ATOM     43  C   UNL A   1      39.850  26.679  28.881  1.00  0.00     0.031 C 
ATOM     44  C   UNL A   1      46.006  25.106  26.165  1.00  0.00     0.029 A 
ATOM     45  C   UNL A   1      45.841  26.497  26.580  1.00  0.00     0.049 A 
ATOM     46  H   UNL A   1      44.193  27.345  27.532  1.00  0.00     0.167 HD
ATOM     47  C   UNL A   1      40.540  29.004  29.367  1.00  0.00     0.034 A 
ATOM     48  C   UNL A   1      46.748  27.482  26.425  1.00  0.00     0.034 A 
ATOM     49  C   UNL A   1      41.497  30.075  29.370  1.00  0.00     0.049 A 
ATOM     50  C   UNL A   1      46.420  28.857  26.944  1.00  0.00     0.074 A 
ATOM     51  C   UNL A   1      41.353  31.356  29.871  1.00  0.00     0.029 A 
ATOM     52  N   UNL A   1      42.774  29.995  28.833  1.00  0.00    -0.354 N 
ATOM     53  N   UNL A   1      45.345  29.270  27.570  1.00  0.00    -0.248 NA
ATOM     54  C   UNL A   1      47.444  29.896  26.763  1.00  0.00     0.031 C 
ATOM     55  C   UNL A   1      42.530  32.062  29.600  1.00  0.00     0.029 A 
ATOM     56  C   UNL A   1      43.423  31.208  28.970  1.00  0.00     0.049 A 
ATOM     57  H   UNL A   1      43.160  29.192  28.414  1.00  0.00     0.167 HD
ATOM     58  C   UNL A   1      45.575  30.603  27.891  1.00  0.00     0.074 A 
ATOM     59  C   UNL A   1      46.903  30.922  27.406  1.00  0.00     0.031 C 
ATOM     60  C   UNL A   1      44.763  31.487  28.521  1.00  0.00     0.034 A 
BRANCH  47  61
ATOM     61  C   UNL A   1      39.170  29.258  29.938  1.00  0.00     0.023 A 
ATOM     62  C   UNL A   1      38.860  28.834  31.245  1.00  0.00     0.012 A 
ATOM     63  C   UNL A   1      38.202  29.956  29.189  1.00  0.00     0.148 A 
ATOM     64  C   UNL A   1      37.598  29.073  31.789  1.00  0.00     0.002 A 
ATOM     65  C   UNL A   1      36.962  30.232  29.754  1.00  0.00     0.091 A 
ATOM     66  F   UNL A   1      38.507  30.327  27.938  1.00  0.00    -0.205 F 
ATOM     67  C   UNL A   1      36.654  29.781  31.048  1.00  0.00     0.022 A 
BRANCH  65  68
ATOM     68  S   UNL A   1      35.709  31.203  28.912  1.00  0.00     0.127 S 
ATOM     69  O   UNL A   1      35.082  30.196  28.055  1.00  0.00    -0.237 OA
ATOM     70  O   UNL A   1      34.877  31.659  30.024  1.00  0.00    -0.237 OA
ATOM     71  O   UNL A   1      36.422  32.260  28.210  1.00  0.00    -0.744 OA
ENDBRANCH  65  68
ENDBRANCH  47  61
BRANCH  48  72
ATOM     72  C   UNL A   1      48.056  27.194  25.770  1.00  0.00     0.023 A 
ATOM     73  C   UNL A   1      49.129  26.699  26.536  1.00  0.00     0.012 A 
ATOM     74  C   UNL A   1      48.233  27.394  24.387  1.00  0.00     0.148 A 
ATOM     75  C   UNL A   1      50.365  26.438  25.942  1.00  0.00     0.002 A 
ATOM     76  C   UNL A   1      49.449  27.079  23.791  1.00  0.00     0.091 A 
ATOM     77  F   UNL A   1      47.205  27.882  23.679  1.00  0.00    -0.205 F 
ATOM     78  C   UNL A   1      50.522  26.618  24.569  1.00  0.00     0.022 A 
BRANCH  76  79
ATOM     79  S   UNL A   1      49.701  27.160  22.015  1.00  0.00     0.127 S 
ATOM     80  O   UNL A   1      48.652  26.271  21.523  1.00  0.00    -0.237 OA
ATOM     81  O   UNL A   1      49.481  28.581  21.745  1.00  0.00    -0.237 OA
ATOM     82  O   UNL A   1      51.068  26.709  21.789  1.00  0.00    -0.744 OA
ENDBRANCH  76  79
ENDBRANCH  48  72
BRANCH  60  83
ATOM     83  C   UNL A   1      45.296  32.875  28.762  1.00  0.00     0.023 A 
ATOM     84  C   UNL A   1      45.060  33.895  27.819  1.00  0.00     0.012 A 
ATOM     85  C   UNL A   1      45.965  33.185  29.963  1.00  0.00     0.148 A 
ATOM     86  C   UNL A   1      45.512  35.193  28.052  1.00  0.00     0.002 A 
ATOM     87  C   UNL A   1      46.365  34.491  30.212  1.00  0.00     0.091 A 
ATOM     88  F   UNL A   1      46.193  32.196  30.841  1.00  0.00    -0.205 F 
ATOM     89  C   UNL A   1      46.153  35.493  29.253  1.00  0.00     0.022 A 
BRANCH  87  90
ATOM     90  S   UNL A   1      47.105  34.991  31.771  1.00  0.00     0.127 S 
ATOM     91  O   UNL A   1      48.502  34.607  31.574  1.00  0.00    -0.237 OA
ATOM     92  O   UNL A   1      46.865  36.434  31.780  1.00  0.00    -0.237 OA
ATOM     93  O   UNL A   1      46.396  34.254  32.808  1.00  0.00    -0.744 OA
ENDBRANCH  87  90
ENDBRANCH  60  83
ENDBRANCH  34  35
ENDBRANCH  27  29
ENDBRANCH  26  27
ENDBRANCH  25  26
ENDBRANCH  24  25
ENDBRANCH   1  24
TORSDOF 21
ENDMDL
MODEL 3
REMARK VINA RESULT:     -10.4      1.669      2.231
REMARK SMILES CC(C)[C@@](C)(CC(=O)N[C@H]1CCCC1(C)C)C(=O)OCCOCCOC(=O)c1ccc(-c2c3nc(c(-c4cccc(S(=O)(=O)[O-])c4F)c4ccc([nH]4)c(-c4cccc(S(=O)(=O)[O-])c4F)c4nc(c(-c5cccc(S(=O)(=O)[O-])c5F)c5ccc2[nH]5)C=C4)C=C3)cc1
REMARK SMILES IDX 22 1 21 2 20 3 19 4 17 5 18 6 4 7 5 8 2 9 1 10 3 11 6 12
REMARK SMILES IDX 7 13 8 14 9 15 10 17 11 18 14 19 12 20 13 21 15 22 16 23
REMARK SMILES IDX 23 24 24 25 25 26 26 27 27 28 28 29 29 30 90 31 30 32 89 33
REMARK SMILES IDX 31 34 32 35 33 36 83 37 34 38 88 39 82 40 84 41 35 42 87 43
REMARK SMILES IDX 81 44 80 45 36 47 68 48 48 49 67 50 49 51 52 52 66 53 85 54
REMARK SMILES IDX 50 55 51 56 65 58 86 59 53 60 37 61 38 62 46 63 39 64 41 65
REMARK SMILES IDX 47 66 40 67 42 68 43 69 44 70 45 71 69 72 70 73 78 74 71 75
REMARK SMILES IDX 73 76 79 77 72 78 74 79 75 80 76 81 77 82 54 83 55 84 63 85
REMARK SMILES IDX 56 86 58 87 64 88 57 89 59 90 60 91 61 92 62 93
REMARK H PARENT 9 16 84 46 52 57
REMARK Flexibility Score: inf
ROOT
ATOM      1  O   UNL A   1      38.334  22.726  25.953  1.00  0.00    -0.374 OA
ENDROOT
BRANCH   1   2
ATOM      2  C   UNL A   1      37.259  23.634  25.702  1.00  0.00     0.202 C 
BRANCH   2   3
ATOM      3  C   UNL A   1      36.572  23.585  24.334  1.00  0.00     0.261 C 
BRANCH   3   4
ATOM      4  O   UNL A   1      35.351  24.363  24.259  1.00  0.00    -0.463 OA
BRANCH   4   5
ATOM      5  C   UNL A   1      34.341  23.655  23.693  1.00  0.00     0.312 C 
ATOM      6  O   UNL A   1      34.378  23.278  22.522  1.00  0.00    -0.252 OA
BRANCH   5   7
ATOM      7  C   UNL A   1      33.251  23.150  24.666  1.00  0.00     0.076 C 
ATOM      8  C   UNL A   1      31.924  23.524  23.933  1.00  0.00     0.024 C 
BRANCH   7   9
ATOM      9  C   UNL A   1      33.409  21.628  24.806  1.00  0.00     0.000 C 
ATOM     10  C   UNL A   1      34.349  21.077  25.875  1.00  0.00     0.008 C 
ATOM     11  C   UNL A   1      32.065  20.924  25.008  1.00  0.00     0.008 C 
ENDBRANCH   7   9
BRANCH   7  12
ATOM     12  C   UNL A   1      33.092  23.796  26.081  1.00  0.00     0.118 C 
BRANCH  12  13
ATOM     13  C   UNL A   1      31.830  24.448  26.660  1.00  0.00     0.221 C 
ATOM     14  O   UNL A   1      31.115  23.699  27.357  1.00  0.00    -0.275 OA
ATOM     15  N   UNL A   1      31.329  25.700  26.662  1.00  0.00    -0.353 N 
ATOM     16  H   UNL A   1      30.371  25.585  26.860  1.00  0.00     0.163 HD
BRANCH  15  17
ATOM     17  C   UNL A   1      31.513  27.192  26.511  1.00  0.00     0.087 C 
ATOM     18  C   UNL A   1      32.840  27.897  26.891  1.00  0.00     0.025 C 
ATOM     19  C   UNL A   1      31.469  27.586  24.963  1.00  0.00    -0.015 C 
ATOM     20  C   UNL A   1      33.745  27.940  25.647  1.00  0.00     0.003 C 
ATOM     21  C   UNL A   1      32.923  27.305  24.540  1.00  0.00     0.008 C 
ATOM     22  C   UNL A   1      30.495  26.803  24.073  1.00  0.00     0.013 C 
ATOM     23  C   UNL A   1      31.154  29.090  24.749  1.00  0.00     0.013 C 
ENDBRANCH  15  17
ENDBRANCH  12  13
ENDBRANCH   7  12
ENDBRANCH   5   7
ENDBRANCH   4   5
ENDBRANCH   3   4
ENDBRANCH   2   3
ENDBRANCH   1   2
BRANCH   1  24
ATOM     24  C   UNL A   1      38.041  21.342  25.806  1.00  0.00     0.202 C 
BRANCH  24  25
ATOM     25  C   UNL A   1      39.185  20.382  25.475  1.00  0.00     0.261 C 
BRANCH  25  26
ATOM     26  O   UNL A   1      40.006  20.098  26.611  1.00  0.00    -0.460 OA
BRANCH  26  27
ATOM     27  C   UNL A   1      41.323  20.002  26.330  1.00  0.00     0.338 C 
ATOM     28  O   UNL A   1      41.899  19.068  25.775  1.00  0.00    -0.246 OA
BRANCH  27  29
ATOM     29  C   UNL A   1      41.973  21.296  26.568  1.00  0.00     0.060 A 
ATOM     30  C   UNL A   1      42.228  21.635  27.903  1.00  0.00     0.016 A 
ATOM     31  C   UNL A   1      42.304  22.167  25.529  1.00  0.00     0.016 A 
ATOM     32  C   UNL A   1      42.769  22.873  28.214  1.00  0.00     0.010 A 
ATOM     33  C   UNL A   1      42.821  23.426  25.845  1.00  0.00     0.010 A 
ATOM     34  C   UNL A   1      43.013  23.794  27.190  1.00  0.00    -0.014 A 
BRANCH  34  35
ATOM     35  C   UNL A   1      43.262  25.199  27.568  1.00  0.00     0.031 A 
ATOM     36  C   UNL A   1      44.635  25.764  27.330  1.00  0.00     0.074 A 
ATOM     37  C   UNL A   1      42.268  25.970  28.039  1.00  0.00     0.049 A 
ATOM     38  N   UNL A   1      45.079  26.973  27.540  1.00  0.00    -0.248 NA
ATOM     39  C   UNL A   1      45.639  24.839  26.775  1.00  0.00     0.031 C 
ATOM     40  C   UNL A   1      40.894  25.526  28.272  1.00  0.00     0.029 A 
ATOM     41  N   UNL A   1      42.268  27.288  28.413  1.00  0.00    -0.354 N 
ATOM     42  C   UNL A   1      46.419  26.950  27.169  1.00  0.00     0.074 A 
ATOM     43  C   UNL A   1      46.718  25.606  26.729  1.00  0.00     0.031 C 
ATOM     44  C   UNL A   1      40.187  26.552  28.775  1.00  0.00     0.029 A 
ATOM     45  C   UNL A   1      41.064  27.712  28.920  1.00  0.00     0.049 A 
ATOM     46  H   UNL A   1      43.054  27.874  28.328  1.00  0.00     0.167 HD
ATOM     47  C   UNL A   1      47.315  27.963  27.185  1.00  0.00     0.034 A 
ATOM     48  C   UNL A   1      40.722  28.899  29.461  1.00  0.00     0.034 A 
ATOM     49  C   UNL A   1      47.000  29.298  27.614  1.00  0.00     0.049 A 
ATOM     50  C   UNL A   1      41.750  29.999  29.501  1.00  0.00     0.074 A 
ATOM     51  C   UNL A   1      47.821  30.410  27.638  1.00  0.00     0.029 A 
ATOM     52  N   UNL A   1      45.767  29.697  28.109  1.00  0.00    -0.354 N 
ATOM     53  N   UNL A   1      42.984  29.995  29.056  1.00  0.00    -0.248 NA
ATOM     54  C   UNL A   1      41.330  31.279  30.089  1.00  0.00     0.031 C 
ATOM     55  C   UNL A   1      47.094  31.473  28.185  1.00  0.00     0.029 A 
ATOM     56  C   UNL A   1      45.808  31.034  28.461  1.00  0.00     0.049 A 
ATOM     57  H   UNL A   1      44.979  29.114  28.197  1.00  0.00     0.167 HD
ATOM     58  C   UNL A   1      43.475  31.277  29.275  1.00  0.00     0.074 A 
ATOM     59  C   UNL A   1      42.397  32.037  29.875  1.00  0.00     0.031 C 
ATOM     60  C   UNL A   1      44.707  31.781  29.013  1.00  0.00     0.034 A 
BRANCH  47  61
ATOM     61  C   UNL A   1      48.717  27.665  26.724  1.00  0.00     0.023 A 
ATOM     62  C   UNL A   1      49.688  27.237  27.651  1.00  0.00     0.012 A 
ATOM     63  C   UNL A   1      49.060  27.771  25.362  1.00  0.00     0.148 A 
ATOM     64  C   UNL A   1      50.988  26.948  27.235  1.00  0.00     0.002 A 
ATOM     65  C   UNL A   1      50.343  27.436  24.947  1.00  0.00     0.091 A 
ATOM     66  F   UNL A   1      48.130  28.205  24.500  1.00  0.00    -0.205 F 
ATOM     67  C   UNL A   1      51.312  27.037  25.883  1.00  0.00     0.022 A 
BRANCH  65  68
ATOM     68  S   UNL A   1      50.835  27.442  23.221  1.00  0.00     0.127 S 
ATOM     69  O   UNL A   1      52.120  26.744  23.277  1.00  0.00    -0.237 OA
ATOM     70  O   UNL A   1      49.756  26.681  22.592  1.00  0.00    -0.237 OA
ATOM     71  O   UNL A   1      50.905  28.841  22.826  1.00  0.00    -0.744 OA
ENDBRANCH  65  68
ENDBRANCH  47  61
BRANCH  48  72
ATOM     72  C   UNL A   1      39.344  29.110  29.986  1.00  0.00     0.023 A 
ATOM     73  C   UNL A   1      38.974  28.555  31.227  1.00  0.00     0.012 A 
ATOM     74  C   UNL A   1      38.403  29.872  29.266  1.00  0.00     0.148 A 
ATOM     75  C   UNL A   1      37.682  28.731  31.727  1.00  0.00     0.002 A 
ATOM     76  C   UNL A   1      37.136  30.090  29.796  1.00  0.00     0.091 A 
ATOM     77  F   UNL A   1      38.769  30.376  28.080  1.00  0.00    -0.205 F 
ATOM     78  C   UNL A   1      36.768  29.505  31.017  1.00  0.00     0.022 A 
BRANCH  76  79
ATOM     79  S   UNL A   1      35.938  31.175  29.013  1.00  0.00     0.127 S 
ATOM     80  O   UNL A   1      36.803  32.160  28.370  1.00  0.00    -0.237 OA
ATOM     81  O   UNL A   1      35.258  30.261  28.096  1.00  0.00    -0.237 OA
ATOM     82  O   UNL A   1      35.099  31.680  30.092  1.00  0.00    -0.744 OA
ENDBRANCH  76  79
ENDBRANCH  48  72
BRANCH  60  83
ATOM     83  C   UNL A   1      44.950  33.232  29.334  1.00  0.00     0.023 A 
ATOM     84  C   UNL A   1      45.484  33.598  30.585  1.00  0.00     0.012 A 
ATOM     85  C   UNL A   1      44.720  34.226  28.362  1.00  0.00     0.148 A 
ATOM     86  C   UNL A   1      45.752  34.935  30.876  1.00  0.00     0.002 A 
ATOM     87  C   UNL A   1      45.040  35.549  28.640  1.00  0.00     0.091 A 
ATOM     88  F   UNL A   1      44.198  33.859  27.182  1.00  0.00    -0.205 F 
ATOM     89  C   UNL A   1      45.542  35.907  29.901  1.00  0.00     0.022 A 
BRANCH  87  90
ATOM     90  S   UNL A   1      44.900  36.852  27.411  1.00  0.00     0.127 S 
ATOM     91  O   UNL A   1      45.904  36.444  26.429  1.00  0.00    -0.237 OA
ATOM     92  O   UNL A   1      43.515  36.707  26.963  1.00  0.00    -0.237 OA
ATOM     93  O   UNL A   1      45.182  38.098  28.111  1.00  0.00    -0.744 OA
ENDBRANCH  87  90
ENDBRANCH  60  83
ENDBRANCH  34  35
ENDBRANCH  27  29
ENDBRANCH  26  27
ENDBRANCH  25  26
ENDBRANCH  24  25
ENDBRANCH   1  24
TORSDOF 21
ENDMDL
