MODEL 1
REMARK VINA RESULT:     -10.3      0.000      0.000
REMARK SMILES C[C@H]1C[C@](C(=O)OCCOCCOC(=O)c2ccc(-c3c4nc(c(-c5cccc(S(=O)(=O)[O-])c5F)c5ccc([nH]5)c(-c5cccc(S(=O)(=O)[O-])c5F)c5nc(c(-c6cccc(S(=O)(=O)[O-])c6F)c6ccc3[nH]6)C=C5)C=C4)cc2)(N(C=O)C2CC2)CS1
REMARK SMILES IDX 11 1 10 2 9 3 8 4 7 5 5 6 6 7 4 8 1 9 2 10 3 11 86 12 85 13
REMARK SMILES IDX 79 14 80 15 81 16 82 17 83 18 84 19 12 20 13 21 14 22 15 23
REMARK SMILES IDX 16 24 17 25 78 26 18 27 77 28 19 29 20 30 21 31 71 32 22 33
REMARK SMILES IDX 76 34 70 35 72 36 23 37 75 38 69 39 68 40 24 42 56 43 36 44
REMARK SMILES IDX 55 45 37 46 40 47 54 48 73 49 38 50 39 51 53 53 74 54 41 55
REMARK SMILES IDX 25 56 26 57 34 58 27 59 29 60 35 61 28 62 30 63 31 64 32 65
REMARK SMILES IDX 33 66 57 67 58 68 66 69 59 70 61 71 67 72 60 73 62 74 63 75
REMARK SMILES IDX 64 76 65 77 42 78 43 79 51 80 44 81 46 82 52 83 45 84 47 85
REMARK SMILES IDX 48 86 49 87 50 88
REMARK H PARENT 72 41 40 52
REMARK Flexibility Score: inf
ROOT
ATOM      1  C   UNL A   1      31.604  30.034  25.341  1.00  0.00     0.202 C 
ENDROOT
BRANCH   1   2
ATOM      2  O   UNL A   1      32.886  29.503  25.015  1.00  0.00    -0.374 OA
BRANCH   2   3
ATOM      3  C   UNL A   1      32.925  28.268  24.303  1.00  0.00     0.202 C 
BRANCH   3   4
ATOM      4  C   UNL A   1      33.898  27.207  24.825  1.00  0.00     0.261 C 
BRANCH   4   5
ATOM      5  O   UNL A   1      34.166  26.178  23.853  1.00  0.00    -0.461 OA
BRANCH   5   6
ATOM      6  C   UNL A   1      33.197  25.229  23.710  1.00  0.00     0.333 C 
ATOM      7  O   UNL A   1      32.307  25.289  22.867  1.00  0.00    -0.249 OA
BRANCH   6   8
ATOM      8  C   UNL A   1      33.243  24.136  24.826  1.00  0.00     0.150 C 
ATOM      9  C   UNL A   1      36.744  23.138  25.445  1.00  0.00     0.019 C 
ATOM     10  C   UNL A   1      35.287  22.939  25.844  1.00  0.00     0.046 C 
ATOM     11  C   UNL A   1      34.449  24.228  25.794  1.00  0.00     0.055 C 
ATOM     12  S   UNL A   1      34.543  21.708  24.753  1.00  0.00    -0.156 SA
ATOM     13  C   UNL A   1      33.378  22.844  23.979  1.00  0.00     0.110 C 
BRANCH   8  14
ATOM     14  N   UNL A   1      31.942  24.228  25.570  1.00  0.00    -0.325 N 
BRANCH  14  15
ATOM     15  C   UNL A   1      31.498  23.203  26.413  1.00  0.00     0.341 C 
ATOM     16  O   UNL A   1      31.330  23.306  27.623  1.00  0.00    -0.279 OA
ENDBRANCH  14  15
BRANCH  14  17
ATOM     17  C   UNL A   1      30.983  25.288  25.328  1.00  0.00     0.086 C 
ATOM     18  C   UNL A   1      29.627  25.510  25.935  1.00  0.00     0.027 C 
ATOM     19  C   UNL A   1      30.781  26.294  26.452  1.00  0.00     0.027 C 
ENDBRANCH  14  17
ENDBRANCH   8  14
ENDBRANCH   6   8
ENDBRANCH   5   6
ENDBRANCH   4   5
ENDBRANCH   3   4
ENDBRANCH   2   3
ENDBRANCH   1   2
BRANCH   1  20
ATOM     20  C   UNL A   1      31.561  31.253  26.275  1.00  0.00     0.261 C 
BRANCH  20  21
ATOM     21  O   UNL A   1      32.403  31.116  27.436  1.00  0.00    -0.460 OA
BRANCH  21  22
ATOM     22  C   UNL A   1      33.261  32.149  27.621  1.00  0.00     0.338 C 
ATOM     23  O   UNL A   1      32.968  33.336  27.729  1.00  0.00    -0.246 OA
BRANCH  22  24
ATOM     24  C   UNL A   1      34.635  31.677  27.851  1.00  0.00     0.060 A 
ATOM     25  C   UNL A   1      34.822  30.298  28.012  1.00  0.00     0.016 A 
ATOM     26  C   UNL A   1      35.688  32.567  28.074  1.00  0.00     0.016 A 
ATOM     27  C   UNL A   1      36.044  29.807  28.465  1.00  0.00     0.010 A 
ATOM     28  C   UNL A   1      36.916  32.070  28.533  1.00  0.00     0.010 A 
ATOM     29  C   UNL A   1      37.082  30.694  28.780  1.00  0.00    -0.014 A 
BRANCH  29  30
ATOM     30  C   UNL A   1      38.262  30.187  29.525  1.00  0.00     0.031 A 
ATOM     31  C   UNL A   1      38.492  30.654  30.939  1.00  0.00     0.074 A 
ATOM     32  C   UNL A   1      39.092  29.283  28.972  1.00  0.00     0.049 A 
ATOM     33  N   UNL A   1      39.426  30.305  31.785  1.00  0.00    -0.248 NA
ATOM     34  C   UNL A   1      37.541  31.645  31.471  1.00  0.00     0.031 C 
ATOM     35  C   UNL A   1      38.973  28.746  27.619  1.00  0.00     0.029 A 
ATOM     36  N   UNL A   1      40.205  28.666  29.484  1.00  0.00    -0.354 N 
ATOM     37  C   UNL A   1      39.190  31.044  32.939  1.00  0.00     0.074 A 
ATOM     38  C   UNL A   1      38.034  31.875  32.679  1.00  0.00     0.031 C 
ATOM     39  C   UNL A   1      39.985  27.889  27.400  1.00  0.00     0.029 A 
ATOM     40  C   UNL A   1      40.829  27.828  28.592  1.00  0.00     0.049 A 
ATOM     41  H   UNL A   1      40.527  28.810  30.403  1.00  0.00     0.167 HD
ATOM     42  C   UNL A   1      39.856  31.018  34.119  1.00  0.00     0.034 A 
ATOM     43  C   UNL A   1      41.956  27.099  28.721  1.00  0.00     0.034 A 
ATOM     44  C   UNL A   1      40.990  30.175  34.388  1.00  0.00     0.049 A 
ATOM     45  C   UNL A   1      42.691  27.102  30.036  1.00  0.00     0.074 A 
ATOM     46  C   UNL A   1      41.712  30.053  35.562  1.00  0.00     0.029 A 
ATOM     47  N   UNL A   1      41.572  29.315  33.470  1.00  0.00    -0.354 N 
ATOM     48  N   UNL A   1      42.384  27.716  31.153  1.00  0.00    -0.248 NA
ATOM     49  C   UNL A   1      43.908  26.280  30.120  1.00  0.00     0.031 C 
ATOM     50  C   UNL A   1      42.741  29.129  35.348  1.00  0.00     0.029 A 
ATOM     51  C   UNL A   1      42.646  28.662  34.047  1.00  0.00     0.049 A 
ATOM     52  H   UNL A   1      41.265  29.188  32.543  1.00  0.00     0.167 HD
ATOM     53  C   UNL A   1      43.344  27.326  32.081  1.00  0.00     0.074 A 
ATOM     54  C   UNL A   1      44.233  26.408  31.400  1.00  0.00     0.031 C 
ATOM     55  C   UNL A   1      43.487  27.704  33.376  1.00  0.00     0.034 A 
BRANCH  42  56
ATOM     56  C   UNL A   1      39.348  31.905  35.224  1.00  0.00     0.023 A 
ATOM     57  C   UNL A   1      38.405  31.398  36.141  1.00  0.00     0.012 A 
ATOM     58  C   UNL A   1      39.835  33.216  35.387  1.00  0.00     0.148 A 
ATOM     59  C   UNL A   1      37.930  32.192  37.185  1.00  0.00     0.002 A 
ATOM     60  C   UNL A   1      39.386  33.989  36.453  1.00  0.00     0.091 A 
ATOM     61  F   UNL A   1      40.711  33.690  34.491  1.00  0.00    -0.205 F 
ATOM     62  C   UNL A   1      38.427  33.482  37.346  1.00  0.00     0.022 A 
BRANCH  60  63
ATOM     63  S   UNL A   1      40.019  35.637  36.783  1.00  0.00     0.127 S 
ATOM     64  O   UNL A   1      39.313  35.983  38.016  1.00  0.00    -0.237 OA
ATOM     65  O   UNL A   1      41.453  35.391  36.950  1.00  0.00    -0.237 OA
ATOM     66  O   UNL A   1      39.675  36.437  35.615  1.00  0.00    -0.744 OA
ENDBRANCH  60  63
ENDBRANCH  42  56
BRANCH  43  67
ATOM     67  C   UNL A   1      42.433  26.259  27.586  1.00  0.00     0.023 A 
ATOM     68  C   UNL A   1      43.327  26.806  26.645  1.00  0.00     0.012 A 
ATOM     69  C   UNL A   1      42.019  24.921  27.443  1.00  0.00     0.148 A 
ATOM     70  C   UNL A   1      43.779  26.044  25.567  1.00  0.00     0.002 A 
ATOM     71  C   UNL A   1      42.514  24.152  26.397  1.00  0.00     0.091 A 
ATOM     72  F   UNL A   1      41.151  24.427  28.337  1.00  0.00    -0.205 F 
ATOM     73  C   UNL A   1      43.382  24.715  25.449  1.00  0.00     0.022 A 
BRANCH  71  74
ATOM     74  S   UNL A   1      42.150  22.399  26.237  1.00  0.00     0.127 S 
ATOM     75  O   UNL A   1      42.717  21.864  27.473  1.00  0.00    -0.237 OA
ATOM     76  O   UNL A   1      40.688  22.399  26.178  1.00  0.00    -0.237 OA
ATOM     77  O   UNL A   1      42.801  21.977  25.005  1.00  0.00    -0.744 OA
ENDBRANCH  71  74
ENDBRANCH  43  67
BRANCH  55  78
ATOM     78  C   UNL A   1      44.622  27.101  34.162  1.00  0.00     0.023 A 
ATOM     79  C   UNL A   1      45.897  27.699  34.119  1.00  0.00     0.012 A 
ATOM     80  C   UNL A   1      44.408  25.988  34.999  1.00  0.00     0.148 A 
ATOM     81  C   UNL A   1      46.949  27.179  34.873  1.00  0.00     0.002 A 
ATOM     82  C   UNL A   1      45.450  25.503  35.782  1.00  0.00     0.091 A 
ATOM     83  F   UNL A   1      43.194  25.419  35.011  1.00  0.00    -0.205 F 
ATOM     84  C   UNL A   1      46.723  26.091  35.713  1.00  0.00     0.022 A 
BRANCH  82  85
ATOM     85  S   UNL A   1      45.219  24.166  36.959  1.00  0.00     0.127 S 
ATOM     86  O   UNL A   1      44.852  23.055  36.083  1.00  0.00    -0.237 OA
ATOM     87  O   UNL A   1      46.546  24.050  37.567  1.00  0.00    -0.237 OA
ATOM     88  O   UNL A   1      44.179  24.617  37.873  1.00  0.00    -0.744 OA
ENDBRANCH  82  85
ENDBRANCH  55  78
ENDBRANCH  29  30
ENDBRANCH  22  24
ENDBRANCH  21  22
ENDBRANCH  20  21
ENDBRANCH   1  20
TORSDOF 20
ENDMDL
MODEL 2
REMARK VINA RESULT:     -10.2      4.823      7.629
REMARK SMILES C[C@H]1C[C@](C(=O)OCCOCCOC(=O)c2ccc(-c3c4nc(c(-c5cccc(S(=O)(=O)[O-])c5F)c5ccc([nH]5)c(-c5cccc(S(=O)(=O)[O-])c5F)c5nc(c(-c6cccc(S(=O)(=O)[O-])c6F)c6ccc3[nH]6)C=C5)C=C4)cc2)(N(C=O)C2CC2)CS1
REMARK SMILES IDX 11 1 10 2 9 3 8 4 7 5 5 6 6 7 4 8 1 9 2 10 3 11 86 12 85 13
REMARK SMILES IDX 79 14 80 15 81 16 82 17 83 18 84 19 12 20 13 21 14 22 15 23
REMARK SMILES IDX 16 24 17 25 78 26 18 27 77 28 19 29 20 30 21 31 71 32 22 33
REMARK SMILES IDX 76 34 70 35 72 36 23 37 75 38 69 39 68 40 24 42 56 43 36 44
REMARK SMILES IDX 55 45 37 46 40 47 54 48 73 49 38 50 39 51 53 53 74 54 41 55
REMARK SMILES IDX 25 56 26 57 34 58 27 59 29 60 35 61 28 62 30 63 31 64 32 65
REMARK SMILES IDX 33 66 57 67 58 68 66 69 59 70 61 71 67 72 60 73 62 74 63 75
REMARK SMILES IDX 64 76 65 77 42 78 43 79 51 80 44 81 46 82 52 83 45 84 47 85
REMARK SMILES IDX 48 86 49 87 50 88
REMARK H PARENT 72 41 40 52
REMARK Flexibility Score: inf
ROOT
ATOM      1  C   UNL A   1      35.100  20.902  24.794  1.00  0.00     0.202 C 
ENDROOT
BRANCH   1   2
ATOM      2  O   UNL A   1      33.914  20.372  25.381  1.00  0.00    -0.374 OA
BRANCH   2   3
ATOM      3  C   UNL A   1      32.679  21.006  25.054  1.00  0.00     0.202 C 
BRANCH   3   4
ATOM      4  C   UNL A   1      32.020  21.835  26.161  1.00  0.00     0.261 C 
BRANCH   4   5
ATOM      5  O   UNL A   1      32.702  23.081  26.396  1.00  0.00    -0.461 OA
BRANCH   5   6
ATOM      6  C   UNL A   1      31.915  24.195  26.414  1.00  0.00     0.333 C 
ATOM      7  O   UNL A   1      31.036  24.392  27.247  1.00  0.00    -0.249 OA
BRANCH   6   8
ATOM      8  C   UNL A   1      32.142  25.122  25.177  1.00  0.00     0.150 C 
ATOM      9  C   UNL A   1      32.914  23.069  22.207  1.00  0.00     0.019 C 
ATOM     10  C   UNL A   1      32.700  24.479  22.744  1.00  0.00     0.046 C 
ATOM     11  C   UNL A   1      31.614  24.570  23.829  1.00  0.00     0.055 C 
ATOM     12  S   UNL A   1      34.260  25.093  23.415  1.00  0.00    -0.156 SA
ATOM     13  C   UNL A   1      33.690  25.182  25.122  1.00  0.00     0.110 C 
BRANCH   8  14
ATOM     14  N   UNL A   1      31.507  26.443  25.508  1.00  0.00    -0.325 N 
BRANCH  14  15
ATOM     15  C   UNL A   1      30.272  26.826  24.973  1.00  0.00     0.341 C 
ATOM     16  O   UNL A   1      30.112  27.389  23.897  1.00  0.00    -0.279 OA
ENDBRANCH  14  15
BRANCH  14  17
ATOM     17  C   UNL A   1      32.205  27.474  26.252  1.00  0.00     0.086 C 
ATOM     18  C   UNL A   1      31.799  28.893  26.534  1.00  0.00     0.027 C 
ATOM     19  C   UNL A   1      31.609  27.867  27.595  1.00  0.00     0.027 C 
ENDBRANCH  14  17
ENDBRANCH   8  14
ENDBRANCH   6   8
ENDBRANCH   5   6
ENDBRANCH   4   5
ENDBRANCH   3   4
ENDBRANCH   2   3
ENDBRANCH   1   2
BRANCH   1  20
ATOM     20  C   UNL A   1      36.260  21.251  25.739  1.00  0.00     0.261 C 
BRANCH  20  21
ATOM     21  O   UNL A   1      37.486  21.564  25.050  1.00  0.00    -0.460 OA
BRANCH  21  22
ATOM     22  C   UNL A   1      38.606  21.299  25.766  1.00  0.00     0.338 C 
ATOM     23  O   UNL A   1      39.256  20.258  25.751  1.00  0.00    -0.246 OA
BRANCH  22  24
ATOM     24  C   UNL A   1      39.087  22.491  26.482  1.00  0.00     0.060 A 
ATOM     25  C   UNL A   1      38.521  23.724  26.129  1.00  0.00     0.016 A 
ATOM     26  C   UNL A   1      40.178  22.434  27.351  1.00  0.00     0.016 A 
ATOM     27  C   UNL A   1      39.089  24.909  26.589  1.00  0.00     0.010 A 
ATOM     28  C   UNL A   1      40.750  23.629  27.809  1.00  0.00     0.010 A 
ATOM     29  C   UNL A   1      40.239  24.871  27.388  1.00  0.00    -0.014 A 
BRANCH  29  30
ATOM     30  C   UNL A   1      40.992  26.129  27.628  1.00  0.00     0.031 A 
ATOM     31  C   UNL A   1      40.325  27.248  28.385  1.00  0.00     0.074 A 
ATOM     32  C   UNL A   1      42.268  26.258  27.222  1.00  0.00     0.049 A 
ATOM     33  N   UNL A   1      40.810  28.408  28.746  1.00  0.00    -0.248 NA
ATOM     34  C   UNL A   1      38.927  27.030  28.792  1.00  0.00     0.031 C 
ATOM     35  C   UNL A   1      43.027  25.247  26.490  1.00  0.00     0.029 A 
ATOM     36  N   UNL A   1      43.146  27.303  27.364  1.00  0.00    -0.354 N 
ATOM     37  C   UNL A   1      39.776  29.065  29.403  1.00  0.00     0.074 A 
ATOM     38  C   UNL A   1      38.630  28.182  29.376  1.00  0.00     0.031 C 
ATOM     39  C   UNL A   1      44.256  25.727  26.231  1.00  0.00     0.029 A 
ATOM     40  C   UNL A   1      44.365  27.082  26.768  1.00  0.00     0.049 A 
ATOM     41  H   UNL A   1      42.925  28.131  27.847  1.00  0.00     0.167 HD
ATOM     42  C   UNL A   1      39.783  30.282  29.998  1.00  0.00     0.034 A 
ATOM     43  C   UNL A   1      45.442  27.886  26.663  1.00  0.00     0.034 A 
ATOM     44  C   UNL A   1      40.927  31.152  30.047  1.00  0.00     0.049 A 
ATOM     45  C   UNL A   1      45.419  29.243  27.316  1.00  0.00     0.074 A 
ATOM     46  C   UNL A   1      41.043  32.390  30.656  1.00  0.00     0.029 A 
ATOM     47  N   UNL A   1      42.154  30.879  29.461  1.00  0.00    -0.354 N 
ATOM     48  N   UNL A   1      44.473  29.798  28.034  1.00  0.00    -0.248 NA
ATOM     49  C   UNL A   1      46.627  30.070  27.176  1.00  0.00     0.031 C 
ATOM     50  C   UNL A   1      42.335  32.872  30.423  1.00  0.00     0.029 A 
ATOM     51  C   UNL A   1      43.030  31.925  29.687  1.00  0.00     0.049 A 
ATOM     52  H   UNL A   1      42.368  30.061  28.958  1.00  0.00     0.167 HD
ATOM     53  C   UNL A   1      44.984  31.019  28.464  1.00  0.00     0.074 A 
ATOM     54  C   UNL A   1      46.330  31.114  27.939  1.00  0.00     0.031 C 
ATOM     55  C   UNL A   1      44.388  31.981  29.212  1.00  0.00     0.034 A 
BRANCH  42  56
ATOM     56  C   UNL A   1      38.517  30.730  30.680  1.00  0.00     0.023 A 
ATOM     57  C   UNL A   1      38.352  30.491  32.060  1.00  0.00     0.012 A 
ATOM     58  C   UNL A   1      37.517  31.426  29.975  1.00  0.00     0.148 A 
ATOM     59  C   UNL A   1      37.197  30.910  32.721  1.00  0.00     0.002 A 
ATOM     60  C   UNL A   1      36.385  31.874  30.648  1.00  0.00     0.091 A 
ATOM     61  F   UNL A   1      37.679  31.620  28.658  1.00  0.00    -0.205 F 
ATOM     62  C   UNL A   1      36.219  31.609  32.017  1.00  0.00     0.022 A 
BRANCH  60  63
ATOM     63  S   UNL A   1      35.105  32.843  29.842  1.00  0.00     0.127 S 
ATOM     64  O   UNL A   1      35.873  33.973  29.322  1.00  0.00    -0.237 OA
ATOM     65  O   UNL A   1      34.613  31.918  28.819  1.00  0.00    -0.237 OA
ATOM     66  O   UNL A   1      34.136  33.165  30.881  1.00  0.00    -0.744 OA
ENDBRANCH  60  63
ENDBRANCH  42  56
BRANCH  43  67
ATOM     67  C   UNL A   1      46.661  27.406  25.952  1.00  0.00     0.023 A 
ATOM     68  C   UNL A   1      46.794  27.636  24.569  1.00  0.00     0.012 A 
ATOM     69  C   UNL A   1      47.693  26.739  26.640  1.00  0.00     0.148 A 
ATOM     70  C   UNL A   1      47.921  27.186  23.878  1.00  0.00     0.002 A 
ATOM     71  C   UNL A   1      48.836  26.340  25.956  1.00  0.00     0.091 A 
ATOM     72  F   UNL A   1      47.537  26.511  27.952  1.00  0.00    -0.205 F 
ATOM     73  C   UNL A   1      48.945  26.549  24.573  1.00  0.00     0.022 A 
BRANCH  71  74
ATOM     74  S   UNL A   1      50.254  25.621  26.792  1.00  0.00     0.127 S 
ATOM     75  O   UNL A   1      50.640  26.697  27.703  1.00  0.00    -0.237 OA
ATOM     76  O   UNL A   1      49.661  24.449  27.438  1.00  0.00    -0.237 OA
ATOM     77  O   UNL A   1      51.209  25.309  25.739  1.00  0.00    -0.744 OA
ENDBRANCH  71  74
ENDBRANCH  43  67
BRANCH  55  78
ATOM     78  C   UNL A   1      45.194  33.209  29.545  1.00  0.00     0.023 A 
ATOM     79  C   UNL A   1      45.935  33.257  30.742  1.00  0.00     0.012 A 
ATOM     80  C   UNL A   1      45.277  34.285  28.638  1.00  0.00     0.148 A 
ATOM     81  C   UNL A   1      46.720  34.368  31.047  1.00  0.00     0.002 A 
ATOM     82  C   UNL A   1      46.097  35.370  28.927  1.00  0.00     0.091 A 
ATOM     83  F   UNL A   1      44.549  34.233  27.513  1.00  0.00    -0.205 F 
ATOM     84  C   UNL A   1      46.811  35.418  30.135  1.00  0.00     0.022 A 
BRANCH  82  85
ATOM     85  S   UNL A   1      46.344  36.719  27.767  1.00  0.00     0.127 S 
ATOM     86  O   UNL A   1      47.238  37.600  28.517  1.00  0.00    -0.237 OA
ATOM     87  O   UNL A   1      46.969  36.044  26.628  1.00  0.00    -0.237 OA
ATOM     88  O   UNL A   1      45.018  37.254  27.492  1.00  0.00    -0.744 OA
ENDBRANCH  82  85
ENDBRANCH  55  78
ENDBRANCH  29  30
ENDBRANCH  22  24
ENDBRANCH  21  22
ENDBRANCH  20  21
ENDBRANCH   1  20
TORSDOF 20
ENDMDL
MODEL 3
REMARK VINA RESULT:     -10.0      5.087      8.249
REMARK SMILES C[C@H]1C[C@](C(=O)OCCOCCOC(=O)c2ccc(-c3c4nc(c(-c5cccc(S(=O)(=O)[O-])c5F)c5ccc([nH]5)c(-c5cccc(S(=O)(=O)[O-])c5F)c5nc(c(-c6cccc(S(=O)(=O)[O-])c6F)c6ccc3[nH]6)C=C5)C=C4)cc2)(N(C=O)C2CC2)CS1
REMARK SMILES IDX 11 1 10 2 9 3 8 4 7 5 5 6 6 7 4 8 1 9 2 10 3 11 86 12 85 13
REMARK SMILES IDX 79 14 80 15 81 16 82 17 83 18 84 19 12 20 13 21 14 22 15 23
REMARK SMILES IDX 16 24 17 25 78 26 18 27 77 28 19 29 20 30 21 31 71 32 22 33
REMARK SMILES IDX 76 34 70 35 72 36 23 37 75 38 69 39 68 40 24 42 56 43 36 44
REMARK SMILES IDX 55 45 37 46 40 47 54 48 73 49 38 50 39 51 53 53 74 54 41 55
REMARK SMILES IDX 25 56 26 57 34 58 27 59 29 60 35 61 28 62 30 63 31 64 32 65
REMARK SMILES IDX 33 66 57 67 58 68 66 69 59 70 61 71 67 72 60 73 62 74 63 75
REMARK SMILES IDX 64 76 65 77 42 78 43 79 51 80 44 81 46 82 52 83 45 84 47 85
REMARK SMILES IDX 48 86 49 87 50 88
REMARK H PARENT 72 41 40 52
REMARK Flexibility Score: inf
ROOT
ATOM      1  C   UNL A   1      37.485  19.584  24.724  1.00  0.00     0.202 C 
ENDROOT
BRANCH   1   2
ATOM      2  O   UNL A   1      36.741  20.714  25.170  1.00  0.00    -0.374 OA
BRANCH   2   3
ATOM      3  C   UNL A   1      36.918  21.940  24.463  1.00  0.00     0.202 C 
BRANCH   3   4
ATOM      4  C   UNL A   1      36.952  23.218  25.305  1.00  0.00     0.261 C 
BRANCH   4   5
ATOM      5  O   UNL A   1      35.909  24.143  24.946  1.00  0.00    -0.461 OA
BRANCH   5   6
ATOM      6  C   UNL A   1      34.761  24.057  25.678  1.00  0.00     0.333 C 
ATOM      7  O   UNL A   1      34.641  23.347  26.672  1.00  0.00    -0.249 OA
BRANCH   6   8
ATOM      8  C   UNL A   1      33.568  24.834  25.036  1.00  0.00     0.150 C 
ATOM      9  C   UNL A   1      33.453  28.271  26.379  1.00  0.00     0.019 C 
ATOM     10  C   UNL A   1      32.818  27.271  25.422  1.00  0.00     0.046 C 
ATOM     11  C   UNL A   1      33.832  26.333  24.744  1.00  0.00     0.055 C 
ATOM     12  S   UNL A   1      31.609  26.280  26.325  1.00  0.00    -0.156 SA
ATOM     13  C   UNL A   1      32.496  24.722  26.151  1.00  0.00     0.110 C 
BRANCH   8  14
ATOM     14  N   UNL A   1      33.200  24.094  23.781  1.00  0.00    -0.325 N 
BRANCH  14  15
ATOM     15  C   UNL A   1      33.506  24.594  22.511  1.00  0.00     0.341 C 
ATOM     16  O   UNL A   1      32.911  25.504  21.947  1.00  0.00    -0.279 OA
ENDBRANCH  14  15
BRANCH  14  17
ATOM     17  C   UNL A   1      32.353  22.918  23.795  1.00  0.00     0.086 C 
ATOM     18  C   UNL A   1      32.209  21.828  22.770  1.00  0.00     0.027 C 
ATOM     19  C   UNL A   1      33.052  21.577  23.970  1.00  0.00     0.027 C 
ENDBRANCH  14  17
ENDBRANCH   8  14
ENDBRANCH   6   8
ENDBRANCH   5   6
ENDBRANCH   4   5
ENDBRANCH   3   4
ENDBRANCH   2   3
ENDBRANCH   1   2
BRANCH   1  20
ATOM     20  C   UNL A   1      38.936  19.455  25.214  1.00  0.00     0.261 C 
BRANCH  20  21
ATOM     21  O   UNL A   1      39.194  20.171  26.436  1.00  0.00    -0.460 OA
BRANCH  21  22
ATOM     22  C   UNL A   1      40.506  20.431  26.658  1.00  0.00     0.338 C 
ATOM     23  O   UNL A   1      41.458  19.725  26.339  1.00  0.00    -0.246 OA
BRANCH  22  24
ATOM     24  C   UNL A   1      40.706  21.783  27.204  1.00  0.00     0.060 A 
ATOM     25  C   UNL A   1      40.085  22.845  26.533  1.00  0.00     0.016 A 
ATOM     26  C   UNL A   1      41.611  22.029  28.238  1.00  0.00     0.016 A 
ATOM     27  C   UNL A   1      40.420  24.160  26.847  1.00  0.00     0.010 A 
ATOM     28  C   UNL A   1      41.948  23.354  28.550  1.00  0.00     0.010 A 
ATOM     29  C   UNL A   1      41.393  24.422  27.820  1.00  0.00    -0.014 A 
BRANCH  29  30
ATOM     30  C   UNL A   1      41.941  25.797  27.938  1.00  0.00     0.031 A 
ATOM     31  C   UNL A   1      41.122  26.856  28.629  1.00  0.00     0.074 A 
ATOM     32  C   UNL A   1      43.173  26.090  27.483  1.00  0.00     0.049 A 
ATOM     33  N   UNL A   1      41.424  28.103  28.883  1.00  0.00    -0.248 NA
ATOM     34  C   UNL A   1      39.784  26.456  29.096  1.00  0.00     0.031 C 
ATOM     35  C   UNL A   1      44.068  25.154  26.807  1.00  0.00     0.029 A 
ATOM     36  N   UNL A   1      43.878  27.267  27.517  1.00  0.00    -0.354 N 
ATOM     37  C   UNL A   1      40.312  28.641  29.521  1.00  0.00     0.074 A 
ATOM     38  C   UNL A   1      39.320  27.591  29.599  1.00  0.00     0.031 C 
ATOM     39  C   UNL A   1      45.200  25.798  26.473  1.00  0.00     0.029 A 
ATOM     40  C   UNL A   1      45.104  27.192  26.901  1.00  0.00     0.049 A 
ATOM     41  H   UNL A   1      43.538  28.087  27.942  1.00  0.00     0.167 HD
ATOM     42  C   UNL A   1      40.138  29.888  30.021  1.00  0.00     0.034 A 
ATOM     43  C   UNL A   1      46.039  28.143  26.699  1.00  0.00     0.034 A 
ATOM     44  C   UNL A   1      41.131  30.927  29.967  1.00  0.00     0.049 A 
ATOM     45  C   UNL A   1      45.814  29.528  27.247  1.00  0.00     0.074 A 
ATOM     46  C   UNL A   1      41.062  32.213  30.474  1.00  0.00     0.029 A 
ATOM     47  N   UNL A   1      42.374  30.802  29.364  1.00  0.00    -0.354 N 
ATOM     48  N   UNL A   1      44.806  29.985  27.951  1.00  0.00    -0.248 NA
ATOM     49  C   UNL A   1      46.873  30.519  27.005  1.00  0.00     0.031 C 
ATOM     50  C   UNL A   1      42.257  32.870  30.164  1.00  0.00     0.029 A 
ATOM     51  C   UNL A   1      43.078  31.988  29.481  1.00  0.00     0.049 A 
ATOM     52  H   UNL A   1      42.705  29.990  28.919  1.00  0.00     0.167 HD
ATOM     53  C   UNL A   1      45.126  31.301  28.269  1.00  0.00     0.074 A 
ATOM     54  C   UNL A   1      46.430  31.563  27.695  1.00  0.00     0.031 C 
ATOM     55  C   UNL A   1      44.401  32.216  28.959  1.00  0.00     0.034 A 
BRANCH  42  56
ATOM     56  C   UNL A   1      38.831  30.186  30.707  1.00  0.00     0.023 A 
ATOM     57  C   UNL A   1      38.627  29.745  32.030  1.00  0.00     0.012 A 
ATOM     58  C   UNL A   1      37.829  30.941  30.067  1.00  0.00     0.148 A 
ATOM     59  C   UNL A   1      37.432  30.022  32.695  1.00  0.00     0.002 A 
ATOM     60  C   UNL A   1      36.656  31.246  30.750  1.00  0.00     0.091 A 
ATOM     61  F   UNL A   1      38.030  31.330  28.801  1.00  0.00    -0.205 F 
ATOM     62  C   UNL A   1      36.452  30.780  32.060  1.00  0.00     0.022 A 
BRANCH  60  63
ATOM     63  S   UNL A   1      35.366  32.275  30.040  1.00  0.00     0.127 S 
ATOM     64  O   UNL A   1      36.115  33.477  29.675  1.00  0.00    -0.237 OA
ATOM     65  O   UNL A   1      34.917  31.469  28.903  1.00  0.00    -0.237 OA
ATOM     66  O   UNL A   1      34.371  32.447  31.089  1.00  0.00    -0.744 OA
ENDBRANCH  60  63
ENDBRANCH  42  56
BRANCH  43  67
ATOM     67  C   UNL A   1      47.304  27.803  25.989  1.00  0.00     0.023 A 
ATOM     68  C   UNL A   1      48.435  27.414  26.732  1.00  0.00     0.012 A 
ATOM     69  C   UNL A   1      47.387  27.847  24.583  1.00  0.00     0.148 A 
ATOM     70  C   UNL A   1      49.635  27.102  26.091  1.00  0.00     0.002 A 
ATOM     71  C   UNL A   1      48.570  27.485  23.949  1.00  0.00     0.091 A 
ATOM     72  F   UNL A   1      46.306  28.241  23.897  1.00  0.00    -0.205 F 
ATOM     73  C   UNL A   1      49.699  27.126  24.701  1.00  0.00     0.022 A 
BRANCH  71  74
ATOM     74  S   UNL A   1      48.705  27.373  22.161  1.00  0.00     0.127 S 
ATOM     75  O   UNL A   1      47.561  28.171  21.726  1.00  0.00    -0.237 OA
ATOM     76  O   UNL A   1      50.012  27.984  21.918  1.00  0.00    -0.237 OA
ATOM     77  O   UNL A   1      48.640  25.951  21.854  1.00  0.00    -0.744 OA
ENDBRANCH  71  74
ENDBRANCH  43  67
BRANCH  55  78
ATOM     78  C   UNL A   1      45.009  33.578  29.171  1.00  0.00     0.023 A 
ATOM     79  C   UNL A   1      45.775  33.830  30.326  1.00  0.00     0.012 A 
ATOM     80  C   UNL A   1      44.883  34.583  28.192  1.00  0.00     0.148 A 
ATOM     81  C   UNL A   1      46.380  35.071  30.518  1.00  0.00     0.002 A 
ATOM     82  C   UNL A   1      45.527  35.803  28.369  1.00  0.00     0.091 A 
ATOM     83  F   UNL A   1      44.133  34.334  27.109  1.00  0.00    -0.205 F 
ATOM     84  C   UNL A   1      46.267  36.053  29.536  1.00  0.00     0.022 A 
BRANCH  82  85
ATOM     85  S   UNL A   1      45.510  37.085  27.111  1.00  0.00     0.127 S 
ATOM     86  O   UNL A   1      44.078  37.238  26.858  1.00  0.00    -0.237 OA
ATOM     87  O   UNL A   1      46.130  38.215  27.804  1.00  0.00    -0.237 OA
ATOM     88  O   UNL A   1      46.293  36.562  26.000  1.00  0.00    -0.744 OA
ENDBRANCH  82  85
ENDBRANCH  55  78
ENDBRANCH  29  30
ENDBRANCH  22  24
ENDBRANCH  21  22
ENDBRANCH  20  21
ENDBRANCH   1  20
TORSDOF 20
ENDMDL
