MODEL 1
REMARK VINA RESULT:     -10.8      0.000      0.000
REMARK SMILES O=C(CCN1C(=O)S/C(=C\c2ccccc2F)C1=O)Nc1ccc(C(=O)OCCOCCOC(=O)c2ccc(-c3c4nc(c(-c5cccc(S(=O)(=O)[O-])c5F)c5ccc([nH]5)c(-c5cccc(S(=O)(=O)[O-])c5F)c5nc(c(-c6cccc(S(=O)(=O)[O-])c6F)c6ccc3[nH]6)C=C5)C=C4)cc2)c(O)c1
REMARK SMILES IDX 29 1 28 2 27 3 25 4 26 5 24 6 21 7 22 8 101 9 23 10 99 11
REMARK SMILES IDX 20 12 1 13 2 14 3 16 4 17 5 18 6 19 18 20 7 21 8 22 9 23
REMARK SMILES IDX 19 24 10 25 11 26 12 27 16 28 13 29 15 30 17 31 14 32 100 33
REMARK SMILES IDX 30 35 31 36 32 37 33 38 34 39 35 40 36 41 37 42 98 43 38 44
REMARK SMILES IDX 97 45 39 46 40 47 41 48 91 49 42 50 96 51 90 52 92 53 43 54
REMARK SMILES IDX 95 55 89 56 88 57 44 59 76 60 56 61 75 62 57 63 60 64 74 65
REMARK SMILES IDX 93 66 58 67 59 68 73 70 94 71 61 72 45 73 46 74 54 75 47 76
REMARK SMILES IDX 49 77 55 78 48 79 50 80 51 81 52 82 53 83 77 84 78 85 86 86
REMARK SMILES IDX 79 87 81 88 87 89 80 90 82 91 83 92 84 93 85 94 62 95 63 96
REMARK SMILES IDX 71 97 64 98 66 99 72 100 65 101 67 102 68 103 69 104 70 105
REMARK H PARENT 20 15 100 34 92 58 60 69
REMARK Flexibility Score: inf
ROOT
ATOM      1  C   UNL A   1      41.258  21.622  27.368  1.00  0.00     0.202 C 
ENDROOT
BRANCH   1   2
ATOM      2  C   UNL A   1      40.514  21.856  26.047  1.00  0.00     0.261 C 
BRANCH   2   3
ATOM      3  O   UNL A   1      39.091  21.879  26.225  1.00  0.00    -0.460 OA
BRANCH   3   4
ATOM      4  C   UNL A   1      38.409  21.026  25.416  1.00  0.00     0.341 C 
ATOM      5  O   UNL A   1      38.745  19.899  25.089  1.00  0.00    -0.246 OA
BRANCH   4   6
ATOM      6  C   UNL A   1      37.078  21.589  25.106  1.00  0.00     0.101 A 
ATOM      7  C   UNL A   1      34.503  22.443  24.413  1.00  0.00     0.044 A 
ATOM      8  C   UNL A   1      34.691  21.148  24.877  1.00  0.00     0.027 A 
ATOM      9  C   UNL A   1      35.591  23.324  24.362  1.00  0.00     0.073 A 
ATOM     10  C   UNL A   1      35.981  20.713  25.191  1.00  0.00     0.022 A 
ATOM     11  C   UNL A   1      36.864  22.916  24.746  1.00  0.00     0.132 A 
BRANCH   7  12
ATOM     12  N   UNL A   1      33.284  22.916  23.908  1.00  0.00    -0.326 N 
ATOM     13  O   UNL A   1      32.156  23.602  25.812  1.00  0.00    -0.275 OA
ATOM     14  C   UNL A   1      32.206  23.414  24.601  1.00  0.00     0.226 C 
ATOM     15  H   UNL A   1      33.188  22.888  22.928  1.00  0.00     0.169 HD
BRANCH  14  16
ATOM     16  C   UNL A   1      30.997  23.680  23.712  1.00  0.00     0.122 C 
BRANCH  16  17
ATOM     17  C   UNL A   1      31.136  24.870  22.751  1.00  0.00     0.140 C 
BRANCH  17  18
ATOM     18  N   UNL A   1      31.817  26.025  23.333  1.00  0.00    -0.268 N 
ATOM     19  C   UNL A   1      33.035  26.449  22.860  1.00  0.00     0.293 C 
ATOM     20  C   UNL A   1      31.264  26.759  24.360  1.00  0.00     0.268 C 
ATOM     21  O   UNL A   1      33.657  25.974  21.926  1.00  0.00    -0.261 OA
ATOM     22  S   UNL A   1      33.634  27.770  23.843  1.00  0.00    -0.022 SA
ATOM     23  C   UNL A   1      32.255  27.745  24.868  1.00  0.00     0.083 C 
ATOM     24  O   UNL A   1      30.175  26.550  24.872  1.00  0.00    -0.268 OA
ATOM     25  C   UNL A   1      32.073  28.370  26.040  1.00  0.00     0.032 C 
BRANCH  25  26
ATOM     26  C   UNL A   1      33.022  29.277  26.691  1.00  0.00     0.012 A 
ATOM     27  C   UNL A   1      34.229  28.778  27.201  1.00  0.00     0.011 A 
ATOM     28  C   UNL A   1      32.724  30.632  26.866  1.00  0.00     0.130 A 
ATOM     29  C   UNL A   1      35.117  29.632  27.865  1.00  0.00     0.001 A 
ATOM     30  C   UNL A   1      33.605  31.483  27.525  1.00  0.00     0.040 A 
ATOM     31  F   UNL A   1      31.564  31.129  26.410  1.00  0.00    -0.206 F 
ATOM     32  C   UNL A   1      34.805  30.981  28.027  1.00  0.00     0.003 A 
ENDBRANCH  25  26
ENDBRANCH  17  18
ENDBRANCH  16  17
ENDBRANCH  14  16
ENDBRANCH   7  12
BRANCH  11  33
ATOM     33  O   UNL A   1      37.829  23.881  24.732  1.00  0.00    -0.507 OA
ATOM     34  H   UNL A   1      37.856  24.527  25.410  1.00  0.00     0.293 HD
ENDBRANCH  11  33
ENDBRANCH   4   6
ENDBRANCH   3   4
ENDBRANCH   2   3
ENDBRANCH   1   2
BRANCH   1  35
ATOM     35  O   UNL A   1      42.237  20.585  27.407  1.00  0.00    -0.374 OA
BRANCH  35  36
ATOM     36  C   UNL A   1      41.883  19.309  26.874  1.00  0.00     0.202 C 
BRANCH  36  37
ATOM     37  C   UNL A   1      42.724  18.732  25.728  1.00  0.00     0.261 C 
BRANCH  37  38
ATOM     38  O   UNL A   1      44.067  19.237  25.704  1.00  0.00    -0.460 OA
BRANCH  38  39
ATOM     39  C   UNL A   1      44.398  19.874  24.553  1.00  0.00     0.338 C 
ATOM     40  O   UNL A   1      44.216  19.477  23.414  1.00  0.00    -0.246 OA
BRANCH  39  41
ATOM     41  C   UNL A   1      44.855  21.244  24.845  1.00  0.00     0.060 A 
ATOM     42  C   UNL A   1      45.317  21.502  26.141  1.00  0.00     0.016 A 
ATOM     43  C   UNL A   1      44.760  22.273  23.906  1.00  0.00     0.016 A 
ATOM     44  C   UNL A   1      45.636  22.801  26.520  1.00  0.00     0.010 A 
ATOM     45  C   UNL A   1      45.079  23.580  24.291  1.00  0.00     0.010 A 
ATOM     46  C   UNL A   1      45.483  23.855  25.610  1.00  0.00    -0.014 A 
BRANCH  46  47
ATOM     47  C   UNL A   1      45.666  25.250  26.084  1.00  0.00     0.031 A 
ATOM     48  C   UNL A   1      47.044  25.851  26.120  1.00  0.00     0.074 A 
ATOM     49  C   UNL A   1      44.596  25.987  26.438  1.00  0.00     0.049 A 
ATOM     50  N   UNL A   1      47.404  27.062  26.456  1.00  0.00    -0.248 NA
ATOM     51  C   UNL A   1      48.163  24.981  25.725  1.00  0.00     0.031 C 
ATOM     52  C   UNL A   1      43.214  25.510  26.440  1.00  0.00     0.029 A 
ATOM     53  N   UNL A   1      44.506  27.286  26.870  1.00  0.00    -0.354 N 
ATOM     54  C   UNL A   1      48.787  27.096  26.336  1.00  0.00     0.074 A 
ATOM     55  C   UNL A   1      49.207  25.778  25.911  1.00  0.00     0.031 C 
ATOM     56  C   UNL A   1      42.412  26.502  26.859  1.00  0.00     0.029 A 
ATOM     57  C   UNL A   1      43.225  27.674  27.183  1.00  0.00     0.049 A 
ATOM     58  H   UNL A   1      45.285  27.883  26.947  1.00  0.00     0.167 HD
ATOM     59  C   UNL A   1      49.628  28.136  26.545  1.00  0.00     0.034 A 
ATOM     60  C   UNL A   1      42.758  28.835  27.686  1.00  0.00     0.034 A 
ATOM     61  C   UNL A   1      49.201  29.449  26.944  1.00  0.00     0.049 A 
ATOM     62  C   UNL A   1      43.716  29.971  27.926  1.00  0.00     0.074 A 
ATOM     63  C   UNL A   1      49.976  30.581  27.128  1.00  0.00     0.029 A 
ATOM     64  N   UNL A   1      47.894  29.808  27.232  1.00  0.00    -0.354 N 
ATOM     65  N   UNL A   1      45.008  30.016  27.706  1.00  0.00    -0.248 NA
ATOM     66  C   UNL A   1      43.155  31.224  28.450  1.00  0.00     0.031 C 
ATOM     67  C   UNL A   1      49.145  31.611  27.571  1.00  0.00     0.029 A 
ATOM     68  C   UNL A   1      47.843  31.138  27.611  1.00  0.00     0.049 A 
ATOM     69  H   UNL A   1      47.117  29.206  27.177  1.00  0.00     0.167 HD
ATOM     70  C   UNL A   1      45.407  31.310  28.025  1.00  0.00     0.074 A 
ATOM     71  C   UNL A   1      44.218  32.020  28.448  1.00  0.00     0.031 C 
ATOM     72  C   UNL A   1      46.647  31.854  27.977  1.00  0.00     0.034 A 
BRANCH  59  73
ATOM     73  C   UNL A   1      51.103  27.921  26.317  1.00  0.00     0.023 A 
ATOM     74  C   UNL A   1      51.926  27.531  27.393  1.00  0.00     0.012 A 
ATOM     75  C   UNL A   1      51.646  27.989  25.019  1.00  0.00     0.148 A 
ATOM     76  C   UNL A   1      53.270  27.227  27.182  1.00  0.00     0.002 A 
ATOM     77  C   UNL A   1      52.973  27.637  24.809  1.00  0.00     0.091 A 
ATOM     78  F   UNL A   1      50.849  28.380  24.014  1.00  0.00    -0.205 F 
ATOM     79  C   UNL A   1      53.790  27.266  25.890  1.00  0.00     0.022 A 
BRANCH  77  80
ATOM     80  S   UNL A   1      53.711  27.564  23.172  1.00  0.00     0.127 S 
ATOM     81  O   UNL A   1      55.044  27.042  23.473  1.00  0.00    -0.237 OA
ATOM     82  O   UNL A   1      52.829  26.624  22.481  1.00  0.00    -0.237 OA
ATOM     83  O   UNL A   1      53.680  28.924  22.654  1.00  0.00    -0.744 OA
ENDBRANCH  77  80
ENDBRANCH  59  73
BRANCH  60  84
ATOM     84  C   UNL A   1      41.299  28.984  27.945  1.00  0.00     0.023 A 
ATOM     85  C   UNL A   1      40.418  29.220  26.873  1.00  0.00     0.012 A 
ATOM     86  C   UNL A   1      40.774  28.826  29.244  1.00  0.00     0.148 A 
ATOM     87  C   UNL A   1      39.042  29.311  27.091  1.00  0.00     0.002 A 
ATOM     88  C   UNL A   1      39.399  28.855  29.444  1.00  0.00     0.091 A 
ATOM     89  F   UNL A   1      41.631  28.616  30.253  1.00  0.00    -0.205 F 
ATOM     90  C   UNL A   1      38.532  29.114  28.372  1.00  0.00     0.022 A 
BRANCH  88  91
ATOM     91  S   UNL A   1      38.647  28.461  31.027  1.00  0.00     0.127 S 
ATOM     92  O   UNL A   1      37.294  28.983  30.855  1.00  0.00    -0.237 OA
ATOM     93  O   UNL A   1      38.750  27.002  31.053  1.00  0.00    -0.237 OA
ATOM     94  O   UNL A   1      39.458  29.136  32.032  1.00  0.00    -0.744 OA
ENDBRANCH  88  91
ENDBRANCH  60  84
BRANCH  72  95
ATOM     95  C   UNL A   1      46.811  33.306  28.343  1.00  0.00     0.023 A 
ATOM     96  C   UNL A   1      46.966  33.681  29.692  1.00  0.00     0.012 A 
ATOM     97  C   UNL A   1      46.963  34.278  27.332  1.00  0.00     0.148 A 
ATOM     98  C   UNL A   1      47.258  35.002  30.029  1.00  0.00     0.002 A 
ATOM     99  C   UNL A   1      47.307  35.580  27.673  1.00  0.00     0.091 A 
ATOM    100  F   UNL A   1      46.798  33.900  26.055  1.00  0.00    -0.205 F 
ATOM    101  C   UNL A   1      47.445  35.946  29.020  1.00  0.00     0.022 A 
BRANCH  99 102
ATOM    102  S   UNL A   1      47.679  36.835  26.443  1.00  0.00     0.127 S 
ATOM    103  O   UNL A   1      46.394  36.967  25.755  1.00  0.00    -0.237 OA
ATOM    104  O   UNL A   1      48.046  37.981  27.273  1.00  0.00    -0.237 OA
ATOM    105  O   UNL A   1      48.762  36.300  25.630  1.00  0.00    -0.744 OA
ENDBRANCH  99 102
ENDBRANCH  72  95
ENDBRANCH  46  47
ENDBRANCH  39  41
ENDBRANCH  38  39
ENDBRANCH  37  38
ENDBRANCH  36  37
ENDBRANCH  35  36
ENDBRANCH   1  35
TORSDOF 23
ENDMDL
MODEL 2
REMARK VINA RESULT:     -10.6      5.576     12.279
REMARK SMILES O=C(CCN1C(=O)S/C(=C\c2ccccc2F)C1=O)Nc1ccc(C(=O)OCCOCCOC(=O)c2ccc(-c3c4nc(c(-c5cccc(S(=O)(=O)[O-])c5F)c5ccc([nH]5)c(-c5cccc(S(=O)(=O)[O-])c5F)c5nc(c(-c6cccc(S(=O)(=O)[O-])c6F)c6ccc3[nH]6)C=C5)C=C4)cc2)c(O)c1
REMARK SMILES IDX 29 1 28 2 27 3 25 4 26 5 24 6 21 7 22 8 101 9 23 10 99 11
REMARK SMILES IDX 20 12 1 13 2 14 3 16 4 17 5 18 6 19 18 20 7 21 8 22 9 23
REMARK SMILES IDX 19 24 10 25 11 26 12 27 16 28 13 29 15 30 17 31 14 32 100 33
REMARK SMILES IDX 30 35 31 36 32 37 33 38 34 39 35 40 36 41 37 42 98 43 38 44
REMARK SMILES IDX 97 45 39 46 40 47 41 48 91 49 42 50 96 51 90 52 92 53 43 54
REMARK SMILES IDX 95 55 89 56 88 57 44 59 76 60 56 61 75 62 57 63 60 64 74 65
REMARK SMILES IDX 93 66 58 67 59 68 73 70 94 71 61 72 45 73 46 74 54 75 47 76
REMARK SMILES IDX 49 77 55 78 48 79 50 80 51 81 52 82 53 83 77 84 78 85 86 86
REMARK SMILES IDX 79 87 81 88 87 89 80 90 82 91 83 92 84 93 85 94 62 95 63 96
REMARK SMILES IDX 71 97 64 98 66 99 72 100 65 101 67 102 68 103 69 104 70 105
REMARK H PARENT 20 15 100 34 92 58 60 69
REMARK Flexibility Score: inf
ROOT
ATOM      1  C   UNL A   1      33.219  35.725  29.718  1.00  0.00     0.202 C 
ENDROOT
BRANCH   1   2
ATOM      2  C   UNL A   1      32.609  35.895  31.115  1.00  0.00     0.261 C 
BRANCH   2   3
ATOM      3  O   UNL A   1      33.313  35.133  32.108  1.00  0.00    -0.460 OA
BRANCH   3   4
ATOM      4  C   UNL A   1      34.241  35.840  32.805  1.00  0.00     0.341 C 
ATOM      5  O   UNL A   1      34.171  37.010  33.143  1.00  0.00    -0.246 OA
BRANCH   4   6
ATOM      6  C   UNL A   1      35.312  34.933  33.269  1.00  0.00     0.101 A 
ATOM      7  C   UNL A   1      37.351  33.348  34.351  1.00  0.00     0.044 A 
ATOM      8  C   UNL A   1      36.319  33.785  35.171  1.00  0.00     0.027 A 
ATOM      9  C   UNL A   1      37.323  33.648  32.983  1.00  0.00     0.073 A 
ATOM     10  C   UNL A   1      35.319  34.603  34.636  1.00  0.00     0.022 A 
ATOM     11  C   UNL A   1      36.289  34.399  32.434  1.00  0.00     0.132 A 
BRANCH   7  12
ATOM     12  N   UNL A   1      38.484  32.675  34.826  1.00  0.00    -0.326 N 
ATOM     13  O   UNL A   1      39.924  34.399  35.394  1.00  0.00    -0.275 OA
ATOM     14  C   UNL A   1      39.674  33.205  35.267  1.00  0.00     0.226 C 
ATOM     15  H   UNL A   1      38.420  31.691  34.845  1.00  0.00     0.169 HD
BRANCH  14  16
ATOM     16  C   UNL A   1      40.730  32.144  35.556  1.00  0.00     0.122 C 
BRANCH  16  17
ATOM     17  C   UNL A   1      40.185  30.757  35.926  1.00  0.00     0.140 C 
BRANCH  17  18
ATOM     18  N   UNL A   1      40.854  29.655  35.236  1.00  0.00    -0.268 N 
ATOM     19  C   UNL A   1      40.495  29.287  33.962  1.00  0.00     0.293 C 
ATOM     20  C   UNL A   1      41.891  28.953  35.812  1.00  0.00     0.268 C 
ATOM     21  O   UNL A   1      39.649  29.818  33.264  1.00  0.00    -0.261 OA
ATOM     22  S   UNL A   1      41.396  27.867  33.471  1.00  0.00    -0.022 SA
ATOM     23  C   UNL A   1      42.243  27.784  34.963  1.00  0.00     0.083 C 
ATOM     24  O   UNL A   1      42.366  29.171  36.916  1.00  0.00    -0.268 OA
ATOM     25  C   UNL A   1      43.007  26.789  35.436  1.00  0.00     0.032 C 
BRANCH  25  26
ATOM     26  C   UNL A   1      43.333  25.543  34.736  1.00  0.00     0.012 A 
ATOM     27  C   UNL A   1      44.204  25.566  33.638  1.00  0.00     0.011 A 
ATOM     28  C   UNL A   1      42.748  24.329  35.108  1.00  0.00     0.130 A 
ATOM     29  C   UNL A   1      44.482  24.387  32.938  1.00  0.00     0.001 A 
ATOM     30  C   UNL A   1      43.023  23.155  34.415  1.00  0.00     0.040 A 
ATOM     31  F   UNL A   1      41.890  24.285  36.140  1.00  0.00    -0.206 F 
ATOM     32  C   UNL A   1      43.891  23.184  33.325  1.00  0.00     0.003 A 
ENDBRANCH  25  26
ENDBRANCH  17  18
ENDBRANCH  16  17
ENDBRANCH  14  16
ENDBRANCH   7  12
BRANCH  11  33
ATOM     33  O   UNL A   1      36.325  34.561  31.079  1.00  0.00    -0.507 OA
ATOM     34  H   UNL A   1      35.626  34.230  30.549  1.00  0.00     0.293 HD
ENDBRANCH  11  33
ENDBRANCH   4   6
ENDBRANCH   3   4
ENDBRANCH   2   3
ENDBRANCH   1   2
BRANCH   1  35
ATOM     35  O   UNL A   1      32.491  34.957  28.761  1.00  0.00    -0.374 OA
BRANCH  35  36
ATOM     36  C   UNL A   1      33.215  34.020  27.964  1.00  0.00     0.202 C 
BRANCH  36  37
ATOM     37  C   UNL A   1      34.079  32.968  28.670  1.00  0.00     0.261 C 
BRANCH  37  38
ATOM     38  O   UNL A   1      34.886  32.200  27.764  1.00  0.00    -0.460 OA
BRANCH  38  39
ATOM     39  C   UNL A   1      34.821  30.860  27.964  1.00  0.00     0.338 C 
ATOM     40  O   UNL A   1      33.851  30.138  27.801  1.00  0.00    -0.246 OA
BRANCH  39  41
ATOM     41  C   UNL A   1      36.165  30.322  28.235  1.00  0.00     0.060 A 
ATOM     42  C   UNL A   1      36.481  30.030  29.567  1.00  0.00     0.016 A 
ATOM     43  C   UNL A   1      37.123  30.180  27.228  1.00  0.00     0.016 A 
ATOM     44  C   UNL A   1      37.774  29.646  29.906  1.00  0.00     0.010 A 
ATOM     45  C   UNL A   1      38.423  29.796  27.574  1.00  0.00     0.010 A 
ATOM     46  C   UNL A   1      38.764  29.563  28.919  1.00  0.00    -0.014 A 
BRANCH  46  47
ATOM     47  C   UNL A   1      40.170  29.319  29.326  1.00  0.00     0.031 A 
ATOM     48  C   UNL A   1      40.927  30.383  30.072  1.00  0.00     0.074 A 
ATOM     49  C   UNL A   1      40.750  28.132  29.068  1.00  0.00     0.049 A 
ATOM     50  N   UNL A   1      42.142  30.344  30.553  1.00  0.00    -0.248 NA
ATOM     51  C   UNL A   1      40.228  31.657  30.311  1.00  0.00     0.031 C 
ATOM     52  C   UNL A   1      40.112  27.025  28.355  1.00  0.00     0.029 A 
ATOM     53  N   UNL A   1      42.004  27.663  29.368  1.00  0.00    -0.354 N 
ATOM     54  C   UNL A   1      42.363  31.588  31.131  1.00  0.00     0.074 A 
ATOM     55  C   UNL A   1      41.162  32.369  30.927  1.00  0.00     0.031 C 
ATOM     56  C   UNL A   1      40.982  26.006  28.268  1.00  0.00     0.029 A 
ATOM     57  C   UNL A   1      42.246  26.396  28.891  1.00  0.00     0.049 A 
ATOM     58  H   UNL A   1      42.666  28.183  29.878  1.00  0.00     0.167 HD
ATOM     59  C   UNL A   1      43.461  32.032  31.786  1.00  0.00     0.034 A 
ATOM     60  C   UNL A   1      43.362  25.640  28.937  1.00  0.00     0.034 A 
ATOM     61  C   UNL A   1      44.641  31.242  32.006  1.00  0.00     0.049 A 
ATOM     62  C   UNL A   1      44.576  26.163  29.657  1.00  0.00     0.074 A 
ATOM     63  C   UNL A   1      45.784  31.588  32.706  1.00  0.00     0.029 A 
ATOM     64  N   UNL A   1      44.841  29.958  31.524  1.00  0.00    -0.354 N 
ATOM     65  N   UNL A   1      44.729  27.302  30.288  1.00  0.00    -0.248 NA
ATOM     66  C   UNL A   1      45.758  25.290  29.701  1.00  0.00     0.031 C 
ATOM     67  C   UNL A   1      46.692  30.532  32.609  1.00  0.00     0.029 A 
ATOM     68  C   UNL A   1      46.095  29.505  31.895  1.00  0.00     0.049 A 
ATOM     69  H   UNL A   1      44.189  29.444  30.996  1.00  0.00     0.167 HD
ATOM     70  C   UNL A   1      46.007  27.267  30.838  1.00  0.00     0.074 A 
ATOM     71  C   UNL A   1      46.584  25.991  30.471  1.00  0.00     0.031 C 
ATOM     72  C   UNL A   1      46.641  28.211  31.574  1.00  0.00     0.034 A 
BRANCH  59  73
ATOM     73  C   UNL A   1      43.442  33.429  32.351  1.00  0.00     0.023 A 
ATOM     74  C   UNL A   1      43.130  33.630  33.710  1.00  0.00     0.012 A 
ATOM     75  C   UNL A   1      43.851  34.526  31.565  1.00  0.00     0.148 A 
ATOM     76  C   UNL A   1      43.210  34.902  34.276  1.00  0.00     0.002 A 
ATOM     77  C   UNL A   1      43.976  35.781  32.147  1.00  0.00     0.091 A 
ATOM     78  F   UNL A   1      44.127  34.315  30.270  1.00  0.00    -0.205 F 
ATOM     79  C   UNL A   1      43.646  35.973  33.499  1.00  0.00     0.022 A 
BRANCH  77  80
ATOM     80  S   UNL A   1      44.618  37.204  31.258  1.00  0.00     0.127 S 
ATOM     81  O   UNL A   1      45.931  36.718  30.835  1.00  0.00    -0.237 OA
ATOM     82  O   UNL A   1      43.645  37.353  30.176  1.00  0.00    -0.237 OA
ATOM     83  O   UNL A   1      44.641  38.302  32.214  1.00  0.00    -0.744 OA
ENDBRANCH  77  80
ENDBRANCH  59  73
BRANCH  60  84
ATOM     84  C   UNL A   1      43.351  24.285  28.318  1.00  0.00     0.023 A 
ATOM     85  C   UNL A   1      42.516  23.282  28.845  1.00  0.00     0.012 A 
ATOM     86  C   UNL A   1      44.117  24.007  27.168  1.00  0.00     0.148 A 
ATOM     87  C   UNL A   1      42.455  22.022  28.247  1.00  0.00     0.002 A 
ATOM     88  C   UNL A   1      44.004  22.772  26.541  1.00  0.00     0.091 A 
ATOM     89  F   UNL A   1      44.916  24.972  26.691  1.00  0.00    -0.205 F 
ATOM     90  C   UNL A   1      43.186  21.772  27.088  1.00  0.00     0.022 A 
BRANCH  88  91
ATOM     91  S   UNL A   1      44.788  22.416  24.965  1.00  0.00     0.127 S 
ATOM     92  O   UNL A   1      44.648  23.691  24.264  1.00  0.00    -0.237 OA
ATOM     93  O   UNL A   1      46.152  22.084  25.378  1.00  0.00    -0.237 OA
ATOM     94  O   UNL A   1      44.047  21.299  24.394  1.00  0.00    -0.744 OA
ENDBRANCH  88  91
ENDBRANCH  60  84
BRANCH  72  95
ATOM     95  C   UNL A   1      48.024  27.911  32.091  1.00  0.00     0.023 A 
ATOM     96  C   UNL A   1      49.154  28.243  31.317  1.00  0.00     0.012 A 
ATOM     97  C   UNL A   1      48.201  27.439  33.408  1.00  0.00     0.148 A 
ATOM     98  C   UNL A   1      50.438  28.100  31.843  1.00  0.00     0.002 A 
ATOM     99  C   UNL A   1      49.480  27.350  33.943  1.00  0.00     0.091 A 
ATOM    100  F   UNL A   1      47.112  27.117  34.121  1.00  0.00    -0.205 F 
ATOM    101  C   UNL A   1      50.599  27.670  33.160  1.00  0.00     0.022 A 
BRANCH  99 102
ATOM    102  S   UNL A   1      49.782  26.917  35.660  1.00  0.00     0.127 S 
ATOM    103  O   UNL A   1      48.880  27.831  36.361  1.00  0.00    -0.237 OA
ATOM    104  O   UNL A   1      49.377  25.512  35.699  1.00  0.00    -0.237 OA
ATOM    105  O   UNL A   1      51.201  27.148  35.895  1.00  0.00    -0.744 OA
ENDBRANCH  99 102
ENDBRANCH  72  95
ENDBRANCH  46  47
ENDBRANCH  39  41
ENDBRANCH  38  39
ENDBRANCH  37  38
ENDBRANCH  36  37
ENDBRANCH  35  36
ENDBRANCH   1  35
TORSDOF 23
ENDMDL
MODEL 3
REMARK VINA RESULT:     -10.3      5.331     12.182
REMARK SMILES O=C(CCN1C(=O)S/C(=C\c2ccccc2F)C1=O)Nc1ccc(C(=O)OCCOCCOC(=O)c2ccc(-c3c4nc(c(-c5cccc(S(=O)(=O)[O-])c5F)c5ccc([nH]5)c(-c5cccc(S(=O)(=O)[O-])c5F)c5nc(c(-c6cccc(S(=O)(=O)[O-])c6F)c6ccc3[nH]6)C=C5)C=C4)cc2)c(O)c1
REMARK SMILES IDX 29 1 28 2 27 3 25 4 26 5 24 6 21 7 22 8 101 9 23 10 99 11
REMARK SMILES IDX 20 12 1 13 2 14 3 16 4 17 5 18 6 19 18 20 7 21 8 22 9 23
REMARK SMILES IDX 19 24 10 25 11 26 12 27 16 28 13 29 15 30 17 31 14 32 100 33
REMARK SMILES IDX 30 35 31 36 32 37 33 38 34 39 35 40 36 41 37 42 98 43 38 44
REMARK SMILES IDX 97 45 39 46 40 47 41 48 91 49 42 50 96 51 90 52 92 53 43 54
REMARK SMILES IDX 95 55 89 56 88 57 44 59 76 60 56 61 75 62 57 63 60 64 74 65
REMARK SMILES IDX 93 66 58 67 59 68 73 70 94 71 61 72 45 73 46 74 54 75 47 76
REMARK SMILES IDX 49 77 55 78 48 79 50 80 51 81 52 82 53 83 77 84 78 85 86 86
REMARK SMILES IDX 79 87 81 88 87 89 80 90 82 91 83 92 84 93 85 94 62 95 63 96
REMARK SMILES IDX 71 97 64 98 66 99 72 100 65 101 67 102 68 103 69 104 70 105
REMARK H PARENT 20 15 100 34 92 58 60 69
REMARK Flexibility Score: inf
ROOT
ATOM      1  C   UNL A   1      33.870  35.192  30.255  1.00  0.00     0.202 C 
ENDROOT
BRANCH   1   2
ATOM      2  C   UNL A   1      33.681  35.162  31.777  1.00  0.00     0.261 C 
BRANCH   2   3
ATOM      3  O   UNL A   1      34.819  34.606  32.452  1.00  0.00    -0.460 OA
BRANCH   3   4
ATOM      4  C   UNL A   1      34.867  33.247  32.446  1.00  0.00     0.341 C 
ATOM      5  O   UNL A   1      34.028  32.485  31.995  1.00  0.00    -0.246 OA
BRANCH   4   6
ATOM      6  C   UNL A   1      36.192  32.794  32.919  1.00  0.00     0.101 A 
ATOM      7  C   UNL A   1      38.596  31.725  33.879  1.00  0.00     0.044 A 
ATOM      8  C   UNL A   1      37.728  30.914  33.160  1.00  0.00     0.027 A 
ATOM      9  C   UNL A   1      38.290  33.081  34.056  1.00  0.00     0.073 A 
ATOM     10  C   UNL A   1      36.513  31.441  32.710  1.00  0.00     0.022 A 
ATOM     11  C   UNL A   1      37.117  33.625  33.544  1.00  0.00     0.132 A 
BRANCH   7  12
ATOM     12  N   UNL A   1      39.748  31.250  34.520  1.00  0.00    -0.326 N 
ATOM     13  O   UNL A   1      38.906  30.172  36.390  1.00  0.00    -0.275 OA
ATOM     14  C   UNL A   1      39.847  30.563  35.707  1.00  0.00     0.226 C 
ATOM     15  H   UNL A   1      40.599  31.433  34.059  1.00  0.00     0.169 HD
BRANCH  14  16
ATOM     16  C   UNL A   1      41.288  30.355  36.158  1.00  0.00     0.122 C 
BRANCH  16  17
ATOM     17  C   UNL A   1      42.333  30.330  35.033  1.00  0.00     0.140 C 
BRANCH  17  18
ATOM     18  N   UNL A   1      42.767  28.986  34.658  1.00  0.00    -0.268 N 
ATOM     19  C   UNL A   1      42.034  28.216  33.787  1.00  0.00     0.293 C 
ATOM     20  C   UNL A   1      43.938  28.436  35.131  1.00  0.00     0.268 C 
ATOM     21  O   UNL A   1      41.009  28.542  33.216  1.00  0.00    -0.261 OA
ATOM     22  S   UNL A   1      42.755  26.625  33.641  1.00  0.00    -0.022 SA
ATOM     23  C   UNL A   1      44.023  27.006  34.735  1.00  0.00     0.083 C 
ATOM     24  O   UNL A   1      44.729  28.993  35.878  1.00  0.00    -0.268 OA
ATOM     25  C   UNL A   1      44.906  26.178  35.311  1.00  0.00     0.032 C 
BRANCH  25  26
ATOM     26  C   UNL A   1      45.014  24.734  35.082  1.00  0.00     0.012 A 
ATOM     27  C   UNL A   1      45.218  24.246  33.784  1.00  0.00     0.011 A 
ATOM     28  C   UNL A   1      44.860  23.822  36.130  1.00  0.00     0.130 A 
ATOM     29  C   UNL A   1      45.274  22.867  33.554  1.00  0.00     0.001 A 
ATOM     30  C   UNL A   1      44.917  22.451  35.905  1.00  0.00     0.040 A 
ATOM     31  F   UNL A   1      44.638  24.263  37.378  1.00  0.00    -0.206 F 
ATOM     32  C   UNL A   1      45.123  21.971  34.612  1.00  0.00     0.003 A 
ENDBRANCH  25  26
ENDBRANCH  17  18
ENDBRANCH  16  17
ENDBRANCH  14  16
ENDBRANCH   7  12
BRANCH  11  33
ATOM     33  O   UNL A   1      36.964  34.972  33.707  1.00  0.00    -0.507 OA
ATOM     34  H   UNL A   1      37.277  35.562  33.050  1.00  0.00     0.293 HD
ENDBRANCH  11  33
ENDBRANCH   4   6
ENDBRANCH   3   4
ENDBRANCH   2   3
ENDBRANCH   1   2
BRANCH   1  35
ATOM     35  O   UNL A   1      32.868  34.576  29.447  1.00  0.00    -0.374 OA
BRANCH  35  36
ATOM     36  C   UNL A   1      33.283  33.929  28.243  1.00  0.00     0.202 C 
BRANCH  36  37
ATOM     37  C   UNL A   1      34.387  32.867  28.322  1.00  0.00     0.261 C 
BRANCH  37  38
ATOM     38  O   UNL A   1      34.333  31.917  27.248  1.00  0.00    -0.460 OA
BRANCH  38  39
ATOM     39  C   UNL A   1      34.263  30.625  27.656  1.00  0.00     0.338 C 
ATOM     40  O   UNL A   1      33.278  29.904  27.649  1.00  0.00    -0.246 OA
BRANCH  39  41
ATOM     41  C   UNL A   1      35.613  30.111  27.946  1.00  0.00     0.060 A 
ATOM     42  C   UNL A   1      35.878  29.719  29.263  1.00  0.00     0.016 A 
ATOM     43  C   UNL A   1      36.620  30.085  26.979  1.00  0.00     0.016 A 
ATOM     44  C   UNL A   1      37.168  29.351  29.632  1.00  0.00     0.010 A 
ATOM     45  C   UNL A   1      37.916  29.717  27.355  1.00  0.00     0.010 A 
ATOM     46  C   UNL A   1      38.204  29.384  28.691  1.00  0.00    -0.014 A 
BRANCH  46  47
ATOM     47  C   UNL A   1      39.598  29.153  29.144  1.00  0.00     0.031 A 
ATOM     48  C   UNL A   1      40.325  30.230  29.901  1.00  0.00     0.074 A 
ATOM     49  C   UNL A   1      40.193  27.966  28.918  1.00  0.00     0.049 A 
ATOM     50  N   UNL A   1      41.524  30.204  30.420  1.00  0.00    -0.248 NA
ATOM     51  C   UNL A   1      39.611  31.502  30.103  1.00  0.00     0.031 C 
ATOM     52  C   UNL A   1      39.584  26.848  28.199  1.00  0.00     0.029 A 
ATOM     53  N   UNL A   1      41.439  27.509  29.262  1.00  0.00    -0.354 N 
ATOM     54  C   UNL A   1      41.720  31.456  30.989  1.00  0.00     0.074 A 
ATOM     55  C   UNL A   1      40.522  32.227  30.739  1.00  0.00     0.031 C 
ATOM     56  C   UNL A   1      40.462  25.833  28.150  1.00  0.00     0.029 A 
ATOM     57  C   UNL A   1      41.704  26.238  28.807  1.00  0.00     0.049 A 
ATOM     58  H   UNL A   1      42.082  28.039  29.786  1.00  0.00     0.167 HD
ATOM     59  C   UNL A   1      42.795  31.914  31.673  1.00  0.00     0.034 A 
ATOM     60  C   UNL A   1      42.822  25.490  28.897  1.00  0.00     0.034 A 
ATOM     61  C   UNL A   1      43.973  31.134  31.939  1.00  0.00     0.049 A 
ATOM     62  C   UNL A   1      44.010  26.028  29.647  1.00  0.00     0.074 A 
ATOM     63  C   UNL A   1      45.091  31.496  32.670  1.00  0.00     0.029 A 
ATOM     64  N   UNL A   1      44.195  29.846  31.478  1.00  0.00    -0.354 N 
ATOM     65  N   UNL A   1      44.137  27.175  30.270  1.00  0.00    -0.248 NA
ATOM     66  C   UNL A   1      45.195  25.164  29.739  1.00  0.00     0.031 C 
ATOM     67  C   UNL A   1      46.008  30.444  32.613  1.00  0.00     0.029 A 
ATOM     68  C   UNL A   1      45.439  29.405  31.893  1.00  0.00     0.049 A 
ATOM     69  H   UNL A   1      43.562  29.322  30.936  1.00  0.00     0.167 HD
ATOM     70  C   UNL A   1      45.397  27.154  30.860  1.00  0.00     0.074 A 
ATOM     71  C   UNL A   1      45.992  25.878  30.526  1.00  0.00     0.031 C 
ATOM     72  C   UNL A   1      46.003  28.110  31.604  1.00  0.00     0.034 A 
BRANCH  59  73
ATOM     73  C   UNL A   1      42.751  33.318  32.221  1.00  0.00     0.023 A 
ATOM     74  C   UNL A   1      42.216  33.551  33.504  1.00  0.00     0.012 A 
ATOM     75  C   UNL A   1      43.348  34.382  31.515  1.00  0.00     0.148 A 
ATOM     76  C   UNL A   1      42.262  34.825  34.069  1.00  0.00     0.002 A 
ATOM     77  C   UNL A   1      43.433  35.637  32.105  1.00  0.00     0.091 A 
ATOM     78  F   UNL A   1      43.834  34.141  30.289  1.00  0.00    -0.205 F 
ATOM     79  C   UNL A   1      42.883  35.863  33.377  1.00  0.00     0.022 A 
BRANCH  77  80
ATOM     80  S   UNL A   1      44.294  37.013  31.337  1.00  0.00     0.127 S 
ATOM     81  O   UNL A   1      43.973  38.109  32.253  1.00  0.00    -0.237 OA
ATOM     82  O   UNL A   1      45.687  36.568  31.384  1.00  0.00    -0.237 OA
ATOM     83  O   UNL A   1      43.739  37.142  29.998  1.00  0.00    -0.744 OA
ENDBRANCH  77  80
ENDBRANCH  59  73
BRANCH  60  84
ATOM     84  C   UNL A   1      42.838  24.127  28.294  1.00  0.00     0.023 A 
ATOM     85  C   UNL A   1      42.016  23.117  28.826  1.00  0.00     0.012 A 
ATOM     86  C   UNL A   1      43.617  23.849  27.153  1.00  0.00     0.148 A 
ATOM     87  C   UNL A   1      41.980  21.849  28.242  1.00  0.00     0.002 A 
ATOM     88  C   UNL A   1      43.529  22.605  26.539  1.00  0.00     0.091 A 
ATOM     89  F   UNL A   1      44.404  24.822  26.670  1.00  0.00    -0.205 F 
ATOM     90  C   UNL A   1      42.724  21.598  27.092  1.00  0.00     0.022 A 
BRANCH  88  91
ATOM     91  S   UNL A   1      44.332  22.244  24.973  1.00  0.00     0.127 S 
ATOM     92  O   UNL A   1      45.743  22.245  25.351  1.00  0.00    -0.237 OA
ATOM     93  O   UNL A   1      43.778  20.928  24.650  1.00  0.00    -0.237 OA
ATOM     94  O   UNL A   1      43.924  23.305  24.062  1.00  0.00    -0.744 OA
ENDBRANCH  88  91
ENDBRANCH  60  84
BRANCH  72  95
ATOM     95  C   UNL A   1      47.371  27.825  32.167  1.00  0.00     0.023 A 
ATOM     96  C   UNL A   1      47.502  27.246  33.444  1.00  0.00     0.012 A 
ATOM     97  C   UNL A   1      48.517  27.993  31.362  1.00  0.00     0.148 A 
ATOM     98  C   UNL A   1      48.753  26.849  33.916  1.00  0.00     0.002 A 
ATOM     99  C   UNL A   1      49.751  27.546  31.816  1.00  0.00     0.091 A 
ATOM    100  F   UNL A   1      48.369  28.558  30.154  1.00  0.00    -0.205 F 
ATOM    101  C   UNL A   1      49.873  26.984  33.096  1.00  0.00     0.022 A 
BRANCH  99 102
ATOM    102  S   UNL A   1      51.226  27.573  30.791  1.00  0.00     0.127 S 
ATOM    103  O   UNL A   1      50.857  28.548  29.765  1.00  0.00    -0.237 OA
ATOM    104  O   UNL A   1      52.247  28.034  31.732  1.00  0.00    -0.237 OA
ATOM    105  O   UNL A   1      51.412  26.211  30.312  1.00  0.00    -0.744 OA
ENDBRANCH  99 102
ENDBRANCH  72  95
ENDBRANCH  46  47
ENDBRANCH  39  41
ENDBRANCH  38  39
ENDBRANCH  37  38
ENDBRANCH  36  37
ENDBRANCH  35  36
ENDBRANCH   1  35
TORSDOF 23
ENDMDL
