MODEL 1
REMARK VINA RESULT:     -10.0      0.000      0.000
REMARK SMILES Nc1oc(-c2ccccc2)cc1C(=O)OCCOCCOC(=O)c1ccc(-c2c3nc(c(-c4cccc(S(=O)(=O)[O-])c4F)c4ccc([nH]4)c(-c4cccc(S(=O)(=O)[O-])c4F)c4nc(c(-c5cccc(S(=O)(=O)[O-])c5F)c5ccc2[nH]5)C=C4)C=C3)cc1
REMARK SMILES IDX 19 1 18 2 17 3 16 4 15 5 13 6 14 7 12 8 2 9 3 10 4 11 11 12
REMARK SMILES IDX 1 13 5 16 6 17 10 18 7 19 9 20 8 21 20 22 21 23 22 24 23 25
REMARK SMILES IDX 24 26 25 27 86 28 26 29 85 30 27 31 28 32 29 33 79 34 30 35
REMARK SMILES IDX 84 36 78 37 80 38 31 39 83 40 77 41 76 42 32 44 64 45 44 46
REMARK SMILES IDX 63 47 45 48 48 49 62 50 81 51 46 52 47 53 61 55 82 56 49 57
REMARK SMILES IDX 33 58 34 59 42 60 35 61 37 62 43 63 36 64 38 65 39 66 40 67
REMARK SMILES IDX 41 68 65 69 66 70 74 71 67 72 69 73 75 74 68 75 70 76 71 77
REMARK SMILES IDX 72 78 73 79 50 80 51 81 59 82 52 83 54 84 60 85 53 86 55 87
REMARK SMILES IDX 56 88 57 89 58 90
REMARK H PARENT 1 14 1 15 80 43 48 54
REMARK Flexibility Score: inf
ROOT
ATOM      1  C   UNL A   1      33.354  33.942  27.928  1.00  0.00     0.202 C 
ENDROOT
BRANCH   1   2
ATOM      2  O   UNL A   1      34.432  34.798  28.300  1.00  0.00    -0.374 OA
BRANCH   2   3
ATOM      3  C   UNL A   1      34.341  36.212  28.124  1.00  0.00     0.202 C 
BRANCH   3   4
ATOM      4  C   UNL A   1      33.215  36.977  28.824  1.00  0.00     0.261 C 
BRANCH   4   5
ATOM      5  O   UNL A   1      33.503  37.250  30.201  1.00  0.00    -0.459 OA
BRANCH   5   6
ATOM      6  C   UNL A   1      32.852  36.445  31.089  1.00  0.00     0.343 C 
ATOM      7  O   UNL A   1      31.637  36.306  31.139  1.00  0.00    -0.246 OA
BRANCH   6   8
ATOM      8  C   UNL A   1      33.767  35.660  31.884  1.00  0.00     0.123 A 
ATOM      9  C   UNL A   1      34.088  35.925  33.199  1.00  0.00     0.205 A 
ATOM     10  O   UNL A   1      35.030  35.059  33.648  1.00  0.00    -0.440 OA
ATOM     11  C   UNL A   1      35.325  34.226  32.610  1.00  0.00     0.137 A 
ATOM     12  C   UNL A   1      34.497  34.492  31.539  1.00  0.00     0.069 A 
BRANCH   9  13
ATOM     13  N   UNL A   1      33.660  36.834  34.080  1.00  0.00    -0.369 N 
ATOM     14  H   UNL A   1      33.777  36.679  35.045  1.00  0.00     0.159 HD
ATOM     15  H   UNL A   1      33.227  37.660  33.763  1.00  0.00     0.159 HD
ENDBRANCH   9  13
BRANCH  11  16
ATOM     16  C   UNL A   1      36.480  33.365  32.782  1.00  0.00     0.017 A 
ATOM     17  C   UNL A   1      37.787  33.832  32.617  1.00  0.00     0.012 A 
ATOM     18  C   UNL A   1      36.271  32.013  33.090  1.00  0.00     0.012 A 
ATOM     19  C   UNL A   1      38.867  32.957  32.768  1.00  0.00     0.001 A 
ATOM     20  C   UNL A   1      37.347  31.138  33.228  1.00  0.00     0.001 A 
ATOM     21  C   UNL A   1      38.646  31.611  33.069  1.00  0.00     0.000 A 
ENDBRANCH  11  16
ENDBRANCH   6   8
ENDBRANCH   5   6
ENDBRANCH   4   5
ENDBRANCH   3   4
ENDBRANCH   2   3
ENDBRANCH   1   2
BRANCH   1  22
ATOM     22  C   UNL A   1      33.494  32.436  28.086  1.00  0.00     0.261 C 
BRANCH  22  23
ATOM     23  O   UNL A   1      34.588  32.106  28.916  1.00  0.00    -0.460 OA
BRANCH  23  24
ATOM     24  C   UNL A   1      35.409  31.171  28.379  1.00  0.00     0.338 C 
ATOM     25  O   UNL A   1      35.275  30.593  27.320  1.00  0.00    -0.246 OA
BRANCH  24  26
ATOM     26  C   UNL A   1      36.452  30.868  29.363  1.00  0.00     0.060 A 
ATOM     27  C   UNL A   1      37.565  31.707  29.305  1.00  0.00     0.016 A 
ATOM     28  C   UNL A   1      36.496  29.580  29.915  1.00  0.00     0.016 A 
ATOM     29  C   UNL A   1      38.795  31.129  29.476  1.00  0.00     0.010 A 
ATOM     30  C   UNL A   1      37.724  28.996  30.049  1.00  0.00     0.010 A 
ATOM     31  C   UNL A   1      38.843  29.754  29.717  1.00  0.00    -0.014 A 
BRANCH  31  32
ATOM     32  C   UNL A   1      40.131  29.112  29.705  1.00  0.00     0.031 A 
ATOM     33  C   UNL A   1      40.672  29.000  31.070  1.00  0.00     0.074 A 
ATOM     34  C   UNL A   1      40.660  28.610  28.576  1.00  0.00     0.049 A 
ATOM     35  N   UNL A   1      41.567  29.754  31.618  1.00  0.00    -0.248 NA
ATOM     36  C   UNL A   1      39.923  28.163  32.021  1.00  0.00     0.031 C 
ATOM     37  C   UNL A   1      40.019  28.444  27.267  1.00  0.00     0.029 A 
ATOM     38  N   UNL A   1      41.858  27.998  28.407  1.00  0.00    -0.354 N 
ATOM     39  C   UNL A   1      41.672  29.269  32.917  1.00  0.00     0.074 A 
ATOM     40  C   UNL A   1      40.444  28.576  33.175  1.00  0.00     0.031 C 
ATOM     41  C   UNL A   1      40.730  27.550  26.541  1.00  0.00     0.029 A 
ATOM     42  C   UNL A   1      41.922  27.182  27.286  1.00  0.00     0.049 A 
ATOM     43  H   UNL A   1      42.614  28.122  29.024  1.00  0.00     0.167 HD
ATOM     44  C   UNL A   1      42.891  29.142  33.510  1.00  0.00     0.034 A 
ATOM     45  C   UNL A   1      42.836  26.202  27.066  1.00  0.00     0.034 A 
ATOM     46  C   UNL A   1      43.887  29.891  32.778  1.00  0.00     0.049 A 
ATOM     47  C   UNL A   1      43.976  26.450  27.984  1.00  0.00     0.074 A 
ATOM     48  C   UNL A   1      44.067  31.215  32.436  1.00  0.00     0.029 A 
ATOM     49  N   UNL A   1      44.688  29.157  31.933  1.00  0.00    -0.354 N 
ATOM     50  N   UNL A   1      44.760  27.487  27.885  1.00  0.00    -0.248 NA
ATOM     51  C   UNL A   1      43.949  25.811  29.292  1.00  0.00     0.031 C 
ATOM     52  C   UNL A   1      44.649  31.187  31.135  1.00  0.00     0.029 A 
ATOM     53  C   UNL A   1      44.856  29.855  30.770  1.00  0.00     0.049 A 
ATOM     54  H   UNL A   1      45.076  28.276  32.133  1.00  0.00     0.167 HD
ATOM     55  C   UNL A   1      44.943  27.906  29.198  1.00  0.00     0.074 A 
ATOM     56  C   UNL A   1      44.524  26.773  30.022  1.00  0.00     0.031 C 
ATOM     57  C   UNL A   1      45.112  29.231  29.489  1.00  0.00     0.034 A 
BRANCH  44  58
ATOM     58  C   UNL A   1      43.296  27.998  34.427  1.00  0.00     0.023 A 
ATOM     59  C   UNL A   1      43.819  28.372  35.685  1.00  0.00     0.012 A 
ATOM     60  C   UNL A   1      43.478  26.646  34.047  1.00  0.00     0.148 A 
ATOM     61  C   UNL A   1      44.582  27.493  36.459  1.00  0.00     0.002 A 
ATOM     62  C   UNL A   1      44.192  25.758  34.843  1.00  0.00     0.091 A 
ATOM     63  F   UNL A   1      43.058  26.201  32.865  1.00  0.00    -0.205 F 
ATOM     64  C   UNL A   1      44.778  26.187  36.032  1.00  0.00     0.022 A 
BRANCH  62  65
ATOM     65  S   UNL A   1      44.458  24.048  34.343  1.00  0.00     0.127 S 
ATOM     66  O   UNL A   1      45.268  23.547  35.450  1.00  0.00    -0.237 OA
ATOM     67  O   UNL A   1      43.088  23.540  34.292  1.00  0.00    -0.237 OA
ATOM     68  O   UNL A   1      45.124  24.106  33.048  1.00  0.00    -0.744 OA
ENDBRANCH  62  65
ENDBRANCH  44  58
BRANCH  45  69
ATOM     69  C   UNL A   1      42.662  24.911  26.360  1.00  0.00     0.023 A 
ATOM     70  C   UNL A   1      43.603  24.496  25.397  1.00  0.00     0.012 A 
ATOM     71  C   UNL A   1      41.716  23.965  26.814  1.00  0.00     0.148 A 
ATOM     72  C   UNL A   1      43.605  23.181  24.910  1.00  0.00     0.002 A 
ATOM     73  C   UNL A   1      41.714  22.663  26.321  1.00  0.00     0.091 A 
ATOM     74  F   UNL A   1      40.875  24.318  27.796  1.00  0.00    -0.205 F 
ATOM     75  C   UNL A   1      42.666  22.265  25.375  1.00  0.00     0.022 A 
BRANCH  73  76
ATOM     76  S   UNL A   1      40.543  21.423  26.889  1.00  0.00     0.127 S 
ATOM     77  O   UNL A   1      40.780  21.427  28.333  1.00  0.00    -0.237 OA
ATOM     78  O   UNL A   1      39.266  22.002  26.478  1.00  0.00    -0.237 OA
ATOM     79  O   UNL A   1      40.915  20.182  26.222  1.00  0.00    -0.744 OA
ENDBRANCH  73  76
ENDBRANCH  45  69
BRANCH  57  80
ATOM     80  C   UNL A   1      45.368  30.174  28.342  1.00  0.00     0.023 A 
ATOM     81  C   UNL A   1      44.326  30.817  27.639  1.00  0.00     0.012 A 
ATOM     82  C   UNL A   1      46.693  30.569  28.109  1.00  0.00     0.148 A 
ATOM     83  C   UNL A   1      44.608  31.826  26.714  1.00  0.00     0.002 A 
ATOM     84  C   UNL A   1      46.965  31.606  27.229  1.00  0.00     0.091 A 
ATOM     85  F   UNL A   1      47.666  29.946  28.793  1.00  0.00    -0.205 F 
ATOM     86  C   UNL A   1      45.927  32.232  26.522  1.00  0.00     0.022 A 
BRANCH  84  87
ATOM     87  S   UNL A   1      48.623  32.265  27.049  1.00  0.00     0.127 S 
ATOM     88  O   UNL A   1      48.965  32.609  28.427  1.00  0.00    -0.237 OA
ATOM     89  O   UNL A   1      49.356  31.122  26.502  1.00  0.00    -0.237 OA
ATOM     90  O   UNL A   1      48.510  33.393  26.131  1.00  0.00    -0.744 OA
ENDBRANCH  84  87
ENDBRANCH  57  80
ENDBRANCH  31  32
ENDBRANCH  24  26
ENDBRANCH  23  24
ENDBRANCH  22  23
ENDBRANCH   1  22
TORSDOF 19
ENDMDL
MODEL 2
REMARK VINA RESULT:      -9.7      4.844      9.886
REMARK SMILES Nc1oc(-c2ccccc2)cc1C(=O)OCCOCCOC(=O)c1ccc(-c2c3nc(c(-c4cccc(S(=O)(=O)[O-])c4F)c4ccc([nH]4)c(-c4cccc(S(=O)(=O)[O-])c4F)c4nc(c(-c5cccc(S(=O)(=O)[O-])c5F)c5ccc2[nH]5)C=C4)C=C3)cc1
REMARK SMILES IDX 19 1 18 2 17 3 16 4 15 5 13 6 14 7 12 8 2 9 3 10 4 11 11 12
REMARK SMILES IDX 1 13 5 16 6 17 10 18 7 19 9 20 8 21 20 22 21 23 22 24 23 25
REMARK SMILES IDX 24 26 25 27 86 28 26 29 85 30 27 31 28 32 29 33 79 34 30 35
REMARK SMILES IDX 84 36 78 37 80 38 31 39 83 40 77 41 76 42 32 44 64 45 44 46
REMARK SMILES IDX 63 47 45 48 48 49 62 50 81 51 46 52 47 53 61 55 82 56 49 57
REMARK SMILES IDX 33 58 34 59 42 60 35 61 37 62 43 63 36 64 38 65 39 66 40 67
REMARK SMILES IDX 41 68 65 69 66 70 74 71 67 72 69 73 75 74 68 75 70 76 71 77
REMARK SMILES IDX 72 78 73 79 50 80 51 81 59 82 52 83 54 84 60 85 53 86 55 87
REMARK SMILES IDX 56 88 57 89 58 90
REMARK H PARENT 1 14 1 15 80 43 48 54
REMARK Flexibility Score: inf
ROOT
ATOM      1  C   UNL A   1      32.148  29.862  26.534  1.00  0.00     0.202 C 
ENDROOT
BRANCH   1   2
ATOM      2  O   UNL A   1      32.157  29.428  25.176  1.00  0.00    -0.374 OA
BRANCH   2   3
ATOM      3  C   UNL A   1      30.991  28.858  24.579  1.00  0.00     0.202 C 
BRANCH   3   4
ATOM      4  C   UNL A   1      30.812  27.339  24.600  1.00  0.00     0.261 C 
BRANCH   4   5
ATOM      5  O   UNL A   1      31.332  26.736  25.791  1.00  0.00    -0.459 OA
BRANCH   5   6
ATOM      6  C   UNL A   1      30.792  25.520  26.097  1.00  0.00     0.343 C 
ATOM      7  O   UNL A   1      29.639  25.349  26.471  1.00  0.00    -0.246 OA
BRANCH   6   8
ATOM      8  C   UNL A   1      31.694  24.434  25.799  1.00  0.00     0.123 A 
ATOM      9  C   UNL A   1      31.375  23.097  25.919  1.00  0.00     0.205 A 
ATOM     10  O   UNL A   1      32.451  22.319  25.640  1.00  0.00    -0.440 OA
ATOM     11  C   UNL A   1      33.479  23.164  25.340  1.00  0.00     0.137 A 
ATOM     12  C   UNL A   1      33.031  24.469  25.323  1.00  0.00     0.069 A 
BRANCH   9  13
ATOM     13  N   UNL A   1      30.252  22.449  26.240  1.00  0.00    -0.369 N 
ATOM     14  H   UNL A   1      29.552  22.307  25.561  1.00  0.00     0.159 HD
ATOM     15  H   UNL A   1      30.122  22.112  27.156  1.00  0.00     0.159 HD
ENDBRANCH   9  13
BRANCH  11  16
ATOM     16  C   UNL A   1      34.797  22.565  25.240  1.00  0.00     0.017 A 
ATOM     17  C   UNL A   1      35.963  23.335  25.192  1.00  0.00     0.012 A 
ATOM     18  C   UNL A   1      34.896  21.169  25.156  1.00  0.00     0.012 A 
ATOM     19  C   UNL A   1      37.209  22.712  25.070  1.00  0.00     0.001 A 
ATOM     20  C   UNL A   1      36.137  20.549  25.020  1.00  0.00     0.001 A 
ATOM     21  C   UNL A   1      37.294  21.321  24.979  1.00  0.00     0.000 A 
ENDBRANCH  11  16
ENDBRANCH   6   8
ENDBRANCH   5   6
ENDBRANCH   4   5
ENDBRANCH   3   4
ENDBRANCH   2   3
ENDBRANCH   1   2
BRANCH   1  22
ATOM     22  C   UNL A   1      31.943  31.334  26.857  1.00  0.00     0.261 C 
BRANCH  22  23
ATOM     23  O   UNL A   1      33.126  31.919  27.359  1.00  0.00    -0.460 OA
BRANCH  23  24
ATOM     24  C   UNL A   1      32.939  33.161  27.868  1.00  0.00     0.338 C 
ATOM     25  O   UNL A   1      32.052  33.944  27.595  1.00  0.00    -0.246 OA
BRANCH  24  26
ATOM     26  C   UNL A   1      34.078  33.469  28.737  1.00  0.00     0.060 A 
ATOM     27  C   UNL A   1      35.098  34.193  28.121  1.00  0.00     0.016 A 
ATOM     28  C   UNL A   1      34.286  32.674  29.873  1.00  0.00     0.016 A 
ATOM     29  C   UNL A   1      36.387  33.845  28.427  1.00  0.00     0.010 A 
ATOM     30  C   UNL A   1      35.571  32.301  30.152  1.00  0.00     0.010 A 
ATOM     31  C   UNL A   1      36.585  32.812  29.346  1.00  0.00    -0.014 A 
BRANCH  31  32
ATOM     32  C   UNL A   1      37.923  32.314  29.524  1.00  0.00     0.031 A 
ATOM     33  C   UNL A   1      38.011  30.900  29.122  1.00  0.00     0.074 A 
ATOM     34  C   UNL A   1      38.931  33.116  29.908  1.00  0.00     0.049 A 
ATOM     35  N   UNL A   1      38.017  29.867  29.899  1.00  0.00    -0.248 NA
ATOM     36  C   UNL A   1      37.757  30.589  27.706  1.00  0.00     0.031 C 
ATOM     37  C   UNL A   1      38.934  34.578  30.028  1.00  0.00     0.029 A 
ATOM     38  N   UNL A   1      40.227  32.789  30.132  1.00  0.00    -0.354 N 
ATOM     39  C   UNL A   1      38.052  28.785  29.027  1.00  0.00     0.074 A 
ATOM     40  C   UNL A   1      37.550  29.275  27.777  1.00  0.00     0.031 C 
ATOM     41  C   UNL A   1      40.216  35.014  30.037  1.00  0.00     0.029 A 
ATOM     42  C   UNL A   1      41.104  33.863  30.043  1.00  0.00     0.049 A 
ATOM     43  H   UNL A   1      40.521  31.873  30.339  1.00  0.00     0.167 HD
ATOM     44  C   UNL A   1      38.845  27.710  29.292  1.00  0.00     0.034 A 
ATOM     45  C   UNL A   1      42.448  33.781  29.871  1.00  0.00     0.034 A 
ATOM     46  C   UNL A   1      39.274  27.729  30.672  1.00  0.00     0.049 A 
ATOM     47  C   UNL A   1      42.854  32.400  30.234  1.00  0.00     0.074 A 
ATOM     48  C   UNL A   1      38.642  27.707  31.899  1.00  0.00     0.029 A 
ATOM     49  N   UNL A   1      40.548  28.196  30.897  1.00  0.00    -0.354 N 
ATOM     50  N   UNL A   1      42.774  31.928  31.446  1.00  0.00    -0.248 NA
ATOM     51  C   UNL A   1      42.891  31.400  29.176  1.00  0.00     0.031 C 
ATOM     52  C   UNL A   1      39.430  28.550  32.737  1.00  0.00     0.029 A 
ATOM     53  C   UNL A   1      40.535  28.994  32.008  1.00  0.00     0.049 A 
ATOM     54  H   UNL A   1      41.339  27.990  30.350  1.00  0.00     0.167 HD
ATOM     55  C   UNL A   1      42.278  30.639  31.282  1.00  0.00     0.074 A 
ATOM     56  C   UNL A   1      42.485  30.330  29.867  1.00  0.00     0.031 C 
ATOM     57  C   UNL A   1      41.468  30.078  32.228  1.00  0.00     0.034 A 
BRANCH  44  58
ATOM     58  C   UNL A   1      39.623  26.926  28.246  1.00  0.00     0.023 A 
ATOM     59  C   UNL A   1      39.541  25.518  28.346  1.00  0.00     0.012 A 
ATOM     60  C   UNL A   1      40.631  27.438  27.394  1.00  0.00     0.148 A 
ATOM     61  C   UNL A   1      40.478  24.680  27.736  1.00  0.00     0.002 A 
ATOM     62  C   UNL A   1      41.530  26.600  26.746  1.00  0.00     0.091 A 
ATOM     63  F   UNL A   1      40.817  28.750  27.261  1.00  0.00    -0.205 F 
ATOM     64  C   UNL A   1      41.482  25.221  26.944  1.00  0.00     0.022 A 
BRANCH  62  65
ATOM     65  S   UNL A   1      42.836  27.252  25.692  1.00  0.00     0.127 S 
ATOM     66  O   UNL A   1      43.669  27.954  26.665  1.00  0.00    -0.237 OA
ATOM     67  O   UNL A   1      43.414  26.025  25.146  1.00  0.00    -0.237 OA
ATOM     68  O   UNL A   1      42.174  28.093  24.703  1.00  0.00    -0.744 OA
ENDBRANCH  62  65
ENDBRANCH  44  58
BRANCH  45  69
ATOM     69  C   UNL A   1      43.346  34.695  29.127  1.00  0.00     0.023 A 
ATOM     70  C   UNL A   1      43.586  34.493  27.753  1.00  0.00     0.012 A 
ATOM     71  C   UNL A   1      43.766  35.916  29.701  1.00  0.00     0.148 A 
ATOM     72  C   UNL A   1      44.213  35.478  26.978  1.00  0.00     0.002 A 
ATOM     73  C   UNL A   1      44.399  36.887  28.931  1.00  0.00     0.091 A 
ATOM     74  F   UNL A   1      43.464  36.160  30.984  1.00  0.00    -0.205 F 
ATOM     75  C   UNL A   1      44.615  36.675  27.564  1.00  0.00     0.022 A 
BRANCH  73  76
ATOM     76  S   UNL A   1      44.926  38.463  29.618  1.00  0.00     0.127 S 
ATOM     77  O   UNL A   1      43.645  39.127  29.861  1.00  0.00    -0.237 OA
ATOM     78  O   UNL A   1      45.638  38.045  30.823  1.00  0.00    -0.237 OA
ATOM     79  O   UNL A   1      45.746  39.095  28.592  1.00  0.00    -0.744 OA
ENDBRANCH  73  76
ENDBRANCH  45  69
BRANCH  57  80
ATOM     80  C   UNL A   1      41.354  30.777  33.558  1.00  0.00     0.023 A 
ATOM     81  C   UNL A   1      42.320  30.635  34.577  1.00  0.00     0.012 A 
ATOM     82  C   UNL A   1      40.355  31.752  33.696  1.00  0.00     0.148 A 
ATOM     83  C   UNL A   1      42.278  31.445  35.716  1.00  0.00     0.002 A 
ATOM     84  C   UNL A   1      40.348  32.589  34.802  1.00  0.00     0.091 A 
ATOM     85  F   UNL A   1      39.450  31.872  32.712  1.00  0.00    -0.205 F 
ATOM     86  C   UNL A   1      41.302  32.434  35.820  1.00  0.00     0.022 A 
BRANCH  84  87
ATOM     87  S   UNL A   1      39.207  33.967  34.922  1.00  0.00     0.127 S 
ATOM     88  O   UNL A   1      37.918  33.287  35.024  1.00  0.00    -0.237 OA
ATOM     89  O   UNL A   1      39.649  34.633  36.149  1.00  0.00    -0.237 OA
ATOM     90  O   UNL A   1      39.404  34.759  33.712  1.00  0.00    -0.744 OA
ENDBRANCH  84  87
ENDBRANCH  57  80
ENDBRANCH  31  32
ENDBRANCH  24  26
ENDBRANCH  23  24
ENDBRANCH  22  23
ENDBRANCH   1  22
TORSDOF 19
ENDMDL
MODEL 3
REMARK VINA RESULT:      -9.6      3.751     11.482
REMARK SMILES Nc1oc(-c2ccccc2)cc1C(=O)OCCOCCOC(=O)c1ccc(-c2c3nc(c(-c4cccc(S(=O)(=O)[O-])c4F)c4ccc([nH]4)c(-c4cccc(S(=O)(=O)[O-])c4F)c4nc(c(-c5cccc(S(=O)(=O)[O-])c5F)c5ccc2[nH]5)C=C4)C=C3)cc1
REMARK SMILES IDX 19 1 18 2 17 3 16 4 15 5 13 6 14 7 12 8 2 9 3 10 4 11 11 12
REMARK SMILES IDX 1 13 5 16 6 17 10 18 7 19 9 20 8 21 20 22 21 23 22 24 23 25
REMARK SMILES IDX 24 26 25 27 86 28 26 29 85 30 27 31 28 32 29 33 79 34 30 35
REMARK SMILES IDX 84 36 78 37 80 38 31 39 83 40 77 41 76 42 32 44 64 45 44 46
REMARK SMILES IDX 63 47 45 48 48 49 62 50 81 51 46 52 47 53 61 55 82 56 49 57
REMARK SMILES IDX 33 58 34 59 42 60 35 61 37 62 43 63 36 64 38 65 39 66 40 67
REMARK SMILES IDX 41 68 65 69 66 70 74 71 67 72 69 73 75 74 68 75 70 76 71 77
REMARK SMILES IDX 72 78 73 79 50 80 51 81 59 82 52 83 54 84 60 85 53 86 55 87
REMARK SMILES IDX 56 88 57 89 58 90
REMARK H PARENT 1 14 1 15 80 43 48 54
REMARK Flexibility Score: inf
ROOT
ATOM      1  C   UNL A   1      44.242  21.405  25.218  1.00  0.00     0.202 C 
ENDROOT
BRANCH   1   2
ATOM      2  O   UNL A   1      43.928  20.154  24.609  1.00  0.00    -0.374 OA
BRANCH   2   3
ATOM      3  C   UNL A   1      44.054  18.932  25.336  1.00  0.00     0.202 C 
BRANCH   3   4
ATOM      4  C   UNL A   1      42.805  18.304  25.958  1.00  0.00     0.261 C 
BRANCH   4   5
ATOM      5  O   UNL A   1      41.606  19.019  25.634  1.00  0.00    -0.459 OA
BRANCH   5   6
ATOM      6  C   UNL A   1      41.064  19.723  26.670  1.00  0.00     0.343 C 
ATOM      7  O   UNL A   1      41.490  19.705  27.818  1.00  0.00    -0.246 OA
BRANCH   6   8
ATOM      8  C   UNL A   1      40.010  20.607  26.234  1.00  0.00     0.123 A 
ATOM      9  C   UNL A   1      39.787  21.870  26.742  1.00  0.00     0.205 A 
ATOM     10  O   UNL A   1      38.681  22.424  26.187  1.00  0.00    -0.440 OA
ATOM     11  C   UNL A   1      38.180  21.506  25.311  1.00  0.00     0.137 A 
ATOM     12  C   UNL A   1      39.024  20.418  25.230  1.00  0.00     0.069 A 
BRANCH   9  13
ATOM     13  N   UNL A   1      40.432  22.622  27.639  1.00  0.00    -0.369 N 
ATOM     14  H   UNL A   1      41.166  22.236  28.170  1.00  0.00     0.159 HD
ATOM     15  H   UNL A   1      40.173  23.563  27.769  1.00  0.00     0.159 HD
ENDBRANCH   9  13
BRANCH  11  16
ATOM     16  C   UNL A   1      36.861  21.782  24.772  1.00  0.00     0.017 A 
ATOM     17  C   UNL A   1      36.634  22.804  23.846  1.00  0.00     0.012 A 
ATOM     18  C   UNL A   1      35.777  21.016  25.225  1.00  0.00     0.012 A 
ATOM     19  C   UNL A   1      35.340  23.047  23.376  1.00  0.00     0.001 A 
ATOM     20  C   UNL A   1      34.485  21.267  24.766  1.00  0.00     0.001 A 
ATOM     21  C   UNL A   1      34.267  22.283  23.839  1.00  0.00     0.000 A 
ENDBRANCH  11  16
ENDBRANCH   6   8
ENDBRANCH   5   6
ENDBRANCH   4   5
ENDBRANCH   3   4
ENDBRANCH   2   3
ENDBRANCH   1   2
BRANCH   1  22
ATOM     22  C   UNL A   1      43.537  22.670  24.756  1.00  0.00     0.261 C 
BRANCH  22  23
ATOM     23  O   UNL A   1      42.870  23.307  25.825  1.00  0.00    -0.460 OA
BRANCH  23  24
ATOM     24  C   UNL A   1      43.123  24.636  25.903  1.00  0.00     0.338 C 
ATOM     25  O   UNL A   1      43.897  25.280  25.225  1.00  0.00    -0.246 OA
BRANCH  24  26
ATOM     26  C   UNL A   1      42.382  25.170  27.049  1.00  0.00     0.060 A 
ATOM     27  C   UNL A   1      41.250  25.912  26.713  1.00  0.00     0.016 A 
ATOM     28  C   UNL A   1      43.055  25.317  28.270  1.00  0.00     0.016 A 
ATOM     29  C   UNL A   1      41.002  27.043  27.444  1.00  0.00     0.010 A 
ATOM     30  C   UNL A   1      42.830  26.464  28.977  1.00  0.00     0.010 A 
ATOM     31  C   UNL A   1      41.882  27.356  28.483  1.00  0.00    -0.014 A 
BRANCH  31  32
ATOM     32  C   UNL A   1      41.740  28.636  29.125  1.00  0.00     0.031 A 
ATOM     33  C   UNL A   1      42.730  29.595  28.604  1.00  0.00     0.074 A 
ATOM     34  C   UNL A   1      40.748  28.883  29.997  1.00  0.00     0.049 A 
ATOM     35  N   UNL A   1      43.838  29.953  29.163  1.00  0.00    -0.248 NA
ATOM     36  C   UNL A   1      42.627  29.956  27.181  1.00  0.00     0.031 C 
ATOM     37  C   UNL A   1      39.582  28.049  30.309  1.00  0.00     0.029 A 
ATOM     38  N   UNL A   1      40.499  30.023  30.687  1.00  0.00    -0.354 N 
ATOM     39  C   UNL A   1      44.420  30.817  28.243  1.00  0.00     0.074 A 
ATOM     40  C   UNL A   1      43.827  30.497  26.977  1.00  0.00     0.031 C 
ATOM     41  C   UNL A   1      38.640  28.817  30.905  1.00  0.00     0.029 A 
ATOM     42  C   UNL A   1      39.184  30.148  31.117  1.00  0.00     0.049 A 
ATOM     43  H   UNL A   1      41.188  30.702  30.869  1.00  0.00     0.167 HD
ATOM     44  C   UNL A   1      45.032  31.960  28.659  1.00  0.00     0.034 A 
ATOM     45  C   UNL A   1      38.579  31.300  31.503  1.00  0.00     0.034 A 
ATOM     46  C   UNL A   1      45.283  31.907  30.081  1.00  0.00     0.049 A 
ATOM     47  C   UNL A   1      39.652  32.280  31.807  1.00  0.00     0.074 A 
ATOM     48  C   UNL A   1      46.002  31.083  30.923  1.00  0.00     0.029 A 
ATOM     49  N   UNL A   1      44.391  32.593  30.873  1.00  0.00    -0.354 N 
ATOM     50  N   UNL A   1      40.484  32.142  32.801  1.00  0.00    -0.248 NA
ATOM     51  C   UNL A   1      40.103  33.151  30.732  1.00  0.00     0.031 C 
ATOM     52  C   UNL A   1      45.229  31.009  32.119  1.00  0.00     0.029 A 
ATOM     53  C   UNL A   1      44.113  31.837  31.978  1.00  0.00     0.049 A 
ATOM     54  H   UNL A   1      44.015  33.480  30.678  1.00  0.00     0.167 HD
ATOM     55  C   UNL A   1      41.717  32.506  32.270  1.00  0.00     0.074 A 
ATOM     56  C   UNL A   1      41.402  33.229  31.038  1.00  0.00     0.031 C 
ATOM     57  C   UNL A   1      42.867  31.914  32.711  1.00  0.00     0.034 A 
BRANCH  44  58
ATOM     58  C   UNL A   1      44.971  33.293  27.929  1.00  0.00     0.023 A 
ATOM     59  C   UNL A   1      46.196  33.766  27.408  1.00  0.00     0.012 A 
ATOM     60  C   UNL A   1      43.906  34.225  27.976  1.00  0.00     0.148 A 
ATOM     61  C   UNL A   1      46.386  35.110  27.072  1.00  0.00     0.002 A 
ATOM     62  C   UNL A   1      44.082  35.549  27.592  1.00  0.00     0.091 A 
ATOM     63  F   UNL A   1      42.722  33.892  28.485  1.00  0.00    -0.205 F 
ATOM     64  C   UNL A   1      45.331  36.006  27.174  1.00  0.00     0.022 A 
BRANCH  62  65
ATOM     65  S   UNL A   1      42.739  36.745  27.687  1.00  0.00     0.127 S 
ATOM     66  O   UNL A   1      43.328  37.895  27.007  1.00  0.00    -0.237 OA
ATOM     67  O   UNL A   1      41.680  36.059  26.949  1.00  0.00    -0.237 OA
ATOM     68  O   UNL A   1      42.459  36.924  29.107  1.00  0.00    -0.744 OA
ENDBRANCH  62  65
ENDBRANCH  44  58
BRANCH  45  69
ATOM     69  C   UNL A   1      37.166  31.710  31.330  1.00  0.00     0.023 A 
ATOM     70  C   UNL A   1      36.411  32.142  32.439  1.00  0.00     0.012 A 
ATOM     71  C   UNL A   1      36.632  31.926  30.039  1.00  0.00     0.148 A 
ATOM     72  C   UNL A   1      35.172  32.775  32.265  1.00  0.00     0.002 A 
ATOM     73  C   UNL A   1      35.397  32.544  29.871  1.00  0.00     0.091 A 
ATOM     74  F   UNL A   1      37.379  31.604  28.974  1.00  0.00    -0.205 F 
ATOM     75  C   UNL A   1      34.668  32.980  30.984  1.00  0.00     0.022 A 
BRANCH  73  76
ATOM     76  S   UNL A   1      34.695  32.859  28.246  1.00  0.00     0.127 S 
ATOM     77  O   UNL A   1      34.402  31.503  27.779  1.00  0.00    -0.237 OA
ATOM     78  O   UNL A   1      33.518  33.660  28.575  1.00  0.00    -0.237 OA
ATOM     79  O   UNL A   1      35.730  33.546  27.486  1.00  0.00    -0.744 OA
ENDBRANCH  73  76
ENDBRANCH  45  69
BRANCH  57  80
ATOM     80  C   UNL A   1      42.790  31.074  33.959  1.00  0.00     0.023 A 
ATOM     81  C   UNL A   1      42.784  31.633  35.255  1.00  0.00     0.012 A 
ATOM     82  C   UNL A   1      42.514  29.707  33.805  1.00  0.00     0.148 A 
ATOM     83  C   UNL A   1      42.519  30.837  36.373  1.00  0.00     0.002 A 
ATOM     84  C   UNL A   1      42.200  28.932  34.912  1.00  0.00     0.091 A 
ATOM     85  F   UNL A   1      42.521  29.198  32.563  1.00  0.00    -0.205 F 
ATOM     86  C   UNL A   1      42.210  29.490  36.200  1.00  0.00     0.022 A 
BRANCH  84  87
ATOM     87  S   UNL A   1      41.657  27.233  34.736  1.00  0.00     0.127 S 
ATOM     88  O   UNL A   1      41.326  26.874  36.113  1.00  0.00    -0.237 OA
ATOM     89  O   UNL A   1      40.504  27.364  33.843  1.00  0.00    -0.237 OA
ATOM     90  O   UNL A   1      42.781  26.508  34.153  1.00  0.00    -0.744 OA
ENDBRANCH  84  87
ENDBRANCH  57  80
ENDBRANCH  31  32
ENDBRANCH  24  26
ENDBRANCH  23  24
ENDBRANCH  22  23
ENDBRANCH   1  22
TORSDOF 19
ENDMDL
