MODEL 1
REMARK VINA RESULT:     -10.1      0.000      0.000
REMARK SMILES CC[C@@H](C)c1nc2cc(C(=O)OCCOCCOC(=O)c3ccc(-c4c5nc(c(-c6cccc(S(=O)(=O)[O-])c6F)c6ccc([nH]6)c(-c6cccc(S(=O)(=O)[O-])c6F)c6nc(c(-c7cccc(S(=O)(=O)[O-])c7F)c7ccc4[nH]7)C=C6)C=C5)cc3)ccc2n1[C@@H](C)CC
REMARK SMILES IDX 16 1 15 2 14 3 13 4 12 5 10 6 11 7 9 8 5 9 6 10 87 11 7 12
REMARK SMILES IDX 86 13 8 14 85 15 84 16 3 17 4 18 2 19 1 20 88 21 89 22 90 23
REMARK SMILES IDX 91 24 17 25 18 26 19 27 20 28 21 29 22 30 83 31 23 32 82 33
REMARK SMILES IDX 24 34 25 35 26 36 76 37 27 38 81 39 75 40 77 41 28 42 80 43
REMARK SMILES IDX 74 44 73 45 29 47 61 48 41 49 60 50 42 51 45 52 59 53 78 54
REMARK SMILES IDX 43 55 44 56 58 58 79 59 46 60 30 61 31 62 39 63 32 64 34 65
REMARK SMILES IDX 40 66 33 67 35 68 36 69 37 70 38 71 62 72 63 73 71 74 64 75
REMARK SMILES IDX 66 76 72 77 65 78 67 79 68 80 69 81 70 82 47 83 48 84 56 85
REMARK SMILES IDX 49 86 51 87 57 88 50 89 52 90 53 91 54 92 55 93
REMARK H PARENT 77 46 45 57
REMARK Flexibility Score: inf
ROOT
ATOM      1  C   UNL A   1      42.126  19.945  27.252  1.00  0.00     0.202 C 
ENDROOT
BRANCH   1   2
ATOM      2  O   UNL A   1      42.512  19.805  25.883  1.00  0.00    -0.374 OA
BRANCH   2   3
ATOM      3  C   UNL A   1      43.471  18.808  25.554  1.00  0.00     0.202 C 
BRANCH   3   4
ATOM      4  C   UNL A   1      44.281  18.933  24.259  1.00  0.00     0.261 C 
BRANCH   4   5
ATOM      5  O   UNL A   1      44.675  20.273  23.984  1.00  0.00    -0.460 OA
BRANCH   5   6
ATOM      6  C   UNL A   1      45.904  20.561  24.462  1.00  0.00     0.338 C 
ATOM      7  O   UNL A   1      46.930  19.909  24.327  1.00  0.00    -0.246 OA
BRANCH   6   8
ATOM      8  C   UNL A   1      45.897  21.901  25.060  1.00  0.00     0.062 A 
ATOM      9  C   UNL A   1      47.279  26.181  25.306  1.00  0.00     0.112 A 
ATOM     10  N   UNL A   1      47.210  25.276  24.343  1.00  0.00    -0.233 NA
ATOM     11  N   UNL A   1      46.643  25.686  26.443  1.00  0.00    -0.325 N 
ATOM     12  C   UNL A   1      46.620  24.172  24.862  1.00  0.00     0.090 A 
ATOM     13  C   UNL A   1      46.175  24.406  26.149  1.00  0.00     0.068 A 
ATOM     14  C   UNL A   1      46.476  22.913  24.288  1.00  0.00     0.046 A 
ATOM     15  C   UNL A   1      45.482  23.431  26.891  1.00  0.00     0.029 A 
ATOM     16  C   UNL A   1      45.359  22.160  26.323  1.00  0.00     0.018 A 
BRANCH   9  17
ATOM     17  C   UNL A   1      48.118  27.428  25.043  1.00  0.00     0.052 C 
ATOM     18  C   UNL A   1      49.625  27.311  24.906  1.00  0.00     0.016 C 
BRANCH  17  19
ATOM     19  C   UNL A   1      47.783  28.495  26.130  1.00  0.00     0.008 C 
ATOM     20  C   UNL A   1      46.512  29.295  25.866  1.00  0.00     0.004 C 
ENDBRANCH  17  19
ENDBRANCH   9  17
BRANCH  11  21
ATOM     21  C   UNL A   1      46.548  26.208  27.802  1.00  0.00     0.085 C 
ATOM     22  C   UNL A   1      45.123  26.656  28.140  1.00  0.00     0.031 C 
BRANCH  21  23
ATOM     23  C   UNL A   1      47.298  25.394  28.869  1.00  0.00     0.022 C 
ATOM     24  C   UNL A   1      48.809  25.617  28.832  1.00  0.00     0.006 C 
ENDBRANCH  21  23
ENDBRANCH  11  21
ENDBRANCH   6   8
ENDBRANCH   5   6
ENDBRANCH   4   5
ENDBRANCH   3   4
ENDBRANCH   2   3
ENDBRANCH   1   2
BRANCH   1  25
ATOM     25  C   UNL A   1      40.829  20.701  27.604  1.00  0.00     0.261 C 
BRANCH  25  26
ATOM     26  O   UNL A   1      41.045  22.115  27.723  1.00  0.00    -0.460 OA
BRANCH  26  27
ATOM     27  C   UNL A   1      40.237  22.894  26.952  1.00  0.00     0.338 C 
ATOM     28  O   UNL A   1      39.216  22.555  26.374  1.00  0.00    -0.246 OA
BRANCH  27  29
ATOM     29  C   UNL A   1      40.609  24.285  27.280  1.00  0.00     0.060 A 
ATOM     30  C   UNL A   1      41.730  24.547  28.075  1.00  0.00     0.016 A 
ATOM     31  C   UNL A   1      39.595  25.243  27.111  1.00  0.00     0.016 A 
ATOM     32  C   UNL A   1      41.779  25.738  28.792  1.00  0.00     0.010 A 
ATOM     33  C   UNL A   1      39.624  26.403  27.875  1.00  0.00     0.010 A 
ATOM     34  C   UNL A   1      40.693  26.629  28.748  1.00  0.00    -0.014 A 
BRANCH  34  35
ATOM     35  C   UNL A   1      40.814  27.916  29.440  1.00  0.00     0.031 A 
ATOM     36  C   UNL A   1      41.791  28.803  28.748  1.00  0.00     0.074 A 
ATOM     37  C   UNL A   1      40.045  28.344  30.467  1.00  0.00     0.049 A 
ATOM     38  N   UNL A   1      42.916  29.260  29.195  1.00  0.00    -0.248 NA
ATOM     39  C   UNL A   1      41.566  29.059  27.313  1.00  0.00     0.031 C 
ATOM     40  C   UNL A   1      38.873  27.696  31.053  1.00  0.00     0.029 A 
ATOM     41  N   UNL A   1      40.081  29.537  31.140  1.00  0.00    -0.354 N 
ATOM     42  C   UNL A   1      43.419  30.046  28.163  1.00  0.00     0.074 A 
ATOM     43  C   UNL A   1      42.672  29.719  26.980  1.00  0.00     0.031 C 
ATOM     44  C   UNL A   1      38.185  28.582  31.808  1.00  0.00     0.029 A 
ATOM     45  C   UNL A   1      38.904  29.838  31.836  1.00  0.00     0.049 A 
ATOM     46  H   UNL A   1      40.866  30.131  31.134  1.00  0.00     0.167 HD
ATOM     47  C   UNL A   1      44.224  31.116  28.393  1.00  0.00     0.034 A 
ATOM     48  C   UNL A   1      38.513  31.054  32.307  1.00  0.00     0.034 A 
ATOM     49  C   UNL A   1      44.810  31.089  29.701  1.00  0.00     0.049 A 
ATOM     50  C   UNL A   1      39.734  31.885  32.393  1.00  0.00     0.074 A 
ATOM     51  C   UNL A   1      45.647  30.226  30.379  1.00  0.00     0.029 A 
ATOM     52  N   UNL A   1      44.229  31.883  30.656  1.00  0.00    -0.354 N 
ATOM     53  N   UNL A   1      40.711  31.651  33.220  1.00  0.00    -0.248 NA
ATOM     54  C   UNL A   1      40.050  32.730  31.254  1.00  0.00     0.031 C 
ATOM     55  C   UNL A   1      45.166  30.227  31.720  1.00  0.00     0.029 A 
ATOM     56  C   UNL A   1      44.105  31.131  31.792  1.00  0.00     0.049 A 
ATOM     57  H   UNL A   1      43.953  32.822  30.544  1.00  0.00     0.167 HD
ATOM     58  C   UNL A   1      41.850  31.924  32.479  1.00  0.00     0.074 A 
ATOM     59  C   UNL A   1      41.382  32.665  31.310  1.00  0.00     0.031 C 
ATOM     60  C   UNL A   1      43.020  31.272  32.731  1.00  0.00     0.034 A 
BRANCH  47  61
ATOM     61  C   UNL A   1      44.173  32.367  27.559  1.00  0.00     0.023 A 
ATOM     62  C   UNL A   1      45.073  32.494  26.485  1.00  0.00     0.012 A 
ATOM     63  C   UNL A   1      43.449  33.523  27.941  1.00  0.00     0.148 A 
ATOM     64  C   UNL A   1      45.240  33.714  25.819  1.00  0.00     0.002 A 
ATOM     65  C   UNL A   1      43.557  34.707  27.226  1.00  0.00     0.091 A 
ATOM     66  F   UNL A   1      42.754  33.522  29.084  1.00  0.00    -0.205 F 
ATOM     67  C   UNL A   1      44.468  34.815  26.176  1.00  0.00     0.022 A 
BRANCH  65  68
ATOM     68  S   UNL A   1      42.556  36.143  27.631  1.00  0.00     0.127 S 
ATOM     69  O   UNL A   1      43.147  36.561  28.899  1.00  0.00    -0.237 OA
ATOM     70  O   UNL A   1      42.828  37.025  26.496  1.00  0.00    -0.237 OA
ATOM     71  O   UNL A   1      41.184  35.654  27.691  1.00  0.00    -0.744 OA
ENDBRANCH  65  68
ENDBRANCH  47  61
BRANCH  48  72
ATOM     72  C   UNL A   1      37.163  31.690  32.379  1.00  0.00     0.023 A 
ATOM     73  C   UNL A   1      36.706  32.190  33.622  1.00  0.00     0.012 A 
ATOM     74  C   UNL A   1      36.472  32.103  31.219  1.00  0.00     0.148 A 
ATOM     75  C   UNL A   1      35.662  33.123  33.698  1.00  0.00     0.002 A 
ATOM     76  C   UNL A   1      35.428  33.023  31.300  1.00  0.00     0.091 A 
ATOM     77  F   UNL A   1      36.897  31.680  30.024  1.00  0.00    -0.205 F 
ATOM     78  C   UNL A   1      35.033  33.553  32.535  1.00  0.00     0.022 A 
BRANCH  76  79
ATOM     79  S   UNL A   1      34.582  33.632  29.834  1.00  0.00     0.127 S 
ATOM     80  O   UNL A   1      34.100  32.394  29.221  1.00  0.00    -0.237 OA
ATOM     81  O   UNL A   1      33.540  34.475  30.412  1.00  0.00    -0.237 OA
ATOM     82  O   UNL A   1      35.599  34.326  29.054  1.00  0.00    -0.744 OA
ENDBRANCH  76  79
ENDBRANCH  48  72
BRANCH  60  83
ATOM     83  C   UNL A   1      43.107  30.432  33.979  1.00  0.00     0.023 A 
ATOM     84  C   UNL A   1      43.333  30.991  35.255  1.00  0.00     0.012 A 
ATOM     85  C   UNL A   1      42.756  29.079  33.877  1.00  0.00     0.148 A 
ATOM     86  C   UNL A   1      43.205  30.209  36.407  1.00  0.00     0.002 A 
ATOM     87  C   UNL A   1      42.594  28.315  35.024  1.00  0.00     0.091 A 
ATOM     88  F   UNL A   1      42.538  28.576  32.652  1.00  0.00    -0.205 F 
ATOM     89  C   UNL A   1      42.820  28.874  36.292  1.00  0.00     0.022 A 
BRANCH  87  90
ATOM     90  S   UNL A   1      41.999  26.624  34.953  1.00  0.00     0.127 S 
ATOM     91  O   UNL A   1      40.652  26.796  34.413  1.00  0.00    -0.237 OA
ATOM     92  O   UNL A   1      42.952  26.000  34.035  1.00  0.00    -0.237 OA
ATOM     93  O   UNL A   1      42.059  26.114  36.318  1.00  0.00    -0.744 OA
ENDBRANCH  87  90
ENDBRANCH  60  83
ENDBRANCH  34  35
ENDBRANCH  27  29
ENDBRANCH  26  27
ENDBRANCH  25  26
ENDBRANCH   1  25
TORSDOF 21
ENDMDL
MODEL 2
REMARK VINA RESULT:     -10.0      4.446     11.108
REMARK SMILES CC[C@@H](C)c1nc2cc(C(=O)OCCOCCOC(=O)c3ccc(-c4c5nc(c(-c6cccc(S(=O)(=O)[O-])c6F)c6ccc([nH]6)c(-c6cccc(S(=O)(=O)[O-])c6F)c6nc(c(-c7cccc(S(=O)(=O)[O-])c7F)c7ccc4[nH]7)C=C6)C=C5)cc3)ccc2n1[C@@H](C)CC
REMARK SMILES IDX 16 1 15 2 14 3 13 4 12 5 10 6 11 7 9 8 5 9 6 10 87 11 7 12
REMARK SMILES IDX 86 13 8 14 85 15 84 16 3 17 4 18 2 19 1 20 88 21 89 22 90 23
REMARK SMILES IDX 91 24 17 25 18 26 19 27 20 28 21 29 22 30 83 31 23 32 82 33
REMARK SMILES IDX 24 34 25 35 26 36 76 37 27 38 81 39 75 40 77 41 28 42 80 43
REMARK SMILES IDX 74 44 73 45 29 47 61 48 41 49 60 50 42 51 45 52 59 53 78 54
REMARK SMILES IDX 43 55 44 56 58 58 79 59 46 60 30 61 31 62 39 63 32 64 34 65
REMARK SMILES IDX 40 66 33 67 35 68 36 69 37 70 38 71 62 72 63 73 71 74 64 75
REMARK SMILES IDX 66 76 72 77 65 78 67 79 68 80 69 81 70 82 47 83 48 84 56 85
REMARK SMILES IDX 49 86 51 87 57 88 50 89 52 90 53 91 54 92 55 93
REMARK H PARENT 77 46 45 57
REMARK Flexibility Score: inf
ROOT
ATOM      1  C   UNL A   1      33.257  30.498  27.266  1.00  0.00     0.202 C 
ENDROOT
BRANCH   1   2
ATOM      2  O   UNL A   1      31.933  30.540  26.730  1.00  0.00    -0.374 OA
BRANCH   2   3
ATOM      3  C   UNL A   1      31.429  29.373  26.092  1.00  0.00     0.202 C 
BRANCH   3   4
ATOM      4  C   UNL A   1      31.302  29.338  24.565  1.00  0.00     0.261 C 
BRANCH   4   5
ATOM      5  O   UNL A   1      30.563  28.212  24.101  1.00  0.00    -0.460 OA
BRANCH   5   6
ATOM      6  C   UNL A   1      31.315  27.367  23.364  1.00  0.00     0.338 C 
ATOM      7  O   UNL A   1      31.626  27.477  22.187  1.00  0.00    -0.246 OA
BRANCH   6   8
ATOM      8  C   UNL A   1      31.878  26.327  24.233  1.00  0.00     0.062 A 
ATOM      9  C   UNL A   1      35.257  23.735  25.703  1.00  0.00     0.112 A 
ATOM     10  N   UNL A   1      35.174  24.918  25.113  1.00  0.00    -0.233 NA
ATOM     11  N   UNL A   1      33.974  23.306  26.042  1.00  0.00    -0.325 N 
ATOM     12  C   UNL A   1      33.859  25.219  24.984  1.00  0.00     0.090 A 
ATOM     13  C   UNL A   1      33.071  24.280  25.621  1.00  0.00     0.068 A 
ATOM     14  C   UNL A   1      33.274  26.271  24.287  1.00  0.00     0.046 A 
ATOM     15  C   UNL A   1      31.668  24.393  25.677  1.00  0.00     0.029 A 
ATOM     16  C   UNL A   1      31.080  25.436  24.956  1.00  0.00     0.018 A 
BRANCH   9  17
ATOM     17  C   UNL A   1      36.625  23.062  25.747  1.00  0.00     0.052 C 
ATOM     18  C   UNL A   1      37.877  23.904  25.910  1.00  0.00     0.016 C 
BRANCH  17  19
ATOM     19  C   UNL A   1      36.776  22.155  24.487  1.00  0.00     0.008 C 
ATOM     20  C   UNL A   1      36.689  22.895  23.157  1.00  0.00     0.004 C 
ENDBRANCH  17  19
ENDBRANCH   9  17
BRANCH  11  21
ATOM     21  C   UNL A   1      33.490  22.039  26.579  1.00  0.00     0.085 C 
ATOM     22  C   UNL A   1      33.015  22.181  28.028  1.00  0.00     0.031 C 
BRANCH  21  23
ATOM     23  C   UNL A   1      32.601  21.222  25.627  1.00  0.00     0.022 C 
ATOM     24  C   UNL A   1      33.358  20.707  24.404  1.00  0.00     0.006 C 
ENDBRANCH  21  23
ENDBRANCH  11  21
ENDBRANCH   6   8
ENDBRANCH   5   6
ENDBRANCH   4   5
ENDBRANCH   3   4
ENDBRANCH   2   3
ENDBRANCH   1   2
BRANCH   1  25
ATOM     25  C   UNL A   1      33.982  31.815  27.610  1.00  0.00     0.261 C 
BRANCH  25  26
ATOM     26  O   UNL A   1      35.381  31.612  27.855  1.00  0.00    -0.460 OA
BRANCH  26  27
ATOM     27  C   UNL A   1      35.880  32.255  28.946  1.00  0.00     0.338 C 
ATOM     28  O   UNL A   1      35.343  33.144  29.590  1.00  0.00    -0.246 OA
BRANCH  27  29
ATOM     29  C   UNL A   1      36.989  31.406  29.426  1.00  0.00     0.060 A 
ATOM     30  C   UNL A   1      38.146  31.989  29.956  1.00  0.00     0.016 A 
ATOM     31  C   UNL A   1      36.989  30.082  28.959  1.00  0.00     0.016 A 
ATOM     32  C   UNL A   1      39.336  31.271  29.915  1.00  0.00     0.010 A 
ATOM     33  C   UNL A   1      38.193  29.394  28.867  1.00  0.00     0.010 A 
ATOM     34  C   UNL A   1      39.372  30.006  29.304  1.00  0.00    -0.014 A 
BRANCH  34  35
ATOM     35  C   UNL A   1      40.619  29.237  29.358  1.00  0.00     0.031 A 
ATOM     36  C   UNL A   1      40.966  28.884  30.764  1.00  0.00     0.074 A 
ATOM     37  C   UNL A   1      41.303  28.751  28.297  1.00  0.00     0.049 A 
ATOM     38  N   UNL A   1      41.995  29.257  31.453  1.00  0.00    -0.248 NA
ATOM     39  C   UNL A   1      39.940  28.175  31.551  1.00  0.00     0.031 C 
ATOM     40  C   UNL A   1      40.924  28.778  26.886  1.00  0.00     0.029 A 
ATOM     41  N   UNL A   1      42.451  28.004  28.273  1.00  0.00    -0.354 N 
ATOM     42  C   UNL A   1      41.844  28.634  32.689  1.00  0.00     0.074 A 
ATOM     43  C   UNL A   1      40.486  28.168  32.763  1.00  0.00     0.031 C 
ATOM     44  C   UNL A   1      41.680  27.901  26.187  1.00  0.00     0.029 A 
ATOM     45  C   UNL A   1      42.656  27.306  27.077  1.00  0.00     0.049 A 
ATOM     46  H   UNL A   1      43.078  27.962  29.031  1.00  0.00     0.167 HD
ATOM     47  C   UNL A   1      42.907  28.288  33.461  1.00  0.00     0.034 A 
ATOM     48  C   UNL A   1      43.494  26.253  26.870  1.00  0.00     0.034 A 
ATOM     49  C   UNL A   1      44.105  28.980  33.086  1.00  0.00     0.049 A 
ATOM     50  C   UNL A   1      44.491  26.286  27.962  1.00  0.00     0.074 A 
ATOM     51  C   UNL A   1      44.491  30.303  33.026  1.00  0.00     0.029 A 
ATOM     52  N   UNL A   1      45.004  28.287  32.317  1.00  0.00    -0.354 N 
ATOM     53  N   UNL A   1      45.378  27.228  28.104  1.00  0.00    -0.248 NA
ATOM     54  C   UNL A   1      44.216  25.486  29.143  1.00  0.00     0.031 C 
ATOM     55  C   UNL A   1      45.298  30.397  31.855  1.00  0.00     0.029 A 
ATOM     56  C   UNL A   1      45.404  29.118  31.307  1.00  0.00     0.049 A 
ATOM     57  H   UNL A   1      45.307  27.361  32.465  1.00  0.00     0.167 HD
ATOM     58  C   UNL A   1      45.428  27.438  29.473  1.00  0.00     0.074 A 
ATOM     59  C   UNL A   1      44.760  26.282  30.066  1.00  0.00     0.031 C 
ATOM     60  C   UNL A   1      45.742  28.663  29.980  1.00  0.00     0.034 A 
BRANCH  47  61
ATOM     61  C   UNL A   1      42.926  27.045  34.309  1.00  0.00     0.023 A 
ATOM     62  C   UNL A   1      42.577  27.156  35.667  1.00  0.00     0.012 A 
ATOM     63  C   UNL A   1      43.513  25.828  33.885  1.00  0.00     0.148 A 
ATOM     64  C   UNL A   1      42.796  26.100  36.560  1.00  0.00     0.002 A 
ATOM     65  C   UNL A   1      43.652  24.757  34.754  1.00  0.00     0.091 A 
ATOM     66  F   UNL A   1      44.066  25.747  32.669  1.00  0.00    -0.205 F 
ATOM     67  C   UNL A   1      43.314  24.894  36.100  1.00  0.00     0.022 A 
BRANCH  65  68
ATOM     68  S   UNL A   1      44.287  23.171  34.197  1.00  0.00     0.127 S 
ATOM     69  O   UNL A   1      43.399  22.879  33.076  1.00  0.00    -0.237 OA
ATOM     70  O   UNL A   1      45.661  23.513  33.829  1.00  0.00    -0.237 OA
ATOM     71  O   UNL A   1      44.182  22.285  35.349  1.00  0.00    -0.744 OA
ENDBRANCH  65  68
ENDBRANCH  47  61
BRANCH  48  72
ATOM     72  C   UNL A   1      43.341  25.029  26.027  1.00  0.00     0.023 A 
ATOM     73  C   UNL A   1      44.276  24.787  24.992  1.00  0.00     0.012 A 
ATOM     74  C   UNL A   1      42.516  23.953  26.421  1.00  0.00     0.148 A 
ATOM     75  C   UNL A   1      44.437  23.512  24.433  1.00  0.00     0.002 A 
ATOM     76  C   UNL A   1      42.672  22.688  25.855  1.00  0.00     0.091 A 
ATOM     77  F   UNL A   1      41.645  24.134  27.421  1.00  0.00    -0.205 F 
ATOM     78  C   UNL A   1      43.646  22.457  24.876  1.00  0.00     0.022 A 
BRANCH  76  79
ATOM     79  S   UNL A   1      41.693  21.279  26.393  1.00  0.00     0.127 S 
ATOM     80  O   UNL A   1      42.234  20.197  25.569  1.00  0.00    -0.237 OA
ATOM     81  O   UNL A   1      42.033  21.197  27.810  1.00  0.00    -0.237 OA
ATOM     82  O   UNL A   1      40.310  21.623  26.091  1.00  0.00    -0.744 OA
ENDBRANCH  76  79
ENDBRANCH  48  72
BRANCH  60  83
ATOM     83  C   UNL A   1      46.263  29.710  29.030  1.00  0.00     0.023 A 
ATOM     84  C   UNL A   1      47.617  29.766  28.632  1.00  0.00     0.012 A 
ATOM     85  C   UNL A   1      45.324  30.523  28.381  1.00  0.00     0.148 A 
ATOM     86  C   UNL A   1      48.020  30.619  27.600  1.00  0.00     0.002 A 
ATOM     87  C   UNL A   1      45.721  31.341  27.332  1.00  0.00     0.091 A 
ATOM     88  F   UNL A   1      44.044  30.443  28.774  1.00  0.00    -0.205 F 
ATOM     89  C   UNL A   1      47.068  31.394  26.939  1.00  0.00     0.022 A 
BRANCH  87  90
ATOM     90  S   UNL A   1      44.535  32.283  26.372  1.00  0.00     0.127 S 
ATOM     91  O   UNL A   1      44.071  33.272  27.344  1.00  0.00    -0.237 OA
ATOM     92  O   UNL A   1      45.367  32.824  25.297  1.00  0.00    -0.237 OA
ATOM     93  O   UNL A   1      43.524  31.331  25.926  1.00  0.00    -0.744 OA
ENDBRANCH  87  90
ENDBRANCH  60  83
ENDBRANCH  34  35
ENDBRANCH  27  29
ENDBRANCH  26  27
ENDBRANCH  25  26
ENDBRANCH   1  25
TORSDOF 21
ENDMDL
MODEL 3
REMARK VINA RESULT:      -9.9      4.140      7.223
REMARK SMILES CC[C@@H](C)c1nc2cc(C(=O)OCCOCCOC(=O)c3ccc(-c4c5nc(c(-c6cccc(S(=O)(=O)[O-])c6F)c6ccc([nH]6)c(-c6cccc(S(=O)(=O)[O-])c6F)c6nc(c(-c7cccc(S(=O)(=O)[O-])c7F)c7ccc4[nH]7)C=C6)C=C5)cc3)ccc2n1[C@@H](C)CC
REMARK SMILES IDX 16 1 15 2 14 3 13 4 12 5 10 6 11 7 9 8 5 9 6 10 87 11 7 12
REMARK SMILES IDX 86 13 8 14 85 15 84 16 3 17 4 18 2 19 1 20 88 21 89 22 90 23
REMARK SMILES IDX 91 24 17 25 18 26 19 27 20 28 21 29 22 30 83 31 23 32 82 33
REMARK SMILES IDX 24 34 25 35 26 36 76 37 27 38 81 39 75 40 77 41 28 42 80 43
REMARK SMILES IDX 74 44 73 45 29 47 61 48 41 49 60 50 42 51 45 52 59 53 78 54
REMARK SMILES IDX 43 55 44 56 58 58 79 59 46 60 30 61 31 62 39 63 32 64 34 65
REMARK SMILES IDX 40 66 33 67 35 68 36 69 37 70 38 71 62 72 63 73 71 74 64 75
REMARK SMILES IDX 66 76 72 77 65 78 67 79 68 80 69 81 70 82 47 83 48 84 56 85
REMARK SMILES IDX 49 86 51 87 57 88 50 89 52 90 53 91 54 92 55 93
REMARK H PARENT 77 46 45 57
REMARK Flexibility Score: inf
ROOT
ATOM      1  C   UNL A   1      37.724  22.359  24.921  1.00  0.00     0.202 C 
ENDROOT
BRANCH   1   2
ATOM      2  O   UNL A   1      36.686  21.508  24.429  1.00  0.00    -0.374 OA
BRANCH   2   3
ATOM      3  C   UNL A   1      36.068  20.606  25.339  1.00  0.00     0.202 C 
BRANCH   3   4
ATOM      4  C   UNL A   1      34.893  19.741  24.870  1.00  0.00     0.261 C 
BRANCH   4   5
ATOM      5  O   UNL A   1      33.629  20.315  25.187  1.00  0.00    -0.460 OA
BRANCH   5   6
ATOM      6  C   UNL A   1      32.877  20.550  24.090  1.00  0.00     0.338 C 
ATOM      7  O   UNL A   1      32.366  19.728  23.343  1.00  0.00    -0.246 OA
BRANCH   6   8
ATOM      8  C   UNL A   1      32.598  21.988  23.986  1.00  0.00     0.062 A 
ATOM      9  C   UNL A   1      32.650  26.200  25.582  1.00  0.00     0.112 A 
ATOM     10  N   UNL A   1      33.370  25.110  25.797  1.00  0.00    -0.233 NA
ATOM     11  N   UNL A   1      31.782  25.969  24.515  1.00  0.00    -0.325 N 
ATOM     12  C   UNL A   1      32.925  24.152  24.949  1.00  0.00     0.090 A 
ATOM     13  C   UNL A   1      31.987  24.663  24.072  1.00  0.00     0.068 A 
ATOM     14  C   UNL A   1      33.258  22.802  24.912  1.00  0.00     0.046 A 
ATOM     15  C   UNL A   1      31.406  23.880  23.056  1.00  0.00     0.029 A 
ATOM     16  C   UNL A   1      31.722  22.519  23.036  1.00  0.00     0.018 A 
BRANCH   9  17
ATOM     17  C   UNL A   1      32.794  27.349  26.576  1.00  0.00     0.052 C 
ATOM     18  C   UNL A   1      31.557  27.989  27.177  1.00  0.00     0.016 C 
BRANCH  17  19
ATOM     19  C   UNL A   1      33.684  28.457  25.932  1.00  0.00     0.008 C 
ATOM     20  C   UNL A   1      33.286  29.883  26.295  1.00  0.00     0.004 C 
ENDBRANCH  17  19
ENDBRANCH   9  17
BRANCH  11  21
ATOM     21  C   UNL A   1      30.698  26.771  23.961  1.00  0.00     0.085 C 
ATOM     22  C   UNL A   1      29.356  26.447  24.625  1.00  0.00     0.031 C 
BRANCH  21  23
ATOM     23  C   UNL A   1      31.030  28.255  23.739  1.00  0.00     0.022 C 
ATOM     24  C   UNL A   1      30.093  28.930  22.738  1.00  0.00     0.006 C 
ENDBRANCH  21  23
ENDBRANCH  11  21
ENDBRANCH   6   8
ENDBRANCH   5   6
ENDBRANCH   4   5
ENDBRANCH   3   4
ENDBRANCH   2   3
ENDBRANCH   1   2
BRANCH   1  25
ATOM     25  C   UNL A   1      38.779  21.790  25.891  1.00  0.00     0.261 C 
BRANCH  25  26
ATOM     26  O   UNL A   1      39.266  22.787  26.802  1.00  0.00    -0.460 OA
BRANCH  26  27
ATOM     27  C   UNL A   1      40.620  22.836  26.941  1.00  0.00     0.338 C 
ATOM     28  O   UNL A   1      41.432  22.006  26.564  1.00  0.00    -0.246 OA
BRANCH  27  29
ATOM     29  C   UNL A   1      40.927  24.244  27.264  1.00  0.00     0.060 A 
ATOM     30  C   UNL A   1      41.954  24.555  28.162  1.00  0.00     0.016 A 
ATOM     31  C   UNL A   1      39.918  25.173  26.961  1.00  0.00     0.016 A 
ATOM     32  C   UNL A   1      41.904  25.766  28.843  1.00  0.00     0.010 A 
ATOM     33  C   UNL A   1      39.843  26.355  27.689  1.00  0.00     0.010 A 
ATOM     34  C   UNL A   1      40.811  26.630  28.660  1.00  0.00    -0.014 A 
BRANCH  34  35
ATOM     35  C   UNL A   1      40.833  27.938  29.321  1.00  0.00     0.031 A 
ATOM     36  C   UNL A   1      41.804  28.854  28.658  1.00  0.00     0.074 A 
ATOM     37  C   UNL A   1      39.990  28.355  30.293  1.00  0.00     0.049 A 
ATOM     38  N   UNL A   1      42.880  29.375  29.153  1.00  0.00    -0.248 NA
ATOM     39  C   UNL A   1      41.647  29.061  27.207  1.00  0.00     0.031 C 
ATOM     40  C   UNL A   1      38.818  27.666  30.832  1.00  0.00     0.029 A 
ATOM     41  N   UNL A   1      39.932  29.565  30.933  1.00  0.00    -0.354 N 
ATOM     42  C   UNL A   1      43.403  30.158  28.127  1.00  0.00     0.074 A 
ATOM     43  C   UNL A   1      42.738  29.765  26.915  1.00  0.00     0.031 C 
ATOM     44  C   UNL A   1      38.048  28.537  31.524  1.00  0.00     0.029 A 
ATOM     45  C   UNL A   1      38.706  29.827  31.555  1.00  0.00     0.049 A 
ATOM     46  H   UNL A   1      40.687  30.195  30.953  1.00  0.00     0.167 HD
ATOM     47  C   UNL A   1      44.143  31.271  28.371  1.00  0.00     0.034 A 
ATOM     48  C   UNL A   1      38.233  31.034  31.970  1.00  0.00     0.034 A 
ATOM     49  C   UNL A   1      44.656  31.306  29.708  1.00  0.00     0.049 A 
ATOM     50  C   UNL A   1      39.407  31.925  32.099  1.00  0.00     0.074 A 
ATOM     51  C   UNL A   1      45.493  30.502  30.454  1.00  0.00     0.029 A 
ATOM     52  N   UNL A   1      43.986  32.095  30.608  1.00  0.00    -0.354 N 
ATOM     53  N   UNL A   1      40.347  31.759  32.984  1.00  0.00    -0.248 NA
ATOM     54  C   UNL A   1      39.746  32.755  30.956  1.00  0.00     0.031 C 
ATOM     55  C   UNL A   1      44.939  30.514  31.767  1.00  0.00     0.029 A 
ATOM     56  C   UNL A   1      43.835  31.368  31.756  1.00  0.00     0.049 A 
ATOM     57  H   UNL A   1      43.673  33.017  30.455  1.00  0.00     0.167 HD
ATOM     58  C   UNL A   1      41.511  32.067  32.298  1.00  0.00     0.074 A 
ATOM     59  C   UNL A   1      41.074  32.756  31.085  1.00  0.00     0.031 C 
ATOM     60  C   UNL A   1      42.694  31.480  32.631  1.00  0.00     0.034 A 
BRANCH  47  61
ATOM     61  C   UNL A   1      44.079  32.497  27.500  1.00  0.00     0.023 A 
ATOM     62  C   UNL A   1      44.885  32.542  26.347  1.00  0.00     0.012 A 
ATOM     63  C   UNL A   1      43.451  33.701  27.903  1.00  0.00     0.148 A 
ATOM     64  C   UNL A   1      45.052  33.730  25.626  1.00  0.00     0.002 A 
ATOM     65  C   UNL A   1      43.553  34.854  27.140  1.00  0.00     0.091 A 
ATOM     66  F   UNL A   1      42.861  33.772  29.102  1.00  0.00    -0.205 F 
ATOM     67  C   UNL A   1      44.370  34.881  26.010  1.00  0.00     0.022 A 
BRANCH  65  68
ATOM     68  S   UNL A   1      42.665  36.353  27.579  1.00  0.00     0.127 S 
ATOM     69  O   UNL A   1      41.286  35.875  27.615  1.00  0.00    -0.237 OA
ATOM     70  O   UNL A   1      43.247  36.672  28.883  1.00  0.00    -0.237 OA
ATOM     71  O   UNL A   1      42.986  37.314  26.532  1.00  0.00    -0.744 OA
ENDBRANCH  65  68
ENDBRANCH  47  61
BRANCH  48  72
ATOM     72  C   UNL A   1      36.853  31.606  31.951  1.00  0.00     0.023 A 
ATOM     73  C   UNL A   1      36.254  31.993  33.174  1.00  0.00     0.012 A 
ATOM     74  C   UNL A   1      36.258  32.075  30.760  1.00  0.00     0.148 A 
ATOM     75  C   UNL A   1      35.163  32.872  33.210  1.00  0.00     0.002 A 
ATOM     76  C   UNL A   1      35.166  32.942  30.800  1.00  0.00     0.091 A 
ATOM     77  F   UNL A   1      36.816  31.759  29.586  1.00  0.00    -0.205 F 
ATOM     78  C   UNL A   1      34.629  33.361  32.023  1.00  0.00     0.022 A 
BRANCH  76  79
ATOM     79  S   UNL A   1      34.437  33.622  29.303  1.00  0.00     0.127 S 
ATOM     80  O   UNL A   1      34.045  32.414  28.576  1.00  0.00    -0.237 OA
ATOM     81  O   UNL A   1      33.326  34.404  29.835  1.00  0.00    -0.237 OA
ATOM     82  O   UNL A   1      35.500  34.384  28.660  1.00  0.00    -0.744 OA
ENDBRANCH  76  79
ENDBRANCH  48  72
BRANCH  60  83
ATOM     83  C   UNL A   1      42.751  30.677  33.905  1.00  0.00     0.023 A 
ATOM     84  C   UNL A   1      42.944  31.274  35.170  1.00  0.00     0.012 A 
ATOM     85  C   UNL A   1      42.405  29.320  33.834  1.00  0.00     0.148 A 
ATOM     86  C   UNL A   1      42.789  30.525  36.341  1.00  0.00     0.002 A 
ATOM     87  C   UNL A   1      42.215  28.590  34.999  1.00  0.00     0.091 A 
ATOM     88  F   UNL A   1      42.219  28.781  32.620  1.00  0.00    -0.205 F 
ATOM     89  C   UNL A   1      42.409  29.187  36.255  1.00  0.00     0.022 A 
BRANCH  87  90
ATOM     90  S   UNL A   1      41.625  26.897  34.963  1.00  0.00     0.127 S 
ATOM     91  O   UNL A   1      42.787  26.178  34.443  1.00  0.00    -0.237 OA
ATOM     92  O   UNL A   1      41.328  26.643  36.373  1.00  0.00    -0.237 OA
ATOM     93  O   UNL A   1      40.454  26.893  34.094  1.00  0.00    -0.744 OA
ENDBRANCH  87  90
ENDBRANCH  60  83
ENDBRANCH  34  35
ENDBRANCH  27  29
ENDBRANCH  26  27
ENDBRANCH  25  26
ENDBRANCH   1  25
TORSDOF 21
ENDMDL
