MODEL 1
REMARK VINA RESULT:     -11.4      0.000      0.000
REMARK SMILES COc1cccc(-c2c(C(=O)OCCOCCOC(=O)c3ccc(-c4c5nc(c(-c6cccc(S(=O)(=O)[O-])c6F)c6ccc([nH]6)c(-c6cccc(S(=O)(=O)[O-])c6F)c6nc(c(-c7cccc(S(=O)(=O)[O-])c7F)c7ccc4[nH]7)C=C6)C=C5)cc3)nnn2Cc2ccc(OC(F)(F)F)cc2)c1
REMARK SMILES IDX 14 1 13 2 12 3 10 4 11 5 9 6 8 7 86 8 84 9 85 10 7 11 3 12
REMARK SMILES IDX 4 13 99 14 5 15 6 16 2 17 1 18 87 19 88 20 89 21 98 22 90 23
REMARK SMILES IDX 97 24 91 25 92 26 93 27 94 28 95 29 96 30 15 31 16 32 17 33
REMARK SMILES IDX 18 34 19 35 20 36 21 37 22 38 83 39 23 40 82 41 24 42 25 43
REMARK SMILES IDX 26 44 76 45 27 46 81 47 75 48 77 49 28 50 80 51 74 52 73 53
REMARK SMILES IDX 29 55 61 56 41 57 60 58 42 59 45 60 59 61 78 62 43 63 44 64
REMARK SMILES IDX 58 66 79 67 46 68 30 69 31 70 39 71 32 72 34 73 40 74 33 75
REMARK SMILES IDX 35 76 36 77 37 78 38 79 62 80 63 81 71 82 64 83 66 84 72 85
REMARK SMILES IDX 65 86 67 87 68 88 69 89 70 90 47 91 48 92 56 93 49 94 51 95
REMARK SMILES IDX 57 96 50 97 52 98 53 99 54 100 55 101
REMARK H PARENT 77 54 45 65
REMARK Flexibility Score: inf
ROOT
ATOM      1  C   UNL A   1      39.478  22.121  26.425  1.00  0.00     0.202 C 
ENDROOT
BRANCH   1   2
ATOM      2  C   UNL A   1      38.283  21.625  25.608  1.00  0.00     0.261 C 
BRANCH   2   3
ATOM      3  O   UNL A   1      37.033  22.178  26.049  1.00  0.00    -0.458 OA
BRANCH   3   4
ATOM      4  C   UNL A   1      35.937  21.424  25.737  1.00  0.00     0.361 C 
ATOM      5  O   UNL A   1      35.994  20.314  25.220  1.00  0.00    -0.244 OA
BRANCH   4   6
ATOM      6  C   UNL A   1      34.685  22.000  26.193  1.00  0.00     0.198 A 
ATOM      7  C   UNL A   1      33.691  22.706  25.516  1.00  0.00     0.104 A 
ATOM      8  N   UNL A   1      32.692  22.779  26.475  1.00  0.00    -0.239 N 
ATOM      9  N   UNL A   1      34.341  21.879  27.518  1.00  0.00    -0.122 NA
ATOM     10  N   UNL A   1      33.168  22.453  27.694  1.00  0.00    -0.066 NA
BRANCH   7  11
ATOM     11  C   UNL A   1      33.545  23.136  24.124  1.00  0.00     0.006 A 
ATOM     12  C   UNL A   1      33.736  24.864  22.415  1.00  0.00     0.119 A 
ATOM     13  C   UNL A   1      33.083  24.024  21.513  1.00  0.00     0.046 A 
ATOM     14  C   UNL A   1      33.993  24.408  23.711  1.00  0.00     0.056 A 
ATOM     15  C   UNL A   1      32.693  22.742  21.888  1.00  0.00     0.005 A 
ATOM     16  C   UNL A   1      32.914  22.302  23.193  1.00  0.00     0.011 A 
BRANCH  12  17
ATOM     17  O   UNL A   1      34.000  26.111  21.928  1.00  0.00    -0.497 OA
ATOM     18  C   UNL A   1      33.395  27.231  22.566  1.00  0.00     0.278 C 
ENDBRANCH  12  17
ENDBRANCH   7  11
BRANCH   8  19
ATOM     19  C   UNL A   1      31.272  23.082  26.336  1.00  0.00     0.182 C 
BRANCH  19  20
ATOM     20  C   UNL A   1      31.025  24.460  25.750  1.00  0.00    -0.026 A 
ATOM     21  C   UNL A   1      31.454  25.614  26.417  1.00  0.00     0.009 A 
ATOM     22  C   UNL A   1      30.336  24.617  24.536  1.00  0.00     0.009 A 
ATOM     23  C   UNL A   1      31.202  26.881  25.876  1.00  0.00     0.047 A 
ATOM     24  C   UNL A   1      30.104  25.882  23.986  1.00  0.00     0.047 A 
ATOM     25  C   UNL A   1      30.534  27.025  24.655  1.00  0.00     0.129 A 
BRANCH  25  26
ATOM     26  O   UNL A   1      30.362  28.315  24.242  1.00  0.00    -0.406 OA
BRANCH  26  27
ATOM     27  C   UNL A   1      29.539  28.538  23.111  1.00  0.00     0.573 C 
ATOM     28  F   UNL A   1      28.338  27.937  23.250  1.00  0.00    -0.132 F 
ATOM     29  F   UNL A   1      29.362  29.856  22.879  1.00  0.00    -0.132 F 
ATOM     30  F   UNL A   1      30.143  28.005  22.024  1.00  0.00    -0.132 F 
ENDBRANCH  26  27
ENDBRANCH  25  26
ENDBRANCH  19  20
ENDBRANCH   8  19
ENDBRANCH   4   6
ENDBRANCH   3   4
ENDBRANCH   2   3
ENDBRANCH   1   2
BRANCH   1  31
ATOM     31  O   UNL A   1      40.194  21.197  27.241  1.00  0.00    -0.374 OA
BRANCH  31  32
ATOM     32  C   UNL A   1      41.605  21.037  27.110  1.00  0.00     0.202 C 
BRANCH  32  33
ATOM     33  C   UNL A   1      42.146  20.030  26.104  1.00  0.00     0.261 C 
BRANCH  33  34
ATOM     34  O   UNL A   1      43.561  20.048  26.055  1.00  0.00    -0.460 OA
BRANCH  34  35
ATOM     35  C   UNL A   1      44.058  20.270  24.815  1.00  0.00     0.338 C 
ATOM     36  O   UNL A   1      44.159  19.470  23.908  1.00  0.00    -0.246 OA
BRANCH  35  37
ATOM     37  C   UNL A   1      44.578  21.642  24.767  1.00  0.00     0.060 A 
ATOM     38  C   UNL A   1      45.633  21.890  25.644  1.00  0.00     0.016 A 
ATOM     39  C   UNL A   1      43.759  22.659  24.257  1.00  0.00     0.016 A 
ATOM     40  C   UNL A   1      45.627  23.093  26.300  1.00  0.00     0.010 A 
ATOM     41  C   UNL A   1      43.752  23.855  24.920  1.00  0.00     0.010 A 
ATOM     42  C   UNL A   1      44.596  23.992  26.013  1.00  0.00    -0.014 A 
BRANCH  42  43
ATOM     43  C   UNL A   1      44.461  25.150  26.857  1.00  0.00     0.031 A 
ATOM     44  C   UNL A   1      45.601  26.063  26.685  1.00  0.00     0.074 A 
ATOM     45  C   UNL A   1      43.390  25.360  27.641  1.00  0.00     0.049 A 
ATOM     46  N   UNL A   1      46.629  26.163  27.458  1.00  0.00    -0.248 NA
ATOM     47  C   UNL A   1      45.747  26.728  25.384  1.00  0.00     0.031 C 
ATOM     48  C   UNL A   1      42.105  24.656  27.671  1.00  0.00     0.029 A 
ATOM     49  N   UNL A   1      43.205  26.365  28.530  1.00  0.00    -0.354 N 
ATOM     50  C   UNL A   1      47.429  27.119  26.851  1.00  0.00     0.074 A 
ATOM     51  C   UNL A   1      46.988  27.205  25.485  1.00  0.00     0.031 C 
ATOM     52  C   UNL A   1      41.204  25.414  28.344  1.00  0.00     0.029 A 
ATOM     53  C   UNL A   1      41.884  26.571  28.901  1.00  0.00     0.049 A 
ATOM     54  H   UNL A   1      43.947  26.905  28.886  1.00  0.00     0.167 HD
ATOM     55  C   UNL A   1      48.152  27.992  27.601  1.00  0.00     0.034 A 
ATOM     56  C   UNL A   1      41.407  27.670  29.539  1.00  0.00     0.034 A 
ATOM     57  C   UNL A   1      48.264  27.539  28.967  1.00  0.00     0.049 A 
ATOM     58  C   UNL A   1      42.566  28.325  30.200  1.00  0.00     0.074 A 
ATOM     59  C   UNL A   1      48.781  26.417  29.585  1.00  0.00     0.029 A 
ATOM     60  N   UNL A   1      47.412  28.116  29.879  1.00  0.00    -0.354 N 
ATOM     61  N   UNL A   1      43.235  27.768  31.172  1.00  0.00    -0.248 NA
ATOM     62  C   UNL A   1      43.280  29.354  29.459  1.00  0.00     0.031 C 
ATOM     63  C   UNL A   1      47.867  26.125  30.641  1.00  0.00     0.029 A 
ATOM     64  C   UNL A   1      46.883  27.116  30.653  1.00  0.00     0.049 A 
ATOM     65  H   UNL A   1      47.215  29.077  29.962  1.00  0.00     0.167 HD
ATOM     66  C   UNL A   1      44.567  28.030  30.872  1.00  0.00     0.074 A 
ATOM     67  C   UNL A   1      44.527  29.090  29.863  1.00  0.00     0.031 C 
ATOM     68  C   UNL A   1      45.558  27.161  31.234  1.00  0.00     0.034 A 
BRANCH  55  69
ATOM     69  C   UNL A   1      48.388  29.435  27.221  1.00  0.00     0.023 A 
ATOM     70  C   UNL A   1      49.707  29.917  27.347  1.00  0.00     0.012 A 
ATOM     71  C   UNL A   1      47.369  30.398  27.023  1.00  0.00     0.148 A 
ATOM     72  C   UNL A   1      49.988  31.286  27.340  1.00  0.00     0.002 A 
ATOM     73  C   UNL A   1      47.663  31.752  26.938  1.00  0.00     0.091 A 
ATOM     74  F   UNL A   1      46.085  30.044  27.051  1.00  0.00    -0.205 F 
ATOM     75  C   UNL A   1      48.967  32.205  27.131  1.00  0.00     0.022 A 
BRANCH  73  76
ATOM     76  S   UNL A   1      46.378  32.974  26.635  1.00  0.00     0.127 S 
ATOM     77  O   UNL A   1      47.166  34.117  26.186  1.00  0.00    -0.237 OA
ATOM     78  O   UNL A   1      45.584  32.318  25.597  1.00  0.00    -0.237 OA
ATOM     79  O   UNL A   1      45.681  33.137  27.904  1.00  0.00    -0.744 OA
ENDBRANCH  73  76
ENDBRANCH  55  69
BRANCH  56  80
ATOM     80  C   UNL A   1      40.119  28.374  29.328  1.00  0.00     0.023 A 
ATOM     81  C   UNL A   1      39.407  28.211  28.122  1.00  0.00     0.012 A 
ATOM     82  C   UNL A   1      39.451  28.983  30.415  1.00  0.00     0.148 A 
ATOM     83  C   UNL A   1      38.073  28.627  28.008  1.00  0.00     0.002 A 
ATOM     84  C   UNL A   1      38.128  29.401  30.297  1.00  0.00     0.091 A 
ATOM     85  F   UNL A   1      40.085  29.072  31.591  1.00  0.00    -0.205 F 
ATOM     86  C   UNL A   1      37.432  29.215  29.096  1.00  0.00     0.022 A 
BRANCH  84  87
ATOM     87  S   UNL A   1      37.230  30.139  31.670  1.00  0.00     0.127 S 
ATOM     88  O   UNL A   1      36.107  30.778  30.985  1.00  0.00    -0.237 OA
ATOM     89  O   UNL A   1      36.876  28.966  32.467  1.00  0.00    -0.237 OA
ATOM     90  O   UNL A   1      38.156  31.068  32.305  1.00  0.00    -0.744 OA
ENDBRANCH  84  87
ENDBRANCH  56  80
BRANCH  68  91
ATOM     91  C   UNL A   1      45.186  26.003  32.131  1.00  0.00     0.023 A 
ATOM     92  C   UNL A   1      44.761  24.757  31.616  1.00  0.00     0.012 A 
ATOM     93  C   UNL A   1      45.451  26.111  33.505  1.00  0.00     0.148 A 
ATOM     94  C   UNL A   1      44.589  23.652  32.456  1.00  0.00     0.002 A 
ATOM     95  C   UNL A   1      45.320  25.001  34.330  1.00  0.00     0.091 A 
ATOM     96  F   UNL A   1      45.868  27.296  33.974  1.00  0.00    -0.205 F 
ATOM     97  C   UNL A   1      44.881  23.771  33.813  1.00  0.00     0.022 A 
BRANCH  95  98
ATOM     98  S   UNL A   1      45.798  25.049  36.058  1.00  0.00     0.127 S 
ATOM     99  O   UNL A   1      45.105  26.244  36.533  1.00  0.00    -0.237 OA
ATOM    100  O   UNL A   1      45.259  23.786  36.565  1.00  0.00    -0.237 OA
ATOM    101  O   UNL A   1      47.254  25.125  36.073  1.00  0.00    -0.744 OA
ENDBRANCH  95  98
ENDBRANCH  68  91
ENDBRANCH  42  43
ENDBRANCH  35  37
ENDBRANCH  34  35
ENDBRANCH  33  34
ENDBRANCH  32  33
ENDBRANCH  31  32
ENDBRANCH   1  31
TORSDOF 23
ENDMDL
MODEL 2
REMARK VINA RESULT:     -10.9      2.359      7.103
REMARK SMILES COc1cccc(-c2c(C(=O)OCCOCCOC(=O)c3ccc(-c4c5nc(c(-c6cccc(S(=O)(=O)[O-])c6F)c6ccc([nH]6)c(-c6cccc(S(=O)(=O)[O-])c6F)c6nc(c(-c7cccc(S(=O)(=O)[O-])c7F)c7ccc4[nH]7)C=C6)C=C5)cc3)nnn2Cc2ccc(OC(F)(F)F)cc2)c1
REMARK SMILES IDX 14 1 13 2 12 3 10 4 11 5 9 6 8 7 86 8 84 9 85 10 7 11 3 12
REMARK SMILES IDX 4 13 99 14 5 15 6 16 2 17 1 18 87 19 88 20 89 21 98 22 90 23
REMARK SMILES IDX 97 24 91 25 92 26 93 27 94 28 95 29 96 30 15 31 16 32 17 33
REMARK SMILES IDX 18 34 19 35 20 36 21 37 22 38 83 39 23 40 82 41 24 42 25 43
REMARK SMILES IDX 26 44 76 45 27 46 81 47 75 48 77 49 28 50 80 51 74 52 73 53
REMARK SMILES IDX 29 55 61 56 41 57 60 58 42 59 45 60 59 61 78 62 43 63 44 64
REMARK SMILES IDX 58 66 79 67 46 68 30 69 31 70 39 71 32 72 34 73 40 74 33 75
REMARK SMILES IDX 35 76 36 77 37 78 38 79 62 80 63 81 71 82 64 83 66 84 72 85
REMARK SMILES IDX 65 86 67 87 68 88 69 89 70 90 47 91 48 92 56 93 49 94 51 95
REMARK SMILES IDX 57 96 50 97 52 98 53 99 54 100 55 101
REMARK H PARENT 77 54 45 65
REMARK Flexibility Score: inf
ROOT
ATOM      1  C   UNL A   1      35.552  21.397  25.956  1.00  0.00     0.202 C 
ENDROOT
BRANCH   1   2
ATOM      2  C   UNL A   1      34.153  21.996  25.795  1.00  0.00     0.261 C 
BRANCH   2   3
ATOM      3  O   UNL A   1      33.919  23.118  26.659  1.00  0.00    -0.458 OA
BRANCH   3   4
ATOM      4  C   UNL A   1      32.631  23.575  26.660  1.00  0.00     0.361 C 
ATOM      5  O   UNL A   1      31.891  23.535  27.634  1.00  0.00    -0.244 OA
BRANCH   4   6
ATOM      6  C   UNL A   1      32.250  24.241  25.426  1.00  0.00     0.198 A 
ATOM      7  C   UNL A   1      32.171  25.593  25.092  1.00  0.00     0.104 A 
ATOM      8  N   UNL A   1      31.951  25.533  23.724  1.00  0.00    -0.239 N 
ATOM      9  N   UNL A   1      31.880  23.477  24.345  1.00  0.00    -0.122 NA
ATOM     10  N   UNL A   1      31.600  24.288  23.345  1.00  0.00    -0.066 NA
BRANCH   7  11
ATOM     11  C   UNL A   1      32.423  26.823  25.845  1.00  0.00     0.006 A 
ATOM     12  C   UNL A   1      33.970  28.517  26.668  1.00  0.00     0.119 A 
ATOM     13  C   UNL A   1      32.944  29.057  27.444  1.00  0.00     0.046 A 
ATOM     14  C   UNL A   1      33.700  27.419  25.846  1.00  0.00     0.056 A 
ATOM     15  C   UNL A   1      31.661  28.518  27.402  1.00  0.00     0.005 A 
ATOM     16  C   UNL A   1      31.403  27.398  26.613  1.00  0.00     0.011 A 
BRANCH  12  17
ATOM     17  O   UNL A   1      35.185  29.107  26.860  1.00  0.00    -0.497 OA
ATOM     18  C   UNL A   1      35.477  29.659  28.139  1.00  0.00     0.278 C 
ENDBRANCH  12  17
ENDBRANCH   7  11
BRANCH   8  19
ATOM     19  C   UNL A   1      32.102  26.561  22.700  1.00  0.00     0.182 C 
BRANCH  19  20
ATOM     20  C   UNL A   1      30.955  27.555  22.698  1.00  0.00    -0.026 A 
ATOM     21  C   UNL A   1      29.695  27.202  23.198  1.00  0.00     0.009 A 
ATOM     22  C   UNL A   1      31.118  28.846  22.171  1.00  0.00     0.009 A 
ATOM     23  C   UNL A   1      28.639  28.121  23.172  1.00  0.00     0.047 A 
ATOM     24  C   UNL A   1      30.068  29.770  22.165  1.00  0.00     0.047 A 
ATOM     25  C   UNL A   1      28.819  29.412  22.664  1.00  0.00     0.129 A 
BRANCH  25  26
ATOM     26  O   UNL A   1      27.708  30.206  22.707  1.00  0.00    -0.406 OA
BRANCH  26  27
ATOM     27  C   UNL A   1      27.811  31.442  23.393  1.00  0.00     0.573 C 
ATOM     28  F   UNL A   1      26.697  31.701  24.110  1.00  0.00    -0.132 F 
ATOM     29  F   UNL A   1      28.889  31.469  24.205  1.00  0.00    -0.132 F 
ATOM     30  F   UNL A   1      27.955  32.431  22.482  1.00  0.00    -0.132 F 
ENDBRANCH  26  27
ENDBRANCH  25  26
ENDBRANCH  19  20
ENDBRANCH   8  19
ENDBRANCH   4   6
ENDBRANCH   3   4
ENDBRANCH   2   3
ENDBRANCH   1   2
BRANCH   1  31
ATOM     31  O   UNL A   1      35.959  20.337  25.095  1.00  0.00    -0.374 OA
BRANCH  31  32
ATOM     32  C   UNL A   1      37.315  20.209  24.674  1.00  0.00     0.202 C 
BRANCH  32  33
ATOM     33  C   UNL A   1      38.387  19.901  25.711  1.00  0.00     0.261 C 
BRANCH  33  34
ATOM     34  O   UNL A   1      39.627  19.588  25.104  1.00  0.00    -0.460 OA
BRANCH  34  35
ATOM     35  C   UNL A   1      40.701  19.938  25.853  1.00  0.00     0.338 C 
ATOM     36  O   UNL A   1      41.425  19.203  26.492  1.00  0.00    -0.246 OA
BRANCH  35  37
ATOM     37  C   UNL A   1      40.794  21.403  25.866  1.00  0.00     0.060 A 
ATOM     38  C   UNL A   1      42.087  21.900  25.712  1.00  0.00     0.016 A 
ATOM     39  C   UNL A   1      39.763  22.141  26.464  1.00  0.00     0.016 A 
ATOM     40  C   UNL A   1      42.439  22.973  26.488  1.00  0.00     0.010 A 
ATOM     41  C   UNL A   1      40.121  23.207  27.243  1.00  0.00     0.010 A 
ATOM     42  C   UNL A   1      41.471  23.512  27.340  1.00  0.00    -0.014 A 
BRANCH  42  43
ATOM     43  C   UNL A   1      41.898  24.484  28.311  1.00  0.00     0.031 A 
ATOM     44  C   UNL A   1      40.996  25.644  28.327  1.00  0.00     0.074 A 
ATOM     45  C   UNL A   1      42.957  24.293  29.118  1.00  0.00     0.049 A 
ATOM     46  N   UNL A   1      41.193  26.781  27.750  1.00  0.00    -0.248 NA
ATOM     47  C   UNL A   1      39.620  25.426  28.793  1.00  0.00     0.031 C 
ATOM     48  C   UNL A   1      43.736  23.076  29.358  1.00  0.00     0.029 A 
ATOM     49  N   UNL A   1      43.490  25.173  29.998  1.00  0.00    -0.354 N 
ATOM     50  C   UNL A   1      40.047  27.513  28.023  1.00  0.00     0.074 A 
ATOM     51  C   UNL A   1      39.039  26.560  28.399  1.00  0.00     0.031 C 
ATOM     52  C   UNL A   1      44.462  23.235  30.493  1.00  0.00     0.029 A 
ATOM     53  C   UNL A   1      44.301  24.600  30.967  1.00  0.00     0.049 A 
ATOM     54  H   UNL A   1      43.318  26.141  29.954  1.00  0.00     0.167 HD
ATOM     55  C   UNL A   1      40.120  28.853  28.242  1.00  0.00     0.034 A 
ATOM     56  C   UNL A   1      44.714  25.207  32.109  1.00  0.00     0.034 A 
ATOM     57  C   UNL A   1      41.378  29.391  27.781  1.00  0.00     0.049 A 
ATOM     58  C   UNL A   1      44.593  26.671  31.889  1.00  0.00     0.074 A 
ATOM     59  C   UNL A   1      42.028  29.448  26.565  1.00  0.00     0.029 A 
ATOM     60  N   UNL A   1      42.342  29.608  28.737  1.00  0.00    -0.354 N 
ATOM     61  N   UNL A   1      45.311  27.318  31.012  1.00  0.00    -0.248 NA
ATOM     62  C   UNL A   1      43.347  27.317  32.275  1.00  0.00     0.031 C 
ATOM     63  C   UNL A   1      43.405  29.231  26.872  1.00  0.00     0.029 A 
ATOM     64  C   UNL A   1      43.528  29.119  28.258  1.00  0.00     0.049 A 
ATOM     65  H   UNL A   1      42.204  30.039  29.612  1.00  0.00     0.167 HD
ATOM     66  C   UNL A   1      44.414  28.188  30.403  1.00  0.00     0.074 A 
ATOM     67  C   UNL A   1      43.247  28.211  31.286  1.00  0.00     0.031 C 
ATOM     68  C   UNL A   1      44.570  28.565  29.098  1.00  0.00     0.034 A 
BRANCH  55  69
ATOM     69  C   UNL A   1      39.259  29.591  29.240  1.00  0.00     0.023 A 
ATOM     70  C   UNL A   1      38.807  30.872  28.862  1.00  0.00     0.012 A 
ATOM     71  C   UNL A   1      39.104  29.231  30.600  1.00  0.00     0.148 A 
ATOM     72  C   UNL A   1      38.289  31.770  29.801  1.00  0.00     0.002 A 
ATOM     73  C   UNL A   1      38.517  30.096  31.513  1.00  0.00     0.091 A 
ATOM     74  F   UNL A   1      39.643  28.107  31.071  1.00  0.00    -0.205 F 
ATOM     75  C   UNL A   1      38.139  31.381  31.126  1.00  0.00     0.022 A 
BRANCH  73  76
ATOM     76  S   UNL A   1      38.272  29.623  33.231  1.00  0.00     0.127 S 
ATOM     77  O   UNL A   1      37.662  30.830  33.779  1.00  0.00    -0.237 OA
ATOM     78  O   UNL A   1      37.373  28.476  33.097  1.00  0.00    -0.237 OA
ATOM     79  O   UNL A   1      39.595  29.287  33.741  1.00  0.00    -0.744 OA
ENDBRANCH  73  76
ENDBRANCH  55  69
BRANCH  56  80
ATOM     80  C   UNL A   1      44.863  24.621  33.463  1.00  0.00     0.023 A 
ATOM     81  C   UNL A   1      43.749  24.069  34.127  1.00  0.00     0.012 A 
ATOM     82  C   UNL A   1      46.147  24.354  33.989  1.00  0.00     0.148 A 
ATOM     83  C   UNL A   1      43.911  23.267  35.266  1.00  0.00     0.002 A 
ATOM     84  C   UNL A   1      46.304  23.562  35.122  1.00  0.00     0.091 A 
ATOM     85  F   UNL A   1      47.220  24.802  33.324  1.00  0.00    -0.205 F 
ATOM     86  C   UNL A   1      45.187  23.008  35.759  1.00  0.00     0.022 A 
BRANCH  84  87
ATOM     87  S   UNL A   1      47.925  23.161  35.794  1.00  0.00     0.127 S 
ATOM     88  O   UNL A   1      48.483  22.309  34.744  1.00  0.00    -0.237 OA
ATOM     89  O   UNL A   1      48.542  24.480  35.907  1.00  0.00    -0.237 OA
ATOM     90  O   UNL A   1      47.680  22.476  37.058  1.00  0.00    -0.744 OA
ENDBRANCH  84  87
ENDBRANCH  56  80
BRANCH  68  91
ATOM     91  C   UNL A   1      45.844  28.157  28.395  1.00  0.00     0.023 A 
ATOM     92  C   UNL A   1      45.958  26.939  27.687  1.00  0.00     0.012 A 
ATOM     93  C   UNL A   1      46.877  29.101  28.285  1.00  0.00     0.148 A 
ATOM     94  C   UNL A   1      47.084  26.665  26.905  1.00  0.00     0.002 A 
ATOM     95  C   UNL A   1      47.974  28.844  27.473  1.00  0.00     0.091 A 
ATOM     96  F   UNL A   1      46.745  30.258  28.951  1.00  0.00    -0.205 F 
ATOM     97  C   UNL A   1      48.088  27.623  26.787  1.00  0.00     0.022 A 
BRANCH  95  98
ATOM     98  S   UNL A   1      49.239  30.081  27.177  1.00  0.00     0.127 S 
ATOM     99  O   UNL A   1      49.771  30.300  28.519  1.00  0.00    -0.237 OA
ATOM    100  O   UNL A   1      50.146  29.385  26.264  1.00  0.00    -0.237 OA
ATOM    101  O   UNL A   1      48.556  31.224  26.583  1.00  0.00    -0.744 OA
ENDBRANCH  95  98
ENDBRANCH  68  91
ENDBRANCH  42  43
ENDBRANCH  35  37
ENDBRANCH  34  35
ENDBRANCH  33  34
ENDBRANCH  32  33
ENDBRANCH  31  32
ENDBRANCH   1  31
TORSDOF 23
ENDMDL
MODEL 3
REMARK VINA RESULT:     -10.7      3.251      8.778
REMARK SMILES COc1cccc(-c2c(C(=O)OCCOCCOC(=O)c3ccc(-c4c5nc(c(-c6cccc(S(=O)(=O)[O-])c6F)c6ccc([nH]6)c(-c6cccc(S(=O)(=O)[O-])c6F)c6nc(c(-c7cccc(S(=O)(=O)[O-])c7F)c7ccc4[nH]7)C=C6)C=C5)cc3)nnn2Cc2ccc(OC(F)(F)F)cc2)c1
REMARK SMILES IDX 14 1 13 2 12 3 10 4 11 5 9 6 8 7 86 8 84 9 85 10 7 11 3 12
REMARK SMILES IDX 4 13 99 14 5 15 6 16 2 17 1 18 87 19 88 20 89 21 98 22 90 23
REMARK SMILES IDX 97 24 91 25 92 26 93 27 94 28 95 29 96 30 15 31 16 32 17 33
REMARK SMILES IDX 18 34 19 35 20 36 21 37 22 38 83 39 23 40 82 41 24 42 25 43
REMARK SMILES IDX 26 44 76 45 27 46 81 47 75 48 77 49 28 50 80 51 74 52 73 53
REMARK SMILES IDX 29 55 61 56 41 57 60 58 42 59 45 60 59 61 78 62 43 63 44 64
REMARK SMILES IDX 58 66 79 67 46 68 30 69 31 70 39 71 32 72 34 73 40 74 33 75
REMARK SMILES IDX 35 76 36 77 37 78 38 79 62 80 63 81 71 82 64 83 66 84 72 85
REMARK SMILES IDX 65 86 67 87 68 88 69 89 70 90 47 91 48 92 56 93 49 94 51 95
REMARK SMILES IDX 57 96 50 97 52 98 53 99 54 100 55 101
REMARK H PARENT 77 54 45 65
REMARK Flexibility Score: inf
ROOT
ATOM      1  C   UNL A   1      33.549  30.679  27.785  1.00  0.00     0.202 C 
ENDROOT
BRANCH   1   2
ATOM      2  C   UNL A   1      33.310  29.672  26.658  1.00  0.00     0.261 C 
BRANCH   2   3
ATOM      3  O   UNL A   1      31.942  29.245  26.568  1.00  0.00    -0.458 OA
BRANCH   3   4
ATOM      4  C   UNL A   1      31.772  27.890  26.527  1.00  0.00     0.361 C 
ATOM      5  O   UNL A   1      31.443  27.211  27.492  1.00  0.00    -0.244 OA
BRANCH   4   6
ATOM      6  C   UNL A   1      31.889  27.329  25.192  1.00  0.00     0.198 A 
ATOM      7  C   UNL A   1      32.615  26.241  24.707  1.00  0.00     0.104 A 
ATOM      8  N   UNL A   1      32.126  26.130  23.414  1.00  0.00    -0.239 N 
ATOM      9  N   UNL A   1      31.198  27.918  24.160  1.00  0.00    -0.122 NA
ATOM     10  N   UNL A   1      31.438  27.233  23.060  1.00  0.00    -0.066 NA
BRANCH   7  11
ATOM     11  C   UNL A   1      33.523  25.285  25.342  1.00  0.00     0.006 A 
ATOM     12  C   UNL A   1      35.699  24.192  25.454  1.00  0.00     0.119 A 
ATOM     13  C   UNL A   1      35.197  23.322  26.422  1.00  0.00     0.046 A 
ATOM     14  C   UNL A   1      34.871  25.192  24.937  1.00  0.00     0.056 A 
ATOM     15  C   UNL A   1      33.887  23.445  26.878  1.00  0.00     0.005 A 
ATOM     16  C   UNL A   1      33.050  24.417  26.333  1.00  0.00     0.011 A 
BRANCH  12  17
ATOM     17  O   UNL A   1      36.975  23.911  25.059  1.00  0.00    -0.497 OA
ATOM     18  C   UNL A   1      37.943  23.607  26.057  1.00  0.00     0.278 C 
ENDBRANCH  12  17
ENDBRANCH   7  11
BRANCH   8  19
ATOM     19  C   UNL A   1      32.200  25.018  22.472  1.00  0.00     0.182 C 
BRANCH  19  20
ATOM     20  C   UNL A   1      32.169  23.666  23.161  1.00  0.00    -0.026 A 
ATOM     21  C   UNL A   1      31.077  23.285  23.951  1.00  0.00     0.009 A 
ATOM     22  C   UNL A   1      33.245  22.771  23.047  1.00  0.00     0.009 A 
ATOM     23  C   UNL A   1      31.069  22.043  24.598  1.00  0.00     0.047 A 
ATOM     24  C   UNL A   1      33.227  21.523  23.677  1.00  0.00     0.047 A 
ATOM     25  C   UNL A   1      32.138  21.151  24.460  1.00  0.00     0.129 A 
BRANCH  25  26
ATOM     26  O   UNL A   1      31.995  19.975  25.139  1.00  0.00    -0.406 OA
BRANCH  26  27
ATOM     27  C   UNL A   1      32.547  18.808  24.554  1.00  0.00     0.573 C 
ATOM     28  F   UNL A   1      32.000  18.558  23.345  1.00  0.00    -0.132 F 
ATOM     29  F   UNL A   1      33.889  18.900  24.434  1.00  0.00    -0.132 F 
ATOM     30  F   UNL A   1      32.276  17.752  25.356  1.00  0.00    -0.132 F 
ENDBRANCH  26  27
ENDBRANCH  25  26
ENDBRANCH  19  20
ENDBRANCH   8  19
ENDBRANCH   4   6
ENDBRANCH   3   4
ENDBRANCH   2   3
ENDBRANCH   1   2
BRANCH   1  31
ATOM     31  O   UNL A   1      33.875  32.028  27.456  1.00  0.00    -0.374 OA
BRANCH  31  32
ATOM     32  C   UNL A   1      34.786  32.780  28.253  1.00  0.00     0.202 C 
BRANCH  32  33
ATOM     33  C   UNL A   1      34.691  32.692  29.771  1.00  0.00     0.261 C 
BRANCH  33  34
ATOM     34  O   UNL A   1      35.508  31.658  30.286  1.00  0.00    -0.460 OA
BRANCH  34  35
ATOM     35  C   UNL A   1      36.671  32.101  30.822  1.00  0.00     0.338 C 
ATOM     36  O   UNL A   1      36.812  32.779  31.819  1.00  0.00    -0.246 OA
BRANCH  35  37
ATOM     37  C   UNL A   1      37.767  31.721  29.922  1.00  0.00     0.060 A 
ATOM     38  C   UNL A   1      37.566  30.520  29.244  1.00  0.00     0.016 A 
ATOM     39  C   UNL A   1      39.039  32.269  30.136  1.00  0.00     0.016 A 
ATOM     40  C   UNL A   1      38.648  29.688  29.117  1.00  0.00     0.010 A 
ATOM     41  C   UNL A   1      40.114  31.433  30.014  1.00  0.00     0.010 A 
ATOM     42  C   UNL A   1      39.872  30.121  29.635  1.00  0.00    -0.014 A 
BRANCH  42  43
ATOM     43  C   UNL A   1      40.946  29.166  29.704  1.00  0.00     0.031 A 
ATOM     44  C   UNL A   1      41.280  28.848  31.100  1.00  0.00     0.074 A 
ATOM     45  C   UNL A   1      41.506  28.616  28.612  1.00  0.00     0.049 A 
ATOM     46  N   UNL A   1      42.256  29.337  31.788  1.00  0.00    -0.248 NA
ATOM     47  C   UNL A   1      40.271  28.133  31.893  1.00  0.00     0.031 C 
ATOM     48  C   UNL A   1      41.064  28.664  27.216  1.00  0.00     0.029 A 
ATOM     49  N   UNL A   1      42.570  27.781  28.564  1.00  0.00    -0.354 N 
ATOM     50  C   UNL A   1      42.118  28.762  33.043  1.00  0.00     0.074 A 
ATOM     51  C   UNL A   1      40.764  28.285  33.122  1.00  0.00     0.031 C 
ATOM     52  C   UNL A   1      41.703  27.692  26.518  1.00  0.00     0.029 A 
ATOM     53  C   UNL A   1      42.686  27.061  27.383  1.00  0.00     0.049 A 
ATOM     54  H   UNL A   1      43.211  27.691  29.306  1.00  0.00     0.167 HD
ATOM     55  C   UNL A   1      43.215  28.430  33.774  1.00  0.00     0.034 A 
ATOM     56  C   UNL A   1      43.477  25.974  27.198  1.00  0.00     0.034 A 
ATOM     57  C   UNL A   1      44.399  29.083  33.268  1.00  0.00     0.049 A 
ATOM     58  C   UNL A   1      44.526  26.016  28.249  1.00  0.00     0.074 A 
ATOM     59  C   UNL A   1      44.788  30.395  33.086  1.00  0.00     0.029 A 
ATOM     60  N   UNL A   1      45.224  28.328  32.467  1.00  0.00    -0.354 N 
ATOM     61  N   UNL A   1      45.432  26.952  28.309  1.00  0.00    -0.248 NA
ATOM     62  C   UNL A   1      44.264  25.319  29.500  1.00  0.00     0.031 C 
ATOM     63  C   UNL A   1      45.501  30.400  31.850  1.00  0.00     0.029 A 
ATOM     64  C   UNL A   1      45.565  29.087  31.379  1.00  0.00     0.049 A 
ATOM     65  H   UNL A   1      45.518  27.405  32.645  1.00  0.00     0.167 HD
ATOM     66  C   UNL A   1      45.512  27.274  29.658  1.00  0.00     0.074 A 
ATOM     67  C   UNL A   1      44.843  26.172  30.352  1.00  0.00     0.031 C 
ATOM     68  C   UNL A   1      45.834  28.538  30.067  1.00  0.00     0.034 A 
BRANCH  55  69
ATOM     69  C   UNL A   1      43.299  27.207  34.658  1.00  0.00     0.023 A 
ATOM     70  C   UNL A   1      43.307  27.431  36.050  1.00  0.00     0.012 A 
ATOM     71  C   UNL A   1      43.646  25.908  34.215  1.00  0.00     0.148 A 
ATOM     72  C   UNL A   1      43.701  26.434  36.948  1.00  0.00     0.002 A 
ATOM     73  C   UNL A   1      43.959  24.899  35.114  1.00  0.00     0.091 A 
ATOM     74  F   UNL A   1      43.815  25.656  32.917  1.00  0.00    -0.205 F 
ATOM     75  C   UNL A   1      44.023  25.165  36.481  1.00  0.00     0.022 A 
BRANCH  73  76
ATOM     76  S   UNL A   1      44.350  23.234  34.558  1.00  0.00     0.127 S 
ATOM     77  O   UNL A   1      43.154  22.896  33.793  1.00  0.00    -0.237 OA
ATOM     78  O   UNL A   1      45.555  23.463  33.760  1.00  0.00    -0.237 OA
ATOM     79  O   UNL A   1      44.576  22.455  35.768  1.00  0.00    -0.744 OA
ENDBRANCH  73  76
ENDBRANCH  55  69
BRANCH  56  80
ATOM     80  C   UNL A   1      43.187  24.744  26.420  1.00  0.00     0.023 A 
ATOM     81  C   UNL A   1      43.972  24.408  25.299  1.00  0.00     0.012 A 
ATOM     82  C   UNL A   1      42.320  23.757  26.942  1.00  0.00     0.148 A 
ATOM     83  C   UNL A   1      43.905  23.130  24.726  1.00  0.00     0.002 A 
ATOM     84  C   UNL A   1      42.252  22.491  26.368  1.00  0.00     0.091 A 
ATOM     85  F   UNL A   1      41.628  24.032  28.055  1.00  0.00    -0.205 F 
ATOM     86  C   UNL A   1      43.051  22.170  25.264  1.00  0.00     0.022 A 
BRANCH  84  87
ATOM     87  S   UNL A   1      41.194  21.195  27.030  1.00  0.00     0.127 S 
ATOM     88  O   UNL A   1      40.722  21.799  28.276  1.00  0.00    -0.237 OA
ATOM     89  O   UNL A   1      40.179  21.068  25.987  1.00  0.00    -0.237 OA
ATOM     90  O   UNL A   1      42.050  20.029  27.212  1.00  0.00    -0.744 OA
ENDBRANCH  84  87
ENDBRANCH  56  80
BRANCH  68  91
ATOM     91  C   UNL A   1      46.281  29.525  29.013  1.00  0.00     0.023 A 
ATOM     92  C   UNL A   1      47.590  29.518  28.479  1.00  0.00     0.012 A 
ATOM     93  C   UNL A   1      45.313  30.347  28.415  1.00  0.00     0.148 A 
ATOM     94  C   UNL A   1      47.926  30.324  27.387  1.00  0.00     0.002 A 
ATOM     95  C   UNL A   1      45.639  31.115  27.304  1.00  0.00     0.091 A 
ATOM     96  F   UNL A   1      44.072  30.330  28.924  1.00  0.00    -0.205 F 
ATOM     97  C   UNL A   1      46.947  31.114  26.791  1.00  0.00     0.022 A 
BRANCH  95  98
ATOM     98  S   UNL A   1      44.400  32.056  26.411  1.00  0.00     0.127 S 
ATOM     99  O   UNL A   1      44.002  33.053  27.403  1.00  0.00    -0.237 OA
ATOM    100  O   UNL A   1      45.166  32.586  25.283  1.00  0.00    -0.237 OA
ATOM    101  O   UNL A   1      43.362  31.104  26.034  1.00  0.00    -0.744 OA
ENDBRANCH  95  98
ENDBRANCH  68  91
ENDBRANCH  42  43
ENDBRANCH  35  37
ENDBRANCH  34  35
ENDBRANCH  33  34
ENDBRANCH  32  33
ENDBRANCH  31  32
ENDBRANCH   1  31
TORSDOF 23
ENDMDL
