MODEL 1
REMARK VINA RESULT:     -12.6      0.000      0.000
REMARK SMILES CC1=C(C(=O)Nc2ccccc2)[C@@H](c2ccc(C(=O)OCCOCCOC(=O)c3ccc(-c4c5nc(c(-c6cccc(S(=O)(=O)[O-])c6F)c6ccc([nH]6)c(-c6cccc(S(=O)(=O)[O-])c6F)c6nc(c(-c7cccc(S(=O)(=O)[O-])c7F)c7ccc4[nH]7)C=C6)C=C5)cc3)cc2)n2ncnc2N1
REMARK SMILES IDX 23 1 22 2 21 3 20 4 18 5 19 6 17 7 14 8 15 9 93 10 16 11
REMARK SMILES IDX 92 12 13 13 1 14 2 15 3 16 99 17 98 18 94 20 97 21 95 22
REMARK SMILES IDX 96 23 4 24 5 25 6 26 7 28 8 29 12 30 9 31 11 32 10 33 24 34
REMARK SMILES IDX 25 35 26 36 27 37 28 38 29 39 30 40 91 41 31 42 90 43 32 44
REMARK SMILES IDX 33 45 34 46 84 47 35 48 89 49 83 50 85 51 36 52 88 53 82 54
REMARK SMILES IDX 81 55 37 57 69 58 49 59 68 60 50 61 53 62 67 63 86 64 51 65
REMARK SMILES IDX 52 66 66 68 87 69 54 70 38 71 39 72 47 73 40 74 42 75 48 76
REMARK SMILES IDX 41 77 43 78 44 79 45 80 46 81 70 82 71 83 79 84 72 85 74 86
REMARK SMILES IDX 80 87 73 88 75 89 76 90 77 91 78 92 55 93 56 94 64 95 57 96
REMARK SMILES IDX 59 97 65 98 58 99 60 100 61 101 62 102 63 103
REMARK H PARENT 99 19 6 27 85 56 53 67
REMARK Flexibility Score: inf
ROOT
ATOM      1  O   UNL A   1      31.756  29.728  26.619  1.00  0.00    -0.374 OA
ENDROOT
BRANCH   1   2
ATOM      2  C   UNL A   1      31.591  29.039  25.378  1.00  0.00     0.202 C 
BRANCH   2   3
ATOM      3  C   UNL A   1      32.053  29.735  24.097  1.00  0.00     0.261 C 
BRANCH   3   4
ATOM      4  O   UNL A   1      32.274  28.814  23.019  1.00  0.00    -0.460 OA
BRANCH   4   5
ATOM      5  C   UNL A   1      33.543  28.345  22.936  1.00  0.00     0.338 C 
ATOM      6  O   UNL A   1      34.569  29.005  22.916  1.00  0.00    -0.246 OA
BRANCH   5   7
ATOM      7  C   UNL A   1      33.554  26.870  23.052  1.00  0.00     0.060 A 
ATOM      8  C   UNL A   1      33.883  24.109  23.365  1.00  0.00    -0.019 A 
ATOM      9  C   UNL A   1      33.956  24.949  24.483  1.00  0.00     0.007 A 
ATOM     10  C   UNL A   1      33.535  24.660  22.111  1.00  0.00     0.007 A 
ATOM     11  C   UNL A   1      33.805  26.324  24.321  1.00  0.00     0.016 A 
ATOM     12  C   UNL A   1      33.365  26.035  21.953  1.00  0.00     0.016 A 
BRANCH   8  13
ATOM     13  C   UNL A   1      34.352  22.659  23.425  1.00  0.00     0.179 C 
ATOM     14  C   UNL A   1      33.048  19.174  24.644  1.00  0.00     0.065 C 
ATOM     15  C   UNL A   1      33.686  20.537  24.567  1.00  0.00     0.026 C 
ATOM     16  C   UNL A   1      33.306  21.569  23.762  1.00  0.00     0.065 C 
ATOM     17  N   UNL A   1      34.847  20.621  25.330  1.00  0.00    -0.328 N 
ATOM     18  C   UNL A   1      35.741  21.612  25.226  1.00  0.00     0.226 A 
ATOM     19  H   UNL A   1      35.020  19.908  25.985  1.00  0.00     0.169 HD
ATOM     20  N   UNL A   1      35.537  22.587  24.297  1.00  0.00    -0.219 N 
ATOM     21  N   UNL A   1      36.867  21.823  25.859  1.00  0.00    -0.200 NA
ATOM     22  N   UNL A   1      36.589  23.439  24.255  1.00  0.00    -0.157 NA
ATOM     23  C   UNL A   1      37.345  22.948  25.242  1.00  0.00     0.248 A 
BRANCH  16  24
ATOM     24  C   UNL A   1      32.101  21.662  22.874  1.00  0.00     0.255 C 
ATOM     25  O   UNL A   1      32.053  20.913  21.894  1.00  0.00    -0.269 OA
ATOM     26  N   UNL A   1      31.036  22.490  23.071  1.00  0.00    -0.322 N 
ATOM     27  H   UNL A   1      30.351  22.428  22.367  1.00  0.00     0.170 HD
BRANCH  26  28
ATOM     28  C   UNL A   1      30.726  23.409  24.078  1.00  0.00     0.041 A 
ATOM     29  C   UNL A   1      30.924  22.967  25.393  1.00  0.00     0.026 A 
ATOM     30  C   UNL A   1      30.345  24.728  23.841  1.00  0.00     0.026 A 
ATOM     31  C   UNL A   1      30.908  23.878  26.449  1.00  0.00     0.002 A 
ATOM     32  C   UNL A   1      30.271  25.629  24.912  1.00  0.00     0.002 A 
ATOM     33  C   UNL A   1      30.597  25.212  26.206  1.00  0.00     0.000 A 
ENDBRANCH  26  28
ENDBRANCH  16  24
ENDBRANCH   8  13
ENDBRANCH   5   7
ENDBRANCH   4   5
ENDBRANCH   3   4
ENDBRANCH   2   3
ENDBRANCH   1   2
BRANCH   1  34
ATOM     34  C   UNL A   1      32.603  30.871  26.680  1.00  0.00     0.202 C 
BRANCH  34  35
ATOM     35  C   UNL A   1      33.652  30.955  27.776  1.00  0.00     0.261 C 
BRANCH  35  36
ATOM     36  O   UNL A   1      34.958  31.157  27.269  1.00  0.00    -0.460 OA
BRANCH  36  37
ATOM     37  C   UNL A   1      35.716  31.948  28.066  1.00  0.00     0.338 C 
ATOM     38  O   UNL A   1      35.731  33.164  28.096  1.00  0.00    -0.246 OA
BRANCH  37  39
ATOM     39  C   UNL A   1      36.681  31.105  28.773  1.00  0.00     0.060 A 
ATOM     40  C   UNL A   1      37.743  31.771  29.385  1.00  0.00     0.016 A 
ATOM     41  C   UNL A   1      36.689  29.722  28.543  1.00  0.00     0.016 A 
ATOM     42  C   UNL A   1      38.912  31.076  29.583  1.00  0.00     0.010 A 
ATOM     43  C   UNL A   1      37.865  29.036  28.715  1.00  0.00     0.010 A 
ATOM     44  C   UNL A   1      38.976  29.742  29.165  1.00  0.00    -0.014 A 
BRANCH  44  45
ATOM     45  C   UNL A   1      40.209  29.027  29.394  1.00  0.00     0.031 A 
ATOM     46  C   UNL A   1      40.405  28.757  30.835  1.00  0.00     0.074 A 
ATOM     47  C   UNL A   1      40.999  28.606  28.390  1.00  0.00     0.049 A 
ATOM     48  N   UNL A   1      41.271  29.316  31.611  1.00  0.00    -0.248 NA
ATOM     49  C   UNL A   1      39.374  27.983  31.547  1.00  0.00     0.031 C 
ATOM     50  C   UNL A   1      40.713  28.626  26.954  1.00  0.00     0.029 A 
ATOM     51  N   UNL A   1      42.178  27.933  28.457  1.00  0.00    -0.354 N 
ATOM     52  C   UNL A   1      41.062  28.736  32.857  1.00  0.00     0.074 A 
ATOM     53  C   UNL A   1      39.750  28.156  32.815  1.00  0.00     0.031 C 
ATOM     54  C   UNL A   1      41.552  27.769  26.327  1.00  0.00     0.029 A 
ATOM     55  C   UNL A   1      42.491  27.230  27.296  1.00  0.00     0.049 A 
ATOM     56  H   UNL A   1      42.759  27.943  29.252  1.00  0.00     0.167 HD
ATOM     57  C   UNL A   1      42.114  28.502  33.686  1.00  0.00     0.034 A 
ATOM     58  C   UNL A   1      43.385  26.214  27.182  1.00  0.00     0.034 A 
ATOM     59  C   UNL A   1      43.264  29.275  33.279  1.00  0.00     0.049 A 
ATOM     60  C   UNL A   1      44.283  26.279  28.361  1.00  0.00     0.074 A 
ATOM     61  C   UNL A   1      43.513  30.622  33.087  1.00  0.00     0.029 A 
ATOM     62  N   UNL A   1      44.249  28.600  32.599  1.00  0.00    -0.354 N 
ATOM     63  N   UNL A   1      45.151  27.234  28.544  1.00  0.00    -0.248 NA
ATOM     64  C   UNL A   1      43.892  25.551  29.559  1.00  0.00     0.031 C 
ATOM     65  C   UNL A   1      44.359  30.679  31.942  1.00  0.00     0.029 A 
ATOM     66  C   UNL A   1      44.654  29.374  31.547  1.00  0.00     0.049 A 
ATOM     67  H   UNL A   1      44.603  27.711  32.831  1.00  0.00     0.167 HD
ATOM     68  C   UNL A   1      45.022  27.551  29.890  1.00  0.00     0.074 A 
ATOM     69  C   UNL A   1      44.324  26.411  30.486  1.00  0.00     0.031 C 
ATOM     70  C   UNL A   1      45.206  28.831  30.326  1.00  0.00     0.034 A 
BRANCH  57  71
ATOM     71  C   UNL A   1      42.262  27.276  34.565  1.00  0.00     0.023 A 
ATOM     72  C   UNL A   1      41.804  27.403  35.896  1.00  0.00     0.012 A 
ATOM     73  C   UNL A   1      43.063  26.146  34.273  1.00  0.00     0.148 A 
ATOM     74  C   UNL A   1      42.203  26.515  36.898  1.00  0.00     0.002 A 
ATOM     75  C   UNL A   1      43.399  25.225  35.257  1.00  0.00     0.091 A 
ATOM     76  F   UNL A   1      43.616  25.996  33.069  1.00  0.00    -0.205 F 
ATOM     77  C   UNL A   1      43.004  25.426  36.580  1.00  0.00     0.022 A 
BRANCH  75  78
ATOM     78  S   UNL A   1      44.400  23.775  34.896  1.00  0.00     0.127 S 
ATOM     79  O   UNL A   1      45.014  23.512  36.195  1.00  0.00    -0.237 OA
ATOM     80  O   UNL A   1      43.382  22.810  34.483  1.00  0.00    -0.237 OA
ATOM     81  O   UNL A   1      45.316  24.172  33.833  1.00  0.00    -0.744 OA
ENDBRANCH  75  78
ENDBRANCH  57  71
BRANCH  58  82
ATOM     82  C   UNL A   1      43.386  25.032  26.283  1.00  0.00     0.023 A 
ATOM     83  C   UNL A   1      44.378  24.910  25.288  1.00  0.00     0.012 A 
ATOM     84  C   UNL A   1      42.598  23.896  26.569  1.00  0.00     0.148 A 
ATOM     85  C   UNL A   1      44.601  23.695  24.628  1.00  0.00     0.002 A 
ATOM     86  C   UNL A   1      42.815  22.692  25.903  1.00  0.00     0.091 A 
ATOM     87  F   UNL A   1      41.702  23.961  27.561  1.00  0.00    -0.205 F 
ATOM     88  C   UNL A   1      43.824  22.582  24.940  1.00  0.00     0.022 A 
BRANCH  86  89
ATOM     89  S   UNL A   1      41.865  21.211  26.283  1.00  0.00     0.127 S 
ATOM     90  O   UNL A   1      42.152  21.020  27.705  1.00  0.00    -0.237 OA
ATOM     91  O   UNL A   1      40.502  21.642  25.986  1.00  0.00    -0.237 OA
ATOM     92  O   UNL A   1      42.398  20.163  25.422  1.00  0.00    -0.744 OA
ENDBRANCH  86  89
ENDBRANCH  58  82
BRANCH  70  93
ATOM     93  C   UNL A   1      45.833  29.822  29.380  1.00  0.00     0.023 A 
ATOM     94  C   UNL A   1      47.227  29.933  29.189  1.00  0.00     0.012 A 
ATOM     95  C   UNL A   1      44.975  30.555  28.544  1.00  0.00     0.148 A 
ATOM     96  C   UNL A   1      47.749  30.779  28.207  1.00  0.00     0.002 A 
ATOM     97  C   UNL A   1      45.495  31.353  27.535  1.00  0.00     0.091 A 
ATOM     98  F   UNL A   1      43.652  30.441  28.737  1.00  0.00    -0.205 F 
ATOM     99  C   UNL A   1      46.882  31.479  27.369  1.00  0.00     0.022 A 
BRANCH  97 100
ATOM    100  S   UNL A   1      44.416  32.166  26.357  1.00  0.00     0.127 S 
ATOM    101  O   UNL A   1      43.486  31.096  26.006  1.00  0.00    -0.237 OA
ATOM    102  O   UNL A   1      43.833  33.248  27.154  1.00  0.00    -0.237 OA
ATOM    103  O   UNL A   1      45.283  32.629  25.279  1.00  0.00    -0.744 OA
ENDBRANCH  97 100
ENDBRANCH  70  93
ENDBRANCH  44  45
ENDBRANCH  37  39
ENDBRANCH  36  37
ENDBRANCH  35  36
ENDBRANCH  34  35
ENDBRANCH   1  34
TORSDOF 20
ENDMDL
MODEL 2
REMARK VINA RESULT:     -12.2      3.685      5.543
REMARK SMILES CC1=C(C(=O)Nc2ccccc2)[C@@H](c2ccc(C(=O)OCCOCCOC(=O)c3ccc(-c4c5nc(c(-c6cccc(S(=O)(=O)[O-])c6F)c6ccc([nH]6)c(-c6cccc(S(=O)(=O)[O-])c6F)c6nc(c(-c7cccc(S(=O)(=O)[O-])c7F)c7ccc4[nH]7)C=C6)C=C5)cc3)cc2)n2ncnc2N1
REMARK SMILES IDX 23 1 22 2 21 3 20 4 18 5 19 6 17 7 14 8 15 9 93 10 16 11
REMARK SMILES IDX 92 12 13 13 1 14 2 15 3 16 99 17 98 18 94 20 97 21 95 22
REMARK SMILES IDX 96 23 4 24 5 25 6 26 7 28 8 29 12 30 9 31 11 32 10 33 24 34
REMARK SMILES IDX 25 35 26 36 27 37 28 38 29 39 30 40 91 41 31 42 90 43 32 44
REMARK SMILES IDX 33 45 34 46 84 47 35 48 89 49 83 50 85 51 36 52 88 53 82 54
REMARK SMILES IDX 81 55 37 57 69 58 49 59 68 60 50 61 53 62 67 63 86 64 51 65
REMARK SMILES IDX 52 66 66 68 87 69 54 70 38 71 39 72 47 73 40 74 42 75 48 76
REMARK SMILES IDX 41 77 43 78 44 79 45 80 46 81 70 82 71 83 79 84 72 85 74 86
REMARK SMILES IDX 80 87 73 88 75 89 76 90 77 91 78 92 55 93 56 94 64 95 57 96
REMARK SMILES IDX 59 97 65 98 58 99 60 100 61 101 62 102 63 103
REMARK H PARENT 99 19 6 27 85 56 53 67
REMARK Flexibility Score: inf
ROOT
ATOM      1  O   UNL A   1      34.280  34.189  27.746  1.00  0.00    -0.374 OA
ENDROOT
BRANCH   1   2
ATOM      2  C   UNL A   1      35.264  33.154  27.783  1.00  0.00     0.202 C 
BRANCH   2   3
ATOM      3  C   UNL A   1      34.894  31.827  28.449  1.00  0.00     0.261 C 
BRANCH   3   4
ATOM      4  O   UNL A   1      34.520  30.819  27.499  1.00  0.00    -0.460 OA
BRANCH   4   5
ATOM      5  C   UNL A   1      33.183  30.685  27.323  1.00  0.00     0.338 C 
ATOM      6  O   UNL A   1      32.348  31.574  27.345  1.00  0.00    -0.246 OA
BRANCH   5   7
ATOM      7  C   UNL A   1      32.856  29.302  26.909  1.00  0.00     0.060 A 
ATOM      8  C   UNL A   1      32.241  26.799  25.823  1.00  0.00    -0.019 A 
ATOM      9  C   UNL A   1      33.482  27.387  25.555  1.00  0.00     0.007 A 
ATOM     10  C   UNL A   1      31.361  27.431  26.729  1.00  0.00     0.007 A 
ATOM     11  C   UNL A   1      33.779  28.639  26.086  1.00  0.00     0.016 A 
ATOM     12  C   UNL A   1      31.666  28.677  27.277  1.00  0.00     0.016 A 
BRANCH   8  13
ATOM     13  C   UNL A   1      31.736  25.601  25.025  1.00  0.00     0.179 C 
ATOM     14  C   UNL A   1      32.985  22.074  23.870  1.00  0.00     0.065 C 
ATOM     15  C   UNL A   1      32.683  23.548  23.958  1.00  0.00     0.026 C 
ATOM     16  C   UNL A   1      32.547  24.285  25.096  1.00  0.00     0.065 C 
ATOM     17  N   UNL A   1      32.401  24.104  22.714  1.00  0.00    -0.328 N 
ATOM     18  C   UNL A   1      31.844  25.309  22.540  1.00  0.00     0.226 A 
ATOM     19  H   UNL A   1      32.626  23.579  21.912  1.00  0.00     0.169 HD
ATOM     20  N   UNL A   1      31.490  26.034  23.638  1.00  0.00    -0.219 N 
ATOM     21  N   UNL A   1      31.516  25.956  21.451  1.00  0.00    -0.200 NA
ATOM     22  N   UNL A   1      30.844  27.167  23.279  1.00  0.00    -0.157 NA
ATOM     23  C   UNL A   1      30.918  27.084  21.947  1.00  0.00     0.248 A 
BRANCH  16  24
ATOM     24  C   UNL A   1      32.800  23.863  26.513  1.00  0.00     0.255 C 
ATOM     25  O   UNL A   1      31.866  23.964  27.315  1.00  0.00    -0.269 OA
ATOM     26  N   UNL A   1      33.969  23.351  26.989  1.00  0.00    -0.322 N 
ATOM     27  H   UNL A   1      33.953  23.156  27.954  1.00  0.00     0.170 HD
BRANCH  26  28
ATOM     28  C   UNL A   1      35.189  23.048  26.375  1.00  0.00     0.041 A 
ATOM     29  C   UNL A   1      35.477  21.684  26.226  1.00  0.00     0.026 A 
ATOM     30  C   UNL A   1      36.048  24.000  25.831  1.00  0.00     0.026 A 
ATOM     31  C   UNL A   1      36.520  21.275  25.397  1.00  0.00     0.002 A 
ATOM     32  C   UNL A   1      37.131  23.585  25.046  1.00  0.00     0.002 A 
ATOM     33  C   UNL A   1      37.338  22.225  24.794  1.00  0.00     0.000 A 
ENDBRANCH  26  28
ENDBRANCH  16  24
ENDBRANCH   8  13
ENDBRANCH   5   7
ENDBRANCH   4   5
ENDBRANCH   3   4
ENDBRANCH   2   3
ENDBRANCH   1   2
BRANCH   1  34
ATOM     34  C   UNL A   1      34.202  35.123  28.818  1.00  0.00     0.202 C 
BRANCH  34  35
ATOM     35  C   UNL A   1      33.031  35.042  29.783  1.00  0.00     0.261 C 
BRANCH  35  36
ATOM     36  O   UNL A   1      33.259  35.762  30.981  1.00  0.00    -0.460 OA
BRANCH  36  37
ATOM     37  C   UNL A   1      33.024  35.022  32.091  1.00  0.00     0.338 C 
ATOM     38  O   UNL A   1      31.994  34.968  32.735  1.00  0.00    -0.246 OA
BRANCH  37  39
ATOM     39  C   UNL A   1      34.288  34.428  32.527  1.00  0.00     0.060 A 
ATOM     40  C   UNL A   1      35.351  35.314  32.709  1.00  0.00     0.016 A 
ATOM     41  C   UNL A   1      34.470  33.041  32.429  1.00  0.00     0.016 A 
ATOM     42  C   UNL A   1      36.628  34.823  32.588  1.00  0.00     0.010 A 
ATOM     43  C   UNL A   1      35.744  32.556  32.279  1.00  0.00     0.010 A 
ATOM     44  C   UNL A   1      36.798  33.465  32.290  1.00  0.00    -0.014 A 
BRANCH  44  45
ATOM     45  C   UNL A   1      38.148  32.968  32.179  1.00  0.00     0.031 A 
ATOM     46  C   UNL A   1      38.842  33.021  33.484  1.00  0.00     0.074 A 
ATOM     47  C   UNL A   1      38.638  32.452  31.037  1.00  0.00     0.049 A 
ATOM     48  N   UNL A   1      39.793  33.826  33.818  1.00  0.00    -0.248 NA
ATOM     49  C   UNL A   1      38.254  32.287  34.618  1.00  0.00     0.031 C 
ATOM     50  C   UNL A   1      37.908  32.146  29.805  1.00  0.00     0.029 A 
ATOM     51  N   UNL A   1      39.878  31.955  30.788  1.00  0.00    -0.354 N 
ATOM     52  C   UNL A   1      40.104  33.490  35.130  1.00  0.00     0.074 A 
ATOM     53  C   UNL A   1      38.977  32.758  35.634  1.00  0.00     0.031 C 
ATOM     54  C   UNL A   1      38.644  31.289  29.061  1.00  0.00     0.029 A 
ATOM     55  C   UNL A   1      39.926  31.076  29.710  1.00  0.00     0.049 A 
ATOM     56  H   UNL A   1      40.671  32.197  31.320  1.00  0.00     0.167 HD
ATOM     57  C   UNL A   1      41.390  33.558  35.565  1.00  0.00     0.034 A 
ATOM     58  C   UNL A   1      40.907  30.174  29.445  1.00  0.00     0.034 A 
ATOM     59  C   UNL A   1      42.186  34.368  34.672  1.00  0.00     0.049 A 
ATOM     60  C   UNL A   1      42.108  30.586  30.212  1.00  0.00     0.074 A 
ATOM     61  C   UNL A   1      42.109  35.668  34.208  1.00  0.00     0.029 A 
ATOM     62  N   UNL A   1      43.008  33.695  33.800  1.00  0.00    -0.354 N 
ATOM     63  N   UNL A   1      42.798  31.657  29.937  1.00  0.00    -0.248 NA
ATOM     64  C   UNL A   1      42.262  30.073  31.566  1.00  0.00     0.031 C 
ATOM     65  C   UNL A   1      42.518  35.595  32.845  1.00  0.00     0.029 A 
ATOM     66  C   UNL A   1      42.905  34.283  32.570  1.00  0.00     0.049 A 
ATOM     67  H   UNL A   1      43.574  32.921  34.024  1.00  0.00     0.167 HD
ATOM     68  C   UNL A   1      43.051  32.221  31.181  1.00  0.00     0.074 A 
ATOM     69  C   UNL A   1      42.802  31.149  32.145  1.00  0.00     0.031 C 
ATOM     70  C   UNL A   1      43.126  33.576  31.329  1.00  0.00     0.034 A 
BRANCH  57  71
ATOM     71  C   UNL A   1      42.034  32.563  36.509  1.00  0.00     0.023 A 
ATOM     72  C   UNL A   1      42.732  33.109  37.611  1.00  0.00     0.012 A 
ATOM     73  C   UNL A   1      42.248  31.191  36.237  1.00  0.00     0.148 A 
ATOM     74  C   UNL A   1      43.664  32.360  38.334  1.00  0.00     0.002 A 
ATOM     75  C   UNL A   1      43.123  30.430  37.003  1.00  0.00     0.091 A 
ATOM     76  F   UNL A   1      41.707  30.617  35.162  1.00  0.00    -0.205 F 
ATOM     77  C   UNL A   1      43.863  31.020  38.029  1.00  0.00     0.022 A 
BRANCH  75  78
ATOM     78  S   UNL A   1      43.391  28.681  36.681  1.00  0.00     0.127 S 
ATOM     79  O   UNL A   1      44.239  28.302  37.807  1.00  0.00    -0.237 OA
ATOM     80  O   UNL A   1      42.025  28.161  36.728  1.00  0.00    -0.237 OA
ATOM     81  O   UNL A   1      44.016  28.605  35.366  1.00  0.00    -0.744 OA
ENDBRANCH  75  78
ENDBRANCH  57  71
BRANCH  58  82
ATOM     82  C   UNL A   1      40.836  28.844  28.788  1.00  0.00     0.023 A 
ATOM     83  C   UNL A   1      39.723  28.008  29.018  1.00  0.00     0.012 A 
ATOM     84  C   UNL A   1      41.706  28.505  27.728  1.00  0.00     0.148 A 
ATOM     85  C   UNL A   1      39.467  26.898  28.203  1.00  0.00     0.002 A 
ATOM     86  C   UNL A   1      41.453  27.395  26.926  1.00  0.00     0.091 A 
ATOM     87  F   UNL A   1      42.725  29.323  27.438  1.00  0.00    -0.205 F 
ATOM     88  C   UNL A   1      40.327  26.595  27.151  1.00  0.00     0.022 A 
BRANCH  86  89
ATOM     89  S   UNL A   1      42.510  26.968  25.534  1.00  0.00     0.127 S 
ATOM     90  O   UNL A   1      42.383  28.149  24.679  1.00  0.00    -0.237 OA
ATOM     91  O   UNL A   1      43.812  26.817  26.178  1.00  0.00    -0.237 OA
ATOM     92  O   UNL A   1      41.944  25.753  24.960  1.00  0.00    -0.744 OA
ENDBRANCH  86  89
ENDBRANCH  58  82
BRANCH  70  93
ATOM     93  C   UNL A   1      43.224  34.424  30.087  1.00  0.00     0.023 A 
ATOM     94  C   UNL A   1      42.096  34.935  29.410  1.00  0.00     0.012 A 
ATOM     95  C   UNL A   1      44.502  34.844  29.686  1.00  0.00     0.148 A 
ATOM     96  C   UNL A   1      42.246  35.820  28.340  1.00  0.00     0.002 A 
ATOM     97  C   UNL A   1      44.645  35.764  28.657  1.00  0.00     0.091 A 
ATOM     98  F   UNL A   1      45.566  34.349  30.337  1.00  0.00    -0.205 F 
ATOM     99  C   UNL A   1      43.521  36.247  27.971  1.00  0.00     0.022 A 
BRANCH  97 100
ATOM    100  S   UNL A   1      46.254  36.434  28.239  1.00  0.00     0.127 S 
ATOM    101  O   UNL A   1      46.696  36.987  29.517  1.00  0.00    -0.237 OA
ATOM    102  O   UNL A   1      46.989  35.246  27.798  1.00  0.00    -0.237 OA
ATOM    103  O   UNL A   1      46.015  37.406  27.179  1.00  0.00    -0.744 OA
ENDBRANCH  97 100
ENDBRANCH  70  93
ENDBRANCH  44  45
ENDBRANCH  37  39
ENDBRANCH  36  37
ENDBRANCH  35  36
ENDBRANCH  34  35
ENDBRANCH   1  34
TORSDOF 20
ENDMDL
MODEL 3
REMARK VINA RESULT:     -12.1      2.505      4.105
REMARK SMILES CC1=C(C(=O)Nc2ccccc2)[C@@H](c2ccc(C(=O)OCCOCCOC(=O)c3ccc(-c4c5nc(c(-c6cccc(S(=O)(=O)[O-])c6F)c6ccc([nH]6)c(-c6cccc(S(=O)(=O)[O-])c6F)c6nc(c(-c7cccc(S(=O)(=O)[O-])c7F)c7ccc4[nH]7)C=C6)C=C5)cc3)cc2)n2ncnc2N1
REMARK SMILES IDX 23 1 22 2 21 3 20 4 18 5 19 6 17 7 14 8 15 9 93 10 16 11
REMARK SMILES IDX 92 12 13 13 1 14 2 15 3 16 99 17 98 18 94 20 97 21 95 22
REMARK SMILES IDX 96 23 4 24 5 25 6 26 7 28 8 29 12 30 9 31 11 32 10 33 24 34
REMARK SMILES IDX 25 35 26 36 27 37 28 38 29 39 30 40 91 41 31 42 90 43 32 44
REMARK SMILES IDX 33 45 34 46 84 47 35 48 89 49 83 50 85 51 36 52 88 53 82 54
REMARK SMILES IDX 81 55 37 57 69 58 49 59 68 60 50 61 53 62 67 63 86 64 51 65
REMARK SMILES IDX 52 66 66 68 87 69 54 70 38 71 39 72 47 73 40 74 42 75 48 76
REMARK SMILES IDX 41 77 43 78 44 79 45 80 46 81 70 82 71 83 79 84 72 85 74 86
REMARK SMILES IDX 80 87 73 88 75 89 76 90 77 91 78 92 55 93 56 94 64 95 57 96
REMARK SMILES IDX 59 97 65 98 58 99 60 100 61 101 62 102 63 103
REMARK H PARENT 99 19 6 27 85 56 53 67
REMARK Flexibility Score: inf
ROOT
ATOM      1  O   UNL A   1      35.512  33.401  27.640  1.00  0.00    -0.374 OA
ENDROOT
BRANCH   1   2
ATOM      2  C   UNL A   1      36.312  32.381  28.239  1.00  0.00     0.202 C 
BRANCH   2   3
ATOM      3  C   UNL A   1      35.610  31.135  28.782  1.00  0.00     0.261 C 
BRANCH   3   4
ATOM      4  O   UNL A   1      35.140  30.270  27.739  1.00  0.00    -0.460 OA
BRANCH   4   5
ATOM      5  C   UNL A   1      33.806  30.348  27.507  1.00  0.00     0.338 C 
ATOM      6  O   UNL A   1      33.122  31.358  27.499  1.00  0.00    -0.246 OA
BRANCH   5   7
ATOM      7  C   UNL A   1      33.282  29.033  27.074  1.00  0.00     0.060 A 
ATOM      8  C   UNL A   1      32.314  26.660  25.954  1.00  0.00    -0.019 A 
ATOM      9  C   UNL A   1      33.630  27.063  25.698  1.00  0.00     0.007 A 
ATOM     10  C   UNL A   1      31.530  27.404  26.864  1.00  0.00     0.007 A 
ATOM     11  C   UNL A   1      34.104  28.252  26.247  1.00  0.00     0.016 A 
ATOM     12  C   UNL A   1      32.012  28.585  27.429  1.00  0.00     0.016 A 
BRANCH   8  13
ATOM     13  C   UNL A   1      31.644  25.559  25.138  1.00  0.00     0.179 C 
ATOM     14  C   UNL A   1      32.418  21.945  23.844  1.00  0.00     0.065 C 
ATOM     15  C   UNL A   1      32.302  23.442  23.983  1.00  0.00     0.026 C 
ATOM     16  C   UNL A   1      32.289  24.152  25.145  1.00  0.00     0.065 C 
ATOM     17  N   UNL A   1      32.056  24.068  22.765  1.00  0.00    -0.328 N 
ATOM     18  C   UNL A   1      31.646  25.336  22.643  1.00  0.00     0.226 A 
ATOM     19  H   UNL A   1      32.192  23.545  21.942  1.00  0.00     0.169 HD
ATOM     20  N   UNL A   1      31.414  26.063  23.772  1.00  0.00    -0.219 N 
ATOM     21  N   UNL A   1      31.370  26.054  21.584  1.00  0.00    -0.200 NA
ATOM     22  N   UNL A   1      30.902  27.278  23.466  1.00  0.00    -0.157 NA
ATOM     23  C   UNL A   1      30.929  27.229  22.130  1.00  0.00     0.248 A 
BRANCH  16  24
ATOM     24  C   UNL A   1      32.527  23.658  26.541  1.00  0.00     0.255 C 
ATOM     25  O   UNL A   1      31.570  23.664  27.322  1.00  0.00    -0.269 OA
ATOM     26  N   UNL A   1      33.709  23.175  27.018  1.00  0.00    -0.322 N 
ATOM     27  H   UNL A   1      33.678  22.921  27.968  1.00  0.00     0.170 HD
BRANCH  26  28
ATOM     28  C   UNL A   1      34.957  22.969  26.421  1.00  0.00     0.041 A 
ATOM     29  C   UNL A   1      35.329  21.631  26.226  1.00  0.00     0.026 A 
ATOM     30  C   UNL A   1      35.768  23.991  25.934  1.00  0.00     0.026 A 
ATOM     31  C   UNL A   1      36.411  21.318  25.406  1.00  0.00     0.002 A 
ATOM     32  C   UNL A   1      36.890  23.672  25.158  1.00  0.00     0.002 A 
ATOM     33  C   UNL A   1      37.183  22.338  24.858  1.00  0.00     0.000 A 
ENDBRANCH  26  28
ENDBRANCH  16  24
ENDBRANCH   8  13
ENDBRANCH   5   7
ENDBRANCH   4   5
ENDBRANCH   3   4
ENDBRANCH   2   3
ENDBRANCH   1   2
BRANCH   1  34
ATOM     34  C   UNL A   1      35.143  34.544  28.404  1.00  0.00     0.202 C 
BRANCH  34  35
ATOM     35  C   UNL A   1      34.326  34.353  29.671  1.00  0.00     0.261 C 
BRANCH  35  36
ATOM     36  O   UNL A   1      35.110  34.446  30.846  1.00  0.00    -0.460 OA
BRANCH  36  37
ATOM     37  C   UNL A   1      34.817  33.481  31.751  1.00  0.00     0.338 C 
ATOM     38  O   UNL A   1      33.739  33.261  32.269  1.00  0.00    -0.246 OA
BRANCH  37  39
ATOM     39  C   UNL A   1      36.066  32.845  32.171  1.00  0.00     0.060 A 
ATOM     40  C   UNL A   1      37.240  33.526  31.844  1.00  0.00     0.016 A 
ATOM     41  C   UNL A   1      36.059  31.499  32.564  1.00  0.00     0.016 A 
ATOM     42  C   UNL A   1      38.395  32.793  31.713  1.00  0.00     0.010 A 
ATOM     43  C   UNL A   1      37.205  30.764  32.405  1.00  0.00     0.010 A 
ATOM     44  C   UNL A   1      38.336  31.409  31.914  1.00  0.00    -0.014 A 
BRANCH  44  45
ATOM     45  C   UNL A   1      39.564  30.661  31.784  1.00  0.00     0.031 A 
ATOM     46  C   UNL A   1      40.297  30.617  33.067  1.00  0.00     0.074 A 
ATOM     47  C   UNL A   1      39.909  30.030  30.647  1.00  0.00     0.049 A 
ATOM     48  N   UNL A   1      41.394  31.235  33.348  1.00  0.00    -0.248 NA
ATOM     49  C   UNL A   1      39.618  30.039  34.240  1.00  0.00     0.031 C 
ATOM     50  C   UNL A   1      39.095  29.835  29.445  1.00  0.00     0.029 A 
ATOM     51  N   UNL A   1      41.025  29.300  30.381  1.00  0.00    -0.354 N 
ATOM     52  C   UNL A   1      41.678  30.882  34.662  1.00  0.00     0.074 A 
ATOM     53  C   UNL A   1      40.450  30.392  35.221  1.00  0.00     0.031 C 
ATOM     54  C   UNL A   1      39.631  28.834  28.710  1.00  0.00     0.029 A 
ATOM     55  C   UNL A   1      40.870  28.398  29.332  1.00  0.00     0.049 A 
ATOM     56  H   UNL A   1      41.865  29.401  30.884  1.00  0.00     0.167 HD
ATOM     57  C   UNL A   1      42.967  30.716  35.061  1.00  0.00     0.034 A 
ATOM     58  C   UNL A   1      41.653  27.319  29.070  1.00  0.00     0.034 A 
ATOM     59  C   UNL A   1      43.873  31.335  34.121  1.00  0.00     0.049 A 
ATOM     60  C   UNL A   1      42.934  27.516  29.792  1.00  0.00     0.074 A 
ATOM     61  C   UNL A   1      44.028  32.612  33.615  1.00  0.00     0.029 A 
ATOM     62  N   UNL A   1      44.523  30.494  33.250  1.00  0.00    -0.354 N 
ATOM     63  N   UNL A   1      43.805  28.428  29.463  1.00  0.00    -0.248 NA
ATOM     64  C   UNL A   1      43.032  27.020  31.157  1.00  0.00     0.031 C 
ATOM     65  C   UNL A   1      44.371  32.426  32.245  1.00  0.00     0.029 A 
ATOM     66  C   UNL A   1      44.494  31.057  32.004  1.00  0.00     0.049 A 
ATOM     67  H   UNL A   1      44.940  29.633  33.483  1.00  0.00     0.167 HD
ATOM     68  C   UNL A   1      44.201  28.968  30.680  1.00  0.00     0.074 A 
ATOM     69  C   UNL A   1      43.786  27.989  31.686  1.00  0.00     0.031 C 
ATOM     70  C   UNL A   1      44.537  30.287  30.781  1.00  0.00     0.034 A 
BRANCH  57  71
ATOM     71  C   UNL A   1      43.441  29.643  36.020  1.00  0.00     0.023 A 
ATOM     72  C   UNL A   1      44.338  30.060  37.030  1.00  0.00     0.012 A 
ATOM     73  C   UNL A   1      43.309  28.248  35.823  1.00  0.00     0.148 A 
ATOM     74  C   UNL A   1      45.129  29.147  37.733  1.00  0.00     0.002 A 
ATOM     75  C   UNL A   1      44.045  27.339  36.573  1.00  0.00     0.091 A 
ATOM     76  F   UNL A   1      42.560  27.768  34.830  1.00  0.00    -0.205 F 
ATOM     77  C   UNL A   1      44.986  27.785  37.503  1.00  0.00     0.022 A 
BRANCH  75  78
ATOM     78  S   UNL A   1      43.873  25.563  36.348  1.00  0.00     0.127 S 
ATOM     79  O   UNL A   1      44.550  25.363  35.070  1.00  0.00    -0.237 OA
ATOM     80  O   UNL A   1      44.585  25.048  37.517  1.00  0.00    -0.237 OA
ATOM     81  O   UNL A   1      42.440  25.294  36.353  1.00  0.00    -0.744 OA
ENDBRANCH  75  78
ENDBRANCH  57  71
BRANCH  58  82
ATOM     82  C   UNL A   1      41.310  26.010  28.460  1.00  0.00     0.023 A 
ATOM     83  C   UNL A   1      39.967  25.581  28.432  1.00  0.00     0.012 A 
ATOM     84  C   UNL A   1      42.242  25.309  27.662  1.00  0.00     0.148 A 
ATOM     85  C   UNL A   1      39.560  24.519  27.614  1.00  0.00     0.002 A 
ATOM     86  C   UNL A   1      41.836  24.247  26.859  1.00  0.00     0.091 A 
ATOM     87  F   UNL A   1      43.507  25.743  27.611  1.00  0.00    -0.205 F 
ATOM     88  C   UNL A   1      40.492  23.855  26.822  1.00  0.00     0.022 A 
BRANCH  86  89
ATOM     89  S   UNL A   1      42.987  23.369  25.791  1.00  0.00     0.127 S 
ATOM     90  O   UNL A   1      44.034  22.970  26.732  1.00  0.00    -0.237 OA
ATOM     91  O   UNL A   1      42.161  22.272  25.293  1.00  0.00    -0.237 OA
ATOM     92  O   UNL A   1      43.422  24.336  24.791  1.00  0.00    -0.744 OA
ENDBRANCH  86  89
ENDBRANCH  58  82
BRANCH  70  93
ATOM     93  C   UNL A   1      44.753  31.067  29.510  1.00  0.00     0.023 A 
ATOM     94  C   UNL A   1      43.716  31.746  28.835  1.00  0.00     0.012 A 
ATOM     95  C   UNL A   1      46.075  31.244  29.073  1.00  0.00     0.148 A 
ATOM     96  C   UNL A   1      43.994  32.559  27.733  1.00  0.00     0.002 A 
ATOM     97  C   UNL A   1      46.353  32.093  28.012  1.00  0.00     0.091 A 
ATOM     98  F   UNL A   1      47.051  30.591  29.723  1.00  0.00    -0.205 F 
ATOM     99  C   UNL A   1      45.315  32.744  27.329  1.00  0.00     0.022 A 
BRANCH  97 100
ATOM    100  S   UNL A   1      48.045  32.458  27.544  1.00  0.00     0.127 S 
ATOM    101  O   UNL A   1      47.906  32.777  26.125  1.00  0.00    -0.237 OA
ATOM    102  O   UNL A   1      48.372  33.600  28.400  1.00  0.00    -0.237 OA
ATOM    103  O   UNL A   1      48.809  31.254  27.849  1.00  0.00    -0.744 OA
ENDBRANCH  97 100
ENDBRANCH  70  93
ENDBRANCH  44  45
ENDBRANCH  37  39
ENDBRANCH  36  37
ENDBRANCH  35  36
ENDBRANCH  34  35
ENDBRANCH   1  34
TORSDOF 20
ENDMDL
