MODEL 1
REMARK VINA RESULT:     -11.4      0.000      0.000
REMARK SMILES CC1=C(C)C[C@@H](C(=O)NNC(=O)c2sccc2C)[C@@H](C(=O)OCCOCCOC(=O)c2ccc(-c3c4nc(c(-c5cccc(S(=O)(=O)[O-])c5F)c5ccc([nH]5)c(-c5cccc(S(=O)(=O)[O-])c5F)c5nc(c(-c6cccc(S(=O)(=O)[O-])c6F)c6ccc3[nH]6)C=C5)C=C4)cc2)C1
REMARK SMILES IDX 25 1 24 2 23 3 22 4 20 5 21 6 19 7 1 8 2 9 3 10 94 11 4 12
REMARK SMILES IDX 5 13 6 14 7 15 8 16 9 17 10 19 11 20 12 22 13 23 14 24 17 25
REMARK SMILES IDX 15 26 16 27 18 28 26 29 27 30 28 31 29 32 30 33 31 34 32 35
REMARK SMILES IDX 93 36 33 37 92 38 34 39 35 40 36 41 86 42 37 43 91 44 85 45
REMARK SMILES IDX 87 46 38 47 90 48 84 49 83 50 39 52 71 53 51 54 70 55 52 56
REMARK SMILES IDX 55 57 69 58 88 59 53 60 54 61 68 63 89 64 56 65 40 66 41 67
REMARK SMILES IDX 49 68 42 69 44 70 50 71 43 72 45 73 46 74 47 75 48 76 72 77
REMARK SMILES IDX 73 78 81 79 74 80 76 81 82 82 75 83 77 84 78 85 79 86 80 87
REMARK SMILES IDX 57 88 58 89 66 90 59 91 61 92 67 93 60 94 62 95 63 96 64 97
REMARK SMILES IDX 65 98
REMARK H PARENT 9 18 10 21 87 51 55 62
REMARK Flexibility Score: inf
ROOT
ATOM      1  O   UNL A   1      31.983  28.135  26.751  1.00  0.00    -0.374 OA
ENDROOT
BRANCH   1   2
ATOM      2  C   UNL A   1      32.021  26.727  26.505  1.00  0.00     0.202 C 
BRANCH   2   3
ATOM      3  C   UNL A   1      32.710  26.295  25.207  1.00  0.00     0.261 C 
BRANCH   3   4
ATOM      4  O   UNL A   1      33.818  25.397  25.402  1.00  0.00    -0.463 OA
BRANCH   4   5
ATOM      5  C   UNL A   1      33.644  24.143  24.926  1.00  0.00     0.310 C 
ATOM      6  O   UNL A   1      32.550  23.637  24.691  1.00  0.00    -0.252 OA
BRANCH   5   7
ATOM      7  C   UNL A   1      34.936  23.363  24.720  1.00  0.00     0.116 C 
ATOM      8  C   UNL A   1      38.346  24.092  26.487  1.00  0.00     0.039 C 
ATOM      9  C   UNL A   1      37.314  23.280  25.742  1.00  0.00    -0.073 C 
ATOM     10  C   UNL A   1      37.468  22.008  25.310  1.00  0.00    -0.074 C 
ATOM     11  C   UNL A   1      36.007  24.024  25.593  1.00  0.00     0.046 C 
ATOM     12  C   UNL A   1      38.708  21.170  25.498  1.00  0.00     0.039 C 
ATOM     13  C   UNL A   1      36.335  21.242  24.648  1.00  0.00     0.045 C 
ATOM     14  C   UNL A   1      34.925  21.832  24.814  1.00  0.00     0.099 C 
BRANCH  14  15
ATOM     15  C   UNL A   1      34.099  21.141  25.909  1.00  0.00     0.242 C 
ATOM     16  O   UNL A   1      34.285  21.452  27.092  1.00  0.00    -0.273 OA
ATOM     17  N   UNL A   1      33.130  20.205  25.688  1.00  0.00    -0.267 N 
ATOM     18  H   UNL A   1      32.812  19.714  26.480  1.00  0.00     0.191 HD
BRANCH  17  19
ATOM     19  N   UNL A   1      32.544  19.868  24.486  1.00  0.00    -0.263 N 
ATOM     20  C   UNL A   1      32.554  18.627  23.869  1.00  0.00     0.280 C 
ATOM     21  H   UNL A   1      32.065  20.587  24.014  1.00  0.00     0.191 HD
ATOM     22  O   UNL A   1      32.048  18.556  22.747  1.00  0.00    -0.266 OA
BRANCH  20  23
ATOM     23  C   UNL A   1      33.186  17.498  24.529  1.00  0.00     0.096 A 
ATOM     24  S   UNL A   1      32.141  16.335  25.248  1.00  0.00    -0.138 S 
ATOM     25  C   UNL A   1      34.525  17.192  24.745  1.00  0.00    -0.027 A 
ATOM     26  C   UNL A   1      33.447  15.331  25.681  1.00  0.00     0.066 A 
ATOM     27  C   UNL A   1      34.657  15.910  25.381  1.00  0.00     0.016 A 
ATOM     28  C   UNL A   1      35.709  18.033  24.389  1.00  0.00     0.046 C 
ENDBRANCH  20  23
ENDBRANCH  17  19
ENDBRANCH  14  15
ENDBRANCH   5   7
ENDBRANCH   4   5
ENDBRANCH   3   4
ENDBRANCH   2   3
ENDBRANCH   1   2
BRANCH   1  29
ATOM     29  C   UNL A   1      31.685  28.970  25.630  1.00  0.00     0.202 C 
BRANCH  29  30
ATOM     30  C   UNL A   1      31.820  30.468  25.898  1.00  0.00     0.261 C 
BRANCH  30  31
ATOM     31  O   UNL A   1      32.396  30.682  27.195  1.00  0.00    -0.460 OA
BRANCH  31  32
ATOM     32  C   UNL A   1      33.149  31.795  27.298  1.00  0.00     0.338 C 
ATOM     33  O   UNL A   1      32.784  32.952  27.159  1.00  0.00    -0.246 OA
BRANCH  32  34
ATOM     34  C   UNL A   1      34.459  31.410  27.830  1.00  0.00     0.060 A 
ATOM     35  C   UNL A   1      34.623  30.077  28.221  1.00  0.00     0.016 A 
ATOM     36  C   UNL A   1      35.482  32.344  28.000  1.00  0.00     0.016 A 
ATOM     37  C   UNL A   1      35.813  29.679  28.820  1.00  0.00     0.010 A 
ATOM     38  C   UNL A   1      36.681  31.937  28.592  1.00  0.00     0.010 A 
ATOM     39  C   UNL A   1      36.841  30.611  29.028  1.00  0.00    -0.014 A 
BRANCH  39  40
ATOM     40  C   UNL A   1      38.064  30.181  29.743  1.00  0.00     0.031 A 
ATOM     41  C   UNL A   1      38.331  30.679  31.133  1.00  0.00     0.074 A 
ATOM     42  C   UNL A   1      38.909  29.320  29.149  1.00  0.00     0.049 A 
ATOM     43  N   UNL A   1      39.293  30.350  31.955  1.00  0.00    -0.248 NA
ATOM     44  C   UNL A   1      37.391  31.675  31.674  1.00  0.00     0.031 C 
ATOM     45  C   UNL A   1      38.759  28.799  27.789  1.00  0.00     0.029 A 
ATOM     46  N   UNL A   1      40.066  28.742  29.605  1.00  0.00    -0.354 N 
ATOM     47  C   UNL A   1      39.080  31.097  33.106  1.00  0.00     0.074 A 
ATOM     48  C   UNL A   1      37.911  31.915  32.870  1.00  0.00     0.031 C 
ATOM     49  C   UNL A   1      39.796  27.990  27.516  1.00  0.00     0.029 A 
ATOM     50  C   UNL A   1      40.684  27.942  28.674  1.00  0.00     0.049 A 
ATOM     51  H   UNL A   1      40.419  28.886  30.513  1.00  0.00     0.167 HD
ATOM     52  C   UNL A   1      39.782  31.080  34.265  1.00  0.00     0.034 A 
ATOM     53  C   UNL A   1      41.840  27.253  28.749  1.00  0.00     0.034 A 
ATOM     54  C   UNL A   1      40.937  30.254  34.492  1.00  0.00     0.049 A 
ATOM     55  C   UNL A   1      42.606  27.258  30.046  1.00  0.00     0.074 A 
ATOM     56  C   UNL A   1      41.688  30.123  35.647  1.00  0.00     0.029 A 
ATOM     57  N   UNL A   1      41.517  29.428  33.541  1.00  0.00    -0.354 N 
ATOM     58  N   UNL A   1      42.305  27.849  31.178  1.00  0.00    -0.248 NA
ATOM     59  C   UNL A   1      43.849  26.477  30.088  1.00  0.00     0.031 C 
ATOM     60  C   UNL A   1      42.733  29.228  35.388  1.00  0.00     0.029 A 
ATOM     61  C   UNL A   1      42.627  28.797  34.074  1.00  0.00     0.049 A 
ATOM     62  H   UNL A   1      41.188  29.310  32.621  1.00  0.00     0.167 HD
ATOM     63  C   UNL A   1      43.313  27.502  32.069  1.00  0.00     0.074 A 
ATOM     64  C   UNL A   1      44.214  26.620  31.355  1.00  0.00     0.031 C 
ATOM     65  C   UNL A   1      43.490  27.894  33.355  1.00  0.00     0.034 A 
BRANCH  52  66
ATOM     66  C   UNL A   1      39.283  31.940  35.394  1.00  0.00     0.023 A 
ATOM     67  C   UNL A   1      38.340  31.407  36.297  1.00  0.00     0.012 A 
ATOM     68  C   UNL A   1      39.779  33.242  35.598  1.00  0.00     0.148 A 
ATOM     69  C   UNL A   1      37.881  32.164  37.374  1.00  0.00     0.002 A 
ATOM     70  C   UNL A   1      39.339  33.980  36.693  1.00  0.00     0.091 A 
ATOM     71  F   UNL A   1      40.656  33.739  34.716  1.00  0.00    -0.205 F 
ATOM     72  C   UNL A   1      38.387  33.445  37.576  1.00  0.00     0.022 A 
BRANCH  70  73
ATOM     73  S   UNL A   1      39.968  35.620  37.072  1.00  0.00     0.127 S 
ATOM     74  O   UNL A   1      39.235  35.941  38.296  1.00  0.00    -0.237 OA
ATOM     75  O   UNL A   1      41.396  35.366  37.266  1.00  0.00    -0.237 OA
ATOM     76  O   UNL A   1      39.651  36.447  35.917  1.00  0.00    -0.744 OA
ENDBRANCH  70  73
ENDBRANCH  52  66
BRANCH  53  77
ATOM     77  C   UNL A   1      42.307  26.467  27.574  1.00  0.00     0.023 A 
ATOM     78  C   UNL A   1      42.977  27.119  26.521  1.00  0.00     0.012 A 
ATOM     79  C   UNL A   1      42.137  25.070  27.518  1.00  0.00     0.148 A 
ATOM     80  C   UNL A   1      43.452  26.395  25.426  1.00  0.00     0.002 A 
ATOM     81  C   UNL A   1      42.662  24.348  26.451  1.00  0.00     0.091 A 
ATOM     82  F   UNL A   1      41.473  24.468  28.515  1.00  0.00    -0.205 F 
ATOM     83  C   UNL A   1      43.309  25.010  25.397  1.00  0.00     0.022 A 
BRANCH  81  84
ATOM     84  S   UNL A   1      42.639  22.552  26.426  1.00  0.00     0.127 S 
ATOM     85  O   UNL A   1      42.651  22.270  24.994  1.00  0.00    -0.237 OA
ATOM     86  O   UNL A   1      43.876  22.215  27.132  1.00  0.00    -0.237 OA
ATOM     87  O   UNL A   1      41.428  22.178  27.146  1.00  0.00    -0.744 OA
ENDBRANCH  81  84
ENDBRANCH  53  77
BRANCH  65  88
ATOM     88  C   UNL A   1      44.715  27.389  34.070  1.00  0.00     0.023 A 
ATOM     89  C   UNL A   1      45.889  28.168  34.053  1.00  0.00     0.012 A 
ATOM     90  C   UNL A   1      44.685  26.193  34.813  1.00  0.00     0.148 A 
ATOM     91  C   UNL A   1      47.023  27.752  34.746  1.00  0.00     0.002 A 
ATOM     92  C   UNL A   1      45.808  25.805  35.534  1.00  0.00     0.091 A 
ATOM     93  F   UNL A   1      43.564  25.457  34.798  1.00  0.00    -0.205 F 
ATOM     94  C   UNL A   1      46.980  26.579  35.496  1.00  0.00     0.022 A 
BRANCH  92  95
ATOM     95  S   UNL A   1      45.812  24.354  36.593  1.00  0.00     0.127 S 
ATOM     96  O   UNL A   1      47.000  24.587  37.413  1.00  0.00    -0.237 OA
ATOM     97  O   UNL A   1      44.543  24.483  37.309  1.00  0.00    -0.237 OA
ATOM     98  O   UNL A   1      45.882  23.209  35.696  1.00  0.00    -0.744 OA
ENDBRANCH  92  95
ENDBRANCH  65  88
ENDBRANCH  39  40
ENDBRANCH  32  34
ENDBRANCH  31  32
ENDBRANCH  30  31
ENDBRANCH  29  30
ENDBRANCH   1  29
TORSDOF 20
ENDMDL
MODEL 2
REMARK VINA RESULT:     -11.2      2.316      8.312
REMARK SMILES CC1=C(C)C[C@@H](C(=O)NNC(=O)c2sccc2C)[C@@H](C(=O)OCCOCCOC(=O)c2ccc(-c3c4nc(c(-c5cccc(S(=O)(=O)[O-])c5F)c5ccc([nH]5)c(-c5cccc(S(=O)(=O)[O-])c5F)c5nc(c(-c6cccc(S(=O)(=O)[O-])c6F)c6ccc3[nH]6)C=C5)C=C4)cc2)C1
REMARK SMILES IDX 25 1 24 2 23 3 22 4 20 5 21 6 19 7 1 8 2 9 3 10 94 11 4 12
REMARK SMILES IDX 5 13 6 14 7 15 8 16 9 17 10 19 11 20 12 22 13 23 14 24 17 25
REMARK SMILES IDX 15 26 16 27 18 28 26 29 27 30 28 31 29 32 30 33 31 34 32 35
REMARK SMILES IDX 93 36 33 37 92 38 34 39 35 40 36 41 86 42 37 43 91 44 85 45
REMARK SMILES IDX 87 46 38 47 90 48 84 49 83 50 39 52 71 53 51 54 70 55 52 56
REMARK SMILES IDX 55 57 69 58 88 59 53 60 54 61 68 63 89 64 56 65 40 66 41 67
REMARK SMILES IDX 49 68 42 69 44 70 50 71 43 72 45 73 46 74 47 75 48 76 72 77
REMARK SMILES IDX 73 78 81 79 74 80 76 81 82 82 75 83 77 84 78 85 79 86 80 87
REMARK SMILES IDX 57 88 58 89 66 90 59 91 61 92 67 93 60 94 62 95 63 96 64 97
REMARK SMILES IDX 65 98
REMARK H PARENT 9 18 10 21 87 51 55 62
REMARK Flexibility Score: inf
ROOT
ATOM      1  O   UNL A   1      32.992  30.619  26.332  1.00  0.00    -0.374 OA
ENDROOT
BRANCH   1   2
ATOM      2  C   UNL A   1      33.371  29.471  27.094  1.00  0.00     0.202 C 
BRANCH   2   3
ATOM      3  C   UNL A   1      34.141  28.389  26.331  1.00  0.00     0.261 C 
BRANCH   3   4
ATOM      4  O   UNL A   1      33.328  27.280  25.905  1.00  0.00    -0.463 OA
BRANCH   4   5
ATOM      5  C   UNL A   1      32.889  27.335  24.627  1.00  0.00     0.310 C 
ATOM      6  O   UNL A   1      33.591  27.117  23.643  1.00  0.00    -0.252 OA
BRANCH   5   7
ATOM      7  C   UNL A   1      31.424  27.725  24.481  1.00  0.00     0.116 C 
ATOM      8  C   UNL A   1      29.958  30.101  21.745  1.00  0.00     0.039 C 
ATOM      9  C   UNL A   1      29.939  29.026  22.805  1.00  0.00    -0.073 C 
ATOM     10  C   UNL A   1      28.845  28.360  23.239  1.00  0.00    -0.074 C 
ATOM     11  C   UNL A   1      31.329  28.690  23.296  1.00  0.00     0.046 C 
ATOM     12  C   UNL A   1      27.439  28.577  22.736  1.00  0.00     0.039 C 
ATOM     13  C   UNL A   1      28.942  27.228  24.248  1.00  0.00     0.045 C 
ATOM     14  C   UNL A   1      30.342  26.637  24.477  1.00  0.00     0.099 C 
BRANCH  14  15
ATOM     15  C   UNL A   1      30.583  25.325  23.716  1.00  0.00     0.242 C 
ATOM     16  O   UNL A   1      30.932  25.372  22.529  1.00  0.00    -0.273 OA
ATOM     17  N   UNL A   1      30.472  24.075  24.251  1.00  0.00    -0.267 N 
ATOM     18  H   UNL A   1      30.472  23.326  23.611  1.00  0.00     0.191 HD
BRANCH  17  19
ATOM     19  N   UNL A   1      30.357  23.737  25.583  1.00  0.00    -0.263 N 
ATOM     20  C   UNL A   1      31.184  22.892  26.306  1.00  0.00     0.280 C 
ATOM     21  H   UNL A   1      29.606  24.141  26.075  1.00  0.00     0.191 HD
ATOM     22  O   UNL A   1      30.853  22.647  27.469  1.00  0.00    -0.266 OA
BRANCH  20  23
ATOM     23  C   UNL A   1      32.349  22.304  25.671  1.00  0.00     0.096 A 
ATOM     24  S   UNL A   1      32.158  20.728  25.005  1.00  0.00    -0.138 S 
ATOM     25  C   UNL A   1      33.655  22.764  25.538  1.00  0.00    -0.027 A 
ATOM     26  C   UNL A   1      33.741  20.729  24.376  1.00  0.00     0.066 A 
ATOM     27  C   UNL A   1      34.437  21.854  24.749  1.00  0.00     0.016 A 
ATOM     28  C   UNL A   1      34.227  24.022  26.109  1.00  0.00     0.046 C 
ENDBRANCH  20  23
ENDBRANCH  17  19
ENDBRANCH  14  15
ENDBRANCH   5   7
ENDBRANCH   4   5
ENDBRANCH   3   4
ENDBRANCH   2   3
ENDBRANCH   1   2
BRANCH   1  29
ATOM     29  C   UNL A   1      31.716  31.190  26.630  1.00  0.00     0.202 C 
BRANCH  29  30
ATOM     30  C   UNL A   1      31.734  32.699  26.873  1.00  0.00     0.261 C 
BRANCH  30  31
ATOM     31  O   UNL A   1      33.086  33.179  26.862  1.00  0.00    -0.460 OA
BRANCH  31  32
ATOM     32  C   UNL A   1      33.462  33.824  27.985  1.00  0.00     0.338 C 
ATOM     33  O   UNL A   1      32.853  34.706  28.571  1.00  0.00    -0.246 OA
BRANCH  32  34
ATOM     34  C   UNL A   1      34.637  33.141  28.531  1.00  0.00     0.060 A 
ATOM     35  C   UNL A   1      34.410  31.988  29.290  1.00  0.00     0.016 A 
ATOM     36  C   UNL A   1      35.925  33.650  28.357  1.00  0.00     0.016 A 
ATOM     37  C   UNL A   1      35.480  31.354  29.911  1.00  0.00     0.010 A 
ATOM     38  C   UNL A   1      36.999  33.002  28.974  1.00  0.00     0.010 A 
ATOM     39  C   UNL A   1      36.778  31.869  29.774  1.00  0.00    -0.014 A 
BRANCH  39  40
ATOM     40  C   UNL A   1      37.887  31.224  30.513  1.00  0.00     0.031 A 
ATOM     41  C   UNL A   1      38.720  30.171  29.843  1.00  0.00     0.074 A 
ATOM     42  C   UNL A   1      38.158  31.615  31.771  1.00  0.00     0.049 A 
ATOM     43  N   UNL A   1      39.784  29.557  30.288  1.00  0.00    -0.248 NA
ATOM     44  C   UNL A   1      38.303  29.754  28.494  1.00  0.00     0.031 C 
ATOM     45  C   UNL A   1      37.392  32.609  32.525  1.00  0.00     0.029 A 
ATOM     46  N   UNL A   1      39.141  31.217  32.640  1.00  0.00    -0.354 N 
ATOM     47  C   UNL A   1      40.165  28.680  29.280  1.00  0.00     0.074 A 
ATOM     48  C   UNL A   1      39.205  28.824  28.208  1.00  0.00     0.031 C 
ATOM     49  C   UNL A   1      37.925  32.730  33.752  1.00  0.00     0.029 A 
ATOM     50  C   UNL A   1      39.061  31.820  33.872  1.00  0.00     0.049 A 
ATOM     51  H   UNL A   1      39.837  30.562  32.403  1.00  0.00     0.167 HD
ATOM     52  C   UNL A   1      41.237  27.852  29.243  1.00  0.00     0.034 A 
ATOM     53  C   UNL A   1      39.819  31.652  34.974  1.00  0.00     0.034 A 
ATOM     54  C   UNL A   1      42.192  27.726  30.310  1.00  0.00     0.049 A 
ATOM     55  C   UNL A   1      40.998  30.718  34.909  1.00  0.00     0.074 A 
ATOM     56  C   UNL A   1      43.340  26.955  30.352  1.00  0.00     0.029 A 
ATOM     57  N   UNL A   1      42.102  28.377  31.532  1.00  0.00    -0.354 N 
ATOM     58  N   UNL A   1      41.435  30.014  33.893  1.00  0.00    -0.248 NA
ATOM     59  C   UNL A   1      41.808  30.582  36.128  1.00  0.00     0.031 C 
ATOM     60  C   UNL A   1      43.937  27.129  31.606  1.00  0.00     0.029 A 
ATOM     61  C   UNL A   1      43.164  28.014  32.342  1.00  0.00     0.049 A 
ATOM     62  H   UNL A   1      41.388  29.005  31.785  1.00  0.00     0.167 HD
ATOM     63  C   UNL A   1      42.576  29.360  34.344  1.00  0.00     0.074 A 
ATOM     64  C   UNL A   1      42.781  29.781  35.715  1.00  0.00     0.031 C 
ATOM     65  C   UNL A   1      43.369  28.474  33.692  1.00  0.00     0.034 A 
BRANCH  52  66
ATOM     66  C   UNL A   1      41.462  27.061  27.983  1.00  0.00     0.023 A 
ATOM     67  C   UNL A   1      41.980  27.715  26.847  1.00  0.00     0.012 A 
ATOM     68  C   UNL A   1      41.219  25.675  27.934  1.00  0.00     0.148 A 
ATOM     69  C   UNL A   1      42.232  27.007  25.672  1.00  0.00     0.002 A 
ATOM     70  C   UNL A   1      41.502  24.969  26.768  1.00  0.00     0.091 A 
ATOM     71  F   UNL A   1      40.704  25.077  29.016  1.00  0.00    -0.205 F 
ATOM     72  C   UNL A   1      42.002  25.634  25.637  1.00  0.00     0.022 A 
BRANCH  70  73
ATOM     73  S   UNL A   1      41.291  23.189  26.637  1.00  0.00     0.127 S 
ATOM     74  O   UNL A   1      42.085  22.886  25.448  1.00  0.00    -0.237 OA
ATOM     75  O   UNL A   1      41.871  22.716  27.894  1.00  0.00    -0.237 OA
ATOM     76  O   UNL A   1      39.858  22.965  26.509  1.00  0.00    -0.744 OA
ENDBRANCH  70  73
ENDBRANCH  52  66
BRANCH  53  77
ATOM     77  C   UNL A   1      39.506  32.425  36.208  1.00  0.00     0.023 A 
ATOM     78  C   UNL A   1      40.127  33.669  36.428  1.00  0.00     0.012 A 
ATOM     79  C   UNL A   1      38.557  31.957  37.139  1.00  0.00     0.148 A 
ATOM     80  C   UNL A   1      39.822  34.424  37.562  1.00  0.00     0.002 A 
ATOM     81  C   UNL A   1      38.217  32.741  38.237  1.00  0.00     0.091 A 
ATOM     82  F   UNL A   1      37.995  30.758  36.930  1.00  0.00    -0.205 F 
ATOM     83  C   UNL A   1      38.858  33.969  38.458  1.00  0.00     0.022 A 
BRANCH  81  84
ATOM     84  S   UNL A   1      36.881  32.278  39.346  1.00  0.00     0.127 S 
ATOM     85  O   UNL A   1      37.163  33.101  40.518  1.00  0.00    -0.237 OA
ATOM     86  O   UNL A   1      35.695  32.673  38.587  1.00  0.00    -0.237 OA
ATOM     87  O   UNL A   1      37.017  30.838  39.524  1.00  0.00    -0.744 OA
ENDBRANCH  81  84
ENDBRANCH  53  77
BRANCH  65  88
ATOM     88  C   UNL A   1      44.523  27.885  34.458  1.00  0.00     0.023 A 
ATOM     89  C   UNL A   1      45.754  28.571  34.478  1.00  0.00     0.012 A 
ATOM     90  C   UNL A   1      44.372  26.706  35.212  1.00  0.00     0.148 A 
ATOM     91  C   UNL A   1      46.825  28.078  35.220  1.00  0.00     0.002 A 
ATOM     92  C   UNL A   1      45.434  26.242  35.980  1.00  0.00     0.091 A 
ATOM     93  F   UNL A   1      43.200  26.058  35.162  1.00  0.00    -0.205 F 
ATOM     94  C   UNL A   1      46.663  26.922  35.979  1.00  0.00     0.022 A 
BRANCH  92  95
ATOM     95  S   UNL A   1      45.286  24.809  37.054  1.00  0.00     0.127 S 
ATOM     96  O   UNL A   1      44.956  23.753  36.097  1.00  0.00    -0.237 OA
ATOM     97  O   UNL A   1      46.625  24.710  37.634  1.00  0.00    -0.237 OA
ATOM     98  O   UNL A   1      44.239  25.139  38.012  1.00  0.00    -0.744 OA
ENDBRANCH  92  95
ENDBRANCH  65  88
ENDBRANCH  39  40
ENDBRANCH  32  34
ENDBRANCH  31  32
ENDBRANCH  30  31
ENDBRANCH  29  30
ENDBRANCH   1  29
TORSDOF 20
ENDMDL
MODEL 3
REMARK VINA RESULT:     -11.2      2.442      4.059
REMARK SMILES CC1=C(C)C[C@@H](C(=O)NNC(=O)c2sccc2C)[C@@H](C(=O)OCCOCCOC(=O)c2ccc(-c3c4nc(c(-c5cccc(S(=O)(=O)[O-])c5F)c5ccc([nH]5)c(-c5cccc(S(=O)(=O)[O-])c5F)c5nc(c(-c6cccc(S(=O)(=O)[O-])c6F)c6ccc3[nH]6)C=C5)C=C4)cc2)C1
REMARK SMILES IDX 25 1 24 2 23 3 22 4 20 5 21 6 19 7 1 8 2 9 3 10 94 11 4 12
REMARK SMILES IDX 5 13 6 14 7 15 8 16 9 17 10 19 11 20 12 22 13 23 14 24 17 25
REMARK SMILES IDX 15 26 16 27 18 28 26 29 27 30 28 31 29 32 30 33 31 34 32 35
REMARK SMILES IDX 93 36 33 37 92 38 34 39 35 40 36 41 86 42 37 43 91 44 85 45
REMARK SMILES IDX 87 46 38 47 90 48 84 49 83 50 39 52 71 53 51 54 70 55 52 56
REMARK SMILES IDX 55 57 69 58 88 59 53 60 54 61 68 63 89 64 56 65 40 66 41 67
REMARK SMILES IDX 49 68 42 69 44 70 50 71 43 72 45 73 46 74 47 75 48 76 72 77
REMARK SMILES IDX 73 78 81 79 74 80 76 81 82 82 75 83 77 84 78 85 79 86 80 87
REMARK SMILES IDX 57 88 58 89 66 90 59 91 61 92 67 93 60 94 62 95 63 96 64 97
REMARK SMILES IDX 65 98
REMARK H PARENT 9 18 10 21 87 51 55 62
REMARK Flexibility Score: inf
ROOT
ATOM      1  O   UNL A   1      34.128  30.445  27.215  1.00  0.00    -0.374 OA
ENDROOT
BRANCH   1   2
ATOM      2  C   UNL A   1      34.734  29.191  26.892  1.00  0.00     0.202 C 
BRANCH   2   3
ATOM      3  C   UNL A   1      33.856  28.208  26.111  1.00  0.00     0.261 C 
BRANCH   3   4
ATOM      4  O   UNL A   1      34.197  28.097  24.717  1.00  0.00    -0.463 OA
BRANCH   4   5
ATOM      5  C   UNL A   1      33.254  28.531  23.850  1.00  0.00     0.310 C 
ATOM      6  O   UNL A   1      33.480  29.260  22.888  1.00  0.00    -0.252 OA
BRANCH   5   7
ATOM      7  C   UNL A   1      31.841  28.063  24.171  1.00  0.00     0.116 C 
ATOM      8  C   UNL A   1      28.553  29.511  22.629  1.00  0.00     0.039 C 
ATOM      9  C   UNL A   1      29.432  28.499  23.323  1.00  0.00    -0.073 C 
ATOM     10  C   UNL A   1      29.034  27.300  23.804  1.00  0.00    -0.074 C 
ATOM     11  C   UNL A   1      30.880  28.934  23.357  1.00  0.00     0.046 C 
ATOM     12  C   UNL A   1      27.627  26.758  23.731  1.00  0.00     0.039 C 
ATOM     13  C   UNL A   1      30.015  26.310  24.407  1.00  0.00     0.045 C 
ATOM     14  C   UNL A   1      31.504  26.567  24.124  1.00  0.00     0.099 C 
BRANCH  14  15
ATOM     15  C   UNL A   1      32.070  25.693  22.995  1.00  0.00     0.242 C 
ATOM     16  O   UNL A   1      31.458  25.623  21.922  1.00  0.00    -0.273 OA
ATOM     17  N   UNL A   1      33.236  24.986  23.059  1.00  0.00    -0.267 N 
ATOM     18  H   UNL A   1      33.385  24.328  22.341  1.00  0.00     0.191 HD
BRANCH  17  19
ATOM     19  N   UNL A   1      34.229  25.085  24.011  1.00  0.00    -0.263 N 
ATOM     20  C   UNL A   1      34.493  24.196  25.040  1.00  0.00     0.280 C 
ATOM     21  H   UNL A   1      34.816  25.874  23.952  1.00  0.00     0.191 HD
ATOM     22  O   UNL A   1      35.372  24.517  25.844  1.00  0.00    -0.266 OA
BRANCH  20  23
ATOM     23  C   UNL A   1      33.714  22.977  25.159  1.00  0.00     0.096 A 
ATOM     24  S   UNL A   1      34.319  21.586  24.347  1.00  0.00    -0.138 S 
ATOM     25  C   UNL A   1      32.497  22.721  25.783  1.00  0.00    -0.027 A 
ATOM     26  C   UNL A   1      33.080  20.599  24.971  1.00  0.00     0.066 A 
ATOM     27  C   UNL A   1      32.166  21.326  25.697  1.00  0.00     0.016 A 
ATOM     28  C   UNL A   1      31.612  23.712  26.468  1.00  0.00     0.046 C 
ENDBRANCH  20  23
ENDBRANCH  17  19
ENDBRANCH  14  15
ENDBRANCH   5   7
ENDBRANCH   4   5
ENDBRANCH   3   4
ENDBRANCH   2   3
ENDBRANCH   1   2
BRANCH   1  29
ATOM     29  C   UNL A   1      32.741  30.583  26.900  1.00  0.00     0.202 C 
BRANCH  29  30
ATOM     30  C   UNL A   1      32.163  31.973  27.164  1.00  0.00     0.261 C 
BRANCH  30  31
ATOM     31  O   UNL A   1      33.179  32.968  26.971  1.00  0.00    -0.460 OA
BRANCH  31  32
ATOM     32  C   UNL A   1      33.385  33.773  28.033  1.00  0.00     0.338 C 
ATOM     33  O   UNL A   1      32.661  34.671  28.432  1.00  0.00    -0.246 OA
BRANCH  32  34
ATOM     34  C   UNL A   1      34.531  33.253  28.782  1.00  0.00     0.060 A 
ATOM     35  C   UNL A   1      35.799  33.447  28.226  1.00  0.00     0.016 A 
ATOM     36  C   UNL A   1      34.365  32.538  29.970  1.00  0.00     0.016 A 
ATOM     37  C   UNL A   1      36.913  32.891  28.845  1.00  0.00     0.010 A 
ATOM     38  C   UNL A   1      35.489  31.991  30.595  1.00  0.00     0.010 A 
ATOM     39  C   UNL A   1      36.762  32.143  30.022  1.00  0.00    -0.014 A 
BRANCH  39  40
ATOM     40  C   UNL A   1      37.952  31.493  30.616  1.00  0.00     0.031 A 
ATOM     41  C   UNL A   1      38.366  31.827  32.019  1.00  0.00     0.074 A 
ATOM     42  C   UNL A   1      38.633  30.580  29.900  1.00  0.00     0.049 A 
ATOM     43  N   UNL A   1      39.317  31.302  32.745  1.00  0.00    -0.248 NA
ATOM     44  C   UNL A   1      37.607  32.890  32.699  1.00  0.00     0.031 C 
ATOM     45  C   UNL A   1      38.334  30.204  28.517  1.00  0.00     0.029 A 
ATOM     46  N   UNL A   1      39.722  29.815  30.229  1.00  0.00    -0.354 N 
ATOM     47  C   UNL A   1      39.278  31.967  33.962  1.00  0.00     0.074 A 
ATOM     48  C   UNL A   1      38.222  32.953  33.873  1.00  0.00     0.031 C 
ATOM     49  C   UNL A   1      39.230  29.291  28.110  1.00  0.00     0.029 A 
ATOM     50  C   UNL A   1      40.168  29.023  29.198  1.00  0.00     0.049 A 
ATOM     51  H   UNL A   1      40.143  29.830  31.119  1.00  0.00     0.167 HD
ATOM     52  C   UNL A   1      40.036  31.755  35.065  1.00  0.00     0.034 A 
ATOM     53  C   UNL A   1      41.219  28.181  29.139  1.00  0.00     0.034 A 
ATOM     54  C   UNL A   1      41.075  30.765  35.147  1.00  0.00     0.049 A 
ATOM     55  C   UNL A   1      42.051  27.970  30.376  1.00  0.00     0.074 A 
ATOM     56  C   UNL A   1      41.865  30.434  36.234  1.00  0.00     0.029 A 
ATOM     57  N   UNL A   1      41.479  29.954  34.097  1.00  0.00    -0.354 N 
ATOM     58  N   UNL A   1      41.900  28.495  31.568  1.00  0.00    -0.248 NA
ATOM     59  C   UNL A   1      43.173  27.028  30.271  1.00  0.00     0.031 C 
ATOM     60  C   UNL A   1      42.758  29.433  35.834  1.00  0.00     0.029 A 
ATOM     61  C   UNL A   1      42.518  29.136  34.501  1.00  0.00     0.049 A 
ATOM     62  H   UNL A   1      41.084  29.962  33.195  1.00  0.00     0.167 HD
ATOM     63  C   UNL A   1      42.900  27.940  32.359  1.00  0.00     0.074 A 
ATOM     64  C   UNL A   1      43.626  27.010  31.517  1.00  0.00     0.031 C 
ATOM     65  C   UNL A   1      43.204  28.191  33.656  1.00  0.00     0.034 A 
BRANCH  52  66
ATOM     66  C   UNL A   1      39.727  32.573  36.290  1.00  0.00     0.023 A 
ATOM     67  C   UNL A   1      40.401  33.797  36.484  1.00  0.00     0.012 A 
ATOM     68  C   UNL A   1      38.742  32.171  37.212  1.00  0.00     0.148 A 
ATOM     69  C   UNL A   1      40.116  34.597  37.589  1.00  0.00     0.002 A 
ATOM     70  C   UNL A   1      38.441  32.990  38.297  1.00  0.00     0.091 A 
ATOM     71  F   UNL A   1      38.130  30.994  37.023  1.00  0.00    -0.205 F 
ATOM     72  C   UNL A   1      39.131  34.198  38.489  1.00  0.00     0.022 A 
BRANCH  70  73
ATOM     73  S   UNL A   1      37.153  32.592  39.484  1.00  0.00     0.127 S 
ATOM     74  O   UNL A   1      37.566  31.262  39.931  1.00  0.00    -0.237 OA
ATOM     75  O   UNL A   1      37.315  33.648  40.483  1.00  0.00    -0.237 OA
ATOM     76  O   UNL A   1      35.899  32.643  38.746  1.00  0.00    -0.744 OA
ENDBRANCH  70  73
ENDBRANCH  52  66
BRANCH  53  77
ATOM     77  C   UNL A   1      41.503  27.445  27.876  1.00  0.00     0.023 A 
ATOM     78  C   UNL A   1      42.023  28.138  26.766  1.00  0.00     0.012 A 
ATOM     79  C   UNL A   1      41.311  26.052  27.785  1.00  0.00     0.148 A 
ATOM     80  C   UNL A   1      42.327  27.461  25.584  1.00  0.00     0.002 A 
ATOM     81  C   UNL A   1      41.669  25.375  26.624  1.00  0.00     0.091 A 
ATOM     82  F   UNL A   1      40.789  25.410  28.841  1.00  0.00    -0.205 F 
ATOM     83  C   UNL A   1      42.165  26.079  25.518  1.00  0.00     0.022 A 
BRANCH  81  84
ATOM     84  S   UNL A   1      41.621  23.582  26.527  1.00  0.00     0.127 S 
ATOM     85  O   UNL A   1      42.282  23.195  27.770  1.00  0.00    -0.237 OA
ATOM     86  O   UNL A   1      40.184  23.310  26.483  1.00  0.00    -0.237 OA
ATOM     87  O   UNL A   1      42.323  23.249  25.294  1.00  0.00    -0.744 OA
ENDBRANCH  81  84
ENDBRANCH  53  77
BRANCH  65  88
ATOM     88  C   UNL A   1      44.385  27.465  34.243  1.00  0.00     0.023 A 
ATOM     89  C   UNL A   1      45.668  28.033  34.121  1.00  0.00     0.012 A 
ATOM     90  C   UNL A   1      44.219  26.272  34.972  1.00  0.00     0.148 A 
ATOM     91  C   UNL A   1      46.774  27.412  34.697  1.00  0.00     0.002 A 
ATOM     92  C   UNL A   1      45.322  25.679  35.577  1.00  0.00     0.091 A 
ATOM     93  F   UNL A   1      42.993  25.738  35.058  1.00  0.00    -0.205 F 
ATOM     94  C   UNL A   1      46.601  26.243  35.434  1.00  0.00     0.022 A 
BRANCH  92  95
ATOM     95  S   UNL A   1      45.176  24.220  36.614  1.00  0.00     0.127 S 
ATOM     96  O   UNL A   1      46.575  23.939  36.933  1.00  0.00    -0.237 OA
ATOM     97  O   UNL A   1      44.381  24.712  37.739  1.00  0.00    -0.237 OA
ATOM     98  O   UNL A   1      44.504  23.218  35.796  1.00  0.00    -0.744 OA
ENDBRANCH  92  95
ENDBRANCH  65  88
ENDBRANCH  39  40
ENDBRANCH  32  34
ENDBRANCH  31  32
ENDBRANCH  30  31
ENDBRANCH  29  30
ENDBRANCH   1  29
TORSDOF 20
ENDMDL
