MODEL 1
REMARK VINA RESULT:     -11.6      0.000      0.000
REMARK SMILES O=C(Cn1nc(C(=O)OCCOCCOC(=O)c2ccc(-c3c4nc(c(-c5cccc(S(=O)(=O)[O-])c5F)c5ccc([nH]5)c(-c5cccc(S(=O)(=O)[O-])c5F)c5nc(c(-c6cccc(S(=O)(=O)[O-])c6F)c6ccc3[nH]6)C=C5)C=C4)cc2)c2ccccc2c1=O)NCc1ccc(F)cc1
REMARK SMILES IDX 11 1 10 2 9 3 7 4 8 5 6 6 4 7 5 8 87 9 86 10 88 11 81 12
REMARK SMILES IDX 85 13 82 14 84 15 83 16 3 17 2 18 1 19 89 20 90 22 91 23
REMARK SMILES IDX 92 24 97 25 93 26 96 27 94 28 95 29 12 30 13 31 14 32 15 33
REMARK SMILES IDX 16 34 17 35 18 36 19 37 80 38 20 39 79 40 21 41 22 42 23 43
REMARK SMILES IDX 73 44 24 45 78 46 72 47 74 48 25 49 77 50 71 51 70 52 26 54
REMARK SMILES IDX 58 55 38 56 57 57 39 58 42 59 56 60 75 61 40 62 41 63 55 65
REMARK SMILES IDX 76 66 43 67 27 68 28 69 36 70 29 71 31 72 37 73 30 74 32 75
REMARK SMILES IDX 33 76 34 77 35 78 59 79 60 80 68 81 61 82 63 83 69 84 62 85
REMARK SMILES IDX 64 86 65 87 66 88 67 89 44 90 45 91 53 92 46 93 48 94 54 95
REMARK SMILES IDX 47 96 49 97 50 98 51 99 52 100
REMARK H PARENT 89 21 74 53 42 64
REMARK Flexibility Score: inf
ROOT
ATOM      1  C   UNL A   1      32.377  29.536  27.011  1.00  0.00     0.202 C 
ENDROOT
BRANCH   1   2
ATOM      2  C   UNL A   1      31.823  28.128  27.250  1.00  0.00     0.261 C 
BRANCH   2   3
ATOM      3  O   UNL A   1      32.754  27.123  26.829  1.00  0.00    -0.458 OA
BRANCH   3   4
ATOM      4  C   UNL A   1      32.213  25.940  26.478  1.00  0.00     0.359 C 
ATOM      5  O   UNL A   1      31.461  25.229  27.119  1.00  0.00    -0.244 OA
BRANCH   4   6
ATOM      6  C   UNL A   1      32.539  25.637  25.022  1.00  0.00     0.176 A 
ATOM      7  N   UNL A   1      32.381  26.207  22.790  1.00  0.00    -0.219 N 
ATOM      8  N   UNL A   1      32.095  26.460  24.116  1.00  0.00    -0.161 NA
ATOM      9  C   UNL A   1      33.133  25.118  22.353  1.00  0.00     0.275 A 
ATOM     10  C   UNL A   1      33.716  24.256  23.390  1.00  0.00     0.051 A 
ATOM     11  O   UNL A   1      33.333  24.840  21.174  1.00  0.00    -0.267 OA
ATOM     12  C   UNL A   1      33.353  24.445  24.717  1.00  0.00     0.022 A 
ATOM     13  C   UNL A   1      34.584  23.217  23.029  1.00  0.00     0.014 A 
ATOM     14  C   UNL A   1      33.774  23.520  25.681  1.00  0.00     0.011 A 
ATOM     15  C   UNL A   1      35.036  22.322  23.996  1.00  0.00     0.001 A 
ATOM     16  C   UNL A   1      34.607  22.457  25.314  1.00  0.00     0.001 A 
BRANCH   7  17
ATOM     17  C   UNL A   1      31.630  26.982  21.796  1.00  0.00     0.248 C 
BRANCH  17  18
ATOM     18  C   UNL A   1      31.003  28.254  22.371  1.00  0.00     0.242 C 
ATOM     19  O   UNL A   1      31.601  29.329  22.373  1.00  0.00    -0.273 OA
ATOM     20  N   UNL A   1      29.688  28.135  22.765  1.00  0.00    -0.350 N 
ATOM     21  H   UNL A   1      29.177  27.337  22.497  1.00  0.00     0.163 HD
BRANCH  20  22
ATOM     22  C   UNL A   1      29.040  29.147  23.561  1.00  0.00     0.151 C 
BRANCH  22  23
ATOM     23  C   UNL A   1      28.620  30.333  22.737  1.00  0.00    -0.029 A 
ATOM     24  C   UNL A   1      28.571  31.616  23.301  1.00  0.00     0.008 A 
ATOM     25  C   UNL A   1      28.291  30.167  21.381  1.00  0.00     0.008 A 
ATOM     26  C   UNL A   1      28.198  32.712  22.523  1.00  0.00     0.039 A 
ATOM     27  C   UNL A   1      27.914  31.263  20.607  1.00  0.00     0.039 A 
ATOM     28  C   UNL A   1      27.872  32.526  21.185  1.00  0.00     0.123 A 
ATOM     29  F   UNL A   1      27.517  33.582  20.441  1.00  0.00    -0.207 F 
ENDBRANCH  22  23
ENDBRANCH  20  22
ENDBRANCH  17  18
ENDBRANCH   7  17
ENDBRANCH   4   6
ENDBRANCH   3   4
ENDBRANCH   2   3
ENDBRANCH   1   2
BRANCH   1  30
ATOM     30  O   UNL A   1      31.711  30.324  26.024  1.00  0.00    -0.374 OA
BRANCH  30  31
ATOM     31  C   UNL A   1      31.137  31.565  26.436  1.00  0.00     0.202 C 
BRANCH  31  32
ATOM     32  C   UNL A   1      32.053  32.787  26.578  1.00  0.00     0.261 C 
BRANCH  32  33
ATOM     33  O   UNL A   1      32.546  32.955  27.914  1.00  0.00    -0.460 OA
BRANCH  33  34
ATOM     34  C   UNL A   1      33.554  33.855  28.044  1.00  0.00     0.338 C 
ATOM     35  O   UNL A   1      33.461  35.072  27.988  1.00  0.00    -0.246 OA
BRANCH  34  36
ATOM     36  C   UNL A   1      34.771  33.150  28.489  1.00  0.00     0.060 A 
ATOM     37  C   UNL A   1      36.042  33.668  28.235  1.00  0.00     0.016 A 
ATOM     38  C   UNL A   1      34.620  31.946  29.189  1.00  0.00     0.016 A 
ATOM     39  C   UNL A   1      37.163  32.987  28.712  1.00  0.00     0.010 A 
ATOM     40  C   UNL A   1      35.742  31.269  29.666  1.00  0.00     0.010 A 
ATOM     41  C   UNL A   1      37.023  31.795  29.448  1.00  0.00    -0.014 A 
BRANCH  41  42
ATOM     42  C   UNL A   1      38.205  31.192  30.110  1.00  0.00     0.031 A 
ATOM     43  C   UNL A   1      38.640  31.601  31.484  1.00  0.00     0.074 A 
ATOM     44  C   UNL A   1      38.906  30.264  29.429  1.00  0.00     0.049 A 
ATOM     45  N   UNL A   1      39.594  31.094  32.221  1.00  0.00    -0.248 NA
ATOM     46  C   UNL A   1      37.924  32.722  32.115  1.00  0.00     0.031 C 
ATOM     47  C   UNL A   1      38.621  29.839  28.056  1.00  0.00     0.029 A 
ATOM     48  N   UNL A   1      39.993  29.513  29.792  1.00  0.00    -0.354 N 
ATOM     49  C   UNL A   1      39.600  31.827  33.399  1.00  0.00     0.074 A 
ATOM     50  C   UNL A   1      38.566  32.834  33.273  1.00  0.00     0.031 C 
ATOM     51  C   UNL A   1      39.492  28.882  27.704  1.00  0.00     0.029 A 
ATOM     52  C   UNL A   1      40.409  28.640  28.813  1.00  0.00     0.049 A 
ATOM     53  H   UNL A   1      40.435  29.589  30.668  1.00  0.00     0.167 HD
ATOM     54  C   UNL A   1      40.380  31.657  34.493  1.00  0.00     0.034 A 
ATOM     55  C   UNL A   1      41.409  27.739  28.809  1.00  0.00     0.034 A 
ATOM     56  C   UNL A   1      41.394  30.645  34.618  1.00  0.00     0.049 A 
ATOM     57  C   UNL A   1      42.249  27.563  30.040  1.00  0.00     0.074 A 
ATOM     58  C   UNL A   1      42.184  30.359  35.719  1.00  0.00     0.029 A 
ATOM     59  N   UNL A   1      41.771  29.766  33.616  1.00  0.00    -0.354 N 
ATOM     60  N   UNL A   1      42.145  28.171  31.195  1.00  0.00    -0.248 NA
ATOM     61  C   UNL A   1      43.324  26.561  29.980  1.00  0.00     0.031 C 
ATOM     62  C   UNL A   1      43.055  29.322  35.374  1.00  0.00     0.029 A 
ATOM     63  C   UNL A   1      42.791  28.946  34.068  1.00  0.00     0.049 A 
ATOM     64  H   UNL A   1      41.373  29.731  32.716  1.00  0.00     0.167 HD
ATOM     65  C   UNL A   1      43.126  27.615  32.007  1.00  0.00     0.074 A 
ATOM     66  C   UNL A   1      43.805  26.610  31.216  1.00  0.00     0.031 C 
ATOM     67  C   UNL A   1      43.436  27.922  33.288  1.00  0.00     0.034 A 
BRANCH  54  68
ATOM     68  C   UNL A   1      40.138  32.540  35.687  1.00  0.00     0.023 A 
ATOM     69  C   UNL A   1      40.757  33.804  35.736  1.00  0.00     0.012 A 
ATOM     70  C   UNL A   1      39.202  32.184  36.675  1.00  0.00     0.148 A 
ATOM     71  C   UNL A   1      40.449  34.704  36.755  1.00  0.00     0.002 A 
ATOM     72  C   UNL A   1      38.879  33.096  37.674  1.00  0.00     0.091 A 
ATOM     73  F   UNL A   1      38.631  30.974  36.607  1.00  0.00    -0.205 F 
ATOM     74  C   UNL A   1      39.503  34.355  37.715  1.00  0.00     0.022 A 
BRANCH  72  75
ATOM     75  S   UNL A   1      37.639  32.769  38.932  1.00  0.00     0.127 S 
ATOM     76  O   UNL A   1      37.796  33.931  39.806  1.00  0.00    -0.237 OA
ATOM     77  O   UNL A   1      36.404  32.756  38.151  1.00  0.00    -0.237 OA
ATOM     78  O   UNL A   1      38.001  31.493  39.534  1.00  0.00    -0.744 OA
ENDBRANCH  72  75
ENDBRANCH  54  68
BRANCH  55  79
ATOM     79  C   UNL A   1      41.612  26.888  27.605  1.00  0.00     0.023 A 
ATOM     80  C   UNL A   1      42.225  27.441  26.466  1.00  0.00     0.012 A 
ATOM     81  C   UNL A   1      41.274  25.522  27.618  1.00  0.00     0.148 A 
ATOM     82  C   UNL A   1      42.492  26.646  25.352  1.00  0.00     0.002 A 
ATOM     83  C   UNL A   1      41.576  24.728  26.520  1.00  0.00     0.091 A 
ATOM     84  F   UNL A   1      40.695  25.025  28.719  1.00  0.00    -0.205 F 
ATOM     85  C   UNL A   1      42.178  25.290  25.382  1.00  0.00     0.022 A 
BRANCH  83  86
ATOM     86  S   UNL A   1      41.295  22.955  26.499  1.00  0.00     0.127 S 
ATOM     87  O   UNL A   1      42.050  22.548  25.315  1.00  0.00    -0.237 OA
ATOM     88  O   UNL A   1      41.882  22.546  27.775  1.00  0.00    -0.237 OA
ATOM     89  O   UNL A   1      39.853  22.781  26.410  1.00  0.00    -0.744 OA
ENDBRANCH  83  86
ENDBRANCH  55  79
BRANCH  67  90
ATOM     90  C   UNL A   1      44.558  27.167  33.948  1.00  0.00     0.023 A 
ATOM     91  C   UNL A   1      45.871  27.668  33.865  1.00  0.00     0.012 A 
ATOM     92  C   UNL A   1      44.288  26.047  34.759  1.00  0.00     0.148 A 
ATOM     93  C   UNL A   1      46.904  27.060  34.579  1.00  0.00     0.002 A 
ATOM     94  C   UNL A   1      45.315  25.468  35.493  1.00  0.00     0.091 A 
ATOM     95  F   UNL A   1      43.029  25.589  34.815  1.00  0.00    -0.205 F 
ATOM     96  C   UNL A   1      46.624  25.970  35.401  1.00  0.00     0.022 A 
BRANCH  94  97
ATOM     97  S   UNL A   1      45.045  24.106  36.633  1.00  0.00     0.127 S 
ATOM     98  O   UNL A   1      46.409  23.811  37.072  1.00  0.00    -0.237 OA
ATOM     99  O   UNL A   1      44.195  24.720  37.651  1.00  0.00    -0.237 OA
ATOM    100  O   UNL A   1      44.406  23.050  35.859  1.00  0.00    -0.744 OA
ENDBRANCH  94  97
ENDBRANCH  67  90
ENDBRANCH  41  42
ENDBRANCH  34  36
ENDBRANCH  33  34
ENDBRANCH  32  33
ENDBRANCH  31  32
ENDBRANCH  30  31
ENDBRANCH   1  30
TORSDOF 21
ENDMDL
MODEL 2
REMARK VINA RESULT:     -11.5      1.825      7.513
REMARK SMILES O=C(Cn1nc(C(=O)OCCOCCOC(=O)c2ccc(-c3c4nc(c(-c5cccc(S(=O)(=O)[O-])c5F)c5ccc([nH]5)c(-c5cccc(S(=O)(=O)[O-])c5F)c5nc(c(-c6cccc(S(=O)(=O)[O-])c6F)c6ccc3[nH]6)C=C5)C=C4)cc2)c2ccccc2c1=O)NCc1ccc(F)cc1
REMARK SMILES IDX 11 1 10 2 9 3 7 4 8 5 6 6 4 7 5 8 87 9 86 10 88 11 81 12
REMARK SMILES IDX 85 13 82 14 84 15 83 16 3 17 2 18 1 19 89 20 90 22 91 23
REMARK SMILES IDX 92 24 97 25 93 26 96 27 94 28 95 29 12 30 13 31 14 32 15 33
REMARK SMILES IDX 16 34 17 35 18 36 19 37 80 38 20 39 79 40 21 41 22 42 23 43
REMARK SMILES IDX 73 44 24 45 78 46 72 47 74 48 25 49 77 50 71 51 70 52 26 54
REMARK SMILES IDX 58 55 38 56 57 57 39 58 42 59 56 60 75 61 40 62 41 63 55 65
REMARK SMILES IDX 76 66 43 67 27 68 28 69 36 70 29 71 31 72 37 73 30 74 32 75
REMARK SMILES IDX 33 76 34 77 35 78 59 79 60 80 68 81 61 82 63 83 69 84 62 85
REMARK SMILES IDX 64 86 65 87 66 88 67 89 44 90 45 91 53 92 46 93 48 94 54 95
REMARK SMILES IDX 47 96 49 97 50 98 51 99 52 100
REMARK H PARENT 89 21 74 53 42 64
REMARK Flexibility Score: inf
ROOT
ATOM      1  C   UNL A   1      32.113  29.296  26.910  1.00  0.00     0.202 C 
ENDROOT
BRANCH   1   2
ATOM      2  C   UNL A   1      31.207  28.070  26.755  1.00  0.00     0.261 C 
BRANCH   2   3
ATOM      3  O   UNL A   1      31.894  26.865  27.118  1.00  0.00    -0.458 OA
BRANCH   3   4
ATOM      4  C   UNL A   1      31.447  25.740  26.525  1.00  0.00     0.359 C 
ATOM      5  O   UNL A   1      30.335  25.248  26.575  1.00  0.00    -0.244 OA
BRANCH   4   6
ATOM      6  C   UNL A   1      32.515  25.193  25.589  1.00  0.00     0.176 A 
ATOM      7  N   UNL A   1      33.750  25.395  23.648  1.00  0.00    -0.219 N 
ATOM      8  N   UNL A   1      32.783  25.871  24.510  1.00  0.00    -0.161 NA
ATOM      9  C   UNL A   1      34.475  24.224  23.866  1.00  0.00     0.275 A 
ATOM     10  C   UNL A   1      34.238  23.525  25.136  1.00  0.00     0.051 A 
ATOM     11  O   UNL A   1      35.284  23.751  23.074  1.00  0.00    -0.267 OA
ATOM     12  C   UNL A   1      33.202  23.940  25.961  1.00  0.00     0.022 A 
ATOM     13  C   UNL A   1      35.019  22.412  25.477  1.00  0.00     0.014 A 
ATOM     14  C   UNL A   1      32.869  23.173  27.084  1.00  0.00     0.011 A 
ATOM     15  C   UNL A   1      34.714  21.673  26.618  1.00  0.00     0.001 A 
ATOM     16  C   UNL A   1      33.621  22.037  27.402  1.00  0.00     0.001 A 
BRANCH   7  17
ATOM     17  C   UNL A   1      33.815  26.022  22.323  1.00  0.00     0.248 C 
BRANCH  17  18
ATOM     18  C   UNL A   1      33.262  27.448  22.303  1.00  0.00     0.242 C 
ATOM     19  O   UNL A   1      34.001  28.432  22.323  1.00  0.00    -0.273 OA
ATOM     20  N   UNL A   1      31.898  27.547  22.133  1.00  0.00    -0.350 N 
ATOM     21  H   UNL A   1      31.391  26.751  21.853  1.00  0.00     0.163 HD
BRANCH  20  22
ATOM     22  C   UNL A   1      31.194  28.785  22.354  1.00  0.00     0.151 C 
BRANCH  22  23
ATOM     23  C   UNL A   1      29.761  28.560  22.747  1.00  0.00    -0.029 A 
ATOM     24  C   UNL A   1      29.361  27.353  23.339  1.00  0.00     0.008 A 
ATOM     25  C   UNL A   1      28.808  29.572  22.543  1.00  0.00     0.008 A 
ATOM     26  C   UNL A   1      28.031  27.162  23.717  1.00  0.00     0.039 A 
ATOM     27  C   UNL A   1      27.479  29.377  22.917  1.00  0.00     0.039 A 
ATOM     28  C   UNL A   1      27.104  28.174  23.502  1.00  0.00     0.123 A 
ATOM     29  F   UNL A   1      25.829  27.987  23.870  1.00  0.00    -0.207 F 
ENDBRANCH  22  23
ENDBRANCH  20  22
ENDBRANCH  17  18
ENDBRANCH   7  17
ENDBRANCH   4   6
ENDBRANCH   3   4
ENDBRANCH   2   3
ENDBRANCH   1   2
BRANCH   1  30
ATOM     30  O   UNL A   1      31.868  30.386  26.021  1.00  0.00    -0.374 OA
BRANCH  30  31
ATOM     31  C   UNL A   1      31.190  31.530  26.539  1.00  0.00     0.202 C 
BRANCH  31  32
ATOM     32  C   UNL A   1      31.950  32.860  26.622  1.00  0.00     0.261 C 
BRANCH  32  33
ATOM     33  O   UNL A   1      32.305  33.210  27.966  1.00  0.00    -0.460 OA
BRANCH  33  34
ATOM     34  C   UNL A   1      33.358  34.059  28.079  1.00  0.00     0.338 C 
ATOM     35  O   UNL A   1      33.328  35.278  27.991  1.00  0.00    -0.246 OA
BRANCH  34  36
ATOM     36  C   UNL A   1      34.536  33.305  28.547  1.00  0.00     0.060 A 
ATOM     37  C   UNL A   1      35.819  33.848  28.478  1.00  0.00     0.016 A 
ATOM     38  C   UNL A   1      34.332  32.026  29.081  1.00  0.00     0.016 A 
ATOM     39  C   UNL A   1      36.898  33.113  28.972  1.00  0.00     0.010 A 
ATOM     40  C   UNL A   1      35.411  31.294  29.577  1.00  0.00     0.010 A 
ATOM     41  C   UNL A   1      36.701  31.841  29.544  1.00  0.00    -0.014 A 
BRANCH  41  42
ATOM     42  C   UNL A   1      37.823  31.162  30.237  1.00  0.00     0.031 A 
ATOM     43  C   UNL A   1      38.641  30.099  29.569  1.00  0.00     0.074 A 
ATOM     44  C   UNL A   1      38.086  31.516  31.510  1.00  0.00     0.049 A 
ATOM     45  N   UNL A   1      39.707  29.489  30.019  1.00  0.00    -0.248 NA
ATOM     46  C   UNL A   1      38.213  29.654  28.234  1.00  0.00     0.031 C 
ATOM     47  C   UNL A   1      37.310  32.486  32.288  1.00  0.00     0.029 A 
ATOM     48  N   UNL A   1      39.069  31.106  32.373  1.00  0.00    -0.354 N 
ATOM     49  C   UNL A   1      40.081  28.589  29.031  1.00  0.00     0.074 A 
ATOM     50  C   UNL A   1      39.112  28.714  27.961  1.00  0.00     0.031 C 
ATOM     51  C   UNL A   1      37.866  32.618  33.502  1.00  0.00     0.029 A 
ATOM     52  C   UNL A   1      39.020  31.730  33.598  1.00  0.00     0.049 A 
ATOM     53  H   UNL A   1      39.746  30.430  32.139  1.00  0.00     0.167 HD
ATOM     54  C   UNL A   1      41.147  27.756  29.011  1.00  0.00     0.034 A 
ATOM     55  C   UNL A   1      39.817  31.610  34.676  1.00  0.00     0.034 A 
ATOM     56  C   UNL A   1      42.114  27.648  30.070  1.00  0.00     0.049 A 
ATOM     57  C   UNL A   1      41.000  30.688  34.620  1.00  0.00     0.074 A 
ATOM     58  C   UNL A   1      43.265  26.877  30.101  1.00  0.00     0.029 A 
ATOM     59  N   UNL A   1      42.044  28.311  31.284  1.00  0.00    -0.354 N 
ATOM     60  N   UNL A   1      41.416  29.950  33.621  1.00  0.00    -0.248 NA
ATOM     61  C   UNL A   1      41.839  30.601  35.825  1.00  0.00     0.031 C 
ATOM     62  C   UNL A   1      43.878  27.057  31.344  1.00  0.00     0.029 A 
ATOM     63  C   UNL A   1      43.123  27.957  32.077  1.00  0.00     0.049 A 
ATOM     64  H   UNL A   1      41.332  28.940  31.544  1.00  0.00     0.167 HD
ATOM     65  C   UNL A   1      42.574  29.325  34.066  1.00  0.00     0.074 A 
ATOM     66  C   UNL A   1      42.803  29.782  35.422  1.00  0.00     0.031 C 
ATOM     67  C   UNL A   1      43.365  28.445  33.410  1.00  0.00     0.034 A 
BRANCH  54  68
ATOM     68  C   UNL A   1      41.382  26.926  27.778  1.00  0.00     0.023 A 
ATOM     69  C   UNL A   1      42.016  27.517  26.669  1.00  0.00     0.012 A 
ATOM     70  C   UNL A   1      41.111  25.545  27.770  1.00  0.00     0.148 A 
ATOM     71  C   UNL A   1      42.375  26.747  25.565  1.00  0.00     0.002 A 
ATOM     72  C   UNL A   1      41.496  24.776  26.678  1.00  0.00     0.091 A 
ATOM     73  F   UNL A   1      40.504  25.008  28.838  1.00  0.00    -0.205 F 
ATOM     74  C   UNL A   1      42.127  25.377  25.574  1.00  0.00     0.022 A 
BRANCH  72  75
ATOM     75  S   UNL A   1      41.268  22.996  26.606  1.00  0.00     0.127 S 
ATOM     76  O   UNL A   1      42.128  22.636  25.479  1.00  0.00    -0.237 OA
ATOM     77  O   UNL A   1      41.765  22.570  27.913  1.00  0.00    -0.237 OA
ATOM     78  O   UNL A   1      39.844  22.779  26.388  1.00  0.00    -0.744 OA
ENDBRANCH  72  75
ENDBRANCH  54  68
BRANCH  55  79
ATOM     79  C   UNL A   1      39.546  32.450  35.874  1.00  0.00     0.023 A 
ATOM     80  C   UNL A   1      40.152  33.715  35.979  1.00  0.00     0.012 A 
ATOM     81  C   UNL A   1      38.632  32.032  36.860  1.00  0.00     0.148 A 
ATOM     82  C   UNL A   1      39.857  34.551  37.057  1.00  0.00     0.002 A 
ATOM     83  C   UNL A   1      38.315  32.884  37.909  1.00  0.00     0.091 A 
ATOM     84  F   UNL A   1      38.069  30.824  36.728  1.00  0.00    -0.205 F 
ATOM     85  C   UNL A   1      38.933  34.141  38.014  1.00  0.00     0.022 A 
BRANCH  83  86
ATOM     86  S   UNL A   1      37.071  32.485  39.139  1.00  0.00     0.127 S 
ATOM     87  O   UNL A   1      35.834  32.756  38.410  1.00  0.00    -0.237 OA
ATOM     88  O   UNL A   1      37.342  31.070  39.389  1.00  0.00    -0.237 OA
ATOM     89  O   UNL A   1      37.333  33.364  40.270  1.00  0.00    -0.744 OA
ENDBRANCH  83  86
ENDBRANCH  55  79
BRANCH  67  90
ATOM     90  C   UNL A   1      44.573  27.905  34.125  1.00  0.00     0.023 A 
ATOM     91  C   UNL A   1      44.471  26.693  34.835  1.00  0.00     0.012 A 
ATOM     92  C   UNL A   1      45.830  28.523  33.976  1.00  0.00     0.148 A 
ATOM     93  C   UNL A   1      45.606  26.105  35.393  1.00  0.00     0.002 A 
ATOM     94  C   UNL A   1      46.961  27.914  34.506  1.00  0.00     0.091 A 
ATOM     95  F   UNL A   1      45.896  29.678  33.299  1.00  0.00    -0.205 F 
ATOM     96  C   UNL A   1      46.851  26.707  35.217  1.00  0.00     0.022 A 
BRANCH  94  97
ATOM     97  S   UNL A   1      48.616  28.573  34.275  1.00  0.00     0.127 S 
ATOM     98  O   UNL A   1      49.446  27.457  34.725  1.00  0.00    -0.237 OA
ATOM     99  O   UNL A   1      48.652  28.820  32.834  1.00  0.00    -0.237 OA
ATOM    100  O   UNL A   1      48.695  29.771  35.101  1.00  0.00    -0.744 OA
ENDBRANCH  94  97
ENDBRANCH  67  90
ENDBRANCH  41  42
ENDBRANCH  34  36
ENDBRANCH  33  34
ENDBRANCH  32  33
ENDBRANCH  31  32
ENDBRANCH  30  31
ENDBRANCH   1  30
TORSDOF 21
ENDMDL
MODEL 3
REMARK VINA RESULT:     -11.4      0.665      7.225
REMARK SMILES O=C(Cn1nc(C(=O)OCCOCCOC(=O)c2ccc(-c3c4nc(c(-c5cccc(S(=O)(=O)[O-])c5F)c5ccc([nH]5)c(-c5cccc(S(=O)(=O)[O-])c5F)c5nc(c(-c6cccc(S(=O)(=O)[O-])c6F)c6ccc3[nH]6)C=C5)C=C4)cc2)c2ccccc2c1=O)NCc1ccc(F)cc1
REMARK SMILES IDX 11 1 10 2 9 3 7 4 8 5 6 6 4 7 5 8 87 9 86 10 88 11 81 12
REMARK SMILES IDX 85 13 82 14 84 15 83 16 3 17 2 18 1 19 89 20 90 22 91 23
REMARK SMILES IDX 92 24 97 25 93 26 96 27 94 28 95 29 12 30 13 31 14 32 15 33
REMARK SMILES IDX 16 34 17 35 18 36 19 37 80 38 20 39 79 40 21 41 22 42 23 43
REMARK SMILES IDX 73 44 24 45 78 46 72 47 74 48 25 49 77 50 71 51 70 52 26 54
REMARK SMILES IDX 58 55 38 56 57 57 39 58 42 59 56 60 75 61 40 62 41 63 55 65
REMARK SMILES IDX 76 66 43 67 27 68 28 69 36 70 29 71 31 72 37 73 30 74 32 75
REMARK SMILES IDX 33 76 34 77 35 78 59 79 60 80 68 81 61 82 63 83 69 84 62 85
REMARK SMILES IDX 64 86 65 87 66 88 67 89 44 90 45 91 53 92 46 93 48 94 54 95
REMARK SMILES IDX 47 96 49 97 50 98 51 99 52 100
REMARK H PARENT 89 21 74 53 42 64
REMARK Flexibility Score: inf
ROOT
ATOM      1  C   UNL A   1      32.497  29.572  27.047  1.00  0.00     0.202 C 
ENDROOT
BRANCH   1   2
ATOM      2  C   UNL A   1      31.790  28.213  27.077  1.00  0.00     0.261 C 
BRANCH   2   3
ATOM      3  O   UNL A   1      32.725  27.136  26.925  1.00  0.00    -0.458 OA
BRANCH   3   4
ATOM      4  C   UNL A   1      32.191  25.947  26.583  1.00  0.00     0.359 C 
ATOM      5  O   UNL A   1      31.422  25.250  27.219  1.00  0.00    -0.244 OA
BRANCH   4   6
ATOM      6  C   UNL A   1      32.554  25.616  25.142  1.00  0.00     0.176 A 
ATOM      7  N   UNL A   1      32.448  26.138  22.895  1.00  0.00    -0.219 N 
ATOM      8  N   UNL A   1      32.129  26.417  24.209  1.00  0.00    -0.161 NA
ATOM      9  C   UNL A   1      33.216  25.044  22.500  1.00  0.00     0.275 A 
ATOM     10  C   UNL A   1      33.777  24.207  23.569  1.00  0.00     0.051 A 
ATOM     11  O   UNL A   1      33.446  24.743  21.332  1.00  0.00    -0.267 OA
ATOM     12  C   UNL A   1      33.381  24.422  24.882  1.00  0.00     0.022 A 
ATOM     13  C   UNL A   1      34.658  23.164  23.251  1.00  0.00     0.014 A 
ATOM     14  C   UNL A   1      33.783  23.519  25.876  1.00  0.00     0.011 A 
ATOM     15  C   UNL A   1      35.091  22.293  24.247  1.00  0.00     0.001 A 
ATOM     16  C   UNL A   1      34.629  22.453  25.552  1.00  0.00     0.001 A 
BRANCH   7  17
ATOM     17  C   UNL A   1      31.719  26.889  21.868  1.00  0.00     0.248 C 
BRANCH  17  18
ATOM     18  C   UNL A   1      31.138  28.208  22.382  1.00  0.00     0.242 C 
ATOM     19  O   UNL A   1      31.684  29.287  22.162  1.00  0.00    -0.273 OA
ATOM     20  N   UNL A   1      29.906  28.108  22.992  1.00  0.00    -0.350 N 
ATOM     21  H   UNL A   1      29.392  27.273  22.904  1.00  0.00     0.163 HD
BRANCH  20  22
ATOM     22  C   UNL A   1      29.349  29.196  23.756  1.00  0.00     0.151 C 
BRANCH  22  23
ATOM     23  C   UNL A   1      28.896  30.331  22.880  1.00  0.00    -0.029 A 
ATOM     24  C   UNL A   1      28.412  30.089  21.585  1.00  0.00     0.008 A 
ATOM     25  C   UNL A   1      28.933  31.650  23.361  1.00  0.00     0.008 A 
ATOM     26  C   UNL A   1      27.977  31.148  20.788  1.00  0.00     0.039 A 
ATOM     27  C   UNL A   1      28.502  32.707  22.561  1.00  0.00     0.039 A 
ATOM     28  C   UNL A   1      28.027  32.446  21.282  1.00  0.00     0.123 A 
ATOM     29  F   UNL A   1      27.606  33.458  20.513  1.00  0.00    -0.207 F 
ENDBRANCH  22  23
ENDBRANCH  20  22
ENDBRANCH  17  18
ENDBRANCH   7  17
ENDBRANCH   4   6
ENDBRANCH   3   4
ENDBRANCH   2   3
ENDBRANCH   1   2
BRANCH   1  30
ATOM     30  O   UNL A   1      32.051  30.500  26.058  1.00  0.00    -0.374 OA
BRANCH  30  31
ATOM     31  C   UNL A   1      31.287  31.625  26.494  1.00  0.00     0.202 C 
BRANCH  31  32
ATOM     32  C   UNL A   1      31.973  32.996  26.565  1.00  0.00     0.261 C 
BRANCH  32  33
ATOM     33  O   UNL A   1      32.366  33.347  27.899  1.00  0.00    -0.460 OA
BRANCH  33  34
ATOM     34  C   UNL A   1      33.457  34.150  27.982  1.00  0.00     0.338 C 
ATOM     35  O   UNL A   1      33.485  35.364  27.853  1.00  0.00    -0.246 OA
BRANCH  34  36
ATOM     36  C   UNL A   1      34.599  33.357  28.476  1.00  0.00     0.060 A 
ATOM     37  C   UNL A   1      35.903  33.853  28.423  1.00  0.00     0.016 A 
ATOM     38  C   UNL A   1      34.340  32.091  29.018  1.00  0.00     0.016 A 
ATOM     39  C   UNL A   1      36.946  33.084  28.940  1.00  0.00     0.010 A 
ATOM     40  C   UNL A   1      35.385  31.326  29.537  1.00  0.00     0.010 A 
ATOM     41  C   UNL A   1      36.694  31.825  29.520  1.00  0.00    -0.014 A 
BRANCH  41  42
ATOM     42  C   UNL A   1      37.780  31.112  30.236  1.00  0.00     0.031 A 
ATOM     43  C   UNL A   1      38.652  30.103  29.554  1.00  0.00     0.074 A 
ATOM     44  C   UNL A   1      37.957  31.383  31.545  1.00  0.00     0.049 A 
ATOM     45  N   UNL A   1      39.696  29.475  30.030  1.00  0.00    -0.248 NA
ATOM     46  C   UNL A   1      38.315  29.745  28.167  1.00  0.00     0.031 C 
ATOM     47  C   UNL A   1      37.121  32.291  32.334  1.00  0.00     0.029 A 
ATOM     48  N   UNL A   1      38.890  30.926  32.439  1.00  0.00    -0.354 N 
ATOM     49  C   UNL A   1      40.143  28.647  29.010  1.00  0.00     0.074 A 
ATOM     50  C   UNL A   1      39.242  28.833  27.892  1.00  0.00     0.031 C 
ATOM     51  C   UNL A   1      37.598  32.348  33.586  1.00  0.00     0.029 A 
ATOM     52  C   UNL A   1      38.755  31.467  33.697  1.00  0.00     0.049 A 
ATOM     53  H   UNL A   1      39.589  30.274  32.205  1.00  0.00     0.167 HD
ATOM     54  C   UNL A   1      41.220  27.827  29.003  1.00  0.00     0.034 A 
ATOM     55  C   UNL A   1      39.485  31.283  34.813  1.00  0.00     0.034 A 
ATOM     56  C   UNL A   1      42.121  27.658  30.112  1.00  0.00     0.049 A 
ATOM     57  C   UNL A   1      40.681  30.378  34.772  1.00  0.00     0.074 A 
ATOM     58  C   UNL A   1      43.277  26.898  30.165  1.00  0.00     0.029 A 
ATOM     59  N   UNL A   1      41.965  28.238  31.360  1.00  0.00    -0.354 N 
ATOM     60  N   UNL A   1      41.169  29.712  33.755  1.00  0.00    -0.248 NA
ATOM     61  C   UNL A   1      41.444  30.219  36.019  1.00  0.00     0.031 C 
ATOM     62  C   UNL A   1      43.809  27.000  31.454  1.00  0.00     0.029 A 
ATOM     63  C   UNL A   1      42.997  27.843  32.195  1.00  0.00     0.049 A 
ATOM     64  H   UNL A   1      41.230  28.841  31.615  1.00  0.00     0.167 HD
ATOM     65  C   UNL A   1      42.306  29.070  34.231  1.00  0.00     0.074 A 
ATOM     66  C   UNL A   1      42.442  29.438  35.625  1.00  0.00     0.031 C 
ATOM     67  C   UNL A   1      43.148  28.243  33.569  1.00  0.00     0.034 A 
BRANCH  54  68
ATOM     68  C   UNL A   1      41.544  27.083  27.736  1.00  0.00     0.023 A 
ATOM     69  C   UNL A   1      42.055  27.799  26.636  1.00  0.00     0.012 A 
ATOM     70  C   UNL A   1      41.479  25.678  27.682  1.00  0.00     0.148 A 
ATOM     71  C   UNL A   1      42.495  27.128  25.497  1.00  0.00     0.002 A 
ATOM     72  C   UNL A   1      41.945  25.012  26.554  1.00  0.00     0.091 A 
ATOM     73  F   UNL A   1      40.985  25.021  28.741  1.00  0.00    -0.205 F 
ATOM     74  C   UNL A   1      42.452  25.736  25.461  1.00  0.00     0.022 A 
BRANCH  72  75
ATOM     75  S   UNL A   1      41.980  23.221  26.421  1.00  0.00     0.127 S 
ATOM     76  O   UNL A   1      42.654  23.036  25.136  1.00  0.00    -0.237 OA
ATOM     77  O   UNL A   1      42.775  22.842  27.587  1.00  0.00    -0.237 OA
ATOM     78  O   UNL A   1      40.590  22.786  26.455  1.00  0.00    -0.744 OA
ENDBRANCH  72  75
ENDBRANCH  54  68
BRANCH  55  79
ATOM     79  C   UNL A   1      39.128  32.039  36.044  1.00  0.00     0.023 A 
ATOM     80  C   UNL A   1      39.626  33.342  36.221  1.00  0.00     0.012 A 
ATOM     81  C   UNL A   1      38.237  31.500  36.992  1.00  0.00     0.148 A 
ATOM     82  C   UNL A   1      39.247  34.098  37.331  1.00  0.00     0.002 A 
ATOM     83  C   UNL A   1      37.835  32.272  38.074  1.00  0.00     0.091 A 
ATOM     84  F   UNL A   1      37.777  30.258  36.792  1.00  0.00    -0.205 F 
ATOM     85  C   UNL A   1      38.345  33.568  38.250  1.00  0.00     0.022 A 
BRANCH  83  86
ATOM     86  S   UNL A   1      36.609  31.713  39.260  1.00  0.00     0.127 S 
ATOM     87  O   UNL A   1      37.338  31.834  40.521  1.00  0.00    -0.237 OA
ATOM     88  O   UNL A   1      35.541  32.695  39.069  1.00  0.00    -0.237 OA
ATOM     89  O   UNL A   1      36.264  30.355  38.867  1.00  0.00    -0.744 OA
ENDBRANCH  83  86
ENDBRANCH  55  79
BRANCH  67  90
ATOM     90  C   UNL A   1      44.316  27.668  34.323  1.00  0.00     0.023 A 
ATOM     91  C   UNL A   1      45.454  28.465  34.549  1.00  0.00     0.012 A 
ATOM     92  C   UNL A   1      44.226  26.395  34.921  1.00  0.00     0.148 A 
ATOM     93  C   UNL A   1      46.491  28.001  35.358  1.00  0.00     0.002 A 
ATOM     94  C   UNL A   1      45.248  25.954  35.752  1.00  0.00     0.091 A 
ATOM     95  F   UNL A   1      43.133  25.656  34.685  1.00  0.00    -0.205 F 
ATOM     96  C   UNL A   1      46.382  26.753  35.969  1.00  0.00     0.022 A 
BRANCH  94  97
ATOM     97  S   UNL A   1      45.171  24.394  36.640  1.00  0.00     0.127 S 
ATOM     98  O   UNL A   1      43.836  23.914  36.284  1.00  0.00    -0.237 OA
ATOM     99  O   UNL A   1      46.271  23.642  36.035  1.00  0.00    -0.237 OA
ATOM    100  O   UNL A   1      45.355  24.717  38.048  1.00  0.00    -0.744 OA
ENDBRANCH  94  97
ENDBRANCH  67  90
ENDBRANCH  41  42
ENDBRANCH  34  36
ENDBRANCH  33  34
ENDBRANCH  32  33
ENDBRANCH  31  32
ENDBRANCH  30  31
ENDBRANCH   1  30
TORSDOF 21
ENDMDL
