MODEL 1
REMARK VINA RESULT:     -12.0      0.000      0.000
REMARK SMILES CCCc1cc2c(cc1Cl)C=C(C(=O)OCCOCCOC(=O)c1ccc(-c3c4nc(c(-c5cccc(S(=O)(=O)[O-])c5F)c5ccc([nH]5)c(-c5cccc(S(=O)(=O)[O-])c5F)c5nc(c(-c6cccc(S(=O)(=O)[O-])c6F)c6ccc3[nH]6)C=C5)C=C4)cc1)[C@H](C(F)(F)F)O2
REMARK SMILES IDX 19 1 18 2 17 3 16 4 15 5 13 6 14 7 12 8 4 9 5 10 9 11 6 12
REMARK SMILES IDX 8 13 10 14 7 15 92 16 11 17 87 18 3 19 2 20 1 21 88 22 89 23
REMARK SMILES IDX 90 24 91 25 20 26 21 27 22 28 23 29 24 30 25 31 86 32 26 33
REMARK SMILES IDX 85 34 27 35 28 36 29 37 79 38 30 39 84 40 78 41 80 42 31 43
REMARK SMILES IDX 83 44 77 45 76 46 32 48 64 49 44 50 63 51 45 52 48 53 62 54
REMARK SMILES IDX 81 55 46 56 47 57 61 59 82 60 49 61 33 62 34 63 42 64 35 65
REMARK SMILES IDX 37 66 43 67 36 68 38 69 39 70 40 71 41 72 65 73 66 74 74 75
REMARK SMILES IDX 67 76 69 77 75 78 68 79 70 80 71 81 72 82 73 83 50 84 51 85
REMARK SMILES IDX 59 86 52 87 54 88 60 89 53 90 55 91 56 92 57 93 58 94
REMARK H PARENT 80 47 48 58
REMARK Flexibility Score: inf
ROOT
ATOM      1  C   UNL A   1      35.725  20.702  25.009  1.00  0.00     0.202 C 
ENDROOT
BRANCH   1   2
ATOM      2  O   UNL A   1      34.710  19.770  24.625  1.00  0.00    -0.374 OA
BRANCH   2   3
ATOM      3  C   UNL A   1      33.367  20.065  25.007  1.00  0.00     0.202 C 
BRANCH   3   4
ATOM      4  C   UNL A   1      32.526  20.869  24.013  1.00  0.00     0.261 C 
BRANCH   4   5
ATOM      5  O   UNL A   1      32.670  22.283  24.226  1.00  0.00    -0.460 OA
BRANCH   5   6
ATOM      6  C   UNL A   1      31.623  22.857  24.850  1.00  0.00     0.338 C 
ATOM      7  O   UNL A   1      30.902  22.335  25.688  1.00  0.00    -0.246 OA
BRANCH   6   8
ATOM      8  C   UNL A   1      31.521  24.284  24.493  1.00  0.00     0.087 C 
ATOM      9  C   UNL A   1      29.448  28.562  22.808  1.00  0.00    -0.026 A 
ATOM     10  C   UNL A   1      30.756  28.015  22.815  1.00  0.00     0.052 A 
ATOM     11  C   UNL A   1      28.433  27.813  23.427  1.00  0.00     0.045 A 
ATOM     12  C   UNL A   1      31.040  26.790  23.421  1.00  0.00     0.128 A 
ATOM     13  C   UNL A   1      28.734  26.615  24.085  1.00  0.00     0.032 A 
ATOM     14  Cl  UNL A   1      26.753  28.207  23.364  1.00  0.00    -0.084 Cl
ATOM     15  C   UNL A   1      30.027  26.096  24.065  1.00  0.00     0.019 A 
ATOM     16  O   UNL A   1      32.307  26.301  23.264  1.00  0.00    -0.475 OA
ATOM     17  C   UNL A   1      30.276  24.769  24.580  1.00  0.00     0.027 C 
ATOM     18  C   UNL A   1      32.691  25.089  23.992  1.00  0.00     0.316 C 
BRANCH   9  19
ATOM     19  C   UNL A   1      29.271  29.848  22.023  1.00  0.00     0.037 C 
BRANCH  19  20
ATOM     20  C   UNL A   1      29.138  31.200  22.732  1.00  0.00     0.001 C 
ATOM     21  C   UNL A   1      27.827  31.389  23.479  1.00  0.00     0.004 C 
ENDBRANCH  19  20
ENDBRANCH   9  19
BRANCH  18  22
ATOM     22  C   UNL A   1      33.710  25.482  25.083  1.00  0.00     0.430 C 
ATOM     23  F   UNL A   1      34.870  24.791  24.949  1.00  0.00    -0.167 F 
ATOM     24  F   UNL A   1      34.031  26.796  25.034  1.00  0.00    -0.167 F 
ATOM     25  F   UNL A   1      33.250  25.213  26.327  1.00  0.00    -0.167 F 
ENDBRANCH  18  22
ENDBRANCH   6   8
ENDBRANCH   5   6
ENDBRANCH   4   5
ENDBRANCH   3   4
ENDBRANCH   2   3
ENDBRANCH   1   2
BRANCH   1  26
ATOM     26  C   UNL A   1      37.179  20.205  25.028  1.00  0.00     0.261 C 
BRANCH  26  27
ATOM     27  O   UNL A   1      38.106  21.288  25.226  1.00  0.00    -0.460 OA
BRANCH  27  28
ATOM     28  C   UNL A   1      39.150  21.018  26.050  1.00  0.00     0.338 C 
ATOM     29  O   UNL A   1      39.719  19.947  26.186  1.00  0.00    -0.246 OA
BRANCH  28  30
ATOM     30  C   UNL A   1      39.675  22.294  26.580  1.00  0.00     0.060 A 
ATOM     31  C   UNL A   1      40.751  22.333  27.468  1.00  0.00     0.016 A 
ATOM     32  C   UNL A   1      39.058  23.480  26.159  1.00  0.00     0.016 A 
ATOM     33  C   UNL A   1      41.231  23.571  27.907  1.00  0.00     0.010 A 
ATOM     34  C   UNL A   1      39.528  24.712  26.609  1.00  0.00     0.010 A 
ATOM     35  C   UNL A   1      40.636  24.768  27.466  1.00  0.00    -0.014 A 
BRANCH  35  36
ATOM     36  C   UNL A   1      41.269  26.079  27.748  1.00  0.00     0.031 A 
ATOM     37  C   UNL A   1      42.686  26.380  27.358  1.00  0.00     0.074 A 
ATOM     38  C   UNL A   1      40.559  26.983  28.451  1.00  0.00     0.049 A 
ATOM     39  N   UNL A   1      43.372  27.475  27.558  1.00  0.00    -0.248 NA
ATOM     40  C   UNL A   1      43.430  25.321  26.660  1.00  0.00     0.031 C 
ATOM     41  C   UNL A   1      39.195  26.778  28.940  1.00  0.00     0.029 A 
ATOM     42  N   UNL A   1      40.889  28.237  28.894  1.00  0.00    -0.354 N 
ATOM     43  C   UNL A   1      44.632  27.242  27.024  1.00  0.00     0.074 A 
ATOM     44  C   UNL A   1      44.620  25.892  26.497  1.00  0.00     0.031 C 
ATOM     45  C   UNL A   1      38.802  27.869  29.614  1.00  0.00     0.029 A 
ATOM     46  C   UNL A   1      39.894  28.839  29.628  1.00  0.00     0.049 A 
ATOM     47  H   UNL A   1      41.755  28.667  28.707  1.00  0.00     0.167 HD
ATOM     48  C   UNL A   1      45.692  28.083  26.965  1.00  0.00     0.034 A 
ATOM     49  C   UNL A   1      39.858  30.032  30.249  1.00  0.00     0.034 A 
ATOM     50  C   UNL A   1      45.699  29.426  27.487  1.00  0.00     0.049 A 
ATOM     51  C   UNL A   1      41.042  30.948  30.162  1.00  0.00     0.074 A 
ATOM     52  C   UNL A   1      46.714  30.365  27.419  1.00  0.00     0.029 A 
ATOM     53  N   UNL A   1      44.655  30.016  28.181  1.00  0.00    -0.354 N 
ATOM     54  N   UNL A   1      42.186  30.750  29.556  1.00  0.00    -0.248 NA
ATOM     55  C   UNL A   1      40.922  32.260  30.813  1.00  0.00     0.031 C 
ATOM     56  C   UNL A   1      46.294  31.516  28.092  1.00  0.00     0.029 A 
ATOM     57  C   UNL A   1      45.003  31.306  28.550  1.00  0.00     0.049 A 
ATOM     58  H   UNL A   1      43.794  29.584  28.383  1.00  0.00     0.167 HD
ATOM     59  C   UNL A   1      42.910  31.924  29.718  1.00  0.00     0.074 A 
ATOM     60  C   UNL A   1      42.076  32.829  30.482  1.00  0.00     0.031 C 
ATOM     61  C   UNL A   1      44.155  32.218  29.272  1.00  0.00     0.034 A 
BRANCH  48  62
ATOM     62  C   UNL A   1      46.938  27.611  26.267  1.00  0.00     0.023 A 
ATOM     63  C   UNL A   1      47.835  26.773  26.959  1.00  0.00     0.012 A 
ATOM     64  C   UNL A   1      47.153  27.884  24.902  1.00  0.00     0.148 A 
ATOM     65  C   UNL A   1      48.932  26.215  26.302  1.00  0.00     0.002 A 
ATOM     66  C   UNL A   1      48.233  27.302  24.248  1.00  0.00     0.091 A 
ATOM     67  F   UNL A   1      46.289  28.689  24.269  1.00  0.00    -0.205 F 
ATOM     68  C   UNL A   1      49.124  26.470  24.946  1.00  0.00     0.022 A 
BRANCH  66  69
ATOM     69  S   UNL A   1      48.541  27.522  22.491  1.00  0.00     0.127 S 
ATOM     70  O   UNL A   1      47.343  28.249  22.073  1.00  0.00    -0.237 OA
ATOM     71  O   UNL A   1      49.768  28.319  22.493  1.00  0.00    -0.237 OA
ATOM     72  O   UNL A   1      48.679  26.184  21.934  1.00  0.00    -0.744 OA
ENDBRANCH  66  69
ENDBRANCH  48  62
BRANCH  49  73
ATOM     73  C   UNL A   1      38.610  30.441  30.943  1.00  0.00     0.023 A 
ATOM     74  C   UNL A   1      38.495  30.229  32.330  1.00  0.00     0.012 A 
ATOM     75  C   UNL A   1      37.589  31.125  30.256  1.00  0.00     0.148 A 
ATOM     76  C   UNL A   1      37.377  30.690  33.024  1.00  0.00     0.002 A 
ATOM     77  C   UNL A   1      36.497  31.614  30.960  1.00  0.00     0.091 A 
ATOM     78  F   UNL A   1      37.733  31.317  28.938  1.00  0.00    -0.205 F 
ATOM     79  C   UNL A   1      36.384  31.391  32.342  1.00  0.00     0.022 A 
BRANCH  77  80
ATOM     80  S   UNL A   1      35.216  32.612  30.193  1.00  0.00     0.127 S 
ATOM     81  O   UNL A   1      34.267  32.776  31.293  1.00  0.00    -0.237 OA
ATOM     82  O   UNL A   1      35.957  33.821  29.833  1.00  0.00    -0.237 OA
ATOM     83  O   UNL A   1      34.729  31.835  29.062  1.00  0.00    -0.744 OA
ENDBRANCH  77  80
ENDBRANCH  49  73
BRANCH  61  84
ATOM     84  C   UNL A   1      44.699  33.594  29.548  1.00  0.00     0.023 A 
ATOM     85  C   UNL A   1      45.405  33.845  30.739  1.00  0.00     0.012 A 
ATOM     86  C   UNL A   1      44.600  34.604  28.572  1.00  0.00     0.148 A 
ATOM     87  C   UNL A   1      45.995  35.090  30.960  1.00  0.00     0.002 A 
ATOM     88  C   UNL A   1      45.220  35.829  28.782  1.00  0.00     0.091 A 
ATOM     89  F   UNL A   1      43.911  34.342  27.450  1.00  0.00    -0.205 F 
ATOM     90  C   UNL A   1      45.913  36.076  29.977  1.00  0.00     0.022 A 
BRANCH  88  91
ATOM     91  S   UNL A   1      45.228  37.134  27.547  1.00  0.00     0.127 S 
ATOM     92  O   UNL A   1      45.995  38.178  28.223  1.00  0.00    -0.237 OA
ATOM     93  O   UNL A   1      45.921  36.496  26.427  1.00  0.00    -0.237 OA
ATOM     94  O   UNL A   1      43.831  37.458  27.290  1.00  0.00    -0.744 OA
ENDBRANCH  88  91
ENDBRANCH  61  84
ENDBRANCH  35  36
ENDBRANCH  28  30
ENDBRANCH  27  28
ENDBRANCH  26  27
ENDBRANCH   1  26
TORSDOF 20
ENDMDL
MODEL 2
REMARK VINA RESULT:     -11.9      1.233      7.507
REMARK SMILES CCCc1cc2c(cc1Cl)C=C(C(=O)OCCOCCOC(=O)c1ccc(-c3c4nc(c(-c5cccc(S(=O)(=O)[O-])c5F)c5ccc([nH]5)c(-c5cccc(S(=O)(=O)[O-])c5F)c5nc(c(-c6cccc(S(=O)(=O)[O-])c6F)c6ccc3[nH]6)C=C5)C=C4)cc1)[C@H](C(F)(F)F)O2
REMARK SMILES IDX 19 1 18 2 17 3 16 4 15 5 13 6 14 7 12 8 4 9 5 10 9 11 6 12
REMARK SMILES IDX 8 13 10 14 7 15 92 16 11 17 87 18 3 19 2 20 1 21 88 22 89 23
REMARK SMILES IDX 90 24 91 25 20 26 21 27 22 28 23 29 24 30 25 31 86 32 26 33
REMARK SMILES IDX 85 34 27 35 28 36 29 37 79 38 30 39 84 40 78 41 80 42 31 43
REMARK SMILES IDX 83 44 77 45 76 46 32 48 64 49 44 50 63 51 45 52 48 53 62 54
REMARK SMILES IDX 81 55 46 56 47 57 61 59 82 60 49 61 33 62 34 63 42 64 35 65
REMARK SMILES IDX 37 66 43 67 36 68 38 69 39 70 40 71 41 72 65 73 66 74 74 75
REMARK SMILES IDX 67 76 69 77 75 78 68 79 70 80 71 81 72 82 73 83 50 84 51 85
REMARK SMILES IDX 59 86 52 87 54 88 60 89 53 90 55 91 56 92 57 93 58 94
REMARK H PARENT 80 47 48 58
REMARK Flexibility Score: inf
ROOT
ATOM      1  C   UNL A   1      36.099  19.992  24.874  1.00  0.00     0.202 C 
ENDROOT
BRANCH   1   2
ATOM      2  O   UNL A   1      35.522  21.090  25.587  1.00  0.00    -0.374 OA
BRANCH   2   3
ATOM      3  C   UNL A   1      34.609  21.927  24.880  1.00  0.00     0.202 C 
BRANCH   3   4
ATOM      4  C   UNL A   1      33.117  21.667  25.101  1.00  0.00     0.261 C 
BRANCH   4   5
ATOM      5  O   UNL A   1      32.356  22.885  25.045  1.00  0.00    -0.460 OA
BRANCH   5   6
ATOM      6  C   UNL A   1      31.939  23.218  23.808  1.00  0.00     0.338 C 
ATOM      7  O   UNL A   1      31.664  22.445  22.901  1.00  0.00    -0.246 OA
BRANCH   6   8
ATOM      8  C   UNL A   1      31.716  24.672  23.707  1.00  0.00     0.087 C 
ATOM      9  C   UNL A   1      29.263  28.993  22.845  1.00  0.00    -0.026 A 
ATOM     10  C   UNL A   1      30.608  28.561  22.724  1.00  0.00     0.052 A 
ATOM     11  C   UNL A   1      28.332  28.070  23.349  1.00  0.00     0.045 A 
ATOM     12  C   UNL A   1      31.006  27.277  23.100  1.00  0.00     0.128 A 
ATOM     13  C   UNL A   1      28.747  26.805  23.782  1.00  0.00     0.032 A 
ATOM     14  Cl  UNL A   1      26.626  28.331  23.399  1.00  0.00    -0.084 Cl
ATOM     15  C   UNL A   1      30.074  26.403  23.639  1.00  0.00     0.019 A 
ATOM     16  O   UNL A   1      32.299  26.926  22.829  1.00  0.00    -0.475 OA
ATOM     17  C   UNL A   1      30.442  25.032  23.909  1.00  0.00     0.027 C 
ATOM     18  C   UNL A   1      32.801  25.643  23.325  1.00  0.00     0.316 C 
BRANCH   9  19
ATOM     19  C   UNL A   1      28.959  30.376  22.301  1.00  0.00     0.037 C 
BRANCH  19  20
ATOM     20  C   UNL A   1      28.415  31.486  23.208  1.00  0.00     0.001 C 
ATOM     21  C   UNL A   1      28.686  32.895  22.705  1.00  0.00     0.004 C 
ENDBRANCH  19  20
ENDBRANCH   9  19
BRANCH  18  22
ATOM     22  C   UNL A   1      33.829  25.924  24.442  1.00  0.00     0.430 C 
ATOM     23  F   UNL A   1      34.858  25.039  24.403  1.00  0.00    -0.167 F 
ATOM     24  F   UNL A   1      34.373  27.158  24.337  1.00  0.00    -0.167 F 
ATOM     25  F   UNL A   1      33.282  25.814  25.674  1.00  0.00    -0.167 F 
ENDBRANCH  18  22
ENDBRANCH   6   8
ENDBRANCH   5   6
ENDBRANCH   4   5
ENDBRANCH   3   4
ENDBRANCH   2   3
ENDBRANCH   1   2
BRANCH   1  26
ATOM     26  C   UNL A   1      37.607  19.752  25.034  1.00  0.00     0.261 C 
BRANCH  26  27
ATOM     27  O   UNL A   1      38.292  20.945  25.459  1.00  0.00    -0.460 OA
BRANCH  27  28
ATOM     28  C   UNL A   1      39.435  20.742  26.161  1.00  0.00     0.338 C 
ATOM     29  O   UNL A   1      40.102  19.721  26.198  1.00  0.00    -0.246 OA
BRANCH  28  30
ATOM     30  C   UNL A   1      39.904  22.043  26.684  1.00  0.00     0.060 A 
ATOM     31  C   UNL A   1      40.907  22.127  27.651  1.00  0.00     0.016 A 
ATOM     32  C   UNL A   1      39.309  23.205  26.175  1.00  0.00     0.016 A 
ATOM     33  C   UNL A   1      41.339  23.386  28.082  1.00  0.00     0.010 A 
ATOM     34  C   UNL A   1      39.730  24.458  26.615  1.00  0.00     0.010 A 
ATOM     35  C   UNL A   1      40.767  24.559  27.553  1.00  0.00    -0.014 A 
BRANCH  35  36
ATOM     36  C   UNL A   1      41.362  25.887  27.836  1.00  0.00     0.031 A 
ATOM     37  C   UNL A   1      40.621  26.948  28.594  1.00  0.00     0.074 A 
ATOM     38  C   UNL A   1      42.575  26.158  27.312  1.00  0.00     0.049 A 
ATOM     39  N   UNL A   1      41.012  28.158  28.896  1.00  0.00    -0.248 NA
ATOM     40  C   UNL A   1      39.271  26.614  29.072  1.00  0.00     0.031 C 
ATOM     41  C   UNL A   1      43.362  25.227  26.502  1.00  0.00     0.029 A 
ATOM     42  N   UNL A   1      43.342  27.292  27.362  1.00  0.00    -0.354 N 
ATOM     43  C   UNL A   1      39.959  28.741  29.588  1.00  0.00     0.074 A 
ATOM     44  C   UNL A   1      38.904  27.751  29.655  1.00  0.00     0.031 C 
ATOM     45  C   UNL A   1      44.504  25.826  26.133  1.00  0.00     0.029 A 
ATOM     46  C   UNL A   1      44.517  27.190  26.656  1.00  0.00     0.049 A 
ATOM     47  H   UNL A   1      43.078  28.103  27.855  1.00  0.00     0.167 HD
ATOM     48  C   UNL A   1      39.890  29.980  30.132  1.00  0.00     0.034 A 
ATOM     49  C   UNL A   1      45.496  28.088  26.443  1.00  0.00     0.034 A 
ATOM     50  C   UNL A   1      40.943  30.960  30.067  1.00  0.00     0.049 A 
ATOM     51  C   UNL A   1      45.398  29.451  27.062  1.00  0.00     0.074 A 
ATOM     52  C   UNL A   1      40.975  32.221  30.639  1.00  0.00     0.029 A 
ATOM     53  N   UNL A   1      42.138  30.802  29.383  1.00  0.00    -0.354 N 
ATOM     54  N   UNL A   1      44.440  29.943  27.808  1.00  0.00    -0.248 NA
ATOM     55  C   UNL A   1      46.524  30.368  26.841  1.00  0.00     0.031 C 
ATOM     56  C   UNL A   1      42.179  32.835  30.282  1.00  0.00     0.029 A 
ATOM     57  C   UNL A   1      42.913  31.943  29.516  1.00  0.00     0.049 A 
ATOM     58  H   UNL A   1      42.398  29.999  28.877  1.00  0.00     0.167 HD
ATOM     59  C   UNL A   1      44.863  31.213  28.176  1.00  0.00     0.074 A 
ATOM     60  C   UNL A   1      46.162  31.417  27.571  1.00  0.00     0.031 C 
ATOM     61  C   UNL A   1      44.223  32.126  28.949  1.00  0.00     0.034 A 
BRANCH  48  62
ATOM     62  C   UNL A   1      38.650  30.352  30.899  1.00  0.00     0.023 A 
ATOM     63  C   UNL A   1      38.593  30.083  32.281  1.00  0.00     0.012 A 
ATOM     64  C   UNL A   1      37.610  31.080  30.288  1.00  0.00     0.148 A 
ATOM     65  C   UNL A   1      37.514  30.529  33.044  1.00  0.00     0.002 A 
ATOM     66  C   UNL A   1      36.553  31.545  31.061  1.00  0.00     0.091 A 
ATOM     67  F   UNL A   1      37.686  31.317  28.971  1.00  0.00    -0.205 F 
ATOM     68  C   UNL A   1      36.502  31.269  32.437  1.00  0.00     0.022 A 
BRANCH  66  69
ATOM     69  S   UNL A   1      35.224  32.552  30.390  1.00  0.00     0.127 S 
ATOM     70  O   UNL A   1      34.333  32.668  31.544  1.00  0.00    -0.237 OA
ATOM     71  O   UNL A   1      35.925  33.786  30.034  1.00  0.00    -0.237 OA
ATOM     72  O   UNL A   1      34.683  31.807  29.263  1.00  0.00    -0.744 OA
ENDBRANCH  66  69
ENDBRANCH  48  62
BRANCH  49  73
ATOM     73  C   UNL A   1      46.688  27.676  25.659  1.00  0.00     0.023 A 
ATOM     74  C   UNL A   1      46.734  27.954  24.280  1.00  0.00     0.012 A 
ATOM     75  C   UNL A   1      47.810  27.106  26.291  1.00  0.00     0.148 A 
ATOM     76  C   UNL A   1      47.879  27.666  23.539  1.00  0.00     0.002 A 
ATOM     77  C   UNL A   1      48.961  26.858  25.554  1.00  0.00     0.091 A 
ATOM     78  F   UNL A   1      47.738  26.861  27.606  1.00  0.00    -0.205 F 
ATOM     79  C   UNL A   1      48.995  27.129  24.177  1.00  0.00     0.022 A 
BRANCH  77  80
ATOM     80  S   UNL A   1      50.480  26.259  26.301  1.00  0.00     0.127 S 
ATOM     81  O   UNL A   1      50.026  25.038  26.963  1.00  0.00    -0.237 OA
ATOM     82  O   UNL A   1      51.325  26.046  25.126  1.00  0.00    -0.237 OA
ATOM     83  O   UNL A   1      50.931  27.319  27.192  1.00  0.00    -0.744 OA
ENDBRANCH  77  80
ENDBRANCH  49  73
BRANCH  61  84
ATOM     84  C   UNL A   1      44.925  33.425  29.237  1.00  0.00     0.023 A 
ATOM     85  C   UNL A   1      45.726  33.552  30.387  1.00  0.00     0.012 A 
ATOM     86  C   UNL A   1      44.873  34.480  28.306  1.00  0.00     0.148 A 
ATOM     87  C   UNL A   1      46.457  34.718  30.613  1.00  0.00     0.002 A 
ATOM     88  C   UNL A   1      45.631  35.624  28.518  1.00  0.00     0.091 A 
ATOM     89  F   UNL A   1      44.093  34.338  27.224  1.00  0.00    -0.205 F 
ATOM     90  C   UNL A   1      46.419  35.748  29.673  1.00  0.00     0.022 A 
BRANCH  88  91
ATOM     91  S   UNL A   1      45.701  36.973  27.332  1.00  0.00     0.127 S 
ATOM     92  O   UNL A   1      46.641  37.888  27.978  1.00  0.00    -0.237 OA
ATOM     93  O   UNL A   1      46.221  36.307  26.137  1.00  0.00    -0.237 OA
ATOM     94  O   UNL A   1      44.338  37.471  27.205  1.00  0.00    -0.744 OA
ENDBRANCH  88  91
ENDBRANCH  61  84
ENDBRANCH  35  36
ENDBRANCH  28  30
ENDBRANCH  27  28
ENDBRANCH  26  27
ENDBRANCH   1  26
TORSDOF 20
ENDMDL
MODEL 3
REMARK VINA RESULT:     -11.8      1.353      7.524
REMARK SMILES CCCc1cc2c(cc1Cl)C=C(C(=O)OCCOCCOC(=O)c1ccc(-c3c4nc(c(-c5cccc(S(=O)(=O)[O-])c5F)c5ccc([nH]5)c(-c5cccc(S(=O)(=O)[O-])c5F)c5nc(c(-c6cccc(S(=O)(=O)[O-])c6F)c6ccc3[nH]6)C=C5)C=C4)cc1)[C@H](C(F)(F)F)O2
REMARK SMILES IDX 19 1 18 2 17 3 16 4 15 5 13 6 14 7 12 8 4 9 5 10 9 11 6 12
REMARK SMILES IDX 8 13 10 14 7 15 92 16 11 17 87 18 3 19 2 20 1 21 88 22 89 23
REMARK SMILES IDX 90 24 91 25 20 26 21 27 22 28 23 29 24 30 25 31 86 32 26 33
REMARK SMILES IDX 85 34 27 35 28 36 29 37 79 38 30 39 84 40 78 41 80 42 31 43
REMARK SMILES IDX 83 44 77 45 76 46 32 48 64 49 44 50 63 51 45 52 48 53 62 54
REMARK SMILES IDX 81 55 46 56 47 57 61 59 82 60 49 61 33 62 34 63 42 64 35 65
REMARK SMILES IDX 37 66 43 67 36 68 38 69 39 70 40 71 41 72 65 73 66 74 74 75
REMARK SMILES IDX 67 76 69 77 75 78 68 79 70 80 71 81 72 82 73 83 50 84 51 85
REMARK SMILES IDX 59 86 52 87 54 88 60 89 53 90 55 91 56 92 57 93 58 94
REMARK H PARENT 80 47 48 58
REMARK Flexibility Score: inf
ROOT
ATOM      1  C   UNL A   1      35.802  20.597  24.997  1.00  0.00     0.202 C 
ENDROOT
BRANCH   1   2
ATOM      2  O   UNL A   1      35.661  22.014  24.871  1.00  0.00    -0.374 OA
BRANCH   2   3
ATOM      3  C   UNL A   1      35.303  22.748  26.041  1.00  0.00     0.202 C 
BRANCH   3   4
ATOM      4  C   UNL A   1      33.974  22.384  26.707  1.00  0.00     0.261 C 
BRANCH   4   5
ATOM      5  O   UNL A   1      33.281  23.553  27.173  1.00  0.00    -0.460 OA
BRANCH   5   6
ATOM      6  C   UNL A   1      31.961  23.555  26.904  1.00  0.00     0.338 C 
ATOM      7  O   UNL A   1      31.099  22.916  27.491  1.00  0.00    -0.246 OA
BRANCH   6   8
ATOM      8  C   UNL A   1      31.641  24.553  25.868  1.00  0.00     0.087 C 
ATOM      9  C   UNL A   1      30.374  29.011  23.878  1.00  0.00    -0.026 A 
ATOM     10  C   UNL A   1      30.156  27.656  23.524  1.00  0.00     0.052 A 
ATOM     11  C   UNL A   1      31.146  29.262  25.025  1.00  0.00     0.045 A 
ATOM     12  C   UNL A   1      30.692  26.604  24.269  1.00  0.00     0.128 A 
ATOM     13  C   UNL A   1      31.732  28.206  25.733  1.00  0.00     0.032 A 
ATOM     14  Cl  UNL A   1      31.371  30.822  25.729  1.00  0.00    -0.084 Cl
ATOM     15  C   UNL A   1      31.489  26.883  25.369  1.00  0.00     0.019 A 
ATOM     16  O   UNL A   1      30.320  25.339  23.910  1.00  0.00    -0.475 OA
ATOM     17  C   UNL A   1      31.941  25.808  26.224  1.00  0.00     0.027 C 
ATOM     18  C   UNL A   1      30.960  24.199  24.572  1.00  0.00     0.316 C 
BRANCH   9  19
ATOM     19  C   UNL A   1      29.645  30.042  23.038  1.00  0.00     0.037 C 
BRANCH  19  20
ATOM     20  C   UNL A   1      28.136  30.266  23.187  1.00  0.00     0.001 C 
ATOM     21  C   UNL A   1      27.735  31.719  23.388  1.00  0.00     0.004 C 
ENDBRANCH  19  20
ENDBRANCH   9  19
BRANCH  18  22
ATOM     22  C   UNL A   1      31.869  23.491  23.545  1.00  0.00     0.430 C 
ATOM     23  F   UNL A   1      33.175  23.808  23.738  1.00  0.00    -0.167 F 
ATOM     24  F   UNL A   1      31.780  22.143  23.627  1.00  0.00    -0.167 F 
ATOM     25  F   UNL A   1      31.576  23.850  22.275  1.00  0.00    -0.167 F 
ENDBRANCH  18  22
ENDBRANCH   6   8
ENDBRANCH   5   6
ENDBRANCH   4   5
ENDBRANCH   3   4
ENDBRANCH   2   3
ENDBRANCH   1   2
BRANCH   1  26
ATOM     26  C   UNL A   1      37.225  20.019  24.999  1.00  0.00     0.261 C 
BRANCH  26  27
ATOM     27  O   UNL A   1      38.216  21.052  25.149  1.00  0.00    -0.460 OA
BRANCH  27  28
ATOM     28  C   UNL A   1      39.264  20.742  25.954  1.00  0.00     0.338 C 
ATOM     29  O   UNL A   1      39.839  19.669  26.029  1.00  0.00    -0.246 OA
BRANCH  28  30
ATOM     30  C   UNL A   1      39.783  21.989  26.553  1.00  0.00     0.060 A 
ATOM     31  C   UNL A   1      40.853  21.983  27.448  1.00  0.00     0.016 A 
ATOM     32  C   UNL A   1      39.164  23.195  26.193  1.00  0.00     0.016 A 
ATOM     33  C   UNL A   1      41.329  23.198  27.956  1.00  0.00     0.010 A 
ATOM     34  C   UNL A   1      39.630  24.402  26.710  1.00  0.00     0.010 A 
ATOM     35  C   UNL A   1      40.732  24.415  27.576  1.00  0.00    -0.014 A 
BRANCH  35  36
ATOM     36  C   UNL A   1      41.361  25.711  27.929  1.00  0.00     0.031 A 
ATOM     37  C   UNL A   1      40.612  26.786  28.661  1.00  0.00     0.074 A 
ATOM     38  C   UNL A   1      42.616  25.940  27.497  1.00  0.00     0.049 A 
ATOM     39  N   UNL A   1      41.031  27.972  29.017  1.00  0.00    -0.248 NA
ATOM     40  C   UNL A   1      39.221  26.499  29.036  1.00  0.00     0.031 C 
ATOM     41  C   UNL A   1      43.420  24.994  26.721  1.00  0.00     0.029 A 
ATOM     42  N   UNL A   1      43.424  27.040  27.626  1.00  0.00    -0.354 N 
ATOM     43  C   UNL A   1      39.957  28.584  29.650  1.00  0.00     0.074 A 
ATOM     44  C   UNL A   1      38.860  27.638  29.620  1.00  0.00     0.031 C 
ATOM     45  C   UNL A   1      44.608  25.552  26.445  1.00  0.00     0.029 A 
ATOM     46  C   UNL A   1      44.640  26.902  27.000  1.00  0.00     0.049 A 
ATOM     47  H   UNL A   1      43.160  27.850  28.119  1.00  0.00     0.167 HD
ATOM     48  C   UNL A   1      39.901  29.813  30.216  1.00  0.00     0.034 A 
ATOM     49  C   UNL A   1      45.668  27.763  26.876  1.00  0.00     0.034 A 
ATOM     50  C   UNL A   1      40.995  30.749  30.247  1.00  0.00     0.049 A 
ATOM     51  C   UNL A   1      45.583  29.115  27.519  1.00  0.00     0.074 A 
ATOM     52  C   UNL A   1      41.039  31.995  30.850  1.00  0.00     0.029 A 
ATOM     53  N   UNL A   1      42.227  30.555  29.643  1.00  0.00    -0.354 N 
ATOM     54  N   UNL A   1      44.596  29.632  28.209  1.00  0.00    -0.248 NA
ATOM     55  C   UNL A   1      46.758  29.988  27.397  1.00  0.00     0.031 C 
ATOM     56  C   UNL A   1      42.289  32.565  30.591  1.00  0.00     0.029 A 
ATOM     57  C   UNL A   1      43.037  31.659  29.856  1.00  0.00     0.049 A 
ATOM     58  H   UNL A   1      42.489  29.752  29.137  1.00  0.00     0.167 HD
ATOM     59  C   UNL A   1      45.044  30.875  28.636  1.00  0.00     0.074 A 
ATOM     60  C   UNL A   1      46.389  31.036  28.126  1.00  0.00     0.031 C 
ATOM     61  C   UNL A   1      44.390  31.797  29.384  1.00  0.00     0.034 A 
BRANCH  48  62
ATOM     62  C   UNL A   1      38.628  30.222  30.905  1.00  0.00     0.023 A 
ATOM     63  C   UNL A   1      38.469  29.939  32.276  1.00  0.00     0.012 A 
ATOM     64  C   UNL A   1      37.657  30.994  30.238  1.00  0.00     0.148 A 
ATOM     65  C   UNL A   1      37.358  30.415  32.973  1.00  0.00     0.002 A 
ATOM     66  C   UNL A   1      36.568  31.488  30.946  1.00  0.00     0.091 A 
ATOM     67  F   UNL A   1      37.828  31.244  28.932  1.00  0.00    -0.205 F 
ATOM     68  C   UNL A   1      36.416  31.198  32.312  1.00  0.00     0.022 A 
BRANCH  66  69
ATOM     69  S   UNL A   1      35.324  32.551  30.203  1.00  0.00     0.127 S 
ATOM     70  O   UNL A   1      34.850  31.718  29.098  1.00  0.00    -0.237 OA
ATOM     71  O   UNL A   1      34.366  32.713  31.297  1.00  0.00    -0.237 OA
ATOM     72  O   UNL A   1      36.015  33.769  29.808  1.00  0.00    -0.744 OA
ENDBRANCH  66  69
ENDBRANCH  48  62
BRANCH  49  73
ATOM     73  C   UNL A   1      46.894  27.317  26.166  1.00  0.00     0.023 A 
ATOM     74  C   UNL A   1      47.756  26.399  26.795  1.00  0.00     0.012 A 
ATOM     75  C   UNL A   1      47.152  27.720  24.842  1.00  0.00     0.148 A 
ATOM     76  C   UNL A   1      48.862  25.890  26.115  1.00  0.00     0.002 A 
ATOM     77  C   UNL A   1      48.234  27.179  24.159  1.00  0.00     0.091 A 
ATOM     78  F   UNL A   1      46.309  28.589  24.269  1.00  0.00    -0.205 F 
ATOM     79  C   UNL A   1      49.095  26.271  24.796  1.00  0.00     0.022 A 
BRANCH  77  80
ATOM     80  S   UNL A   1      48.562  27.531  22.429  1.00  0.00     0.127 S 
ATOM     81  O   UNL A   1      48.642  26.186  21.862  1.00  0.00    -0.237 OA
ATOM     82  O   UNL A   1      47.371  28.290  22.049  1.00  0.00    -0.237 OA
ATOM     83  O   UNL A   1      49.804  28.291  22.405  1.00  0.00    -0.744 OA
ENDBRANCH  77  80
ENDBRANCH  49  73
BRANCH  61  84
ATOM     84  C   UNL A   1      45.123  33.059  29.751  1.00  0.00     0.023 A 
ATOM     85  C   UNL A   1      45.923  33.098  30.908  1.00  0.00     0.012 A 
ATOM     86  C   UNL A   1      45.100  34.169  28.884  1.00  0.00     0.148 A 
ATOM     87  C   UNL A   1      46.681  34.230  31.204  1.00  0.00     0.002 A 
ATOM     88  C   UNL A   1      45.885  35.280  29.165  1.00  0.00     0.091 A 
ATOM     89  F   UNL A   1      44.320  34.111  27.793  1.00  0.00    -0.205 F 
ATOM     90  C   UNL A   1      46.672  35.314  30.327  1.00  0.00     0.022 A 
BRANCH  88  91
ATOM     91  S   UNL A   1      45.992  36.694  28.062  1.00  0.00     0.127 S 
ATOM     92  O   UNL A   1      44.681  37.313  28.245  1.00  0.00    -0.237 OA
ATOM     93  O   UNL A   1      47.108  37.449  28.635  1.00  0.00    -0.237 OA
ATOM     94  O   UNL A   1      46.244  36.153  26.733  1.00  0.00    -0.744 OA
ENDBRANCH  88  91
ENDBRANCH  61  84
ENDBRANCH  35  36
ENDBRANCH  28  30
ENDBRANCH  27  28
ENDBRANCH  26  27
ENDBRANCH   1  26
TORSDOF 20
ENDMDL
