MODEL 1
REMARK VINA RESULT:     -12.2      0.000      0.000
REMARK SMILES NS(=O)(=O)c1ccc(N2N=C(C(=O)OCCOCCOC(=O)c3ccc(-c4c5nc(c(-c6cccc(S(=O)(=O)[O-])c6F)c6ccc([nH]6)c(-c6cccc(S(=O)(=O)[O-])c6F)c6nc(c(-c7cccc(S(=O)(=O)[O-])c7F)c7ccc4[nH]7)C=C6)C=C5)cc3)C[C@H]2c2ccco2)cc1
REMARK SMILES IDX 17 1 16 2 15 3 14 4 12 5 13 6 11 7 9 8 10 9 87 10 86 11 8 12
REMARK SMILES IDX 5 13 6 14 94 15 7 16 93 17 2 18 3 19 4 20 1 21 88 24 89 25
REMARK SMILES IDX 92 26 90 27 91 28 18 29 19 30 20 31 21 32 22 33 23 34 24 35
REMARK SMILES IDX 85 36 25 37 84 38 26 39 27 40 28 41 78 42 29 43 83 44 77 45
REMARK SMILES IDX 79 46 30 47 82 48 76 49 75 50 31 52 63 53 43 54 62 55 44 56
REMARK SMILES IDX 47 57 61 58 80 59 45 60 46 61 60 63 81 64 48 65 32 66 33 67
REMARK SMILES IDX 41 68 34 69 36 70 42 71 35 72 37 73 38 74 39 75 40 76 64 77
REMARK SMILES IDX 65 78 73 79 66 80 68 81 74 82 67 83 69 84 70 85 71 86 72 87
REMARK SMILES IDX 49 88 50 89 58 90 51 91 53 92 59 93 52 94 54 95 55 96 56 97
REMARK SMILES IDX 57 98
REMARK H PARENT 1 22 1 23 79 51 47 62
REMARK Flexibility Score: inf
ROOT
ATOM      1  O   UNL A   1      32.860  28.965  25.380  1.00  0.00    -0.374 OA
ENDROOT
BRANCH   1   2
ATOM      2  C   UNL A   1      33.553  29.131  24.140  1.00  0.00     0.202 C 
BRANCH   2   3
ATOM      3  C   UNL A   1      32.882  28.501  22.917  1.00  0.00     0.261 C 
BRANCH   3   4
ATOM      4  O   UNL A   1      32.513  27.143  23.204  1.00  0.00    -0.459 OA
BRANCH   4   5
ATOM      5  C   UNL A   1      33.313  26.203  22.663  1.00  0.00     0.354 C 
ATOM      6  O   UNL A   1      33.922  26.246  21.611  1.00  0.00    -0.245 OA
BRANCH   5   7
ATOM      7  C   UNL A   1      33.486  25.085  23.659  1.00  0.00     0.148 C 
ATOM      8  N   UNL A   1      33.677  23.141  24.471  1.00  0.00    -0.254 N 
ATOM      9  N   UNL A   1      33.608  23.841  23.302  1.00  0.00    -0.169 NA
ATOM     10  C   UNL A   1      33.301  23.961  25.639  1.00  0.00     0.180 C 
ATOM     11  C   UNL A   1      33.644  25.366  25.120  1.00  0.00     0.101 C 
BRANCH   8  12
ATOM     12  C   UNL A   1      33.673  21.757  24.424  1.00  0.00     0.060 A 
ATOM     13  C   UNL A   1      33.622  18.948  24.274  1.00  0.00     0.082 A 
ATOM     14  C   UNL A   1      32.497  19.681  23.897  1.00  0.00     0.024 A 
ATOM     15  C   UNL A   1      34.754  19.599  24.767  1.00  0.00     0.024 A 
ATOM     16  C   UNL A   1      32.528  21.078  23.981  1.00  0.00     0.029 A 
ATOM     17  C   UNL A   1      34.768  20.995  24.844  1.00  0.00     0.029 A 
BRANCH  13  18
ATOM     18  S   UNL A   1      33.643  17.186  24.171  1.00  0.00     0.238 S 
ATOM     19  O   UNL A   1      33.966  16.801  22.810  1.00  0.00    -0.207 OA
ATOM     20  O   UNL A   1      32.495  16.671  24.868  1.00  0.00    -0.207 OA
BRANCH  18  21
ATOM     21  N   UNL A   1      34.981  16.721  25.075  1.00  0.00    -0.225 NA
ATOM     22  H   UNL A   1      35.810  17.204  24.728  1.00  0.00     0.137 HD
ATOM     23  H   UNL A   1      35.114  15.713  24.991  1.00  0.00     0.137 HD
ENDBRANCH  18  21
ENDBRANCH  13  18
ENDBRANCH   8  12
BRANCH  10  24
ATOM     24  C   UNL A   1      31.872  23.884  26.099  1.00  0.00     0.128 A 
ATOM     25  C   UNL A   1      30.774  24.703  25.914  1.00  0.00     0.048 A 
ATOM     26  O   UNL A   1      31.512  22.807  26.861  1.00  0.00    -0.467 OA
ATOM     27  C   UNL A   1      29.697  24.097  26.607  1.00  0.00     0.042 A 
ATOM     28  C   UNL A   1      30.194  22.937  27.149  1.00  0.00     0.195 A 
ENDBRANCH  10  24
ENDBRANCH   5   7
ENDBRANCH   4   5
ENDBRANCH   3   4
ENDBRANCH   2   3
ENDBRANCH   1   2
BRANCH   1  29
ATOM     29  C   UNL A   1      31.700  29.768  25.597  1.00  0.00     0.202 C 
BRANCH  29  30
ATOM     30  C   UNL A   1      31.892  31.043  26.428  1.00  0.00     0.261 C 
BRANCH  30  31
ATOM     31  O   UNL A   1      32.839  30.868  27.496  1.00  0.00    -0.460 OA
BRANCH  31  32
ATOM     32  C   UNL A   1      33.652  31.936  27.697  1.00  0.00     0.338 C 
ATOM     33  O   UNL A   1      33.320  33.109  27.757  1.00  0.00    -0.246 OA
BRANCH  32  34
ATOM     34  C   UNL A   1      35.025  31.492  28.009  1.00  0.00     0.060 A 
ATOM     35  C   UNL A   1      35.210  30.126  28.247  1.00  0.00     0.016 A 
ATOM     36  C   UNL A   1      36.089  32.387  28.149  1.00  0.00     0.016 A 
ATOM     37  C   UNL A   1      36.444  29.657  28.691  1.00  0.00     0.010 A 
ATOM     38  C   UNL A   1      37.330  31.912  28.593  1.00  0.00     0.010 A 
ATOM     39  C   UNL A   1      37.501  30.552  28.908  1.00  0.00    -0.014 A 
BRANCH  39  40
ATOM     40  C   UNL A   1      38.732  30.053  29.569  1.00  0.00     0.031 A 
ATOM     41  C   UNL A   1      39.104  30.558  30.936  1.00  0.00     0.074 A 
ATOM     42  C   UNL A   1      39.490  29.116  28.974  1.00  0.00     0.049 A 
ATOM     43  N   UNL A   1      40.065  30.162  31.729  1.00  0.00    -0.248 NA
ATOM     44  C   UNL A   1      38.290  31.657  31.478  1.00  0.00     0.031 C 
ATOM     45  C   UNL A   1      39.259  28.571  27.637  1.00  0.00     0.029 A 
ATOM     46  N   UNL A   1      40.615  28.465  29.416  1.00  0.00    -0.354 N 
ATOM     47  C   UNL A   1      39.983  30.967  32.859  1.00  0.00     0.074 A 
ATOM     48  C   UNL A   1      38.896  31.896  32.633  1.00  0.00     0.031 C 
ATOM     49  C   UNL A   1      40.224  27.678  27.360  1.00  0.00     0.029 A 
ATOM     50  C   UNL A   1      41.141  27.591  28.497  1.00  0.00     0.049 A 
ATOM     51  H   UNL A   1      41.007  28.611  30.307  1.00  0.00     0.167 HD
ATOM     52  C   UNL A   1      40.725  30.923  33.992  1.00  0.00     0.034 A 
ATOM     53  C   UNL A   1      42.235  26.807  28.560  1.00  0.00     0.034 A 
ATOM     54  C   UNL A   1      41.797  29.991  34.221  1.00  0.00     0.049 A 
ATOM     55  C   UNL A   1      43.031  26.751  29.837  1.00  0.00     0.074 A 
ATOM     56  C   UNL A   1      42.566  29.826  35.360  1.00  0.00     0.029 A 
ATOM     57  N   UNL A   1      42.263  29.076  33.289  1.00  0.00    -0.354 N 
ATOM     58  N   UNL A   1      42.840  27.406  30.956  1.00  0.00    -0.248 NA
ATOM     59  C   UNL A   1      44.162  25.813  29.875  1.00  0.00     0.031 C 
ATOM     60  C   UNL A   1      43.514  28.826  35.108  1.00  0.00     0.029 A 
ATOM     61  C   UNL A   1      43.317  28.350  33.821  1.00  0.00     0.049 A 
ATOM     62  H   UNL A   1      41.899  28.959  32.383  1.00  0.00     0.167 HD
ATOM     63  C   UNL A   1      43.804  26.937  31.843  1.00  0.00     0.074 A 
ATOM     64  C   UNL A   1      44.564  25.928  31.135  1.00  0.00     0.031 C 
ATOM     65  C   UNL A   1      44.043  27.318  33.124  1.00  0.00     0.034 A 
BRANCH  52  66
ATOM     66  C   UNL A   1      40.372  31.897  35.086  1.00  0.00     0.023 A 
ATOM     67  C   UNL A   1      41.131  33.076  35.240  1.00  0.00     0.012 A 
ATOM     68  C   UNL A   1      39.280  31.664  35.944  1.00  0.00     0.148 A 
ATOM     69  C   UNL A   1      40.837  33.985  36.255  1.00  0.00     0.002 A 
ATOM     70  C   UNL A   1      38.965  32.596  36.927  1.00  0.00     0.091 A 
ATOM     71  F   UNL A   1      38.584  30.526  35.803  1.00  0.00    -0.205 F 
ATOM     72  C   UNL A   1      39.749  33.750  37.092  1.00  0.00     0.022 A 
BRANCH  70  73
ATOM     73  S   UNL A   1      37.536  32.411  38.000  1.00  0.00     0.127 S 
ATOM     74  O   UNL A   1      37.973  33.123  39.199  1.00  0.00    -0.237 OA
ATOM     75  O   UNL A   1      36.484  33.086  37.239  1.00  0.00    -0.237 OA
ATOM     76  O   UNL A   1      37.341  30.975  38.150  1.00  0.00    -0.744 OA
ENDBRANCH  70  73
ENDBRANCH  52  66
BRANCH  53  77
ATOM     77  C   UNL A   1      42.591  25.964  27.386  1.00  0.00     0.023 A 
ATOM     78  C   UNL A   1      43.446  26.474  26.390  1.00  0.00     0.012 A 
ATOM     79  C   UNL A   1      42.145  24.632  27.295  1.00  0.00     0.148 A 
ATOM     80  C   UNL A   1      43.837  25.675  25.315  1.00  0.00     0.002 A 
ATOM     81  C   UNL A   1      42.584  23.824  26.254  1.00  0.00     0.091 A 
ATOM     82  F   UNL A   1      41.322  24.173  28.249  1.00  0.00    -0.205 F 
ATOM     83  C   UNL A   1      43.418  24.348  25.254  1.00  0.00     0.022 A 
BRANCH  81  84
ATOM     84  S   UNL A   1      42.214  22.068  26.175  1.00  0.00     0.127 S 
ATOM     85  O   UNL A   1      40.772  22.076  25.939  1.00  0.00    -0.237 OA
ATOM     86  O   UNL A   1      43.024  21.644  25.033  1.00  0.00    -0.237 OA
ATOM     87  O   UNL A   1      42.640  21.516  27.454  1.00  0.00    -0.744 OA
ENDBRANCH  81  84
ENDBRANCH  53  77
BRANCH  65  88
ATOM     88  C   UNL A   1      45.160  26.625  33.862  1.00  0.00     0.023 A 
ATOM     89  C   UNL A   1      46.476  27.123  33.773  1.00  0.00     0.012 A 
ATOM     90  C   UNL A   1      44.897  25.520  34.698  1.00  0.00     0.148 A 
ATOM     91  C   UNL A   1      47.515  26.512  34.473  1.00  0.00     0.002 A 
ATOM     92  C   UNL A   1      45.931  24.946  35.430  1.00  0.00     0.091 A 
ATOM     93  F   UNL A   1      43.644  25.044  34.756  1.00  0.00    -0.205 F 
ATOM     94  C   UNL A   1      47.241  25.432  35.310  1.00  0.00     0.022 A 
BRANCH  92  95
ATOM     95  S   UNL A   1      45.647  23.613  36.601  1.00  0.00     0.127 S 
ATOM     96  O   UNL A   1      47.007  23.305  37.038  1.00  0.00    -0.237 OA
ATOM     97  O   UNL A   1      44.813  24.257  37.616  1.00  0.00    -0.237 OA
ATOM     98  O   UNL A   1      44.973  22.562  35.849  1.00  0.00    -0.744 OA
ENDBRANCH  92  95
ENDBRANCH  65  88
ENDBRANCH  39  40
ENDBRANCH  32  34
ENDBRANCH  31  32
ENDBRANCH  30  31
ENDBRANCH  29  30
ENDBRANCH   1  29
TORSDOF 21
ENDMDL
MODEL 2
REMARK VINA RESULT:     -11.2      2.071      2.734
REMARK SMILES NS(=O)(=O)c1ccc(N2N=C(C(=O)OCCOCCOC(=O)c3ccc(-c4c5nc(c(-c6cccc(S(=O)(=O)[O-])c6F)c6ccc([nH]6)c(-c6cccc(S(=O)(=O)[O-])c6F)c6nc(c(-c7cccc(S(=O)(=O)[O-])c7F)c7ccc4[nH]7)C=C6)C=C5)cc3)C[C@H]2c2ccco2)cc1
REMARK SMILES IDX 17 1 16 2 15 3 14 4 12 5 13 6 11 7 9 8 10 9 87 10 86 11 8 12
REMARK SMILES IDX 5 13 6 14 94 15 7 16 93 17 2 18 3 19 4 20 1 21 88 24 89 25
REMARK SMILES IDX 92 26 90 27 91 28 18 29 19 30 20 31 21 32 22 33 23 34 24 35
REMARK SMILES IDX 85 36 25 37 84 38 26 39 27 40 28 41 78 42 29 43 83 44 77 45
REMARK SMILES IDX 79 46 30 47 82 48 76 49 75 50 31 52 63 53 43 54 62 55 44 56
REMARK SMILES IDX 47 57 61 58 80 59 45 60 46 61 60 63 81 64 48 65 32 66 33 67
REMARK SMILES IDX 41 68 34 69 36 70 42 71 35 72 37 73 38 74 39 75 40 76 64 77
REMARK SMILES IDX 65 78 73 79 66 80 68 81 74 82 67 83 69 84 70 85 71 86 72 87
REMARK SMILES IDX 49 88 50 89 58 90 51 91 53 92 59 93 52 94 54 95 55 96 56 97
REMARK SMILES IDX 57 98
REMARK H PARENT 1 22 1 23 79 51 47 62
REMARK Flexibility Score: inf
ROOT
ATOM      1  O   UNL A   1      31.123  28.502  25.120  1.00  0.00    -0.374 OA
ENDROOT
BRANCH   1   2
ATOM      2  C   UNL A   1      31.028  27.884  23.833  1.00  0.00     0.202 C 
BRANCH   2   3
ATOM      3  C   UNL A   1      29.834  26.946  23.635  1.00  0.00     0.261 C 
BRANCH   3   4
ATOM      4  O   UNL A   1      30.294  25.600  23.439  1.00  0.00    -0.459 OA
BRANCH   4   5
ATOM      5  C   UNL A   1      30.942  25.055  24.488  1.00  0.00     0.354 C 
ATOM      6  O   UNL A   1      30.736  25.227  25.674  1.00  0.00    -0.245 OA
BRANCH   5   7
ATOM      7  C   UNL A   1      31.916  24.028  23.971  1.00  0.00     0.148 C 
ATOM      8  N   UNL A   1      32.893  22.178  23.656  1.00  0.00    -0.254 N 
ATOM      9  N   UNL A   1      31.805  22.760  24.238  1.00  0.00    -0.169 NA
ATOM     10  C   UNL A   1      33.899  23.169  23.229  1.00  0.00     0.180 C 
ATOM     11  C   UNL A   1      33.007  24.403  23.019  1.00  0.00     0.101 C 
BRANCH   8  12
ATOM     12  C   UNL A   1      33.134  20.833  23.882  1.00  0.00     0.060 A 
ATOM     13  C   UNL A   1      33.649  18.116  24.403  1.00  0.00     0.082 A 
ATOM     14  C   UNL A   1      34.492  19.094  24.932  1.00  0.00     0.024 A 
ATOM     15  C   UNL A   1      32.581  18.478  23.581  1.00  0.00     0.024 A 
ATOM     16  C   UNL A   1      34.232  20.443  24.663  1.00  0.00     0.029 A 
ATOM     17  C   UNL A   1      32.336  19.829  23.322  1.00  0.00     0.029 A 
BRANCH  13  18
ATOM     18  S   UNL A   1      33.921  16.402  24.726  1.00  0.00     0.238 S 
ATOM     19  O   UNL A   1      35.244  16.239  25.299  1.00  0.00    -0.207 OA
ATOM     20  O   UNL A   1      33.471  15.643  23.592  1.00  0.00    -0.207 OA
BRANCH  18  21
ATOM     21  N   UNL A   1      32.865  16.032  25.981  1.00  0.00    -0.225 NA
ATOM     22  H   UNL A   1      31.911  16.263  25.702  1.00  0.00     0.137 HD
ATOM     23  H   UNL A   1      33.118  16.574  26.808  1.00  0.00     0.137 HD
ENDBRANCH  18  21
ENDBRANCH  13  18
ENDBRANCH   8  12
BRANCH  10  24
ATOM     24  C   UNL A   1      35.021  23.463  24.184  1.00  0.00     0.128 A 
ATOM     25  C   UNL A   1      35.066  24.037  25.441  1.00  0.00     0.048 A 
ATOM     26  O   UNL A   1      36.285  23.115  23.798  1.00  0.00    -0.467 OA
ATOM     27  C   UNL A   1      36.428  24.047  25.832  1.00  0.00     0.042 A 
ATOM     28  C   UNL A   1      37.126  23.457  24.805  1.00  0.00     0.195 A 
ENDBRANCH  10  24
ENDBRANCH   5   7
ENDBRANCH   4   5
ENDBRANCH   3   4
ENDBRANCH   2   3
ENDBRANCH   1   2
BRANCH   1  29
ATOM     29  C   UNL A   1      32.186  29.433  25.325  1.00  0.00     0.202 C 
BRANCH  29  30
ATOM     30  C   UNL A   1      31.822  30.745  26.031  1.00  0.00     0.261 C 
BRANCH  30  31
ATOM     31  O   UNL A   1      32.432  30.861  27.329  1.00  0.00    -0.460 OA
BRANCH  31  32
ATOM     32  C   UNL A   1      33.194  31.972  27.488  1.00  0.00     0.338 C 
ATOM     33  O   UNL A   1      32.812  33.131  27.470  1.00  0.00    -0.246 OA
BRANCH  32  34
ATOM     34  C   UNL A   1      34.575  31.607  27.860  1.00  0.00     0.060 A 
ATOM     35  C   UNL A   1      34.829  30.251  28.095  1.00  0.00     0.016 A 
ATOM     36  C   UNL A   1      35.576  32.560  28.058  1.00  0.00     0.016 A 
ATOM     37  C   UNL A   1      36.066  29.850  28.592  1.00  0.00     0.010 A 
ATOM     38  C   UNL A   1      36.821  32.154  28.555  1.00  0.00     0.010 A 
ATOM     39  C   UNL A   1      37.057  30.803  28.866  1.00  0.00    -0.014 A 
BRANCH  39  40
ATOM     40  C   UNL A   1      38.284  30.370  29.580  1.00  0.00     0.031 A 
ATOM     41  C   UNL A   1      38.532  30.831  30.990  1.00  0.00     0.074 A 
ATOM     42  C   UNL A   1      39.151  29.528  28.991  1.00  0.00     0.049 A 
ATOM     43  N   UNL A   1      39.473  30.472  31.823  1.00  0.00    -0.248 NA
ATOM     44  C   UNL A   1      37.599  31.833  31.530  1.00  0.00     0.031 C 
ATOM     45  C   UNL A   1      39.046  29.037  27.618  1.00  0.00     0.029 A 
ATOM     46  N   UNL A   1      40.297  28.947  29.473  1.00  0.00    -0.354 N 
ATOM     47  C   UNL A   1      39.257  31.209  32.982  1.00  0.00     0.074 A 
ATOM     48  C   UNL A   1      38.113  32.059  32.731  1.00  0.00     0.031 C 
ATOM     49  C   UNL A   1      40.096  28.239  27.361  1.00  0.00     0.029 A 
ATOM     50  C   UNL A   1      40.947  28.166  28.549  1.00  0.00     0.049 A 
ATOM     51  H   UNL A   1      40.622  29.077  30.393  1.00  0.00     0.167 HD
ATOM     52  C   UNL A   1      39.931  31.165  34.156  1.00  0.00     0.034 A 
ATOM     53  C   UNL A   1      42.096  27.469  28.645  1.00  0.00     0.034 A 
ATOM     54  C   UNL A   1      41.061  30.310  34.410  1.00  0.00     0.049 A 
ATOM     55  C   UNL A   1      42.817  27.410  29.965  1.00  0.00     0.074 A 
ATOM     56  C   UNL A   1      41.772  30.148  35.586  1.00  0.00     0.029 A 
ATOM     57  N   UNL A   1      41.656  29.484  33.467  1.00  0.00    -0.354 N 
ATOM     58  N   UNL A   1      42.507  27.988  31.100  1.00  0.00    -0.248 NA
ATOM     59  C   UNL A   1      44.017  26.564  30.032  1.00  0.00     0.031 C 
ATOM     60  C   UNL A   1      42.812  29.241  35.348  1.00  0.00     0.029 A 
ATOM     61  C   UNL A   1      42.732  28.818  34.030  1.00  0.00     0.049 A 
ATOM     62  H   UNL A   1      41.357  29.386  32.535  1.00  0.00     0.167 HD
ATOM     63  C   UNL A   1      43.451  27.553  32.023  1.00  0.00     0.074 A 
ATOM     64  C   UNL A   1      44.333  26.645  31.319  1.00  0.00     0.031 C 
ATOM     65  C   UNL A   1      43.581  27.884  33.333  1.00  0.00     0.034 A 
BRANCH  52  66
ATOM     66  C   UNL A   1      39.435  32.050  35.270  1.00  0.00     0.023 A 
ATOM     67  C   UNL A   1      38.467  31.557  36.171  1.00  0.00     0.012 A 
ATOM     68  C   UNL A   1      39.938  33.353  35.445  1.00  0.00     0.148 A 
ATOM     69  C   UNL A   1      37.978  32.361  37.200  1.00  0.00     0.002 A 
ATOM     70  C   UNL A   1      39.477  34.134  36.500  1.00  0.00     0.091 A 
ATOM     71  F   UNL A   1      40.837  33.817  34.565  1.00  0.00    -0.205 F 
ATOM     72  C   UNL A   1      38.490  33.645  37.370  1.00  0.00     0.022 A 
BRANCH  70  73
ATOM     73  S   UNL A   1      40.136  35.770  36.838  1.00  0.00     0.127 S 
ATOM     74  O   UNL A   1      39.688  36.517  35.664  1.00  0.00    -0.237 OA
ATOM     75  O   UNL A   1      39.458  36.129  38.084  1.00  0.00    -0.237 OA
ATOM     76  O   UNL A   1      41.577  35.596  36.967  1.00  0.00    -0.744 OA
ENDBRANCH  70  73
ENDBRANCH  52  66
BRANCH  53  77
ATOM     77  C   UNL A   1      42.590  26.719  27.457  1.00  0.00     0.023 A 
ATOM     78  C   UNL A   1      43.464  27.344  26.548  1.00  0.00     0.012 A 
ATOM     79  C   UNL A   1      42.255  25.364  27.272  1.00  0.00     0.148 A 
ATOM     80  C   UNL A   1      43.983  26.634  25.463  1.00  0.00     0.002 A 
ATOM     81  C   UNL A   1      42.820  24.649  26.224  1.00  0.00     0.091 A 
ATOM     82  F   UNL A   1      41.411  24.795  28.145  1.00  0.00    -0.205 F 
ATOM     83  C   UNL A   1      43.672  25.285  25.310  1.00  0.00     0.022 A 
BRANCH  81  84
ATOM     84  S   UNL A   1      42.592  22.877  26.035  1.00  0.00     0.127 S 
ATOM     85  O   UNL A   1      43.327  22.356  27.185  1.00  0.00    -0.237 OA
ATOM     86  O   UNL A   1      41.137  22.752  26.124  1.00  0.00    -0.237 OA
ATOM     87  O   UNL A   1      43.145  22.544  24.729  1.00  0.00    -0.744 OA
ENDBRANCH  81  84
ENDBRANCH  53  77
BRANCH  65  88
ATOM     88  C   UNL A   1      44.705  27.245  34.108  1.00  0.00     0.023 A 
ATOM     89  C   UNL A   1      44.478  26.046  34.814  1.00  0.00     0.012 A 
ATOM     90  C   UNL A   1      46.003  27.795  34.084  1.00  0.00     0.148 A 
ATOM     91  C   UNL A   1      45.515  25.426  35.511  1.00  0.00     0.002 A 
ATOM     92  C   UNL A   1      47.041  27.145  34.742  1.00  0.00     0.091 A 
ATOM     93  F   UNL A   1      46.199  28.947  33.426  1.00  0.00    -0.205 F 
ATOM     94  C   UNL A   1      46.798  25.968  35.466  1.00  0.00     0.022 A 
BRANCH  92  95
ATOM     95  S   UNL A   1      48.739  27.727  34.657  1.00  0.00     0.127 S 
ATOM     96  O   UNL A   1      48.840  28.150  33.261  1.00  0.00    -0.237 OA
ATOM     97  O   UNL A   1      48.746  28.823  35.626  1.00  0.00    -0.237 OA
ATOM     98  O   UNL A   1      49.568  26.588  35.032  1.00  0.00    -0.744 OA
ENDBRANCH  92  95
ENDBRANCH  65  88
ENDBRANCH  39  40
ENDBRANCH  32  34
ENDBRANCH  31  32
ENDBRANCH  30  31
ENDBRANCH  29  30
ENDBRANCH   1  29
TORSDOF 21
ENDMDL
MODEL 3
REMARK VINA RESULT:     -11.1      1.999      2.388
REMARK SMILES NS(=O)(=O)c1ccc(N2N=C(C(=O)OCCOCCOC(=O)c3ccc(-c4c5nc(c(-c6cccc(S(=O)(=O)[O-])c6F)c6ccc([nH]6)c(-c6cccc(S(=O)(=O)[O-])c6F)c6nc(c(-c7cccc(S(=O)(=O)[O-])c7F)c7ccc4[nH]7)C=C6)C=C5)cc3)C[C@H]2c2ccco2)cc1
REMARK SMILES IDX 17 1 16 2 15 3 14 4 12 5 13 6 11 7 9 8 10 9 87 10 86 11 8 12
REMARK SMILES IDX 5 13 6 14 94 15 7 16 93 17 2 18 3 19 4 20 1 21 88 24 89 25
REMARK SMILES IDX 92 26 90 27 91 28 18 29 19 30 20 31 21 32 22 33 23 34 24 35
REMARK SMILES IDX 85 36 25 37 84 38 26 39 27 40 28 41 78 42 29 43 83 44 77 45
REMARK SMILES IDX 79 46 30 47 82 48 76 49 75 50 31 52 63 53 43 54 62 55 44 56
REMARK SMILES IDX 47 57 61 58 80 59 45 60 46 61 60 63 81 64 48 65 32 66 33 67
REMARK SMILES IDX 41 68 34 69 36 70 42 71 35 72 37 73 38 74 39 75 40 76 64 77
REMARK SMILES IDX 65 78 73 79 66 80 68 81 74 82 67 83 69 84 70 85 71 86 72 87
REMARK SMILES IDX 49 88 50 89 58 90 51 91 53 92 59 93 52 94 54 95 55 96 56 97
REMARK SMILES IDX 57 98
REMARK H PARENT 1 22 1 23 79 51 47 62
REMARK Flexibility Score: inf
ROOT
ATOM      1  O   UNL A   1      32.885  28.650  25.174  1.00  0.00    -0.374 OA
ENDROOT
BRANCH   1   2
ATOM      2  C   UNL A   1      33.230  28.993  23.829  1.00  0.00     0.202 C 
BRANCH   2   3
ATOM      3  C   UNL A   1      32.335  28.391  22.742  1.00  0.00     0.261 C 
BRANCH   3   4
ATOM      4  O   UNL A   1      32.174  26.981  22.963  1.00  0.00    -0.459 OA
BRANCH   4   5
ATOM      5  C   UNL A   1      33.186  26.210  22.519  1.00  0.00     0.354 C 
ATOM      6  O   UNL A   1      33.905  26.390  21.555  1.00  0.00    -0.245 OA
BRANCH   5   7
ATOM      7  C   UNL A   1      33.427  25.107  23.518  1.00  0.00     0.148 C 
ATOM      8  N   UNL A   1      33.679  23.176  24.344  1.00  0.00    -0.254 N 
ATOM      9  N   UNL A   1      33.534  23.859  23.172  1.00  0.00    -0.169 NA
ATOM     10  C   UNL A   1      33.370  24.010  25.521  1.00  0.00     0.180 C 
ATOM     11  C   UNL A   1      33.672  25.410  24.963  1.00  0.00     0.101 C 
BRANCH   8  12
ATOM     12  C   UNL A   1      33.681  21.791  24.316  1.00  0.00     0.060 A 
ATOM     13  C   UNL A   1      33.722  18.978  24.318  1.00  0.00     0.082 A 
ATOM     14  C   UNL A   1      34.808  19.686  24.835  1.00  0.00     0.024 A 
ATOM     15  C   UNL A   1      32.639  19.658  23.761  1.00  0.00     0.024 A 
ATOM     16  C   UNL A   1      34.782  21.085  24.824  1.00  0.00     0.029 A 
ATOM     17  C   UNL A   1      32.629  21.056  23.759  1.00  0.00     0.029 A 
BRANCH  13  18
ATOM     18  S   UNL A   1      33.696  17.213  24.324  1.00  0.00     0.238 S 
ATOM     19  O   UNL A   1      33.695  16.741  22.951  1.00  0.00    -0.207 OA
ATOM     20  O   UNL A   1      32.731  16.770  25.293  1.00  0.00    -0.207 OA
BRANCH  18  21
ATOM     21  N   UNL A   1      35.199  16.766  24.927  1.00  0.00    -0.225 NA
ATOM     22  H   UNL A   1      35.686  16.194  24.237  1.00  0.00     0.137 HD
ATOM     23  H   UNL A   1      35.075  16.229  25.786  1.00  0.00     0.137 HD
ENDBRANCH  18  21
ENDBRANCH  13  18
ENDBRANCH   8  12
BRANCH  10  24
ATOM     24  C   UNL A   1      31.973  23.931  26.069  1.00  0.00     0.128 A 
ATOM     25  C   UNL A   1      31.270  22.938  26.724  1.00  0.00     0.048 A 
ATOM     26  O   UNL A   1      31.177  25.034  25.930  1.00  0.00    -0.467 OA
ATOM     27  C   UNL A   1      29.979  23.461  26.985  1.00  0.00     0.042 A 
ATOM     28  C   UNL A   1      29.981  24.746  26.499  1.00  0.00     0.195 A 
ENDBRANCH  10  24
ENDBRANCH   5   7
ENDBRANCH   4   5
ENDBRANCH   3   4
ENDBRANCH   2   3
ENDBRANCH   1   2
BRANCH   1  29
ATOM     29  C   UNL A   1      31.861  29.419  25.805  1.00  0.00     0.202 C 
BRANCH  29  30
ATOM     30  C   UNL A   1      32.306  30.700  26.523  1.00  0.00     0.261 C 
BRANCH  30  31
ATOM     31  O   UNL A   1      33.333  30.456  27.499  1.00  0.00    -0.460 OA
BRANCH  31  32
ATOM     32  C   UNL A   1      34.088  31.544  27.794  1.00  0.00     0.338 C 
ATOM     33  O   UNL A   1      33.719  32.708  27.820  1.00  0.00    -0.246 OA
BRANCH  32  34
ATOM     34  C   UNL A   1      35.430  31.137  28.255  1.00  0.00     0.060 A 
ATOM     35  C   UNL A   1      35.544  29.862  28.821  1.00  0.00     0.016 A 
ATOM     36  C   UNL A   1      36.530  31.997  28.218  1.00  0.00     0.016 A 
ATOM     37  C   UNL A   1      36.742  29.467  29.411  1.00  0.00     0.010 A 
ATOM     38  C   UNL A   1      37.734  31.596  28.810  1.00  0.00     0.010 A 
ATOM     39  C   UNL A   1      37.833  30.346  29.448  1.00  0.00    -0.014 A 
BRANCH  39  40
ATOM     40  C   UNL A   1      39.021  29.974  30.256  1.00  0.00     0.031 A 
ATOM     41  C   UNL A   1      39.220  30.582  31.617  1.00  0.00     0.074 A 
ATOM     42  C   UNL A   1      39.894  29.061  29.799  1.00  0.00     0.049 A 
ATOM     43  N   UNL A   1      40.118  30.301  32.523  1.00  0.00    -0.248 NA
ATOM     44  C   UNL A   1      38.286  31.651  32.006  1.00  0.00     0.031 C 
ATOM     45  C   UNL A   1      39.835  28.425  28.484  1.00  0.00     0.029 A 
ATOM     46  N   UNL A   1      41.007  28.517  30.389  1.00  0.00    -0.354 N 
ATOM     47  C   UNL A   1      39.871  31.163  33.586  1.00  0.00     0.074 A 
ATOM     48  C   UNL A   1      38.755  31.998  33.196  1.00  0.00     0.031 C 
ATOM     49  C   UNL A   1      40.879  27.587  28.359  1.00  0.00     0.029 A 
ATOM     50  C   UNL A   1      41.679  27.630  29.583  1.00  0.00     0.049 A 
ATOM     51  H   UNL A   1      41.297  28.741  31.303  1.00  0.00     0.167 HD
ATOM     52  C   UNL A   1      40.495  31.236  34.785  1.00  0.00     0.034 A 
ATOM     53  C   UNL A   1      42.809  26.930  29.803  1.00  0.00     0.034 A 
ATOM     54  C   UNL A   1      41.597  30.397  35.178  1.00  0.00     0.049 A 
ATOM     55  C   UNL A   1      43.474  27.005  31.151  1.00  0.00     0.074 A 
ATOM     56  C   UNL A   1      42.256  30.353  36.394  1.00  0.00     0.029 A 
ATOM     57  N   UNL A   1      42.212  29.465  34.356  1.00  0.00    -0.354 N 
ATOM     58  N   UNL A   1      43.129  27.707  32.202  1.00  0.00    -0.248 NA
ATOM     59  C   UNL A   1      44.653  26.152  31.360  1.00  0.00     0.031 C 
ATOM     60  C   UNL A   1      43.286  29.409  36.300  1.00  0.00     0.029 A 
ATOM     61  C   UNL A   1      43.252  28.847  35.033  1.00  0.00     0.049 A 
ATOM     62  H   UNL A   1      41.951  29.270  33.428  1.00  0.00     0.167 HD
ATOM     63  C   UNL A   1      44.026  27.360  33.207  1.00  0.00     0.074 A 
ATOM     64  C   UNL A   1      44.918  26.368  32.643  1.00  0.00     0.031 C 
ATOM     65  C   UNL A   1      44.109  27.830  34.478  1.00  0.00     0.034 A 
BRANCH  52  66
ATOM     66  C   UNL A   1      39.972  32.245  35.776  1.00  0.00     0.023 A 
ATOM     67  C   UNL A   1      40.512  33.547  35.794  1.00  0.00     0.012 A 
ATOM     68  C   UNL A   1      38.932  31.917  36.668  1.00  0.00     0.148 A 
ATOM     69  C   UNL A   1      40.058  34.494  36.712  1.00  0.00     0.002 A 
ATOM     70  C   UNL A   1      38.454  32.880  37.550  1.00  0.00     0.091 A 
ATOM     71  F   UNL A   1      38.447  30.668  36.656  1.00  0.00    -0.205 F 
ATOM     72  C   UNL A   1      39.023  34.163  37.582  1.00  0.00     0.022 A 
BRANCH  70  73
ATOM     73  S   UNL A   1      37.073  32.563  38.655  1.00  0.00     0.127 S 
ATOM     74  O   UNL A   1      35.952  33.101  37.887  1.00  0.00    -0.237 OA
ATOM     75  O   UNL A   1      37.091  31.104  38.768  1.00  0.00    -0.237 OA
ATOM     76  O   UNL A   1      37.390  33.266  39.892  1.00  0.00    -0.744 OA
ENDBRANCH  70  73
ENDBRANCH  52  66
BRANCH  53  77
ATOM     77  C   UNL A   1      43.336  26.048  28.725  1.00  0.00     0.023 A 
ATOM     78  C   UNL A   1      42.805  24.755  28.556  1.00  0.00     0.012 A 
ATOM     79  C   UNL A   1      44.308  26.519  27.822  1.00  0.00     0.148 A 
ATOM     80  C   UNL A   1      43.247  23.940  27.513  1.00  0.00     0.002 A 
ATOM     81  C   UNL A   1      44.701  25.724  26.753  1.00  0.00     0.091 A 
ATOM     82  F   UNL A   1      44.806  27.749  28.012  1.00  0.00    -0.205 F 
ATOM     83  C   UNL A   1      44.183  24.429  26.605  1.00  0.00     0.022 A 
BRANCH  81  84
ATOM     84  S   UNL A   1      45.789  26.325  25.456  1.00  0.00     0.127 S 
ATOM     85  O   UNL A   1      45.123  27.562  25.055  1.00  0.00    -0.237 OA
ATOM     86  O   UNL A   1      47.046  26.507  26.181  1.00  0.00    -0.237 OA
ATOM     87  O   UNL A   1      45.823  25.273  24.449  1.00  0.00    -0.744 OA
ENDBRANCH  81  84
ENDBRANCH  53  77
BRANCH  65  88
ATOM     88  C   UNL A   1      45.188  27.261  35.364  1.00  0.00     0.023 A 
ATOM     89  C   UNL A   1      44.923  26.120  36.149  1.00  0.00     0.012 A 
ATOM     90  C   UNL A   1      46.484  27.817  35.372  1.00  0.00     0.148 A 
ATOM     91  C   UNL A   1      45.919  25.564  36.952  1.00  0.00     0.002 A 
ATOM     92  C   UNL A   1      47.484  27.228  36.139  1.00  0.00     0.091 A 
ATOM     93  F   UNL A   1      46.715  28.915  34.637  1.00  0.00    -0.205 F 
ATOM     94  C   UNL A   1      47.201  26.110  36.938  1.00  0.00     0.022 A 
BRANCH  92  95
ATOM     95  S   UNL A   1      49.183  27.812  36.105  1.00  0.00     0.127 S 
ATOM     96  O   UNL A   1      49.525  27.656  34.693  1.00  0.00    -0.237 OA
ATOM     97  O   UNL A   1      49.047  29.200  36.548  1.00  0.00    -0.237 OA
ATOM     98  O   UNL A   1      49.914  26.956  37.030  1.00  0.00    -0.744 OA
ENDBRANCH  92  95
ENDBRANCH  65  88
ENDBRANCH  39  40
ENDBRANCH  32  34
ENDBRANCH  31  32
ENDBRANCH  30  31
ENDBRANCH  29  30
ENDBRANCH   1  29
TORSDOF 21
ENDMDL
