MODEL 1
REMARK VINA RESULT:     -11.7      0.000      0.000
REMARK SMILES CC(C)c1ccc(NC(=O)C(=O)N/N=C/c2ccccc2C(=O)OCCOCCOC(=O)c2ccc(-c3c4nc(c(-c5cccc(S(=O)(=O)[O-])c5F)c5ccc([nH]5)c(-c5cccc(S(=O)(=O)[O-])c5F)c5nc(c(-c6cccc(S(=O)(=O)[O-])c6F)c6ccc3[nH]6)C=C5)C=C4)cc2)cc1
REMARK SMILES IDX 26 1 25 2 24 3 22 4 23 5 21 6 16 7 17 8 18 9 20 10 19 11
REMARK SMILES IDX 15 12 14 13 13 14 11 15 12 16 9 18 8 19 10 21 7 22 4 23 5 24
REMARK SMILES IDX 97 25 6 26 96 27 2 28 1 29 3 30 27 31 28 32 29 33 30 34
REMARK SMILES IDX 31 35 32 36 33 37 34 38 95 39 35 40 94 41 36 42 37 43 38 44
REMARK SMILES IDX 88 45 39 46 93 47 87 48 89 49 40 50 92 51 86 52 85 53 41 55
REMARK SMILES IDX 73 56 53 57 72 58 54 59 57 60 71 61 90 62 55 63 56 64 70 66
REMARK SMILES IDX 91 67 58 68 42 69 43 70 51 71 44 72 46 73 52 74 45 75 47 76
REMARK SMILES IDX 48 77 49 78 50 79 74 80 75 81 83 82 76 83 78 84 84 85 77 86
REMARK SMILES IDX 79 87 80 88 81 89 82 90 59 91 60 92 68 93 61 94 63 95 69 96
REMARK SMILES IDX 62 97 64 98 65 99 66 100 67 101
REMARK H PARENT 13 17 8 20 89 54 57 65
REMARK Flexibility Score: inf
ROOT
ATOM      1  C   UNL A   1      33.556  29.457  26.940  1.00  0.00     0.202 C 
ENDROOT
BRANCH   1   2
ATOM      2  C   UNL A   1      33.386  29.152  25.449  1.00  0.00     0.261 C 
BRANCH   2   3
ATOM      3  O   UNL A   1      32.070  28.637  25.191  1.00  0.00    -0.460 OA
BRANCH   3   4
ATOM      4  C   UNL A   1      31.834  28.134  23.962  1.00  0.00     0.338 C 
ATOM      5  O   UNL A   1      32.633  27.514  23.272  1.00  0.00    -0.246 OA
BRANCH   4   6
ATOM      6  C   UNL A   1      30.400  28.278  23.585  1.00  0.00     0.068 A 
ATOM      7  C   UNL A   1      29.377  27.389  23.937  1.00  0.00     0.009 A 
ATOM      8  C   UNL A   1      28.052  27.618  23.546  1.00  0.00     0.010 A 
ATOM      9  C   UNL A   1      27.748  28.722  22.752  1.00  0.00     0.001 A 
ATOM     10  C   UNL A   1      30.075  29.380  22.777  1.00  0.00     0.016 A 
ATOM     11  C   UNL A   1      28.761  29.591  22.350  1.00  0.00     0.001 A 
BRANCH   7  12
ATOM     12  C   UNL A   1      29.669  26.083  24.521  1.00  0.00     0.142 C 
ATOM     13  N   UNL A   1      29.877  25.896  25.785  1.00  0.00    -0.180 NA
BRANCH  13  14
ATOM     14  N   UNL A   1      30.149  24.587  26.107  1.00  0.00    -0.239 N 
ATOM     15  C   UNL A   1      31.339  24.130  26.652  1.00  0.00     0.329 C 
ATOM     16  O   UNL A   1      31.344  23.366  27.609  1.00  0.00    -0.262 OA
ATOM     17  H   UNL A   1      29.443  23.922  25.938  1.00  0.00     0.194 HD
BRANCH  15  18
ATOM     18  C   UNL A   1      32.650  24.653  26.034  1.00  0.00     0.315 C 
ATOM     19  N   UNL A   1      33.453  23.836  25.266  1.00  0.00    -0.318 N 
ATOM     20  H   UNL A   1      34.283  24.274  24.969  1.00  0.00     0.170 HD
ATOM     21  O   UNL A   1      33.052  25.789  26.294  1.00  0.00    -0.263 OA
BRANCH  19  22
ATOM     22  C   UNL A   1      33.334  22.510  24.821  1.00  0.00     0.041 A 
ATOM     23  C   UNL A   1      33.181  19.745  24.149  1.00  0.00    -0.045 A 
ATOM     24  C   UNL A   1      32.439  20.713  23.462  1.00  0.00     0.006 A 
ATOM     25  C   UNL A   1      34.013  20.195  25.182  1.00  0.00     0.006 A 
ATOM     26  C   UNL A   1      32.527  22.076  23.779  1.00  0.00     0.026 A 
ATOM     27  C   UNL A   1      34.103  21.556  25.500  1.00  0.00     0.026 A 
BRANCH  23  28
ATOM     28  C   UNL A   1      33.077  18.256  23.822  1.00  0.00     0.013 C 
ATOM     29  C   UNL A   1      32.411  17.409  24.914  1.00  0.00     0.012 C 
ATOM     30  C   UNL A   1      32.333  17.997  22.505  1.00  0.00     0.012 C 
ENDBRANCH  23  28
ENDBRANCH  19  22
ENDBRANCH  15  18
ENDBRANCH  13  14
ENDBRANCH   7  12
ENDBRANCH   4   6
ENDBRANCH   3   4
ENDBRANCH   2   3
ENDBRANCH   1   2
BRANCH   1  31
ATOM     31  O   UNL A   1      33.373  30.824  27.320  1.00  0.00    -0.374 OA
BRANCH  31  32
ATOM     32  C   UNL A   1      32.106  31.410  27.018  1.00  0.00     0.202 C 
BRANCH  32  33
ATOM     33  C   UNL A   1      32.022  32.941  27.059  1.00  0.00     0.261 C 
BRANCH  33  34
ATOM     34  O   UNL A   1      33.284  33.560  27.352  1.00  0.00    -0.460 OA
BRANCH  34  35
ATOM     35  C   UNL A   1      33.293  34.319  28.475  1.00  0.00     0.338 C 
ATOM     36  O   UNL A   1      32.452  35.139  28.818  1.00  0.00    -0.246 OA
BRANCH  35  37
ATOM     37  C   UNL A   1      34.403  33.911  29.352  1.00  0.00     0.060 A 
ATOM     38  C   UNL A   1      35.684  34.384  29.045  1.00  0.00     0.016 A 
ATOM     39  C   UNL A   1      34.205  33.029  30.415  1.00  0.00     0.016 A 
ATOM     40  C   UNL A   1      36.782  33.956  29.789  1.00  0.00     0.010 A 
ATOM     41  C   UNL A   1      35.309  32.604  31.161  1.00  0.00     0.010 A 
ATOM     42  C   UNL A   1      36.607  33.046  30.840  1.00  0.00    -0.014 A 
BRANCH  42  43
ATOM     43  C   UNL A   1      37.789  32.471  31.530  1.00  0.00     0.031 A 
ATOM     44  C   UNL A   1      38.515  31.314  30.898  1.00  0.00     0.074 A 
ATOM     45  C   UNL A   1      38.206  32.960  32.714  1.00  0.00     0.049 A 
ATOM     46  N   UNL A   1      39.515  30.609  31.359  1.00  0.00    -0.248 NA
ATOM     47  C   UNL A   1      38.040  30.887  29.571  1.00  0.00     0.031 C 
ATOM     48  C   UNL A   1      37.568  34.052  33.449  1.00  0.00     0.029 A 
ATOM     49  N   UNL A   1      39.241  32.568  33.527  1.00  0.00    -0.354 N 
ATOM     50  C   UNL A   1      39.770  29.640  30.395  1.00  0.00     0.074 A 
ATOM     51  C   UNL A   1      38.803  29.830  29.337  1.00  0.00     0.031 C 
ATOM     52  C   UNL A   1      38.197  34.210  34.628  1.00  0.00     0.029 A 
ATOM     53  C   UNL A   1      39.258  33.211  34.742  1.00  0.00     0.049 A 
ATOM     54  H   UNL A   1      39.906  31.891  33.265  1.00  0.00     0.167 HD
ATOM     55  C   UNL A   1      40.737  28.691  30.379  1.00  0.00     0.034 A 
ATOM     56  C   UNL A   1      40.008  32.985  35.839  1.00  0.00     0.034 A 
ATOM     57  C   UNL A   1      41.714  28.518  31.419  1.00  0.00     0.049 A 
ATOM     58  C   UNL A   1      41.053  31.898  35.817  1.00  0.00     0.074 A 
ATOM     59  C   UNL A   1      42.775  27.631  31.461  1.00  0.00     0.029 A 
ATOM     60  N   UNL A   1      41.741  29.232  32.606  1.00  0.00    -0.354 N 
ATOM     61  N   UNL A   1      41.369  31.076  34.846  1.00  0.00    -0.248 NA
ATOM     62  C   UNL A   1      41.860  31.724  37.033  1.00  0.00     0.031 C 
ATOM     63  C   UNL A   1      43.421  27.784  32.692  1.00  0.00     0.029 A 
ATOM     64  C   UNL A   1      42.789  28.795  33.397  1.00  0.00     0.049 A 
ATOM     65  H   UNL A   1      41.107  29.945  32.850  1.00  0.00     0.167 HD
ATOM     66  C   UNL A   1      42.434  30.316  35.318  1.00  0.00     0.074 A 
ATOM     67  C   UNL A   1      42.722  30.788  36.656  1.00  0.00     0.031 C 
ATOM     68  C   UNL A   1      43.106  29.311  34.704  1.00  0.00     0.034 A 
BRANCH  55  69
ATOM     69  C   UNL A   1      40.804  27.782  29.179  1.00  0.00     0.023 A 
ATOM     70  C   UNL A   1      39.952  26.661  29.100  1.00  0.00     0.012 A 
ATOM     71  C   UNL A   1      41.670  28.068  28.105  1.00  0.00     0.148 A 
ATOM     72  C   UNL A   1      39.988  25.818  27.990  1.00  0.00     0.002 A 
ATOM     73  C   UNL A   1      41.665  27.251  26.981  1.00  0.00     0.091 A 
ATOM     74  F   UNL A   1      42.487  29.126  28.207  1.00  0.00    -0.205 F 
ATOM     75  C   UNL A   1      40.835  26.119  26.927  1.00  0.00     0.022 A 
BRANCH  73  76
ATOM     76  S   UNL A   1      42.659  27.598  25.526  1.00  0.00     0.127 S 
ATOM     77  O   UNL A   1      44.004  27.664  26.096  1.00  0.00    -0.237 OA
ATOM     78  O   UNL A   1      42.406  26.421  24.694  1.00  0.00    -0.237 OA
ATOM     79  O   UNL A   1      42.152  28.849  24.982  1.00  0.00    -0.744 OA
ENDBRANCH  73  76
ENDBRANCH  55  69
BRANCH  56  80
ATOM     80  C   UNL A   1      39.805  33.809  37.064  1.00  0.00     0.023 A 
ATOM     81  C   UNL A   1      40.363  35.099  37.135  1.00  0.00     0.012 A 
ATOM     82  C   UNL A   1      39.061  33.319  38.156  1.00  0.00     0.148 A 
ATOM     83  C   UNL A   1      40.215  35.876  38.284  1.00  0.00     0.002 A 
ATOM     84  C   UNL A   1      38.869  34.120  39.276  1.00  0.00     0.091 A 
ATOM     85  F   UNL A   1      38.550  32.083  38.073  1.00  0.00    -0.205 F 
ATOM     86  C   UNL A   1      39.460  35.391  39.350  1.00  0.00     0.022 A 
BRANCH  84  87
ATOM     87  S   UNL A   1      37.810  33.634  40.641  1.00  0.00     0.127 S 
ATOM     88  O   UNL A   1      36.615  33.168  39.942  1.00  0.00    -0.237 OA
ATOM     89  O   UNL A   1      38.606  32.581  41.274  1.00  0.00    -0.237 OA
ATOM     90  O   UNL A   1      37.642  34.831  41.453  1.00  0.00    -0.744 OA
ENDBRANCH  84  87
ENDBRANCH  56  80
BRANCH  68  91
ATOM     91  C   UNL A   1      44.264  28.686  35.439  1.00  0.00     0.023 A 
ATOM     92  C   UNL A   1      45.572  29.173  35.247  1.00  0.00     0.012 A 
ATOM     93  C   UNL A   1      44.042  27.659  36.379  1.00  0.00     0.148 A 
ATOM     94  C   UNL A   1      46.643  28.625  35.952  1.00  0.00     0.002 A 
ATOM     95  C   UNL A   1      45.106  27.154  37.117  1.00  0.00     0.091 A 
ATOM     96  F   UNL A   1      42.793  27.198  36.538  1.00  0.00    -0.205 F 
ATOM     97  C   UNL A   1      46.410  27.625  36.894  1.00  0.00     0.022 A 
BRANCH  95  98
ATOM     98  S   UNL A   1      44.887  25.937  38.419  1.00  0.00     0.127 S 
ATOM     99  O   UNL A   1      44.218  24.852  37.704  1.00  0.00    -0.237 OA
ATOM    100  O   UNL A   1      46.268  25.650  38.811  1.00  0.00    -0.237 OA
ATOM    101  O   UNL A   1      44.089  26.588  39.450  1.00  0.00    -0.744 OA
ENDBRANCH  95  98
ENDBRANCH  68  91
ENDBRANCH  42  43
ENDBRANCH  35  37
ENDBRANCH  34  35
ENDBRANCH  33  34
ENDBRANCH  32  33
ENDBRANCH  31  32
ENDBRANCH   1  31
TORSDOF 22
ENDMDL
MODEL 2
REMARK VINA RESULT:     -11.2      2.039      3.347
REMARK SMILES CC(C)c1ccc(NC(=O)C(=O)N/N=C/c2ccccc2C(=O)OCCOCCOC(=O)c2ccc(-c3c4nc(c(-c5cccc(S(=O)(=O)[O-])c5F)c5ccc([nH]5)c(-c5cccc(S(=O)(=O)[O-])c5F)c5nc(c(-c6cccc(S(=O)(=O)[O-])c6F)c6ccc3[nH]6)C=C5)C=C4)cc2)cc1
REMARK SMILES IDX 26 1 25 2 24 3 22 4 23 5 21 6 16 7 17 8 18 9 20 10 19 11
REMARK SMILES IDX 15 12 14 13 13 14 11 15 12 16 9 18 8 19 10 21 7 22 4 23 5 24
REMARK SMILES IDX 97 25 6 26 96 27 2 28 1 29 3 30 27 31 28 32 29 33 30 34
REMARK SMILES IDX 31 35 32 36 33 37 34 38 95 39 35 40 94 41 36 42 37 43 38 44
REMARK SMILES IDX 88 45 39 46 93 47 87 48 89 49 40 50 92 51 86 52 85 53 41 55
REMARK SMILES IDX 73 56 53 57 72 58 54 59 57 60 71 61 90 62 55 63 56 64 70 66
REMARK SMILES IDX 91 67 58 68 42 69 43 70 51 71 44 72 46 73 52 74 45 75 47 76
REMARK SMILES IDX 48 77 49 78 50 79 74 80 75 81 83 82 76 83 78 84 84 85 77 86
REMARK SMILES IDX 79 87 80 88 81 89 82 90 59 91 60 92 68 93 61 94 63 95 69 96
REMARK SMILES IDX 62 97 64 98 65 99 66 100 67 101
REMARK H PARENT 13 17 8 20 89 54 57 65
REMARK Flexibility Score: inf
ROOT
ATOM      1  C   UNL A   1      33.172  29.569  25.508  1.00  0.00     0.202 C 
ENDROOT
BRANCH   1   2
ATOM      2  C   UNL A   1      34.024  28.561  26.285  1.00  0.00     0.261 C 
BRANCH   2   3
ATOM      3  O   UNL A   1      33.209  27.475  26.754  1.00  0.00    -0.460 OA
BRANCH   3   4
ATOM      4  C   UNL A   1      33.352  26.285  26.135  1.00  0.00     0.338 C 
ATOM      5  O   UNL A   1      34.366  25.878  25.583  1.00  0.00    -0.246 OA
BRANCH   4   6
ATOM      6  C   UNL A   1      32.154  25.422  26.340  1.00  0.00     0.068 A 
ATOM      7  C   UNL A   1      32.183  24.065  26.682  1.00  0.00     0.009 A 
ATOM      8  C   UNL A   1      31.000  23.339  26.867  1.00  0.00     0.010 A 
ATOM      9  C   UNL A   1      29.770  23.961  26.662  1.00  0.00     0.001 A 
ATOM     10  C   UNL A   1      30.905  26.029  26.130  1.00  0.00     0.016 A 
ATOM     11  C   UNL A   1      29.722  25.299  26.274  1.00  0.00     0.001 A 
BRANCH   7  12
ATOM     12  C   UNL A   1      33.422  23.293  26.636  1.00  0.00     0.142 C 
ATOM     13  N   UNL A   1      33.513  22.065  27.035  1.00  0.00    -0.180 NA
BRANCH  13  14
ATOM     14  N   UNL A   1      34.780  21.543  26.914  1.00  0.00    -0.239 N 
ATOM     15  C   UNL A   1      35.333  21.054  25.741  1.00  0.00     0.329 C 
ATOM     16  O   UNL A   1      36.464  21.370  25.395  1.00  0.00    -0.262 OA
ATOM     17  H   UNL A   1      35.338  21.515  27.725  1.00  0.00     0.194 HD
BRANCH  15  18
ATOM     18  C   UNL A   1      34.454  20.132  24.872  1.00  0.00     0.315 C 
ATOM     19  N   UNL A   1      33.582  20.650  23.939  1.00  0.00    -0.318 N 
ATOM     20  H   UNL A   1      33.045  19.961  23.483  1.00  0.00     0.170 HD
ATOM     21  O   UNL A   1      34.450  18.915  25.063  1.00  0.00    -0.263 OA
BRANCH  19  22
ATOM     22  C   UNL A   1      33.297  21.954  23.504  1.00  0.00     0.041 A 
ATOM     23  C   UNL A   1      32.491  24.579  22.741  1.00  0.00    -0.045 A 
ATOM     24  C   UNL A   1      33.839  24.199  22.767  1.00  0.00     0.006 A 
ATOM     25  C   UNL A   1      31.549  23.608  23.102  1.00  0.00     0.006 A 
ATOM     26  C   UNL A   1      34.235  22.903  23.124  1.00  0.00     0.026 A 
ATOM     27  C   UNL A   1      31.943  22.312  23.458  1.00  0.00     0.026 A 
BRANCH  23  28
ATOM     28  C   UNL A   1      32.052  25.995  22.371  1.00  0.00     0.013 C 
ATOM     29  C   UNL A   1      32.163  26.326  20.877  1.00  0.00     0.012 C 
ATOM     30  C   UNL A   1      30.614  26.295  22.815  1.00  0.00     0.012 C 
ENDBRANCH  23  28
ENDBRANCH  19  22
ENDBRANCH  15  18
ENDBRANCH  13  14
ENDBRANCH   7  12
ENDBRANCH   4   6
ENDBRANCH   3   4
ENDBRANCH   2   3
ENDBRANCH   1   2
BRANCH   1  31
ATOM     31  O   UNL A   1      32.207  30.292  26.277  1.00  0.00    -0.374 OA
BRANCH  31  32
ATOM     32  C   UNL A   1      32.714  31.260  27.197  1.00  0.00     0.202 C 
BRANCH  32  33
ATOM     33  C   UNL A   1      32.385  32.730  26.910  1.00  0.00     0.261 C 
BRANCH  33  34
ATOM     34  O   UNL A   1      32.202  33.504  28.106  1.00  0.00    -0.460 OA
BRANCH  34  35
ATOM     35  C   UNL A   1      33.209  34.369  28.377  1.00  0.00     0.338 C 
ATOM     36  O   UNL A   1      33.154  35.592  28.368  1.00  0.00    -0.246 OA
BRANCH  35  37
ATOM     37  C   UNL A   1      34.392  33.635  28.858  1.00  0.00     0.060 A 
ATOM     38  C   UNL A   1      34.206  32.697  29.880  1.00  0.00     0.016 A 
ATOM     39  C   UNL A   1      35.668  33.908  28.365  1.00  0.00     0.016 A 
ATOM     40  C   UNL A   1      35.304  32.040  30.432  1.00  0.00     0.010 A 
ATOM     41  C   UNL A   1      36.768  33.246  28.920  1.00  0.00     0.010 A 
ATOM     42  C   UNL A   1      36.597  32.325  29.972  1.00  0.00    -0.014 A 
BRANCH  42  43
ATOM     43  C   UNL A   1      37.776  31.746  30.663  1.00  0.00     0.031 A 
ATOM     44  C   UNL A   1      38.572  30.670  29.974  1.00  0.00     0.074 A 
ATOM     45  C   UNL A   1      38.129  32.158  31.896  1.00  0.00     0.049 A 
ATOM     46  N   UNL A   1      39.584  29.972  30.420  1.00  0.00    -0.248 NA
ATOM     47  C   UNL A   1      38.164  30.328  28.601  1.00  0.00     0.031 C 
ATOM     48  C   UNL A   1      37.420  33.164  32.686  1.00  0.00     0.029 A 
ATOM     49  N   UNL A   1      39.149  31.745  32.718  1.00  0.00    -0.354 N 
ATOM     50  C   UNL A   1      39.914  29.090  29.396  1.00  0.00     0.074 A 
ATOM     51  C   UNL A   1      38.979  29.323  28.318  1.00  0.00     0.031 C 
ATOM     52  C   UNL A   1      37.998  33.255  33.897  1.00  0.00     0.029 A 
ATOM     53  C   UNL A   1      39.095  32.293  33.977  1.00  0.00     0.049 A 
ATOM     54  H   UNL A   1      39.851  31.116  32.431  1.00  0.00     0.167 HD
ATOM     55  C   UNL A   1      40.920  28.184  29.346  1.00  0.00     0.034 A 
ATOM     56  C   UNL A   1      39.814  32.012  35.083  1.00  0.00     0.034 A 
ATOM     57  C   UNL A   1      41.864  27.969  30.408  1.00  0.00     0.049 A 
ATOM     58  C   UNL A   1      40.903  30.971  35.019  1.00  0.00     0.074 A 
ATOM     59  C   UNL A   1      42.959  27.124  30.425  1.00  0.00     0.029 A 
ATOM     60  N   UNL A   1      41.818  28.590  31.646  1.00  0.00    -0.354 N 
ATOM     61  N   UNL A   1      41.288  30.240  34.002  1.00  0.00    -0.248 NA
ATOM     62  C   UNL A   1      41.672  30.735  36.250  1.00  0.00     0.031 C 
ATOM     63  C   UNL A   1      43.554  27.206  31.689  1.00  0.00     0.029 A 
ATOM     64  C   UNL A   1      42.854  28.134  32.442  1.00  0.00     0.049 A 
ATOM     65  H   UNL A   1      41.146  29.256  31.918  1.00  0.00     0.167 HD
ATOM     66  C   UNL A   1      42.366  29.487  34.458  1.00  0.00     0.074 A 
ATOM     67  C   UNL A   1      42.585  29.866  35.838  1.00  0.00     0.031 C 
ATOM     68  C   UNL A   1      43.101  28.559  33.796  1.00  0.00     0.034 A 
BRANCH  55  69
ATOM     69  C   UNL A   1      41.068  27.373  28.085  1.00  0.00     0.023 A 
ATOM     70  C   UNL A   1      41.656  27.954  26.942  1.00  0.00     0.012 A 
ATOM     71  C   UNL A   1      40.675  26.020  28.048  1.00  0.00     0.148 A 
ATOM     72  C   UNL A   1      41.816  27.213  25.772  1.00  0.00     0.002 A 
ATOM     73  C   UNL A   1      40.883  25.275  26.893  1.00  0.00     0.091 A 
ATOM     74  F   UNL A   1      40.099  25.491  29.136  1.00  0.00    -0.205 F 
ATOM     75  C   UNL A   1      41.441  25.873  25.751  1.00  0.00     0.022 A 
BRANCH  73  76
ATOM     76  S   UNL A   1      40.509  23.521  26.790  1.00  0.00     0.127 S 
ATOM     77  O   UNL A   1      40.841  23.069  28.141  1.00  0.00    -0.237 OA
ATOM     78  O   UNL A   1      39.079  23.530  26.484  1.00  0.00    -0.237 OA
ATOM     79  O   UNL A   1      41.356  22.991  25.732  1.00  0.00    -0.744 OA
ENDBRANCH  73  76
ENDBRANCH  55  69
BRANCH  56  80
ATOM     80  C   UNL A   1      39.532  32.730  36.358  1.00  0.00     0.023 A 
ATOM     81  C   UNL A   1      40.212  33.928  36.646  1.00  0.00     0.012 A 
ATOM     82  C   UNL A   1      38.594  32.231  37.283  1.00  0.00     0.148 A 
ATOM     83  C   UNL A   1      39.990  34.601  37.847  1.00  0.00     0.002 A 
ATOM     84  C   UNL A   1      38.335  32.936  38.453  1.00  0.00     0.091 A 
ATOM     85  F   UNL A   1      37.968  31.082  36.995  1.00  0.00    -0.205 F 
ATOM     86  C   UNL A   1      39.045  34.111  38.746  1.00  0.00     0.022 A 
BRANCH  84  87
ATOM     87  S   UNL A   1      37.048  32.453  39.608  1.00  0.00     0.127 S 
ATOM     88  O   UNL A   1      37.150  33.497  40.624  1.00  0.00    -0.237 OA
ATOM     89  O   UNL A   1      35.853  32.524  38.766  1.00  0.00    -0.237 OA
ATOM     90  O   UNL A   1      37.398  31.108  40.045  1.00  0.00    -0.744 OA
ENDBRANCH  84  87
ENDBRANCH  56  80
BRANCH  68  91
ATOM     91  C   UNL A   1      44.258  27.925  34.527  1.00  0.00     0.023 A 
ATOM     92  C   UNL A   1      45.523  28.544  34.525  1.00  0.00     0.012 A 
ATOM     93  C   UNL A   1      44.066  26.749  35.280  1.00  0.00     0.148 A 
ATOM     94  C   UNL A   1      46.588  27.982  35.230  1.00  0.00     0.002 A 
ATOM     95  C   UNL A   1      45.117  26.224  36.022  1.00  0.00     0.091 A 
ATOM     96  F   UNL A   1      42.859  26.165  35.258  1.00  0.00    -0.205 F 
ATOM     97  C   UNL A   1      46.383  26.831  35.987  1.00  0.00     0.022 A 
BRANCH  95  98
ATOM     98  S   UNL A   1      44.921  24.803  37.103  1.00  0.00     0.127 S 
ATOM     99  O   UNL A   1      46.246  24.706  37.712  1.00  0.00    -0.237 OA
ATOM    100  O   UNL A   1      43.863  25.250  38.011  1.00  0.00    -0.237 OA
ATOM    101  O   UNL A   1      44.547  23.689  36.243  1.00  0.00    -0.744 OA
ENDBRANCH  95  98
ENDBRANCH  68  91
ENDBRANCH  42  43
ENDBRANCH  35  37
ENDBRANCH  34  35
ENDBRANCH  33  34
ENDBRANCH  32  33
ENDBRANCH  31  32
ENDBRANCH   1  31
TORSDOF 22
ENDMDL
MODEL 3
REMARK VINA RESULT:     -11.0      1.402      2.351
REMARK SMILES CC(C)c1ccc(NC(=O)C(=O)N/N=C/c2ccccc2C(=O)OCCOCCOC(=O)c2ccc(-c3c4nc(c(-c5cccc(S(=O)(=O)[O-])c5F)c5ccc([nH]5)c(-c5cccc(S(=O)(=O)[O-])c5F)c5nc(c(-c6cccc(S(=O)(=O)[O-])c6F)c6ccc3[nH]6)C=C5)C=C4)cc2)cc1
REMARK SMILES IDX 26 1 25 2 24 3 22 4 23 5 21 6 16 7 17 8 18 9 20 10 19 11
REMARK SMILES IDX 15 12 14 13 13 14 11 15 12 16 9 18 8 19 10 21 7 22 4 23 5 24
REMARK SMILES IDX 97 25 6 26 96 27 2 28 1 29 3 30 27 31 28 32 29 33 30 34
REMARK SMILES IDX 31 35 32 36 33 37 34 38 95 39 35 40 94 41 36 42 37 43 38 44
REMARK SMILES IDX 88 45 39 46 93 47 87 48 89 49 40 50 92 51 86 52 85 53 41 55
REMARK SMILES IDX 73 56 53 57 72 58 54 59 57 60 71 61 90 62 55 63 56 64 70 66
REMARK SMILES IDX 91 67 58 68 42 69 43 70 51 71 44 72 46 73 52 74 45 75 47 76
REMARK SMILES IDX 48 77 49 78 50 79 74 80 75 81 83 82 76 83 78 84 84 85 77 86
REMARK SMILES IDX 79 87 80 88 81 89 82 90 59 91 60 92 68 93 61 94 63 95 69 96
REMARK SMILES IDX 62 97 64 98 65 99 66 100 67 101
REMARK H PARENT 13 17 8 20 89 54 57 65
REMARK Flexibility Score: inf
ROOT
ATOM      1  C   UNL A   1      32.953  29.820  26.171  1.00  0.00     0.202 C 
ENDROOT
BRANCH   1   2
ATOM      2  C   UNL A   1      32.931  28.446  25.496  1.00  0.00     0.261 C 
BRANCH   2   3
ATOM      3  O   UNL A   1      31.578  27.993  25.328  1.00  0.00    -0.460 OA
BRANCH   3   4
ATOM      4  C   UNL A   1      31.375  26.950  24.497  1.00  0.00     0.338 C 
ATOM      5  O   UNL A   1      31.474  26.973  23.277  1.00  0.00    -0.246 OA
BRANCH   4   6
ATOM      6  C   UNL A   1      31.170  25.685  25.256  1.00  0.00     0.068 A 
ATOM      7  C   UNL A   1      32.098  24.641  25.357  1.00  0.00     0.009 A 
ATOM      8  C   UNL A   1      31.818  23.493  26.109  1.00  0.00     0.010 A 
ATOM      9  C   UNL A   1      30.577  23.361  26.730  1.00  0.00     0.001 A 
ATOM     10  C   UNL A   1      29.922  25.529  25.882  1.00  0.00     0.016 A 
ATOM     11  C   UNL A   1      29.622  24.368  26.599  1.00  0.00     0.001 A 
BRANCH   7  12
ATOM     12  C   UNL A   1      33.288  24.594  24.513  1.00  0.00     0.142 C 
ATOM     13  N   UNL A   1      34.493  24.520  24.979  1.00  0.00    -0.180 NA
BRANCH  13  14
ATOM     14  N   UNL A   1      35.458  24.503  24.001  1.00  0.00    -0.239 N 
ATOM     15  C   UNL A   1      36.445  23.538  23.870  1.00  0.00     0.329 C 
ATOM     16  O   UNL A   1      36.693  23.030  22.784  1.00  0.00    -0.262 OA
ATOM     17  H   UNL A   1      35.449  25.234  23.341  1.00  0.00     0.194 HD
BRANCH  15  18
ATOM     18  C   UNL A   1      37.188  23.104  25.150  1.00  0.00     0.315 C 
ATOM     19  N   UNL A   1      36.955  21.875  25.728  1.00  0.00    -0.318 N 
ATOM     20  H   UNL A   1      37.456  21.737  26.564  1.00  0.00     0.170 HD
ATOM     21  O   UNL A   1      37.937  23.891  25.732  1.00  0.00    -0.263 OA
BRANCH  19  22
ATOM     22  C   UNL A   1      36.151  20.779  25.374  1.00  0.00     0.041 A 
ATOM     23  C   UNL A   1      34.331  18.724  24.612  1.00  0.00    -0.045 A 
ATOM     24  C   UNL A   1      35.717  18.529  24.583  1.00  0.00     0.006 A 
ATOM     25  C   UNL A   1      33.872  19.977  25.040  1.00  0.00     0.006 A 
ATOM     26  C   UNL A   1      36.614  19.533  24.976  1.00  0.00     0.026 A 
ATOM     27  C   UNL A   1      34.767  20.980  25.433  1.00  0.00     0.026 A 
BRANCH  23  28
ATOM     28  C   UNL A   1      33.347  17.642  24.168  1.00  0.00     0.013 C 
ATOM     29  C   UNL A   1      33.913  16.647  23.148  1.00  0.00     0.012 C 
ATOM     30  C   UNL A   1      32.789  16.839  25.351  1.00  0.00     0.012 C 
ENDBRANCH  23  28
ENDBRANCH  19  22
ENDBRANCH  15  18
ENDBRANCH  13  14
ENDBRANCH   7  12
ENDBRANCH   4   6
ENDBRANCH   3   4
ENDBRANCH   2   3
ENDBRANCH   1   2
BRANCH   1  31
ATOM     31  O   UNL A   1      31.784  30.623  25.986  1.00  0.00    -0.374 OA
BRANCH  31  32
ATOM     32  C   UNL A   1      31.703  31.826  26.751  1.00  0.00     0.202 C 
BRANCH  32  33
ATOM     33  C   UNL A   1      32.943  32.218  27.563  1.00  0.00     0.261 C 
BRANCH  33  34
ATOM     34  O   UNL A   1      33.327  33.588  27.366  1.00  0.00    -0.460 OA
BRANCH  34  35
ATOM     35  C   UNL A   1      33.326  34.341  28.493  1.00  0.00     0.338 C 
ATOM     36  O   UNL A   1      32.460  35.127  28.853  1.00  0.00    -0.246 OA
BRANCH  35  37
ATOM     37  C   UNL A   1      34.465  33.971  29.350  1.00  0.00     0.060 A 
ATOM     38  C   UNL A   1      35.754  34.179  28.847  1.00  0.00     0.016 A 
ATOM     39  C   UNL A   1      34.275  33.371  30.595  1.00  0.00     0.016 A 
ATOM     40  C   UNL A   1      36.864  33.765  29.580  1.00  0.00     0.010 A 
ATOM     41  C   UNL A   1      35.391  32.957  31.329  1.00  0.00     0.010 A 
ATOM     42  C   UNL A   1      36.691  33.130  30.818  1.00  0.00    -0.014 A 
BRANCH  42  43
ATOM     43  C   UNL A   1      37.861  32.550  31.525  1.00  0.00     0.031 A 
ATOM     44  C   UNL A   1      38.583  31.383  30.908  1.00  0.00     0.074 A 
ATOM     45  C   UNL A   1      38.268  33.042  32.711  1.00  0.00     0.049 A 
ATOM     46  N   UNL A   1      39.573  30.673  31.384  1.00  0.00    -0.248 NA
ATOM     47  C   UNL A   1      38.121  30.952  29.578  1.00  0.00     0.031 C 
ATOM     48  C   UNL A   1      37.631  34.143  33.432  1.00  0.00     0.029 A 
ATOM     49  N   UNL A   1      39.290  32.646  33.538  1.00  0.00    -0.354 N 
ATOM     50  C   UNL A   1      39.831  29.696  30.429  1.00  0.00     0.074 A 
ATOM     51  C   UNL A   1      38.878  29.888  29.358  1.00  0.00     0.031 C 
ATOM     52  C   UNL A   1      38.247  34.303  34.618  1.00  0.00     0.029 A 
ATOM     53  C   UNL A   1      39.298  33.296  34.750  1.00  0.00     0.049 A 
ATOM     54  H   UNL A   1      39.952  31.962  33.287  1.00  0.00     0.167 HD
ATOM     55  C   UNL A   1      40.790  28.739  30.429  1.00  0.00     0.034 A 
ATOM     56  C   UNL A   1      40.033  33.070  35.857  1.00  0.00     0.034 A 
ATOM     57  C   UNL A   1      41.753  28.563  31.481  1.00  0.00     0.049 A 
ATOM     58  C   UNL A   1      41.069  31.974  35.852  1.00  0.00     0.074 A 
ATOM     59  C   UNL A   1      42.805  27.668  31.541  1.00  0.00     0.029 A 
ATOM     60  N   UNL A   1      41.772  29.284  32.665  1.00  0.00    -0.354 N 
ATOM     61  N   UNL A   1      41.389  31.144  34.890  1.00  0.00    -0.248 NA
ATOM     62  C   UNL A   1      41.861  31.800  37.079  1.00  0.00     0.031 C 
ATOM     63  C   UNL A   1      43.439  27.823  32.778  1.00  0.00     0.029 A 
ATOM     64  C   UNL A   1      42.807  28.843  33.470  1.00  0.00     0.049 A 
ATOM     65  H   UNL A   1      41.141  30.003  32.898  1.00  0.00     0.167 HD
ATOM     66  C   UNL A   1      42.443  30.377  35.379  1.00  0.00     0.074 A 
ATOM     67  C   UNL A   1      42.719  30.855  36.717  1.00  0.00     0.031 C 
ATOM     68  C   UNL A   1      43.113  29.363  34.778  1.00  0.00     0.034 A 
BRANCH  55  69
ATOM     69  C   UNL A   1      40.863  27.822  29.235  1.00  0.00     0.023 A 
ATOM     70  C   UNL A   1      40.061  26.663  29.191  1.00  0.00     0.012 A 
ATOM     71  C   UNL A   1      41.683  28.137  28.134  1.00  0.00     0.148 A 
ATOM     72  C   UNL A   1      40.103  25.812  28.087  1.00  0.00     0.002 A 
ATOM     73  C   UNL A   1      41.683  27.310  27.018  1.00  0.00     0.091 A 
ATOM     74  F   UNL A   1      42.454  29.232  28.203  1.00  0.00    -0.205 F 
ATOM     75  C   UNL A   1      40.904  26.141  26.997  1.00  0.00     0.022 A 
BRANCH  73  76
ATOM     76  S   UNL A   1      42.617  27.688  25.530  1.00  0.00     0.127 S 
ATOM     77  O   UNL A   1      43.965  27.869  26.067  1.00  0.00    -0.237 OA
ATOM     78  O   UNL A   1      42.434  26.473  24.736  1.00  0.00    -0.237 OA
ATOM     79  O   UNL A   1      42.007  28.883  24.965  1.00  0.00    -0.744 OA
ENDBRANCH  73  76
ENDBRANCH  55  69
BRANCH  56  80
ATOM     80  C   UNL A   1      39.823  33.902  37.075  1.00  0.00     0.023 A 
ATOM     81  C   UNL A   1      40.336  35.212  37.119  1.00  0.00     0.012 A 
ATOM     82  C   UNL A   1      39.118  33.401  38.187  1.00  0.00     0.148 A 
ATOM     83  C   UNL A   1      40.180  35.998  38.260  1.00  0.00     0.002 A 
ATOM     84  C   UNL A   1      38.917  34.209  39.299  1.00  0.00     0.091 A 
ATOM     85  F   UNL A   1      38.650  32.146  38.128  1.00  0.00    -0.205 F 
ATOM     86  C   UNL A   1      39.464  35.502  39.345  1.00  0.00     0.022 A 
BRANCH  84  87
ATOM     87  S   UNL A   1      37.901  33.704  40.690  1.00  0.00     0.127 S 
ATOM     88  O   UNL A   1      38.717  32.653  41.291  1.00  0.00    -0.237 OA
ATOM     89  O   UNL A   1      37.820  34.943  41.464  1.00  0.00    -0.237 OA
ATOM     90  O   UNL A   1      36.635  33.270  40.114  1.00  0.00    -0.744 OA
ENDBRANCH  84  87
ENDBRANCH  56  80
BRANCH  68  91
ATOM     91  C   UNL A   1      44.258  28.733  35.530  1.00  0.00     0.023 A 
ATOM     92  C   UNL A   1      45.568  29.223  35.369  1.00  0.00     0.012 A 
ATOM     93  C   UNL A   1      44.018  27.697  36.456  1.00  0.00     0.148 A 
ATOM     94  C   UNL A   1      46.626  28.670  36.089  1.00  0.00     0.002 A 
ATOM     95  C   UNL A   1      45.069  27.186  37.210  1.00  0.00     0.091 A 
ATOM     96  F   UNL A   1      42.767  27.233  36.586  1.00  0.00    -0.205 F 
ATOM     97  C   UNL A   1      46.376  27.661  37.017  1.00  0.00     0.022 A 
BRANCH  95  98
ATOM     98  S   UNL A   1      44.825  25.957  38.496  1.00  0.00     0.127 S 
ATOM     99  O   UNL A   1      44.059  26.711  39.487  1.00  0.00    -0.237 OA
ATOM    100  O   UNL A   1      44.064  24.922  37.795  1.00  0.00    -0.237 OA
ATOM    101  O   UNL A   1      46.156  25.546  38.920  1.00  0.00    -0.744 OA
ENDBRANCH  95  98
ENDBRANCH  68  91
ENDBRANCH  42  43
ENDBRANCH  35  37
ENDBRANCH  34  35
ENDBRANCH  33  34
ENDBRANCH  32  33
ENDBRANCH  31  32
ENDBRANCH   1  31
TORSDOF 22
ENDMDL
