MODEL 1
REMARK VINA RESULT:     -12.1      0.000      0.000
REMARK SMILES Cc1c(CC(=O)OCCOCCOC(=O)c2ccc(-c3c4nc(c(-c5cccc(S(=O)(=O)[O-])c5F)c5ccc([nH]5)c(-c5cccc(S(=O)(=O)[O-])c5F)c5nc(c(-c6cccc(S(=O)(=O)[O-])c6F)c6ccc3[nH]6)C=C5)C=C4)cc2)c2cc(O)ccc2n1C(=O)c1ccc(Cl)cc1
REMARK SMILES IDX 10 1 9 2 8 3 7 4 5 5 6 6 4 7 3 8 1 9 2 10 86 11 79 12 85 13
REMARK SMILES IDX 80 14 84 15 81 16 83 17 87 18 88 19 89 20 90 21 95 22 91 23
REMARK SMILES IDX 94 24 92 25 93 26 82 27 11 29 12 30 13 31 14 32 15 33 16 34
REMARK SMILES IDX 17 35 78 36 18 37 77 38 19 39 20 40 21 41 71 42 22 43 76 44
REMARK SMILES IDX 70 45 72 46 23 47 75 48 69 49 68 50 24 52 56 53 36 54 55 55
REMARK SMILES IDX 37 56 40 57 54 58 73 59 38 60 39 61 53 63 74 64 41 65 25 66
REMARK SMILES IDX 26 67 34 68 27 69 29 70 35 71 28 72 30 73 31 74 32 75 33 76
REMARK SMILES IDX 57 77 58 78 66 79 59 80 61 81 67 82 60 83 62 84 63 85 64 86
REMARK SMILES IDX 65 87 42 88 43 89 51 90 44 91 46 92 52 93 45 94 47 95 48 96
REMARK SMILES IDX 49 97 50 98
REMARK H PARENT 82 28 72 51 40 62
REMARK Flexibility Score: inf
ROOT
ATOM      1  O   UNL A   1      32.126  29.595  26.896  1.00  0.00    -0.374 OA
ENDROOT
BRANCH   1   2
ATOM      2  C   UNL A   1      31.842  28.349  27.519  1.00  0.00     0.202 C 
BRANCH   2   3
ATOM      3  C   UNL A   1      31.271  27.175  26.703  1.00  0.00     0.261 C 
BRANCH   3   4
ATOM      4  O   UNL A   1      31.717  27.101  25.336  1.00  0.00    -0.463 OA
BRANCH   4   5
ATOM      5  C   UNL A   1      32.928  26.508  25.171  1.00  0.00     0.310 C 
ATOM      6  O   UNL A   1      33.757  26.854  24.331  1.00  0.00    -0.252 OA
BRANCH   5   7
ATOM      7  C   UNL A   1      33.239  25.360  26.106  1.00  0.00     0.160 C 
BRANCH   7   8
ATOM      8  C   UNL A   1      33.571  23.994  25.560  1.00  0.00    -0.008 A 
ATOM      9  C   UNL A   1      31.170  23.198  25.127  1.00  0.00     0.065 C 
ATOM     10  C   UNL A   1      32.662  23.056  25.085  1.00  0.00     0.028 A 
ATOM     11  N   UNL A   1      33.360  21.969  24.530  1.00  0.00    -0.280 N 
ATOM     12  C   UNL A   1      34.874  23.467  25.322  1.00  0.00     0.008 A 
ATOM     13  C   UNL A   1      34.733  22.189  24.765  1.00  0.00     0.057 A 
ATOM     14  C   UNL A   1      36.177  23.976  25.554  1.00  0.00     0.056 A 
ATOM     15  C   UNL A   1      35.888  21.417  24.495  1.00  0.00     0.031 A 
ATOM     16  C   UNL A   1      37.283  23.146  25.398  1.00  0.00     0.116 A 
ATOM     17  C   UNL A   1      37.151  21.880  24.870  1.00  0.00     0.048 A 
BRANCH  11  18
ATOM     18  C   UNL A   1      32.795  20.880  23.797  1.00  0.00     0.262 C 
ATOM     19  O   UNL A   1      32.250  21.101  22.716  1.00  0.00    -0.268 OA
BRANCH  18  20
ATOM     20  C   UNL A   1      32.887  19.456  24.166  1.00  0.00     0.040 A 
ATOM     21  C   UNL A   1      33.039  18.465  23.190  1.00  0.00     0.015 A 
ATOM     22  C   UNL A   1      32.791  19.116  25.521  1.00  0.00     0.015 A 
ATOM     23  C   UNL A   1      32.989  17.120  23.569  1.00  0.00     0.021 A 
ATOM     24  C   UNL A   1      32.756  17.772  25.895  1.00  0.00     0.021 A 
ATOM     25  C   UNL A   1      32.830  16.781  24.915  1.00  0.00     0.041 A 
ATOM     26  Cl  UNL A   1      32.697  15.127  25.371  1.00  0.00    -0.084 Cl
ENDBRANCH  18  20
ENDBRANCH  11  18
BRANCH  16  27
ATOM     27  O   UNL A   1      38.489  23.592  25.851  1.00  0.00    -0.508 OA
ATOM     28  H   UNL A   1      39.120  22.982  26.183  1.00  0.00     0.293 HD
ENDBRANCH  16  27
ENDBRANCH   7   8
ENDBRANCH   5   7
ENDBRANCH   4   5
ENDBRANCH   3   4
ENDBRANCH   2   3
ENDBRANCH   1   2
BRANCH   1  29
ATOM     29  C   UNL A   1      33.484  30.018  26.843  1.00  0.00     0.202 C 
BRANCH  29  30
ATOM     30  C   UNL A   1      33.905  31.356  27.480  1.00  0.00     0.261 C 
BRANCH  30  31
ATOM     31  O   UNL A   1      35.305  31.448  27.720  1.00  0.00    -0.460 OA
BRANCH  31  32
ATOM     32  C   UNL A   1      35.624  31.914  28.962  1.00  0.00     0.338 C 
ATOM     33  O   UNL A   1      34.930  32.544  29.722  1.00  0.00    -0.246 OA
BRANCH  32  34
ATOM     34  C   UNL A   1      36.830  31.147  29.317  1.00  0.00     0.060 A 
ATOM     35  C   UNL A   1      37.973  31.819  29.758  1.00  0.00     0.016 A 
ATOM     36  C   UNL A   1      36.880  29.829  28.838  1.00  0.00     0.016 A 
ATOM     37  C   UNL A   1      39.197  31.182  29.641  1.00  0.00     0.010 A 
ATOM     38  C   UNL A   1      38.112  29.210  28.693  1.00  0.00     0.010 A 
ATOM     39  C   UNL A   1      39.268  29.899  29.067  1.00  0.00    -0.014 A 
BRANCH  39  40
ATOM     40  C   UNL A   1      40.540  29.190  29.167  1.00  0.00     0.031 A 
ATOM     41  C   UNL A   1      40.833  28.829  30.583  1.00  0.00     0.074 A 
ATOM     42  C   UNL A   1      41.299  28.763  28.138  1.00  0.00     0.049 A 
ATOM     43  N   UNL A   1      41.789  29.272  31.331  1.00  0.00    -0.248 NA
ATOM     44  C   UNL A   1      39.817  28.040  31.305  1.00  0.00     0.031 C 
ATOM     45  C   UNL A   1      40.992  28.794  26.707  1.00  0.00     0.029 A 
ATOM     46  N   UNL A   1      42.478  28.074  28.177  1.00  0.00    -0.354 N 
ATOM     47  C   UNL A   1      41.616  28.632  32.556  1.00  0.00     0.074 A 
ATOM     48  C   UNL A   1      40.297  28.059  32.547  1.00  0.00     0.031 C 
ATOM     49  C   UNL A   1      41.817  27.939  26.057  1.00  0.00     0.029 A 
ATOM     50  C   UNL A   1      42.781  27.392  26.997  1.00  0.00     0.049 A 
ATOM     51  H   UNL A   1      43.063  28.061  28.969  1.00  0.00     0.167 HD
ATOM     52  C   UNL A   1      42.657  28.391  33.395  1.00  0.00     0.034 A 
ATOM     53  C   UNL A   1      43.689  26.389  26.857  1.00  0.00     0.034 A 
ATOM     54  C   UNL A   1      43.809  29.178  33.071  1.00  0.00     0.049 A 
ATOM     55  C   UNL A   1      44.623  26.494  28.002  1.00  0.00     0.074 A 
ATOM     56  C   UNL A   1      44.081  30.531  33.001  1.00  0.00     0.029 A 
ATOM     57  N   UNL A   1      44.803  28.553  32.359  1.00  0.00    -0.354 N 
ATOM     58  N   UNL A   1      45.444  27.489  28.177  1.00  0.00    -0.248 NA
ATOM     59  C   UNL A   1      44.349  25.684  29.177  1.00  0.00     0.031 C 
ATOM     60  C   UNL A   1      44.931  30.675  31.868  1.00  0.00     0.029 A 
ATOM     61  C   UNL A   1      45.178  29.401  31.353  1.00  0.00     0.049 A 
ATOM     62  H   UNL A   1      45.175  27.660  32.539  1.00  0.00     0.167 HD
ATOM     63  C   UNL A   1      45.420  27.708  29.546  1.00  0.00     0.074 A 
ATOM     64  C   UNL A   1      44.808  26.511  30.118  1.00  0.00     0.031 C 
ATOM     65  C   UNL A   1      45.626  28.954  30.056  1.00  0.00     0.034 A 
BRANCH  52  66
ATOM     66  C   UNL A   1      42.744  27.167  34.265  1.00  0.00     0.023 A 
ATOM     67  C   UNL A   1      42.437  27.301  35.634  1.00  0.00     0.012 A 
ATOM     68  C   UNL A   1      43.365  25.966  33.851  1.00  0.00     0.148 A 
ATOM     69  C   UNL A   1      42.739  26.284  36.547  1.00  0.00     0.002 A 
ATOM     70  C   UNL A   1      43.590  24.930  34.746  1.00  0.00     0.091 A 
ATOM     71  F   UNL A   1      43.867  25.870  32.615  1.00  0.00    -0.205 F 
ATOM     72  C   UNL A   1      43.300  25.091  36.101  1.00  0.00     0.022 A 
BRANCH  70  73
ATOM     73  S   UNL A   1      44.287  23.363  34.212  1.00  0.00     0.127 S 
ATOM     74  O   UNL A   1      45.628  23.766  33.798  1.00  0.00    -0.237 OA
ATOM     75  O   UNL A   1      44.227  22.575  35.444  1.00  0.00    -0.237 OA
ATOM     76  O   UNL A   1      43.404  22.885  33.155  1.00  0.00    -0.744 OA
ENDBRANCH  70  73
ENDBRANCH  52  66
BRANCH  53  77
ATOM     77  C   UNL A   1      43.656  25.146  26.032  1.00  0.00     0.023 A 
ATOM     78  C   UNL A   1      44.721  24.894  25.134  1.00  0.00     0.012 A 
ATOM     79  C   UNL A   1      42.802  24.069  26.350  1.00  0.00     0.148 A 
ATOM     80  C   UNL A   1      44.974  23.606  24.642  1.00  0.00     0.002 A 
ATOM     81  C   UNL A   1      43.053  22.792  25.852  1.00  0.00     0.091 A 
ATOM     82  F   UNL A   1      41.806  24.266  27.221  1.00  0.00    -0.205 F 
ATOM     83  C   UNL A   1      44.150  22.551  25.015  1.00  0.00     0.022 A 
BRANCH  81  84
ATOM     84  S   UNL A   1      42.036  21.380  26.307  1.00  0.00     0.127 S 
ATOM     85  O   UNL A   1      42.287  21.270  27.744  1.00  0.00    -0.237 OA
ATOM     86  O   UNL A   1      40.698  21.846  25.953  1.00  0.00    -0.237 OA
ATOM     87  O   UNL A   1      42.545  20.260  25.525  1.00  0.00    -0.744 OA
ENDBRANCH  81  84
ENDBRANCH  53  77
BRANCH  65  88
ATOM     88  C   UNL A   1      46.147  30.020  29.129  1.00  0.00     0.023 A 
ATOM     89  C   UNL A   1      47.516  30.156  28.814  1.00  0.00     0.012 A 
ATOM     90  C   UNL A   1      45.201  30.778  28.424  1.00  0.00     0.148 A 
ATOM     91  C   UNL A   1      47.928  31.037  27.809  1.00  0.00     0.002 A 
ATOM     92  C   UNL A   1      45.611  31.621  27.402  1.00  0.00     0.091 A 
ATOM     93  F   UNL A   1      43.907  30.625  28.744  1.00  0.00    -0.205 F 
ATOM     94  C   UNL A   1      46.973  31.757  27.092  1.00  0.00     0.022 A 
BRANCH  92  95
ATOM     95  S   UNL A   1      44.426  32.494  26.378  1.00  0.00     0.127 S 
ATOM     96  O   UNL A   1      43.545  31.413  25.942  1.00  0.00    -0.237 OA
ATOM     97  O   UNL A   1      43.824  33.430  27.329  1.00  0.00    -0.237 OA
ATOM     98  O   UNL A   1      45.198  33.133  25.319  1.00  0.00    -0.744 OA
ENDBRANCH  92  95
ENDBRANCH  65  88
ENDBRANCH  39  40
ENDBRANCH  32  34
ENDBRANCH  31  32
ENDBRANCH  30  31
ENDBRANCH  29  30
ENDBRANCH   1  29
TORSDOF 21
ENDMDL
MODEL 2
REMARK VINA RESULT:     -11.4      3.449      6.993
REMARK SMILES Cc1c(CC(=O)OCCOCCOC(=O)c2ccc(-c3c4nc(c(-c5cccc(S(=O)(=O)[O-])c5F)c5ccc([nH]5)c(-c5cccc(S(=O)(=O)[O-])c5F)c5nc(c(-c6cccc(S(=O)(=O)[O-])c6F)c6ccc3[nH]6)C=C5)C=C4)cc2)c2cc(O)ccc2n1C(=O)c1ccc(Cl)cc1
REMARK SMILES IDX 10 1 9 2 8 3 7 4 5 5 6 6 4 7 3 8 1 9 2 10 86 11 79 12 85 13
REMARK SMILES IDX 80 14 84 15 81 16 83 17 87 18 88 19 89 20 90 21 95 22 91 23
REMARK SMILES IDX 94 24 92 25 93 26 82 27 11 29 12 30 13 31 14 32 15 33 16 34
REMARK SMILES IDX 17 35 78 36 18 37 77 38 19 39 20 40 21 41 71 42 22 43 76 44
REMARK SMILES IDX 70 45 72 46 23 47 75 48 69 49 68 50 24 52 56 53 36 54 55 55
REMARK SMILES IDX 37 56 40 57 54 58 73 59 38 60 39 61 53 63 74 64 41 65 25 66
REMARK SMILES IDX 26 67 34 68 27 69 29 70 35 71 28 72 30 73 31 74 32 75 33 76
REMARK SMILES IDX 57 77 58 78 66 79 59 80 61 81 67 82 60 83 62 84 63 85 64 86
REMARK SMILES IDX 65 87 42 88 43 89 51 90 44 91 46 92 52 93 45 94 47 95 48 96
REMARK SMILES IDX 49 97 50 98
REMARK H PARENT 82 28 72 51 40 62
REMARK Flexibility Score: inf
ROOT
ATOM      1  O   UNL A   1      32.647  30.620  27.272  1.00  0.00    -0.374 OA
ENDROOT
BRANCH   1   2
ATOM      2  C   UNL A   1      32.602  29.289  26.773  1.00  0.00     0.202 C 
BRANCH   2   3
ATOM      3  C   UNL A   1      32.598  29.020  25.257  1.00  0.00     0.261 C 
BRANCH   3   4
ATOM      4  O   UNL A   1      33.351  27.869  24.834  1.00  0.00    -0.463 OA
BRANCH   4   5
ATOM      5  C   UNL A   1      32.863  27.253  23.726  1.00  0.00     0.310 C 
ATOM      6  O   UNL A   1      31.912  27.671  23.067  1.00  0.00    -0.252 OA
BRANCH   5   7
ATOM      7  C   UNL A   1      33.568  25.982  23.306  1.00  0.00     0.160 C 
BRANCH   7   8
ATOM      8  C   UNL A   1      33.370  24.703  24.081  1.00  0.00    -0.008 A 
ATOM      9  C   UNL A   1      35.472  23.475  23.270  1.00  0.00     0.065 C 
ATOM     10  C   UNL A   1      34.232  23.614  24.102  1.00  0.00     0.028 A 
ATOM     11  N   UNL A   1      33.779  22.678  25.048  1.00  0.00    -0.280 N 
ATOM     12  C   UNL A   1      32.331  24.430  25.019  1.00  0.00     0.008 A 
ATOM     13  C   UNL A   1      32.547  23.149  25.547  1.00  0.00     0.057 A 
ATOM     14  C   UNL A   1      31.204  25.171  25.454  1.00  0.00     0.056 A 
ATOM     15  C   UNL A   1      31.611  22.607  26.459  1.00  0.00     0.031 A 
ATOM     16  C   UNL A   1      30.239  24.563  26.250  1.00  0.00     0.116 A 
ATOM     17  C   UNL A   1      30.433  23.296  26.756  1.00  0.00     0.048 A 
BRANCH  11  18
ATOM     18  C   UNL A   1      34.470  21.505  25.483  1.00  0.00     0.262 C 
ATOM     19  O   UNL A   1      35.369  21.610  26.316  1.00  0.00    -0.268 OA
BRANCH  18  20
ATOM     20  C   UNL A   1      34.140  20.121  25.098  1.00  0.00     0.040 A 
ATOM     21  C   UNL A   1      32.817  19.666  25.104  1.00  0.00     0.015 A 
ATOM     22  C   UNL A   1      35.190  19.262  24.752  1.00  0.00     0.015 A 
ATOM     23  C   UNL A   1      32.560  18.312  24.862  1.00  0.00     0.021 A 
ATOM     24  C   UNL A   1      34.926  17.915  24.497  1.00  0.00     0.021 A 
ATOM     25  C   UNL A   1      33.615  17.442  24.578  1.00  0.00     0.041 A 
ATOM     26  Cl  UNL A   1      33.304  15.765  24.351  1.00  0.00    -0.084 Cl
ENDBRANCH  18  20
ENDBRANCH  11  18
BRANCH  16  27
ATOM     27  O   UNL A   1      29.064  25.224  26.453  1.00  0.00    -0.508 OA
ATOM     28  H   UNL A   1      29.072  26.125  26.712  1.00  0.00     0.293 HD
ENDBRANCH  16  27
ENDBRANCH   7   8
ENDBRANCH   5   7
ENDBRANCH   4   5
ENDBRANCH   3   4
ENDBRANCH   2   3
ENDBRANCH   1   2
BRANCH   1  29
ATOM     29  C   UNL A   1      31.800  31.588  26.662  1.00  0.00     0.202 C 
BRANCH  29  30
ATOM     30  C   UNL A   1      31.972  33.084  26.989  1.00  0.00     0.261 C 
BRANCH  30  31
ATOM     31  O   UNL A   1      32.381  33.321  28.332  1.00  0.00    -0.460 OA
BRANCH  31  32
ATOM     32  C   UNL A   1      32.908  34.563  28.538  1.00  0.00     0.338 C 
ATOM     33  O   UNL A   1      32.320  35.597  28.739  1.00  0.00    -0.246 OA
BRANCH  32  34
ATOM     34  C   UNL A   1      34.320  34.289  28.853  1.00  0.00     0.060 A 
ATOM     35  C   UNL A   1      35.259  34.222  27.820  1.00  0.00     0.016 A 
ATOM     36  C   UNL A   1      34.569  33.745  30.121  1.00  0.00     0.016 A 
ATOM     37  C   UNL A   1      36.436  33.528  28.045  1.00  0.00     0.010 A 
ATOM     38  C   UNL A   1      35.735  33.023  30.329  1.00  0.00     0.010 A 
ATOM     39  C   UNL A   1      36.649  32.893  29.282  1.00  0.00    -0.014 A 
BRANCH  39  40
ATOM     40  C   UNL A   1      37.986  32.365  29.542  1.00  0.00     0.031 A 
ATOM     41  C   UNL A   1      38.071  30.929  29.152  1.00  0.00     0.074 A 
ATOM     42  C   UNL A   1      39.064  33.076  29.930  1.00  0.00     0.049 A 
ATOM     43  N   UNL A   1      38.249  29.908  29.925  1.00  0.00    -0.248 NA
ATOM     44  C   UNL A   1      37.708  30.581  27.766  1.00  0.00     0.031 C 
ATOM     45  C   UNL A   1      39.194  34.527  30.068  1.00  0.00     0.029 A 
ATOM     46  N   UNL A   1      40.337  32.637  30.158  1.00  0.00    -0.354 N 
ATOM     47  C   UNL A   1      38.245  28.806  29.075  1.00  0.00     0.074 A 
ATOM     48  C   UNL A   1      37.713  29.249  27.815  1.00  0.00     0.031 C 
ATOM     49  C   UNL A   1      40.509  34.855  30.099  1.00  0.00     0.029 A 
ATOM     50  C   UNL A   1      41.306  33.640  30.100  1.00  0.00     0.049 A 
ATOM     51  H   UNL A   1      40.552  31.695  30.348  1.00  0.00     0.167 HD
ATOM     52  C   UNL A   1      38.918  27.664  29.374  1.00  0.00     0.034 A 
ATOM     53  C   UNL A   1      42.648  33.458  29.963  1.00  0.00     0.034 A 
ATOM     54  C   UNL A   1      39.276  27.592  30.760  1.00  0.00     0.049 A 
ATOM     55  C   UNL A   1      42.935  32.067  30.385  1.00  0.00     0.074 A 
ATOM     56  C   UNL A   1      38.576  27.581  31.950  1.00  0.00     0.029 A 
ATOM     57  N   UNL A   1      40.569  27.923  31.081  1.00  0.00    -0.354 N 
ATOM     58  N   UNL A   1      42.796  31.638  31.606  1.00  0.00    -0.248 NA
ATOM     59  C   UNL A   1      42.988  31.043  29.355  1.00  0.00     0.031 C 
ATOM     60  C   UNL A   1      39.360  28.366  32.842  1.00  0.00     0.029 A 
ATOM     61  C   UNL A   1      40.518  28.755  32.166  1.00  0.00     0.049 A 
ATOM     62  H   UNL A   1      41.381  27.620  30.615  1.00  0.00     0.167 HD
ATOM     63  C   UNL A   1      42.282  30.359  31.456  1.00  0.00     0.074 A 
ATOM     64  C   UNL A   1      42.513  30.011  30.056  1.00  0.00     0.031 C 
ATOM     65  C   UNL A   1      41.461  29.822  32.401  1.00  0.00     0.034 A 
BRANCH  52  66
ATOM     66  C   UNL A   1      39.577  26.802  28.332  1.00  0.00     0.023 A 
ATOM     67  C   UNL A   1      39.322  25.417  28.357  1.00  0.00     0.012 A 
ATOM     68  C   UNL A   1      40.633  27.256  27.508  1.00  0.00     0.148 A 
ATOM     69  C   UNL A   1      40.086  24.525  27.596  1.00  0.00     0.002 A 
ATOM     70  C   UNL A   1      41.336  26.378  26.696  1.00  0.00     0.091 A 
ATOM     71  F   UNL A   1      41.055  28.521  27.606  1.00  0.00    -0.205 F 
ATOM     72  C   UNL A   1      41.083  25.006  26.752  1.00  0.00     0.022 A 
BRANCH  70  73
ATOM     73  S   UNL A   1      42.612  26.956  25.572  1.00  0.00     0.127 S 
ATOM     74  O   UNL A   1      43.694  27.275  26.498  1.00  0.00    -0.237 OA
ATOM     75  O   UNL A   1      42.834  25.773  24.739  1.00  0.00    -0.237 OA
ATOM     76  O   UNL A   1      42.021  28.082  24.861  1.00  0.00    -0.744 OA
ENDBRANCH  70  73
ENDBRANCH  52  66
BRANCH  53  77
ATOM     77  C   UNL A   1      43.668  34.232  29.199  1.00  0.00     0.023 A 
ATOM     78  C   UNL A   1      44.643  34.969  29.915  1.00  0.00     0.012 A 
ATOM     79  C   UNL A   1      43.908  33.992  27.830  1.00  0.00     0.148 A 
ATOM     80  C   UNL A   1      45.842  35.374  29.312  1.00  0.00     0.002 A 
ATOM     81  C   UNL A   1      45.098  34.405  27.233  1.00  0.00     0.091 A 
ATOM     82  F   UNL A   1      43.023  33.271  27.133  1.00  0.00    -0.205 F 
ATOM     83  C   UNL A   1      46.077  35.077  27.975  1.00  0.00     0.022 A 
BRANCH  81  84
ATOM     84  S   UNL A   1      45.473  34.038  25.512  1.00  0.00     0.127 S 
ATOM     85  O   UNL A   1      45.428  32.576  25.492  1.00  0.00    -0.237 OA
ATOM     86  O   UNL A   1      44.369  34.694  24.817  1.00  0.00    -0.237 OA
ATOM     87  O   UNL A   1      46.797  34.598  25.271  1.00  0.00    -0.744 OA
ENDBRANCH  81  84
ENDBRANCH  53  77
BRANCH  65  88
ATOM     88  C   UNL A   1      41.346  30.532  33.723  1.00  0.00     0.023 A 
ATOM     89  C   UNL A   1      42.280  30.360  34.767  1.00  0.00     0.012 A 
ATOM     90  C   UNL A   1      40.369  31.533  33.833  1.00  0.00     0.148 A 
ATOM     91  C   UNL A   1      42.235  31.178  35.900  1.00  0.00     0.002 A 
ATOM     92  C   UNL A   1      40.353  32.367  34.941  1.00  0.00     0.091 A 
ATOM     93  F   UNL A   1      39.497  31.675  32.823  1.00  0.00    -0.205 F 
ATOM     94  C   UNL A   1      41.281  32.192  35.980  1.00  0.00     0.022 A 
BRANCH  92  95
ATOM     95  S   UNL A   1      39.219  33.751  35.053  1.00  0.00     0.127 S 
ATOM     96  O   UNL A   1      37.926  33.078  35.163  1.00  0.00    -0.237 OA
ATOM     97  O   UNL A   1      39.667  34.420  36.276  1.00  0.00    -0.237 OA
ATOM     98  O   UNL A   1      39.411  34.533  33.838  1.00  0.00    -0.744 OA
ENDBRANCH  92  95
ENDBRANCH  65  88
ENDBRANCH  39  40
ENDBRANCH  32  34
ENDBRANCH  31  32
ENDBRANCH  30  31
ENDBRANCH  29  30
ENDBRANCH   1  29
TORSDOF 21
ENDMDL
MODEL 3
REMARK VINA RESULT:     -11.2      1.695      2.372
REMARK SMILES Cc1c(CC(=O)OCCOCCOC(=O)c2ccc(-c3c4nc(c(-c5cccc(S(=O)(=O)[O-])c5F)c5ccc([nH]5)c(-c5cccc(S(=O)(=O)[O-])c5F)c5nc(c(-c6cccc(S(=O)(=O)[O-])c6F)c6ccc3[nH]6)C=C5)C=C4)cc2)c2cc(O)ccc2n1C(=O)c1ccc(Cl)cc1
REMARK SMILES IDX 10 1 9 2 8 3 7 4 5 5 6 6 4 7 3 8 1 9 2 10 86 11 79 12 85 13
REMARK SMILES IDX 80 14 84 15 81 16 83 17 87 18 88 19 89 20 90 21 95 22 91 23
REMARK SMILES IDX 94 24 92 25 93 26 82 27 11 29 12 30 13 31 14 32 15 33 16 34
REMARK SMILES IDX 17 35 78 36 18 37 77 38 19 39 20 40 21 41 71 42 22 43 76 44
REMARK SMILES IDX 70 45 72 46 23 47 75 48 69 49 68 50 24 52 56 53 36 54 55 55
REMARK SMILES IDX 37 56 40 57 54 58 73 59 38 60 39 61 53 63 74 64 41 65 25 66
REMARK SMILES IDX 26 67 34 68 27 69 29 70 35 71 28 72 30 73 31 74 32 75 33 76
REMARK SMILES IDX 57 77 58 78 66 79 59 80 61 81 67 82 60 83 62 84 63 85 64 86
REMARK SMILES IDX 65 87 42 88 43 89 51 90 44 91 46 92 52 93 45 94 47 95 48 96
REMARK SMILES IDX 49 97 50 98
REMARK H PARENT 82 28 72 51 40 62
REMARK Flexibility Score: inf
ROOT
ATOM      1  O   UNL A   1      34.541  30.323  26.880  1.00  0.00    -0.374 OA
ENDROOT
BRANCH   1   2
ATOM      2  C   UNL A   1      34.225  28.954  27.098  1.00  0.00     0.202 C 
BRANCH   2   3
ATOM      3  C   UNL A   1      33.223  28.225  26.183  1.00  0.00     0.261 C 
BRANCH   3   4
ATOM      4  O   UNL A   1      33.145  26.800  26.368  1.00  0.00    -0.463 OA
BRANCH   4   5
ATOM      5  C   UNL A   1      31.924  26.350  26.759  1.00  0.00     0.310 C 
ATOM      6  O   UNL A   1      31.035  27.071  27.209  1.00  0.00    -0.252 OA
BRANCH   5   7
ATOM      7  C   UNL A   1      31.683  24.865  26.607  1.00  0.00     0.160 C 
BRANCH   7   8
ATOM      8  C   UNL A   1      32.576  24.029  25.724  1.00  0.00    -0.008 A 
ATOM      9  C   UNL A   1      33.685  22.634  27.570  1.00  0.00     0.065 C 
ATOM     10  C   UNL A   1      33.427  23.013  26.143  1.00  0.00     0.028 A 
ATOM     11  N   UNL A   1      33.980  22.375  25.019  1.00  0.00    -0.280 N 
ATOM     12  C   UNL A   1      32.621  24.048  24.299  1.00  0.00     0.008 A 
ATOM     13  C   UNL A   1      33.548  23.084  23.879  1.00  0.00     0.057 A 
ATOM     14  C   UNL A   1      31.951  24.827  23.323  1.00  0.00     0.056 A 
ATOM     15  C   UNL A   1      33.831  22.947  22.500  1.00  0.00     0.031 A 
ATOM     16  C   UNL A   1      32.344  24.757  21.990  1.00  0.00     0.116 A 
ATOM     17  C   UNL A   1      33.270  23.827  21.572  1.00  0.00     0.048 A 
BRANCH  11  18
ATOM     18  C   UNL A   1      34.773  21.186  25.021  1.00  0.00     0.262 C 
ATOM     19  O   UNL A   1      35.983  21.269  25.228  1.00  0.00    -0.268 OA
BRANCH  18  20
ATOM     20  C   UNL A   1      34.258  19.810  24.895  1.00  0.00     0.040 A 
ATOM     21  C   UNL A   1      32.905  19.523  25.107  1.00  0.00     0.015 A 
ATOM     22  C   UNL A   1      35.165  18.790  24.585  1.00  0.00     0.015 A 
ATOM     23  C   UNL A   1      32.483  18.190  25.110  1.00  0.00     0.021 A 
ATOM     24  C   UNL A   1      34.735  17.462  24.574  1.00  0.00     0.021 A 
ATOM     25  C   UNL A   1      33.402  17.167  24.861  1.00  0.00     0.041 A 
ATOM     26  Cl  UNL A   1      32.894  15.524  24.936  1.00  0.00    -0.084 Cl
ENDBRANCH  18  20
ENDBRANCH  11  18
BRANCH  16  27
ATOM     27  O   UNL A   1      31.844  25.684  21.124  1.00  0.00    -0.508 OA
ATOM     28  H   UNL A   1      30.921  25.849  21.095  1.00  0.00     0.293 HD
ENDBRANCH  16  27
ENDBRANCH   7   8
ENDBRANCH   5   7
ENDBRANCH   4   5
ENDBRANCH   3   4
ENDBRANCH   2   3
ENDBRANCH   1   2
BRANCH   1  29
ATOM     29  C   UNL A   1      33.707  31.303  27.486  1.00  0.00     0.202 C 
BRANCH  29  30
ATOM     30  C   UNL A   1      34.290  32.288  28.518  1.00  0.00     0.261 C 
BRANCH  30  31
ATOM     31  O   UNL A   1      35.070  31.649  29.524  1.00  0.00    -0.460 OA
BRANCH  31  32
ATOM     32  C   UNL A   1      36.116  32.401  29.972  1.00  0.00     0.338 C 
ATOM     33  O   UNL A   1      36.091  33.323  30.750  1.00  0.00    -0.246 OA
BRANCH  32  34
ATOM     34  C   UNL A   1      37.296  31.595  29.616  1.00  0.00     0.060 A 
ATOM     35  C   UNL A   1      37.167  30.212  29.457  1.00  0.00     0.016 A 
ATOM     36  C   UNL A   1      38.541  32.207  29.823  1.00  0.00     0.016 A 
ATOM     37  C   UNL A   1      38.300  29.427  29.587  1.00  0.00     0.010 A 
ATOM     38  C   UNL A   1      39.665  31.412  29.985  1.00  0.00     0.010 A 
ATOM     39  C   UNL A   1      39.536  30.024  29.896  1.00  0.00    -0.014 A 
BRANCH  39  40
ATOM     40  C   UNL A   1      40.726  29.184  29.807  1.00  0.00     0.031 A 
ATOM     41  C   UNL A   1      41.200  28.795  31.165  1.00  0.00     0.074 A 
ATOM     42  C   UNL A   1      41.264  28.678  28.678  1.00  0.00     0.049 A 
ATOM     43  N   UNL A   1      42.304  29.135  31.746  1.00  0.00    -0.248 NA
ATOM     44  C   UNL A   1      40.235  28.119  32.052  1.00  0.00     0.031 C 
ATOM     45  C   UNL A   1      40.739  28.740  27.314  1.00  0.00     0.029 A 
ATOM     46  N   UNL A   1      42.356  27.867  28.544  1.00  0.00    -0.354 N 
ATOM     47  C   UNL A   1      42.261  28.518  32.993  1.00  0.00     0.074 A 
ATOM     48  C   UNL A   1      40.905  28.088  33.202  1.00  0.00     0.031 C 
ATOM     49  C   UNL A   1      41.357  27.801  26.557  1.00  0.00     0.029 A 
ATOM     50  C   UNL A   1      42.394  27.156  27.343  1.00  0.00     0.049 A 
ATOM     51  H   UNL A   1      43.054  27.793  29.234  1.00  0.00     0.167 HD
ATOM     52  C   UNL A   1      43.391  28.168  33.663  1.00  0.00     0.034 A 
ATOM     53  C   UNL A   1      43.159  26.062  27.080  1.00  0.00     0.034 A 
ATOM     54  C   UNL A   1      44.553  28.829  33.147  1.00  0.00     0.049 A 
ATOM     55  C   UNL A   1      44.268  26.069  28.061  1.00  0.00     0.074 A 
ATOM     56  C   UNL A   1      44.950  30.144  33.012  1.00  0.00     0.029 A 
ATOM     57  N   UNL A   1      45.351  28.101  32.299  1.00  0.00    -0.354 N 
ATOM     58  N   UNL A   1      45.206  26.971  28.087  1.00  0.00    -0.248 NA
ATOM     59  C   UNL A   1      44.100  25.293  29.280  1.00  0.00     0.031 C 
ATOM     60  C   UNL A   1      45.620  30.196  31.756  1.00  0.00     0.029 A 
ATOM     61  C   UNL A   1      45.648  28.903  31.231  1.00  0.00     0.049 A 
ATOM     62  H   UNL A   1      45.651  27.173  32.434  1.00  0.00     0.167 HD
ATOM     63  C   UNL A   1      45.422  27.192  29.439  1.00  0.00     0.074 A 
ATOM     64  C   UNL A   1      44.787  26.068  30.122  1.00  0.00     0.031 C 
ATOM     65  C   UNL A   1      45.836  28.410  29.888  1.00  0.00     0.034 A 
BRANCH  52  66
ATOM     66  C   UNL A   1      43.485  26.943  34.530  1.00  0.00     0.023 A 
ATOM     67  C   UNL A   1      42.766  25.796  34.142  1.00  0.00     0.012 A 
ATOM     68  C   UNL A   1      44.032  26.959  35.834  1.00  0.00     0.148 A 
ATOM     69  C   UNL A   1      42.597  24.716  35.015  1.00  0.00     0.002 A 
ATOM     70  C   UNL A   1      43.928  25.855  36.668  1.00  0.00     0.091 A 
ATOM     71  F   UNL A   1      44.537  28.094  36.328  1.00  0.00    -0.205 F 
ATOM     72  C   UNL A   1      43.192  24.737  36.273  1.00  0.00     0.022 A 
BRANCH  70  73
ATOM     73  S   UNL A   1      44.702  25.827  38.288  1.00  0.00     0.127 S 
ATOM     74  O   UNL A   1      46.007  26.415  37.999  1.00  0.00    -0.237 OA
ATOM     75  O   UNL A   1      43.797  26.673  39.066  1.00  0.00    -0.237 OA
ATOM     76  O   UNL A   1      44.704  24.426  38.693  1.00  0.00    -0.744 OA
ENDBRANCH  70  73
ENDBRANCH  52  66
BRANCH  53  77
ATOM     77  C   UNL A   1      42.866  24.829  26.293  1.00  0.00     0.023 A 
ATOM     78  C   UNL A   1      43.819  24.379  25.348  1.00  0.00     0.012 A 
ATOM     79  C   UNL A   1      41.858  23.923  26.684  1.00  0.00     0.148 A 
ATOM     80  C   UNL A   1      43.818  23.058  24.879  1.00  0.00     0.002 A 
ATOM     81  C   UNL A   1      41.857  22.612  26.209  1.00  0.00     0.091 A 
ATOM     82  F   UNL A   1      40.961  24.305  27.600  1.00  0.00    -0.205 F 
ATOM     83  C   UNL A   1      42.846  22.169  25.323  1.00  0.00     0.022 A 
BRANCH  81  84
ATOM     84  S   UNL A   1      40.638  21.407  26.756  1.00  0.00     0.127 S 
ATOM     85  O   UNL A   1      40.766  21.479  28.212  1.00  0.00    -0.237 OA
ATOM     86  O   UNL A   1      39.399  21.967  26.222  1.00  0.00    -0.237 OA
ATOM     87  O   UNL A   1      41.059  20.135  26.182  1.00  0.00    -0.744 OA
ENDBRANCH  81  84
ENDBRANCH  53  77
BRANCH  65  88
ATOM     88  C   UNL A   1      46.313  29.413  28.872  1.00  0.00     0.023 A 
ATOM     89  C   UNL A   1      47.620  29.400  28.339  1.00  0.00     0.012 A 
ATOM     90  C   UNL A   1      45.353  30.271  28.315  1.00  0.00     0.148 A 
ATOM     91  C   UNL A   1      47.956  30.231  27.267  1.00  0.00     0.002 A 
ATOM     92  C   UNL A   1      45.680  31.065  27.227  1.00  0.00     0.091 A 
ATOM     93  F   UNL A   1      44.118  30.259  28.841  1.00  0.00    -0.205 F 
ATOM     94  C   UNL A   1      46.981  31.052  26.700  1.00  0.00     0.022 A 
BRANCH  92  95
ATOM     95  S   UNL A   1      44.447  32.063  26.392  1.00  0.00     0.127 S 
ATOM     96  O   UNL A   1      45.208  32.615  25.273  1.00  0.00    -0.237 OA
ATOM     97  O   UNL A   1      43.443  31.067  26.018  1.00  0.00    -0.237 OA
ATOM     98  O   UNL A   1      43.985  33.040  27.371  1.00  0.00    -0.744 OA
ENDBRANCH  92  95
ENDBRANCH  65  88
ENDBRANCH  39  40
ENDBRANCH  32  34
ENDBRANCH  31  32
ENDBRANCH  30  31
ENDBRANCH  29  30
ENDBRANCH   1  29
TORSDOF 21
ENDMDL
