MODEL 1
REMARK VINA RESULT:     -11.2      0.000      0.000
REMARK SMILES COc1ccc(C(=O)OCCOCCOC(=O)c2ccc(-c3c4nc(c(-c5cccc(S(=O)(=O)[O-])c5F)c5ccc([nH]5)c(-c5cccc(S(=O)(=O)[O-])c5F)c5nc(c(-c6cccc(S(=O)(=O)[O-])c6F)c6ccc3[nH]6)C=C5)C=C4)cc2)cc1NC(=S)NC(=O)c1cccc(C)c1OC
REMARK SMILES IDX 11 1 10 2 9 3 7 4 8 5 6 6 3 7 4 8 82 9 5 10 81 11 2 12 1 13
REMARK SMILES IDX 83 14 84 16 85 17 86 18 87 19 88 21 89 22 90 23 95 24 91 25
REMARK SMILES IDX 93 26 92 27 94 28 96 29 97 30 12 31 13 32 14 33 15 34 16 35
REMARK SMILES IDX 17 36 18 37 19 38 80 39 20 40 79 41 21 42 22 43 23 44 73 45
REMARK SMILES IDX 24 46 78 47 72 48 74 49 25 50 77 51 71 52 70 53 26 55 58 56
REMARK SMILES IDX 38 57 57 58 39 59 42 60 56 61 75 62 40 63 41 64 55 66 76 67
REMARK SMILES IDX 43 68 27 69 28 70 36 71 29 72 31 73 37 74 30 75 32 76 33 77
REMARK SMILES IDX 34 78 35 79 59 80 60 81 68 82 61 83 63 84 69 85 62 86 64 87
REMARK SMILES IDX 65 88 66 89 67 90 44 91 45 92 53 93 46 94 48 95 54 96 47 97
REMARK SMILES IDX 49 98 50 99 51 100 52 101
REMARK H PARENT 83 15 86 20 74 54 42 65
REMARK Flexibility Score: inf
ROOT
ATOM      1  C   UNL A   1      33.062  29.153  26.878  1.00  0.00     0.202 C 
ENDROOT
BRANCH   1   2
ATOM      2  C   UNL A   1      32.414  27.890  26.255  1.00  0.00     0.261 C 
BRANCH   2   3
ATOM      3  O   UNL A   1      33.269  26.719  26.450  1.00  0.00    -0.460 OA
BRANCH   3   4
ATOM      4  C   UNL A   1      34.220  26.133  25.423  1.00  0.00     0.338 C 
ATOM      5  O   UNL A   1      34.198  27.045  24.557  1.00  0.00    -0.246 OA
BRANCH   4   6
ATOM      6  C   UNL A   1      35.246  24.243  25.594  1.00  0.00     0.062 A 
ATOM      7  C   UNL A   1      36.045  21.411  25.152  1.00  0.00     0.142 A 
ATOM      8  C   UNL A   1      36.980  22.391  24.932  1.00  0.00     0.049 A 
ATOM      9  C   UNL A   1      34.914  21.759  25.843  1.00  0.00     0.084 A 
ATOM     10  C   UNL A   1      36.577  23.736  25.102  1.00  0.00     0.019 A 
ATOM     11  C   UNL A   1      34.870  23.033  26.344  1.00  0.00     0.045 A 
BRANCH   7  12
ATOM     12  O   UNL A   1      36.285  20.144  24.728  1.00  0.00    -0.495 OA
ATOM     13  C   UNL A   1      37.671  19.849  24.912  1.00  0.00     0.278 C 
ENDBRANCH   7  12
BRANCH   9  14
ATOM     14  N   UNL A   1      33.833  20.909  26.071  1.00  0.00    -0.329 N 
ATOM     15  H   UNL A   1      33.458  20.983  26.978  1.00  0.00     0.169 HD
BRANCH  14  16
ATOM     16  C   UNL A   1      33.195  20.002  25.293  1.00  0.00     0.177 C 
ATOM     17  S   UNL A   1      32.858  18.523  26.013  1.00  0.00    -0.040 S 
BRANCH  16  18
ATOM     18  N   UNL A   1      32.808  20.146  23.966  1.00  0.00    -0.299 N 
ATOM     19  C   UNL A   1      32.320  20.998  22.937  1.00  0.00     0.261 C 
ATOM     20  H   UNL A   1      32.922  19.260  23.552  1.00  0.00     0.172 HD
ATOM     21  O   UNL A   1      31.885  20.511  21.896  1.00  0.00    -0.269 OA
BRANCH  19  22
ATOM     22  C   UNL A   1      32.199  22.455  23.102  1.00  0.00     0.082 A 
ATOM     23  C   UNL A   1      32.926  23.489  21.732  1.00  0.00     0.018 A 
ATOM     24  C   UNL A   1      31.190  23.260  24.358  1.00  0.00     0.134 A 
ATOM     25  C   UNL A   1      32.709  25.304  21.745  1.00  0.00     0.001 A 
ATOM     26  C   UNL A   1      30.922  25.051  24.319  1.00  0.00    -0.008 A 
ATOM     27  C   UNL A   1      31.751  26.098  23.067  1.00  0.00     0.007 A 
ATOM     28  C   UNL A   1      29.768  25.614  25.103  1.00  0.00     0.048 C 
BRANCH  24  29
ATOM     29  O   UNL A   1      30.489  22.665  25.371  1.00  0.00    -0.496 OA
ATOM     30  C   UNL A   1      31.006  22.758  26.683  1.00  0.00     0.278 C 
ENDBRANCH  24  29
ENDBRANCH  19  22
ENDBRANCH  16  18
ENDBRANCH  14  16
ENDBRANCH   9  14
ENDBRANCH   4   6
ENDBRANCH   3   4
ENDBRANCH   2   3
ENDBRANCH   1   2
BRANCH   1  31
ATOM     31  O   UNL A   1      32.869  30.430  26.246  1.00  0.00    -0.374 OA
BRANCH  31  32
ATOM     32  C   UNL A   1      31.605  31.034  26.461  1.00  0.00     0.202 C 
BRANCH  32  33
ATOM     33  C   UNL A   1      31.543  32.511  26.894  1.00  0.00     0.261 C 
BRANCH  33  34
ATOM     34  O   UNL A   1      32.777  33.226  26.712  1.00  0.00    -0.460 OA
BRANCH  34  35
ATOM     35  C   UNL A   1      33.332  33.641  27.875  1.00  0.00     0.338 C 
ATOM     36  O   UNL A   1      32.827  34.399  28.688  1.00  0.00    -0.246 OA
BRANCH  35  37
ATOM     37  C   UNL A   1      34.596  32.937  28.159  1.00  0.00     0.060 A 
ATOM     38  C   UNL A   1      34.481  31.684  28.771  1.00  0.00     0.016 A 
ATOM     39  C   UNL A   1      35.846  33.534  27.995  1.00  0.00     0.016 A 
ATOM     40  C   UNL A   1      35.603  31.063  29.308  1.00  0.00     0.010 A 
ATOM     41  C   UNL A   1      36.976  32.903  28.532  1.00  0.00     0.010 A 
ATOM     42  C   UNL A   1      36.853  31.690  29.239  1.00  0.00    -0.014 A 
BRANCH  42  43
ATOM     43  C   UNL A   1      37.993  31.119  30.002  1.00  0.00     0.031 A 
ATOM     44  C   UNL A   1      38.897  30.103  29.352  1.00  0.00     0.074 A 
ATOM     45  C   UNL A   1      38.246  31.535  31.257  1.00  0.00     0.049 A 
ATOM     46  N   UNL A   1      39.924  29.470  29.856  1.00  0.00    -0.248 NA
ATOM     47  C   UNL A   1      38.606  29.751  27.951  1.00  0.00     0.031 C 
ATOM     48  C   UNL A   1      37.463  32.530  31.988  1.00  0.00     0.029 A 
ATOM     49  N   UNL A   1      39.223  31.156  32.146  1.00  0.00    -0.354 N 
ATOM     50  C   UNL A   1      40.377  28.616  28.856  1.00  0.00     0.074 A 
ATOM     51  C   UNL A   1      39.512  28.811  27.714  1.00  0.00     0.031 C 
ATOM     52  C   UNL A   1      37.977  32.670  33.222  1.00  0.00     0.029 A 
ATOM     53  C   UNL A   1      39.090  31.739  33.384  1.00  0.00     0.049 A 
ATOM     54  H   UNL A   1      39.948  30.529  31.918  1.00  0.00     0.167 HD
ATOM     55  C   UNL A   1      41.419  27.752  28.888  1.00  0.00     0.034 A 
ATOM     56  C   UNL A   1      39.760  31.517  34.533  1.00  0.00     0.034 A 
ATOM     57  C   UNL A   1      42.287  27.570  30.022  1.00  0.00     0.049 A 
ATOM     58  C   UNL A   1      40.881  30.511  34.549  1.00  0.00     0.074 A 
ATOM     59  C   UNL A   1      43.400  26.754  30.125  1.00  0.00     0.029 A 
ATOM     60  N   UNL A   1      42.126  28.184  31.253  1.00  0.00    -0.354 N 
ATOM     61  N   UNL A   1      41.354  29.783  33.568  1.00  0.00    -0.248 NA
ATOM     62  C   UNL A   1      41.584  30.319  35.827  1.00  0.00     0.031 C 
ATOM     63  C   UNL A   1      43.868  26.820  31.440  1.00  0.00     0.029 A 
ATOM     64  C   UNL A   1      43.100  27.741  32.131  1.00  0.00     0.049 A 
ATOM     65  H   UNL A   1      41.422  28.837  31.471  1.00  0.00     0.167 HD
ATOM     66  C   UNL A   1      42.433  29.083  34.097  1.00  0.00     0.074 A 
ATOM     67  C   UNL A   1      42.557  29.490  35.480  1.00  0.00     0.031 C 
ATOM     68  C   UNL A   1      43.246  28.182  33.493  1.00  0.00     0.034 A 
BRANCH  55  69
ATOM     69  C   UNL A   1      41.687  26.910  27.666  1.00  0.00     0.023 A 
ATOM     70  C   UNL A   1      42.363  27.457  26.558  1.00  0.00     0.012 A 
ATOM     71  C   UNL A   1      41.358  25.540  27.667  1.00  0.00     0.148 A 
ATOM     72  C   UNL A   1      42.685  26.659  25.459  1.00  0.00     0.002 A 
ATOM     73  C   UNL A   1      41.724  24.740  26.594  1.00  0.00     0.091 A 
ATOM     74  F   UNL A   1      40.705  25.042  28.727  1.00  0.00    -0.205 F 
ATOM     75  C   UNL A   1      42.378  25.300  25.483  1.00  0.00     0.022 A 
BRANCH  73  76
ATOM     76  S   UNL A   1      41.448  22.966  26.565  1.00  0.00     0.127 S 
ATOM     77  O   UNL A   1      42.082  22.549  27.816  1.00  0.00    -0.237 OA
ATOM     78  O   UNL A   1      39.988  22.884  26.566  1.00  0.00    -0.237 OA
ATOM     79  O   UNL A   1      42.089  22.473  25.355  1.00  0.00    -0.744 OA
ENDBRANCH  73  76
ENDBRANCH  55  69
BRANCH  56  80
ATOM     80  C   UNL A   1      39.376  32.236  35.781  1.00  0.00     0.023 A 
ATOM     81  C   UNL A   1      38.435  31.669  36.662  1.00  0.00     0.012 A 
ATOM     82  C   UNL A   1      39.912  33.505  36.076  1.00  0.00     0.148 A 
ATOM     83  C   UNL A   1      37.993  32.376  37.781  1.00  0.00     0.002 A 
ATOM     84  C   UNL A   1      39.517  34.175  37.226  1.00  0.00     0.091 A 
ATOM     85  F   UNL A   1      40.799  34.033  35.221  1.00  0.00    -0.205 F 
ATOM     86  C   UNL A   1      38.539  33.624  38.067  1.00  0.00     0.022 A 
BRANCH  84  87
ATOM     87  S   UNL A   1      40.255  35.731  37.733  1.00  0.00     0.127 S 
ATOM     88  O   UNL A   1      41.672  35.382  37.799  1.00  0.00    -0.237 OA
ATOM     89  O   UNL A   1      39.888  36.613  36.625  1.00  0.00    -0.237 OA
ATOM     90  O   UNL A   1      39.632  36.071  39.004  1.00  0.00    -0.744 OA
ENDBRANCH  84  87
ENDBRANCH  56  80
BRANCH  68  91
ATOM     91  C   UNL A   1      44.395  27.623  34.292  1.00  0.00     0.023 A 
ATOM     92  C   UNL A   1      45.639  28.285  34.324  1.00  0.00     0.012 A 
ATOM     93  C   UNL A   1      44.216  26.458  35.064  1.00  0.00     0.148 A 
ATOM     94  C   UNL A   1      46.697  27.770  35.073  1.00  0.00     0.002 A 
ATOM     95  C   UNL A   1      45.253  25.984  35.855  1.00  0.00     0.091 A 
ATOM     96  F   UNL A   1      43.028  25.835  35.012  1.00  0.00    -0.205 F 
ATOM     97  C   UNL A   1      46.500  26.627  35.848  1.00  0.00     0.022 A 
BRANCH  95  98
ATOM     98  S   UNL A   1      45.063  24.578  36.956  1.00  0.00     0.127 S 
ATOM     99  O   UNL A   1      44.660  23.525  36.025  1.00  0.00    -0.237 OA
ATOM    100  O   UNL A   1      46.414  24.429  37.498  1.00  0.00    -0.237 OA
ATOM    101  O   UNL A   1      44.053  24.959  37.933  1.00  0.00    -0.744 OA
ENDBRANCH  95  98
ENDBRANCH  68  91
ENDBRANCH  42  43
ENDBRANCH  35  37
ENDBRANCH  34  35
ENDBRANCH  33  34
ENDBRANCH  32  33
ENDBRANCH  31  32
ENDBRANCH   1  31
TORSDOF 23
ENDMDL
MODEL 2
REMARK VINA RESULT:     -10.8      1.560      7.664
REMARK SMILES COc1ccc(C(=O)OCCOCCOC(=O)c2ccc(-c3c4nc(c(-c5cccc(S(=O)(=O)[O-])c5F)c5ccc([nH]5)c(-c5cccc(S(=O)(=O)[O-])c5F)c5nc(c(-c6cccc(S(=O)(=O)[O-])c6F)c6ccc3[nH]6)C=C5)C=C4)cc2)cc1NC(=S)NC(=O)c1cccc(C)c1OC
REMARK SMILES IDX 11 1 10 2 9 3 7 4 8 5 6 6 3 7 4 8 82 9 5 10 81 11 2 12 1 13
REMARK SMILES IDX 83 14 84 16 85 17 86 18 87 19 88 21 89 22 90 23 95 24 91 25
REMARK SMILES IDX 93 26 92 27 94 28 96 29 97 30 12 31 13 32 14 33 15 34 16 35
REMARK SMILES IDX 17 36 18 37 19 38 80 39 20 40 79 41 21 42 22 43 23 44 73 45
REMARK SMILES IDX 24 46 78 47 72 48 74 49 25 50 77 51 71 52 70 53 26 55 58 56
REMARK SMILES IDX 38 57 57 58 39 59 42 60 56 61 75 62 40 63 41 64 55 66 76 67
REMARK SMILES IDX 43 68 27 69 28 70 36 71 29 72 31 73 37 74 30 75 32 76 33 77
REMARK SMILES IDX 34 78 35 79 59 80 60 81 68 82 61 83 63 84 69 85 62 86 64 87
REMARK SMILES IDX 65 88 66 89 67 90 44 91 45 92 53 93 46 94 48 95 54 96 47 97
REMARK SMILES IDX 49 98 50 99 51 100 52 101
REMARK H PARENT 83 15 86 20 74 54 42 65
REMARK Flexibility Score: inf
ROOT
ATOM      1  C   UNL A   1      33.345  29.118  26.895  1.00  0.00     0.202 C 
ENDROOT
BRANCH   1   2
ATOM      2  C   UNL A   1      32.602  27.876  26.342  1.00  0.00     0.261 C 
BRANCH   2   3
ATOM      3  O   UNL A   1      33.406  26.667  26.525  1.00  0.00    -0.460 OA
BRANCH   3   4
ATOM      4  C   UNL A   1      34.142  25.915  25.431  1.00  0.00     0.338 C 
ATOM      5  O   UNL A   1      33.769  26.572  24.425  1.00  0.00    -0.246 OA
BRANCH   4   6
ATOM      6  C   UNL A   1      35.443  24.220  25.727  1.00  0.00     0.062 A 
ATOM      7  C   UNL A   1      36.791  21.594  25.354  1.00  0.00     0.142 A 
ATOM      8  C   UNL A   1      37.562  22.730  25.325  1.00  0.00     0.049 A 
ATOM      9  C   UNL A   1      35.519  21.706  25.849  1.00  0.00     0.084 A 
ATOM     10  C   UNL A   1      36.906  23.975  25.458  1.00  0.00     0.019 A 
ATOM     11  C   UNL A   1      35.168  22.924  26.368  1.00  0.00     0.045 A 
BRANCH   7  12
ATOM     12  O   UNL A   1      37.318  20.412  24.945  1.00  0.00    -0.495 OA
ATOM     13  C   UNL A   1      38.667  20.322  25.407  1.00  0.00     0.278 C 
ENDBRANCH   7  12
BRANCH   9  14
ATOM     14  N   UNL A   1      34.582  20.674  25.865  1.00  0.00    -0.329 N 
ATOM     15  H   UNL A   1      34.648  20.094  26.657  1.00  0.00     0.169 HD
BRANCH  14  16
ATOM     16  C   UNL A   1      33.598  20.310  25.008  1.00  0.00     0.177 C 
ATOM     17  S   UNL A   1      32.719  18.945  25.435  1.00  0.00    -0.040 S 
BRANCH  16  18
ATOM     18  N   UNL A   1      33.248  20.921  23.809  1.00  0.00    -0.299 N 
ATOM     19  C   UNL A   1      32.448  21.885  23.135  1.00  0.00     0.261 C 
ATOM     20  H   UNL A   1      33.800  20.494  23.115  1.00  0.00     0.172 HD
ATOM     21  O   UNL A   1      32.354  21.851  21.910  1.00  0.00    -0.269 OA
BRANCH  19  22
ATOM     22  C   UNL A   1      31.620  22.870  23.848  1.00  0.00     0.082 A 
ATOM     23  C   UNL A   1      31.281  22.497  25.642  1.00  0.00     0.018 A 
ATOM     24  C   UNL A   1      31.165  24.485  23.194  1.00  0.00     0.134 A 
ATOM     25  C   UNL A   1      30.393  23.716  26.676  1.00  0.00     0.001 A 
ATOM     26  C   UNL A   1      30.350  25.712  24.248  1.00  0.00    -0.008 A 
ATOM     27  C   UNL A   1      29.877  25.305  25.969  1.00  0.00     0.007 A 
ATOM     28  C   UNL A   1      30.368  27.151  23.810  1.00  0.00     0.048 C 
BRANCH  24  29
ATOM     29  O   UNL A   1      31.425  24.983  21.947  1.00  0.00    -0.496 OA
ATOM     30  C   UNL A   1      32.770  25.249  21.602  1.00  0.00     0.278 C 
ENDBRANCH  24  29
ENDBRANCH  19  22
ENDBRANCH  16  18
ENDBRANCH  14  16
ENDBRANCH   9  14
ENDBRANCH   4   6
ENDBRANCH   3   4
ENDBRANCH   2   3
ENDBRANCH   1   2
BRANCH   1  31
ATOM     31  O   UNL A   1      33.082  30.411  26.323  1.00  0.00    -0.374 OA
BRANCH  31  32
ATOM     32  C   UNL A   1      31.784  30.930  26.557  1.00  0.00     0.202 C 
BRANCH  32  33
ATOM     33  C   UNL A   1      31.632  32.395  27.008  1.00  0.00     0.261 C 
BRANCH  33  34
ATOM     34  O   UNL A   1      32.813  33.192  26.814  1.00  0.00    -0.460 OA
BRANCH  34  35
ATOM     35  C   UNL A   1      33.402  33.566  27.974  1.00  0.00     0.338 C 
ATOM     36  O   UNL A   1      32.933  34.317  28.815  1.00  0.00    -0.246 OA
BRANCH  35  37
ATOM     37  C   UNL A   1      34.654  32.826  28.214  1.00  0.00     0.060 A 
ATOM     38  C   UNL A   1      34.532  31.608  28.892  1.00  0.00     0.016 A 
ATOM     39  C   UNL A   1      35.913  33.365  27.947  1.00  0.00     0.016 A 
ATOM     40  C   UNL A   1      35.661  30.967  29.388  1.00  0.00     0.010 A 
ATOM     41  C   UNL A   1      37.051  32.714  28.444  1.00  0.00     0.010 A 
ATOM     42  C   UNL A   1      36.927  31.540  29.213  1.00  0.00    -0.014 A 
BRANCH  42  43
ATOM     43  C   UNL A   1      38.090  30.959  29.932  1.00  0.00     0.031 A 
ATOM     44  C   UNL A   1      38.360  31.351  31.362  1.00  0.00     0.074 A 
ATOM     45  C   UNL A   1      38.879  30.051  29.327  1.00  0.00     0.049 A 
ATOM     46  N   UNL A   1      39.333  30.977  32.152  1.00  0.00    -0.248 NA
ATOM     47  C   UNL A   1      37.411  32.290  31.987  1.00  0.00     0.031 C 
ATOM     48  C   UNL A   1      38.709  29.569  27.957  1.00  0.00     0.029 A 
ATOM     49  N   UNL A   1      39.994  29.389  29.781  1.00  0.00    -0.354 N 
ATOM     50  C   UNL A   1      39.143  31.662  33.347  1.00  0.00     0.074 A 
ATOM     51  C   UNL A   1      37.960  32.477  33.180  1.00  0.00     0.031 C 
ATOM     52  C   UNL A   1      39.696  28.703  27.674  1.00  0.00     0.029 A 
ATOM     53  C   UNL A   1      40.594  28.609  28.821  1.00  0.00     0.049 A 
ATOM     54  H   UNL A   1      40.330  29.466  30.704  1.00  0.00     0.167 HD
ATOM     55  C   UNL A   1      39.885  31.613  34.479  1.00  0.00     0.034 A 
ATOM     56  C   UNL A   1      41.760  27.932  28.846  1.00  0.00     0.034 A 
ATOM     57  C   UNL A   1      41.055  30.791  34.646  1.00  0.00     0.049 A 
ATOM     58  C   UNL A   1      42.589  27.939  30.104  1.00  0.00     0.074 A 
ATOM     59  C   UNL A   1      41.839  30.639  35.776  1.00  0.00     0.029 A 
ATOM     60  N   UNL A   1      41.625  30.010  33.655  1.00  0.00    -0.354 N 
ATOM     61  N   UNL A   1      42.344  28.517  31.254  1.00  0.00    -0.248 NA
ATOM     62  C   UNL A   1      43.844  27.173  30.078  1.00  0.00     0.031 C 
ATOM     63  C   UNL A   1      42.924  29.823  35.447  1.00  0.00     0.029 A 
ATOM     64  C   UNL A   1      42.769  29.398  34.139  1.00  0.00     0.049 A 
ATOM     65  H   UNL A   1      41.271  29.905  32.743  1.00  0.00     0.167 HD
ATOM     66  C   UNL A   1      43.386  28.149  32.097  1.00  0.00     0.074 A 
ATOM     67  C   UNL A   1      44.255  27.280  31.332  1.00  0.00     0.031 C 
ATOM     68  C   UNL A   1      43.606  28.500  33.387  1.00  0.00     0.034 A 
BRANCH  55  69
ATOM     69  C   UNL A   1      39.477  32.485  35.639  1.00  0.00     0.023 A 
ATOM     70  C   UNL A   1      38.732  31.948  36.707  1.00  0.00     0.012 A 
ATOM     71  C   UNL A   1      39.930  33.818  35.715  1.00  0.00     0.148 A 
ATOM     72  C   UNL A   1      38.422  32.730  37.820  1.00  0.00     0.002 A 
ATOM     73  C   UNL A   1      39.663  34.576  36.846  1.00  0.00     0.091 A 
ATOM     74  F   UNL A   1      40.629  34.312  34.683  1.00  0.00    -0.205 F 
ATOM     75  C   UNL A   1      38.899  34.038  37.895  1.00  0.00     0.022 A 
BRANCH  73  76
ATOM     76  S   UNL A   1      40.301  36.239  37.074  1.00  0.00     0.127 S 
ATOM     77  O   UNL A   1      39.932  36.872  35.808  1.00  0.00    -0.237 OA
ATOM     78  O   UNL A   1      39.536  36.702  38.232  1.00  0.00    -0.237 OA
ATOM     79  O   UNL A   1      41.732  36.098  37.301  1.00  0.00    -0.744 OA
ENDBRANCH  73  76
ENDBRANCH  55  69
BRANCH  56  80
ATOM     80  C   UNL A   1      42.237  27.207  27.634  1.00  0.00     0.023 A 
ATOM     81  C   UNL A   1      42.803  27.922  26.560  1.00  0.00     0.012 A 
ATOM     82  C   UNL A   1      42.093  25.810  27.526  1.00  0.00     0.148 A 
ATOM     83  C   UNL A   1      43.161  27.269  25.381  1.00  0.00     0.002 A 
ATOM     84  C   UNL A   1      42.512  25.156  26.375  1.00  0.00     0.091 A 
ATOM     85  F   UNL A   1      41.544  25.147  28.553  1.00  0.00    -0.205 F 
ATOM     86  C   UNL A   1      43.024  25.886  25.291  1.00  0.00     0.022 A 
BRANCH  84  87
ATOM     87  S   UNL A   1      42.482  23.368  26.220  1.00  0.00     0.127 S 
ATOM     88  O   UNL A   1      43.001  23.178  24.868  1.00  0.00    -0.237 OA
ATOM     89  O   UNL A   1      43.389  22.959  27.292  1.00  0.00    -0.237 OA
ATOM     90  O   UNL A   1      41.095  22.974  26.423  1.00  0.00    -0.744 OA
ENDBRANCH  84  87
ENDBRANCH  56  80
BRANCH  68  91
ATOM     91  C   UNL A   1      44.791  27.891  34.092  1.00  0.00     0.023 A 
ATOM     92  C   UNL A   1      44.673  26.661  34.768  1.00  0.00     0.012 A 
ATOM     93  C   UNL A   1      46.050  28.524  34.029  1.00  0.00     0.148 A 
ATOM     94  C   UNL A   1      45.775  26.095  35.410  1.00  0.00     0.002 A 
ATOM     95  C   UNL A   1      47.156  27.926  34.617  1.00  0.00     0.091 A 
ATOM     96  F   UNL A   1      46.141  29.700  33.390  1.00  0.00    -0.205 F 
ATOM     97  C   UNL A   1      47.018  26.721  35.324  1.00  0.00     0.022 A 
BRANCH  95  98
ATOM     98  S   UNL A   1      48.811  28.609  34.477  1.00  0.00     0.127 S 
ATOM     99  O   UNL A   1      48.708  29.806  35.310  1.00  0.00    -0.237 OA
ATOM    100  O   UNL A   1      49.632  27.539  35.045  1.00  0.00    -0.237 OA
ATOM    101  O   UNL A   1      49.029  28.859  33.059  1.00  0.00    -0.744 OA
ENDBRANCH  95  98
ENDBRANCH  68  91
ENDBRANCH  42  43
ENDBRANCH  35  37
ENDBRANCH  34  35
ENDBRANCH  33  34
ENDBRANCH  32  33
ENDBRANCH  31  32
ENDBRANCH   1  31
TORSDOF 23
ENDMDL
MODEL 3
REMARK VINA RESULT:     -10.6      2.031      2.757
REMARK SMILES COc1ccc(C(=O)OCCOCCOC(=O)c2ccc(-c3c4nc(c(-c5cccc(S(=O)(=O)[O-])c5F)c5ccc([nH]5)c(-c5cccc(S(=O)(=O)[O-])c5F)c5nc(c(-c6cccc(S(=O)(=O)[O-])c6F)c6ccc3[nH]6)C=C5)C=C4)cc2)cc1NC(=S)NC(=O)c1cccc(C)c1OC
REMARK SMILES IDX 11 1 10 2 9 3 7 4 8 5 6 6 3 7 4 8 82 9 5 10 81 11 2 12 1 13
REMARK SMILES IDX 83 14 84 16 85 17 86 18 87 19 88 21 89 22 90 23 95 24 91 25
REMARK SMILES IDX 93 26 92 27 94 28 96 29 97 30 12 31 13 32 14 33 15 34 16 35
REMARK SMILES IDX 17 36 18 37 19 38 80 39 20 40 79 41 21 42 22 43 23 44 73 45
REMARK SMILES IDX 24 46 78 47 72 48 74 49 25 50 77 51 71 52 70 53 26 55 58 56
REMARK SMILES IDX 38 57 57 58 39 59 42 60 56 61 75 62 40 63 41 64 55 66 76 67
REMARK SMILES IDX 43 68 27 69 28 70 36 71 29 72 31 73 37 74 30 75 32 76 33 77
REMARK SMILES IDX 34 78 35 79 59 80 60 81 68 82 61 83 63 84 69 85 62 86 64 87
REMARK SMILES IDX 65 88 66 89 67 90 44 91 45 92 53 93 46 94 48 95 54 96 47 97
REMARK SMILES IDX 49 98 50 99 51 100 52 101
REMARK H PARENT 83 15 86 20 74 54 42 65
REMARK Flexibility Score: inf
ROOT
ATOM      1  C   UNL A   1      33.047  29.106  27.232  1.00  0.00     0.202 C 
ENDROOT
BRANCH   1   2
ATOM      2  C   UNL A   1      32.406  27.835  26.619  1.00  0.00     0.261 C 
BRANCH   2   3
ATOM      3  O   UNL A   1      33.308  26.690  26.736  1.00  0.00    -0.460 OA
BRANCH   3   4
ATOM      4  C   UNL A   1      34.068  26.037  25.597  1.00  0.00     0.338 C 
ATOM      5  O   UNL A   1      33.744  26.800  24.650  1.00  0.00    -0.246 OA
BRANCH   4   6
ATOM      6  C   UNL A   1      35.326  24.292  25.761  1.00  0.00     0.062 A 
ATOM      7  C   UNL A   1      36.540  21.625  25.245  1.00  0.00     0.142 A 
ATOM      8  C   UNL A   1      37.346  22.732  25.163  1.00  0.00     0.049 A 
ATOM      9  C   UNL A   1      35.318  21.775  25.848  1.00  0.00     0.084 A 
ATOM     10  C   UNL A   1      36.751  23.998  25.366  1.00  0.00     0.019 A 
ATOM     11  C   UNL A   1      35.059  22.997  26.408  1.00  0.00     0.045 A 
BRANCH   7  12
ATOM     12  O   UNL A   1      36.985  20.430  24.779  1.00  0.00    -0.495 OA
ATOM     13  C   UNL A   1      38.293  20.188  25.303  1.00  0.00     0.278 C 
ENDBRANCH   7  12
BRANCH   9  14
ATOM     14  N   UNL A   1      34.349  20.777  25.932  1.00  0.00    -0.329 N 
ATOM     15  H   UNL A   1      34.305  20.344  26.814  1.00  0.00     0.169 HD
BRANCH  14  16
ATOM     16  C   UNL A   1      33.454  20.285  25.041  1.00  0.00     0.177 C 
ATOM     17  S   UNL A   1      32.762  18.807  25.435  1.00  0.00    -0.040 S 
BRANCH  16  18
ATOM     18  N   UNL A   1      33.062  20.849  23.833  1.00  0.00    -0.299 N 
ATOM     19  C   UNL A   1      32.249  21.797  23.151  1.00  0.00     0.261 C 
ATOM     20  H   UNL A   1      33.577  20.384  23.135  1.00  0.00     0.172 HD
ATOM     21  O   UNL A   1      32.101  21.711  21.934  1.00  0.00    -0.269 OA
BRANCH  19  22
ATOM     22  C   UNL A   1      31.467  22.826  23.855  1.00  0.00     0.082 A 
ATOM     23  C   UNL A   1      31.061  22.458  25.636  1.00  0.00     0.018 A 
ATOM     24  C   UNL A   1      31.131  24.472  23.207  1.00  0.00     0.134 A 
ATOM     25  C   UNL A   1      30.226  23.721  26.661  1.00  0.00     0.001 A 
ATOM     26  C   UNL A   1      30.369  25.738  24.254  1.00  0.00    -0.008 A 
ATOM     27  C   UNL A   1      29.829  25.346  25.959  1.00  0.00     0.007 A 
ATOM     28  C   UNL A   1      30.489  27.177  23.833  1.00  0.00     0.048 C 
BRANCH  24  29
ATOM     29  O   UNL A   1      31.452  24.964  21.972  1.00  0.00    -0.496 OA
ATOM     30  C   UNL A   1      32.816  25.196  21.681  1.00  0.00     0.278 C 
ENDBRANCH  24  29
ENDBRANCH  19  22
ENDBRANCH  16  18
ENDBRANCH  14  16
ENDBRANCH   9  14
ENDBRANCH   4   6
ENDBRANCH   3   4
ENDBRANCH   2   3
ENDBRANCH   1   2
BRANCH   1  31
ATOM     31  O   UNL A   1      33.022  30.337  26.490  1.00  0.00    -0.374 OA
BRANCH  31  32
ATOM     32  C   UNL A   1      31.840  31.109  26.626  1.00  0.00     0.202 C 
BRANCH  32  33
ATOM     33  C   UNL A   1      31.952  32.585  27.050  1.00  0.00     0.261 C 
BRANCH  33  34
ATOM     34  O   UNL A   1      33.288  32.997  27.387  1.00  0.00    -0.460 OA
BRANCH  34  35
ATOM     35  C   UNL A   1      33.325  34.017  28.276  1.00  0.00     0.338 C 
ATOM     36  O   UNL A   1      32.548  34.957  28.332  1.00  0.00    -0.246 OA
BRANCH  35  37
ATOM     37  C   UNL A   1      34.343  33.796  29.319  1.00  0.00     0.060 A 
ATOM     38  C   UNL A   1      35.643  34.212  29.012  1.00  0.00     0.016 A 
ATOM     39  C   UNL A   1      34.088  33.064  30.480  1.00  0.00     0.016 A 
ATOM     40  C   UNL A   1      36.710  33.820  29.812  1.00  0.00     0.010 A 
ATOM     41  C   UNL A   1      35.166  32.674  31.288  1.00  0.00     0.010 A 
ATOM     42  C   UNL A   1      36.487  33.005  30.929  1.00  0.00    -0.014 A 
BRANCH  42  43
ATOM     43  C   UNL A   1      37.653  32.420  31.642  1.00  0.00     0.031 A 
ATOM     44  C   UNL A   1      38.463  31.331  30.987  1.00  0.00     0.074 A 
ATOM     45  C   UNL A   1      38.014  32.887  32.852  1.00  0.00     0.049 A 
ATOM     46  N   UNL A   1      39.495  30.676  31.452  1.00  0.00    -0.248 NA
ATOM     47  C   UNL A   1      38.058  30.921  29.631  1.00  0.00     0.031 C 
ATOM     48  C   UNL A   1      37.329  33.955  33.580  1.00  0.00     0.029 A 
ATOM     49  N   UNL A   1      39.035  32.509  33.689  1.00  0.00    -0.354 N 
ATOM     50  C   UNL A   1      39.838  29.752  30.471  1.00  0.00     0.074 A 
ATOM     51  C   UNL A   1      38.902  29.928  29.382  1.00  0.00     0.031 C 
ATOM     52  C   UNL A   1      37.936  34.133  34.765  1.00  0.00     0.029 A 
ATOM     53  C   UNL A   1      39.017  33.160  34.900  1.00  0.00     0.049 A 
ATOM     54  H   UNL A   1      39.713  31.838  33.446  1.00  0.00     0.167 HD
ATOM     55  C   UNL A   1      40.841  28.842  30.477  1.00  0.00     0.034 A 
ATOM     56  C   UNL A   1      39.757  32.966  36.011  1.00  0.00     0.034 A 
ATOM     57  C   UNL A   1      41.779  28.678  31.557  1.00  0.00     0.049 A 
ATOM     58  C   UNL A   1      40.832  31.910  36.004  1.00  0.00     0.074 A 
ATOM     59  C   UNL A   1      42.860  27.817  31.627  1.00  0.00     0.029 A 
ATOM     60  N   UNL A   1      41.733  29.361  32.760  1.00  0.00    -0.354 N 
ATOM     61  N   UNL A   1      41.200  31.111  35.033  1.00  0.00    -0.248 NA
ATOM     62  C   UNL A   1      41.615  31.751  37.238  1.00  0.00     0.031 C 
ATOM     63  C   UNL A   1      43.424  27.927  32.901  1.00  0.00     0.029 A 
ATOM     64  C   UNL A   1      42.748  28.918  33.592  1.00  0.00     0.049 A 
ATOM     65  H   UNL A   1      41.077  30.057  32.991  1.00  0.00     0.167 HD
ATOM     66  C   UNL A   1      42.283  30.390  35.523  1.00  0.00     0.074 A 
ATOM     67  C   UNL A   1      42.524  30.861  36.870  1.00  0.00     0.031 C 
ATOM     68  C   UNL A   1      43.010  29.421  34.915  1.00  0.00     0.034 A 
BRANCH  55  69
ATOM     69  C   UNL A   1      40.984  27.927  29.288  1.00  0.00     0.023 A 
ATOM     70  C   UNL A   1      40.109  26.837  29.118  1.00  0.00     0.012 A 
ATOM     71  C   UNL A   1      41.926  28.220  28.281  1.00  0.00     0.148 A 
ATOM     72  C   UNL A   1      40.186  26.037  27.977  1.00  0.00     0.002 A 
ATOM     73  C   UNL A   1      41.965  27.451  27.126  1.00  0.00     0.091 A 
ATOM     74  F   UNL A   1      42.756  29.257  28.467  1.00  0.00    -0.205 F 
ATOM     75  C   UNL A   1      41.103  26.352  26.977  1.00  0.00     0.022 A 
BRANCH  73  76
ATOM     76  S   UNL A   1      43.052  27.826  25.746  1.00  0.00     0.127 S 
ATOM     77  O   UNL A   1      42.258  27.357  24.610  1.00  0.00    -0.237 OA
ATOM     78  O   UNL A   1      43.177  29.280  25.843  1.00  0.00    -0.237 OA
ATOM     79  O   UNL A   1      44.283  27.087  25.986  1.00  0.00    -0.744 OA
ENDBRANCH  73  76
ENDBRANCH  55  69
BRANCH  56  80
ATOM     80  C   UNL A   1      39.495  33.765  37.241  1.00  0.00     0.023 A 
ATOM     81  C   UNL A   1      39.957  35.092  37.333  1.00  0.00     0.012 A 
ATOM     82  C   UNL A   1      38.821  33.197  38.341  1.00  0.00     0.148 A 
ATOM     83  C   UNL A   1      39.806  35.817  38.516  1.00  0.00     0.002 A 
ATOM     84  C   UNL A   1      38.616  33.946  39.491  1.00  0.00     0.091 A 
ATOM     85  F   UNL A   1      38.396  31.930  38.239  1.00  0.00    -0.205 F 
ATOM     86  C   UNL A   1      39.129  35.248  39.591  1.00  0.00     0.022 A 
BRANCH  84  87
ATOM     87  S   UNL A   1      37.653  33.335  40.877  1.00  0.00     0.127 S 
ATOM     88  O   UNL A   1      37.910  34.354  41.891  1.00  0.00    -0.237 OA
ATOM     89  O   UNL A   1      36.297  33.340  40.327  1.00  0.00    -0.237 OA
ATOM     90  O   UNL A   1      38.176  32.008  41.172  1.00  0.00    -0.744 OA
ENDBRANCH  84  87
ENDBRANCH  56  80
BRANCH  68  91
ATOM     91  C   UNL A   1      44.189  28.850  35.661  1.00  0.00     0.023 A 
ATOM     92  C   UNL A   1      45.474  29.410  35.515  1.00  0.00     0.012 A 
ATOM     93  C   UNL A   1      44.002  27.781  36.561  1.00  0.00     0.148 A 
ATOM     94  C   UNL A   1      46.560  28.886  36.216  1.00  0.00     0.002 A 
ATOM     95  C   UNL A   1      45.074  27.303  37.301  1.00  0.00     0.091 A 
ATOM     96  F   UNL A   1      42.774  27.254  36.678  1.00  0.00    -0.205 F 
ATOM     97  C   UNL A   1      46.358  27.841  37.117  1.00  0.00     0.022 A 
BRANCH  95  98
ATOM     98  S   UNL A   1      44.892  26.028  38.551  1.00  0.00     0.127 S 
ATOM     99  O   UNL A   1      43.935  26.646  39.467  1.00  0.00    -0.237 OA
ATOM    100  O   UNL A   1      44.358  24.910  37.773  1.00  0.00    -0.237 OA
ATOM    101  O   UNL A   1      46.222  25.807  39.103  1.00  0.00    -0.744 OA
ENDBRANCH  95  98
ENDBRANCH  68  91
ENDBRANCH  42  43
ENDBRANCH  35  37
ENDBRANCH  34  35
ENDBRANCH  33  34
ENDBRANCH  32  33
ENDBRANCH  31  32
ENDBRANCH   1  31
TORSDOF 23
ENDMDL
