MODEL 1
REMARK VINA RESULT:     -10.2      0.000      0.000
REMARK SMILES Cc1ccc(S(=O)(=O)n2cc(C(=O)C(=O)NCC(=O)NCC(=O)OCCOCCOC(=O)c3ccc(-c4c5nc(c(-c6cccc(S(=O)(=O)[O-])c6F)c6ccc([nH]6)c(-c6cccc(S(=O)(=O)[O-])c6F)c6nc(c(-c7cccc(S(=O)(=O)[O-])c7F)c7ccc4[nH]7)C=C6)C=C5)cc3)c3ccccc32)cc1
REMARK SMILES IDX 25 1 24 2 22 3 23 4 21 5 20 6 18 7 19 8 17 10 16 11 14 12
REMARK SMILES IDX 15 13 12 15 13 16 11 17 9 18 10 19 101 20 96 21 100 22 97 23
REMARK SMILES IDX 99 24 98 25 6 26 7 27 8 28 5 29 1 30 2 31 3 32 103 33 4 34
REMARK SMILES IDX 102 35 26 36 27 37 28 38 29 39 30 40 31 41 32 42 33 43 34 44
REMARK SMILES IDX 95 45 35 46 94 47 36 48 37 49 38 50 88 51 39 52 93 53 87 54
REMARK SMILES IDX 89 55 40 56 92 57 86 58 85 59 41 61 73 62 53 63 72 64 54 65
REMARK SMILES IDX 57 66 71 67 90 68 55 69 56 70 70 72 91 73 58 74 42 75 43 76
REMARK SMILES IDX 51 77 44 78 46 79 52 80 45 81 47 82 48 83 49 84 50 85 74 86
REMARK SMILES IDX 75 87 83 88 76 89 78 90 84 91 77 92 79 93 80 94 81 95 82 96
REMARK SMILES IDX 59 97 60 98 68 99 61 100 63 101 69 102 62 103 64 104 65 105
REMARK SMILES IDX 66 106 67 107
REMARK H PARENT 20 9 16 14 89 60 57 71
REMARK Flexibility Score: inf
ROOT
ATOM      1  C   UNL A   1      32.903  36.258  29.690  1.00  0.00     0.261 C 
ENDROOT
BRANCH   1   2
ATOM      2  O   UNL A   1      32.384  35.488  30.775  1.00  0.00    -0.462 OA
BRANCH   2   3
ATOM      3  C   UNL A   1      32.133  36.176  31.929  1.00  0.00     0.325 C 
ATOM      4  O   UNL A   1      31.106  36.154  32.594  1.00  0.00    -0.250 OA
BRANCH   3   5
ATOM      5  C   UNL A   1      33.371  36.984  32.315  1.00  0.00     0.238 C 
BRANCH   5   6
ATOM      6  N   UNL A   1      34.050  36.402  33.480  1.00  0.00    -0.344 N 
ATOM      7  C   UNL A   1      34.793  35.259  33.557  1.00  0.00     0.239 C 
ATOM      8  O   UNL A   1      35.050  34.806  34.675  1.00  0.00    -0.273 OA
ATOM      9  H   UNL A   1      33.956  36.905  34.321  1.00  0.00     0.164 HD
BRANCH   7  10
ATOM     10  C   UNL A   1      35.368  34.623  32.285  1.00  0.00     0.216 C 
BRANCH  10  11
ATOM     11  N   UNL A   1      35.651  33.219  32.493  1.00  0.00    -0.340 N 
ATOM     12  C   UNL A   1      36.737  32.501  32.060  1.00  0.00     0.292 C 
ATOM     13  O   UNL A   1      36.578  31.317  31.814  1.00  0.00    -0.265 OA
ATOM     14  H   UNL A   1      34.981  32.717  33.010  1.00  0.00     0.164 HD
BRANCH  12  15
ATOM     15  C   UNL A   1      38.120  33.119  31.800  1.00  0.00     0.252 C 
ATOM     16  O   UNL A   1      38.477  33.362  30.653  1.00  0.00    -0.283 OA
BRANCH  15  17
ATOM     17  C   UNL A   1      39.009  33.333  32.948  1.00  0.00     0.054 A 
ATOM     18  N   UNL A   1      39.943  34.235  34.766  1.00  0.00    -0.240 N 
ATOM     19  C   UNL A   1      39.077  34.475  33.726  1.00  0.00     0.117 A 
ATOM     20  C   UNL A   1      40.425  32.945  34.716  1.00  0.00     0.065 A 
ATOM     21  C   UNL A   1      39.888  32.376  33.550  1.00  0.00     0.012 A 
ATOM     22  C   UNL A   1      41.239  32.209  35.592  1.00  0.00     0.028 A 
ATOM     23  C   UNL A   1      40.205  31.038  33.243  1.00  0.00     0.011 A 
ATOM     24  C   UNL A   1      41.531  30.884  35.263  1.00  0.00     0.002 A 
ATOM     25  C   UNL A   1      41.031  30.308  34.100  1.00  0.00     0.001 A 
BRANCH  18  26
ATOM     26  S   UNL A   1      40.170  35.309  36.063  1.00  0.00     0.268 S 
ATOM     27  O   UNL A   1      39.590  36.537  35.627  1.00  0.00    -0.201 OA
ATOM     28  O   UNL A   1      41.564  35.086  36.462  1.00  0.00    -0.201 OA
BRANCH  26  29
ATOM     29  C   UNL A   1      39.283  34.809  37.482  1.00  0.00     0.088 A 
ATOM     30  C   UNL A   1      37.840  33.273  41.189  1.00  0.00     0.044 C 
ATOM     31  C   UNL A   1      38.302  33.843  39.884  1.00  0.00    -0.051 A 
ATOM     32  C   UNL A   1      39.270  34.852  39.892  1.00  0.00     0.005 A 
ATOM     33  C   UNL A   1      37.812  33.350  38.663  1.00  0.00     0.005 A 
ATOM     34  C   UNL A   1      39.762  35.337  38.691  1.00  0.00     0.022 A 
ATOM     35  C   UNL A   1      38.303  33.829  37.450  1.00  0.00     0.022 A 
ENDBRANCH  26  29
ENDBRANCH  18  26
ENDBRANCH  15  17
ENDBRANCH  12  15
ENDBRANCH  10  11
ENDBRANCH   7  10
ENDBRANCH   5   6
ENDBRANCH   3   5
ENDBRANCH   2   3
ENDBRANCH   1   2
BRANCH   1  36
ATOM     36  C   UNL A   1      33.854  35.382  28.884  1.00  0.00     0.202 C 
BRANCH  36  37
ATOM     37  O   UNL A   1      33.330  34.056  28.865  1.00  0.00    -0.374 OA
BRANCH  37  38
ATOM     38  C   UNL A   1      34.249  33.009  29.153  1.00  0.00     0.202 C 
BRANCH  38  39
ATOM     39  C   UNL A   1      35.504  32.967  28.270  1.00  0.00     0.261 C 
BRANCH  39  40
ATOM     40  O   UNL A   1      36.298  31.824  28.618  1.00  0.00    -0.460 OA
BRANCH  40  41
ATOM     41  C   UNL A   1      36.005  30.705  27.902  1.00  0.00     0.338 C 
ATOM     42  O   UNL A   1      34.917  30.473  27.405  1.00  0.00    -0.246 OA
BRANCH  41  43
ATOM     43  C   UNL A   1      37.124  29.737  28.037  1.00  0.00     0.060 A 
ATOM     44  C   UNL A   1      37.573  29.354  29.312  1.00  0.00     0.016 A 
ATOM     45  C   UNL A   1      37.870  29.412  26.902  1.00  0.00     0.016 A 
ATOM     46  C   UNL A   1      38.814  28.731  29.459  1.00  0.00     0.010 A 
ATOM     47  C   UNL A   1      39.126  28.878  27.056  1.00  0.00     0.010 A 
ATOM     48  C   UNL A   1      39.601  28.543  28.332  1.00  0.00    -0.014 A 
BRANCH  48  49
ATOM     49  C   UNL A   1      40.949  28.006  28.317  1.00  0.00     0.031 A 
ATOM     50  C   UNL A   1      41.116  26.525  28.400  1.00  0.00     0.074 A 
ATOM     51  C   UNL A   1      41.942  28.807  27.874  1.00  0.00     0.049 A 
ATOM     52  N   UNL A   1      42.237  25.916  28.587  1.00  0.00    -0.248 NA
ATOM     53  C   UNL A   1      39.985  25.596  28.312  1.00  0.00     0.031 C 
ATOM     54  C   UNL A   1      43.109  28.353  27.143  1.00  0.00     0.029 A 
ATOM     55  N   UNL A   1      42.152  30.184  27.949  1.00  0.00    -0.354 N 
ATOM     56  C   UNL A   1      42.033  24.576  28.301  1.00  0.00     0.074 A 
ATOM     57  C   UNL A   1      40.604  24.414  28.248  1.00  0.00     0.031 C 
ATOM     58  C   UNL A   1      44.031  29.323  27.150  1.00  0.00     0.029 A 
ATOM     59  C   UNL A   1      43.531  30.400  27.966  1.00  0.00     0.049 A 
ATOM     60  H   UNL A   1      41.455  30.877  27.983  1.00  0.00     0.167 HD
ATOM     61  C   UNL A   1      43.095  23.800  27.936  1.00  0.00     0.034 A 
ATOM     62  C   UNL A   1      44.238  31.029  28.947  1.00  0.00     0.034 A 
ATOM     63  C   UNL A   1      44.303  24.625  27.897  1.00  0.00     0.049 A 
ATOM     64  C   UNL A   1      45.236  30.082  29.586  1.00  0.00     0.074 A 
ATOM     65  C   UNL A   1      44.774  25.388  26.849  1.00  0.00     0.029 A 
ATOM     66  N   UNL A   1      44.924  25.098  29.051  1.00  0.00    -0.354 N 
ATOM     67  N   UNL A   1      45.272  28.807  29.315  1.00  0.00    -0.248 NA
ATOM     68  C   UNL A   1      46.239  30.445  30.578  1.00  0.00     0.031 C 
ATOM     69  C   UNL A   1      45.560  26.409  27.412  1.00  0.00     0.029 A 
ATOM     70  C   UNL A   1      45.751  26.180  28.754  1.00  0.00     0.049 A 
ATOM     71  H   UNL A   1      44.797  24.720  29.952  1.00  0.00     0.167 HD
ATOM     72  C   UNL A   1      46.285  28.184  29.981  1.00  0.00     0.074 A 
ATOM     73  C   UNL A   1      46.819  29.252  30.819  1.00  0.00     0.031 C 
ATOM     74  C   UNL A   1      46.585  26.863  29.746  1.00  0.00     0.034 A 
BRANCH  61  75
ATOM     75  C   UNL A   1      42.995  22.479  27.176  1.00  0.00     0.023 A 
ATOM     76  C   UNL A   1      41.952  21.593  27.551  1.00  0.00     0.012 A 
ATOM     77  C   UNL A   1      43.871  22.005  26.175  1.00  0.00     0.148 A 
ATOM     78  C   UNL A   1      41.842  20.293  27.045  1.00  0.00     0.002 A 
ATOM     79  C   UNL A   1      43.802  20.682  25.715  1.00  0.00     0.091 A 
ATOM     80  F   UNL A   1      44.731  22.848  25.594  1.00  0.00    -0.205 F 
ATOM     81  C   UNL A   1      42.790  19.822  26.152  1.00  0.00     0.022 A 
BRANCH  79  82
ATOM     82  S   UNL A   1      45.047  19.975  24.619  1.00  0.00     0.127 S 
ATOM     83  O   UNL A   1      44.738  20.611  23.335  1.00  0.00    -0.237 OA
ATOM     84  O   UNL A   1      46.297  20.423  25.229  1.00  0.00    -0.237 OA
ATOM     85  O   UNL A   1      44.816  18.535  24.632  1.00  0.00    -0.744 OA
ENDBRANCH  79  82
ENDBRANCH  61  75
BRANCH  62  86
ATOM     86  C   UNL A   1      43.474  32.130  29.582  1.00  0.00     0.023 A 
ATOM     87  C   UNL A   1      43.065  31.891  30.920  1.00  0.00     0.012 A 
ATOM     88  C   UNL A   1      43.634  33.449  29.137  1.00  0.00     0.148 A 
ATOM     89  C   UNL A   1      43.015  32.932  31.844  1.00  0.00     0.002 A 
ATOM     90  C   UNL A   1      43.604  34.480  30.073  1.00  0.00     0.091 A 
ATOM     91  F   UNL A   1      43.910  33.663  27.845  1.00  0.00    -0.205 F 
ATOM     92  C   UNL A   1      43.337  34.218  31.429  1.00  0.00     0.022 A 
BRANCH  90  93
ATOM     93  S   UNL A   1      44.095  36.153  29.639  1.00  0.00     0.127 S 
ATOM     94  O   UNL A   1      42.906  36.636  28.945  1.00  0.00    -0.237 OA
ATOM     95  O   UNL A   1      44.331  36.753  30.953  1.00  0.00    -0.237 OA
ATOM     96  O   UNL A   1      45.296  35.998  28.834  1.00  0.00    -0.744 OA
ENDBRANCH  90  93
ENDBRANCH  62  86
BRANCH  74  97
ATOM     97  C   UNL A   1      47.749  26.109  30.361  1.00  0.00     0.023 A 
ATOM     98  C   UNL A   1      48.870  25.706  29.618  1.00  0.00     0.012 A 
ATOM     99  C   UNL A   1      47.752  25.739  31.729  1.00  0.00     0.148 A 
ATOM    100  C   UNL A   1      50.027  25.214  30.227  1.00  0.00     0.002 A 
ATOM    101  C   UNL A   1      48.901  25.262  32.345  1.00  0.00     0.091 A 
ATOM    102  F   UNL A   1      46.622  25.772  32.441  1.00  0.00    -0.205 F 
ATOM    103  C   UNL A   1      50.061  25.045  31.602  1.00  0.00     0.022 A 
BRANCH 101 104
ATOM    104  S   UNL A   1      48.970  24.926  34.106  1.00  0.00     0.127 S 
ATOM    105  O   UNL A   1      49.705  23.661  34.133  1.00  0.00    -0.237 OA
ATOM    106  O   UNL A   1      49.721  26.081  34.596  1.00  0.00    -0.237 OA
ATOM    107  O   UNL A   1      47.592  24.852  34.569  1.00  0.00    -0.744 OA
ENDBRANCH 101 104
ENDBRANCH  74  97
ENDBRANCH  48  49
ENDBRANCH  41  43
ENDBRANCH  40  41
ENDBRANCH  39  40
ENDBRANCH  38  39
ENDBRANCH  37  38
ENDBRANCH  36  37
ENDBRANCH   1  36
TORSDOF 24
ENDMDL
MODEL 2
REMARK VINA RESULT:     -10.0      1.388      2.054
REMARK SMILES Cc1ccc(S(=O)(=O)n2cc(C(=O)C(=O)NCC(=O)NCC(=O)OCCOCCOC(=O)c3ccc(-c4c5nc(c(-c6cccc(S(=O)(=O)[O-])c6F)c6ccc([nH]6)c(-c6cccc(S(=O)(=O)[O-])c6F)c6nc(c(-c7cccc(S(=O)(=O)[O-])c7F)c7ccc4[nH]7)C=C6)C=C5)cc3)c3ccccc32)cc1
REMARK SMILES IDX 25 1 24 2 22 3 23 4 21 5 20 6 18 7 19 8 17 10 16 11 14 12
REMARK SMILES IDX 15 13 12 15 13 16 11 17 9 18 10 19 101 20 96 21 100 22 97 23
REMARK SMILES IDX 99 24 98 25 6 26 7 27 8 28 5 29 1 30 2 31 3 32 103 33 4 34
REMARK SMILES IDX 102 35 26 36 27 37 28 38 29 39 30 40 31 41 32 42 33 43 34 44
REMARK SMILES IDX 95 45 35 46 94 47 36 48 37 49 38 50 88 51 39 52 93 53 87 54
REMARK SMILES IDX 89 55 40 56 92 57 86 58 85 59 41 61 73 62 53 63 72 64 54 65
REMARK SMILES IDX 57 66 71 67 90 68 55 69 56 70 70 72 91 73 58 74 42 75 43 76
REMARK SMILES IDX 51 77 44 78 46 79 52 80 45 81 47 82 48 83 49 84 50 85 74 86
REMARK SMILES IDX 75 87 83 88 76 89 78 90 84 91 77 92 79 93 80 94 81 95 82 96
REMARK SMILES IDX 59 97 60 98 68 99 61 100 63 101 69 102 62 103 64 104 65 105
REMARK SMILES IDX 66 106 67 107
REMARK H PARENT 20 9 16 14 89 60 57 71
REMARK Flexibility Score: inf
ROOT
ATOM      1  C   UNL A   1      32.930  36.355  29.453  1.00  0.00     0.261 C 
ENDROOT
BRANCH   1   2
ATOM      2  O   UNL A   1      32.335  35.585  30.498  1.00  0.00    -0.462 OA
BRANCH   2   3
ATOM      3  C   UNL A   1      32.148  36.235  31.686  1.00  0.00     0.325 C 
ATOM      4  O   UNL A   1      31.214  36.099  32.463  1.00  0.00    -0.250 OA
BRANCH   3   5
ATOM      5  C   UNL A   1      33.330  37.169  31.942  1.00  0.00     0.238 C 
BRANCH   5   6
ATOM      6  N   UNL A   1      34.110  36.740  33.109  1.00  0.00    -0.344 N 
ATOM      7  C   UNL A   1      34.762  35.559  33.317  1.00  0.00     0.239 C 
ATOM      8  O   UNL A   1      35.131  35.290  34.463  1.00  0.00    -0.273 OA
ATOM      9  H   UNL A   1      34.172  37.395  33.842  1.00  0.00     0.164 HD
BRANCH   7  10
ATOM     10  C   UNL A   1      35.106  34.646  32.133  1.00  0.00     0.216 C 
BRANCH  10  11
ATOM     11  N   UNL A   1      35.489  33.328  32.592  1.00  0.00    -0.340 N 
ATOM     12  C   UNL A   1      36.607  32.606  32.258  1.00  0.00     0.292 C 
ATOM     13  O   UNL A   1      36.520  31.389  32.248  1.00  0.00    -0.265 OA
ATOM     14  H   UNL A   1      34.869  32.896  33.222  1.00  0.00     0.164 HD
BRANCH  12  15
ATOM     15  C   UNL A   1      37.936  33.244  31.826  1.00  0.00     0.252 C 
ATOM     16  O   UNL A   1      38.123  33.538  30.651  1.00  0.00    -0.283 OA
BRANCH  15  17
ATOM     17  C   UNL A   1      38.982  33.416  32.841  1.00  0.00     0.054 A 
ATOM     18  N   UNL A   1      40.166  34.246  34.545  1.00  0.00    -0.240 N 
ATOM     19  C   UNL A   1      39.156  34.522  33.655  1.00  0.00     0.117 A 
ATOM     20  C   UNL A   1      40.644  32.965  34.363  1.00  0.00     0.065 A 
ATOM     21  C   UNL A   1      39.946  32.445  33.263  1.00  0.00     0.012 A 
ATOM     22  C   UNL A   1      41.582  32.201  35.076  1.00  0.00     0.028 A 
ATOM     23  C   UNL A   1      40.223  31.126  32.848  1.00  0.00     0.011 A 
ATOM     24  C   UNL A   1      41.831  30.897  34.644  1.00  0.00     0.002 A 
ATOM     25  C   UNL A   1      41.171  30.369  33.540  1.00  0.00     0.001 A 
BRANCH  18  26
ATOM     26  S   UNL A   1      40.573  35.261  35.845  1.00  0.00     0.268 S 
ATOM     27  O   UNL A   1      40.595  34.404  36.986  1.00  0.00    -0.201 OA
ATOM     28  O   UNL A   1      39.725  36.442  35.646  1.00  0.00    -0.201 OA
BRANCH  26  29
ATOM     29  C   UNL A   1      42.184  35.917  35.677  1.00  0.00     0.088 A 
ATOM     30  C   UNL A   1      46.029  37.311  34.476  1.00  0.00     0.044 C 
ATOM     31  C   UNL A   1      44.685  36.850  34.944  1.00  0.00    -0.051 A 
ATOM     32  C   UNL A   1      43.541  37.464  34.424  1.00  0.00     0.005 A 
ATOM     33  C   UNL A   1      44.558  35.788  35.856  1.00  0.00     0.005 A 
ATOM     34  C   UNL A   1      42.289  37.000  34.791  1.00  0.00     0.022 A 
ATOM     35  C   UNL A   1      43.303  35.311  36.227  1.00  0.00     0.022 A 
ENDBRANCH  26  29
ENDBRANCH  18  26
ENDBRANCH  15  17
ENDBRANCH  12  15
ENDBRANCH  10  11
ENDBRANCH   7  10
ENDBRANCH   5   6
ENDBRANCH   3   5
ENDBRANCH   2   3
ENDBRANCH   1   2
BRANCH   1  36
ATOM     36  C   UNL A   1      33.952  35.486  28.731  1.00  0.00     0.202 C 
BRANCH  36  37
ATOM     37  O   UNL A   1      33.397  34.182  28.573  1.00  0.00    -0.374 OA
BRANCH  37  38
ATOM     38  C   UNL A   1      34.237  33.090  28.929  1.00  0.00     0.202 C 
BRANCH  38  39
ATOM     39  C   UNL A   1      35.622  33.077  28.267  1.00  0.00     0.261 C 
BRANCH  39  40
ATOM     40  O   UNL A   1      36.361  31.935  28.722  1.00  0.00    -0.460 OA
BRANCH  40  41
ATOM     41  C   UNL A   1      36.072  30.784  28.055  1.00  0.00     0.338 C 
ATOM     42  O   UNL A   1      34.984  30.525  27.571  1.00  0.00    -0.246 OA
BRANCH  41  43
ATOM     43  C   UNL A   1      37.198  29.830  28.227  1.00  0.00     0.060 A 
ATOM     44  C   UNL A   1      37.764  29.632  29.498  1.00  0.00     0.016 A 
ATOM     45  C   UNL A   1      37.833  29.330  27.088  1.00  0.00     0.016 A 
ATOM     46  C   UNL A   1      39.013  29.019  29.619  1.00  0.00     0.010 A 
ATOM     47  C   UNL A   1      39.097  28.806  27.202  1.00  0.00     0.010 A 
ATOM     48  C   UNL A   1      39.691  28.655  28.463  1.00  0.00    -0.014 A 
BRANCH  48  49
ATOM     49  C   UNL A   1      41.030  28.102  28.403  1.00  0.00     0.031 A 
ATOM     50  C   UNL A   1      41.181  26.618  28.481  1.00  0.00     0.074 A 
ATOM     51  C   UNL A   1      42.017  28.890  27.927  1.00  0.00     0.049 A 
ATOM     52  N   UNL A   1      42.300  25.995  28.629  1.00  0.00    -0.248 NA
ATOM     53  C   UNL A   1      40.037  25.704  28.430  1.00  0.00     0.031 C 
ATOM     54  C   UNL A   1      43.153  28.422  27.157  1.00  0.00     0.029 A 
ATOM     55  N   UNL A   1      42.248  30.264  27.995  1.00  0.00    -0.354 N 
ATOM     56  C   UNL A   1      42.070  24.658  28.350  1.00  0.00     0.074 A 
ATOM     57  C   UNL A   1      40.638  24.514  28.345  1.00  0.00     0.031 C 
ATOM     58  C   UNL A   1      44.088  29.380  27.133  1.00  0.00     0.029 A 
ATOM     59  C   UNL A   1      43.628  30.463  27.966  1.00  0.00     0.049 A 
ATOM     60  H   UNL A   1      41.560  30.966  28.053  1.00  0.00     0.167 HD
ATOM     61  C   UNL A   1      43.110  23.869  27.949  1.00  0.00     0.034 A 
ATOM     62  C   UNL A   1      44.376  31.082  28.923  1.00  0.00     0.034 A 
ATOM     63  C   UNL A   1      44.326  24.679  27.870  1.00  0.00     0.049 A 
ATOM     64  C   UNL A   1      45.383  30.122  29.527  1.00  0.00     0.074 A 
ATOM     65  C   UNL A   1      44.771  25.436  26.807  1.00  0.00     0.029 A 
ATOM     66  N   UNL A   1      44.991  25.143  29.003  1.00  0.00    -0.354 N 
ATOM     67  N   UNL A   1      45.394  28.848  29.255  1.00  0.00    -0.248 NA
ATOM     68  C   UNL A   1      46.424  30.473  30.485  1.00  0.00     0.031 C 
ATOM     69  C   UNL A   1      45.588  26.448  27.343  1.00  0.00     0.029 A 
ATOM     70  C   UNL A   1      45.821  26.215  28.678  1.00  0.00     0.049 A 
ATOM     71  H   UNL A   1      44.890  24.766  29.907  1.00  0.00     0.167 HD
ATOM     72  C   UNL A   1      46.421  28.211  29.886  1.00  0.00     0.074 A 
ATOM     73  C   UNL A   1      46.997  29.272  30.706  1.00  0.00     0.031 C 
ATOM     74  C   UNL A   1      46.697  26.887  29.641  1.00  0.00     0.034 A 
BRANCH  61  75
ATOM     75  C   UNL A   1      42.967  22.550  27.193  1.00  0.00     0.023 A 
ATOM     76  C   UNL A   1      41.874  21.717  27.542  1.00  0.00     0.012 A 
ATOM     77  C   UNL A   1      43.847  22.028  26.219  1.00  0.00     0.148 A 
ATOM     78  C   UNL A   1      41.715  20.420  27.039  1.00  0.00     0.002 A 
ATOM     79  C   UNL A   1      43.728  20.707  25.764  1.00  0.00     0.091 A 
ATOM     80  F   UNL A   1      44.762  22.826  25.659  1.00  0.00    -0.205 F 
ATOM     81  C   UNL A   1      42.664  19.900  26.176  1.00  0.00     0.022 A 
BRANCH  79  82
ATOM     82  S   UNL A   1      44.968  19.935  24.706  1.00  0.00     0.127 S 
ATOM     83  O   UNL A   1      46.217  20.230  25.413  1.00  0.00    -0.237 OA
ATOM     84  O   UNL A   1      44.576  18.528  24.735  1.00  0.00    -0.237 OA
ATOM     85  O   UNL A   1      44.854  20.597  23.412  1.00  0.00    -0.744 OA
ENDBRANCH  79  82
ENDBRANCH  61  75
BRANCH  62  86
ATOM     86  C   UNL A   1      43.647  32.193  29.583  1.00  0.00     0.023 A 
ATOM     87  C   UNL A   1      43.365  31.998  30.960  1.00  0.00     0.012 A 
ATOM     88  C   UNL A   1      43.738  33.497  29.078  1.00  0.00     0.148 A 
ATOM     89  C   UNL A   1      43.375  33.072  31.846  1.00  0.00     0.002 A 
ATOM     90  C   UNL A   1      43.768  34.562  29.974  1.00  0.00     0.091 A 
ATOM     91  F   UNL A   1      43.892  33.665  27.759  1.00  0.00    -0.205 F 
ATOM     92  C   UNL A   1      43.630  34.348  31.358  1.00  0.00     0.022 A 
BRANCH  90  93
ATOM     93  S   UNL A   1      44.182  36.225  29.436  1.00  0.00     0.127 S 
ATOM     94  O   UNL A   1      43.320  36.377  28.269  1.00  0.00    -0.237 OA
ATOM     95  O   UNL A   1      43.795  37.028  30.599  1.00  0.00    -0.237 OA
ATOM     96  O   UNL A   1      45.614  36.198  29.185  1.00  0.00    -0.744 OA
ENDBRANCH  90  93
ENDBRANCH  62  86
BRANCH  74  97
ATOM     97  C   UNL A   1      47.871  26.118  30.217  1.00  0.00     0.023 A 
ATOM     98  C   UNL A   1      48.964  25.707  29.437  1.00  0.00     0.012 A 
ATOM     99  C   UNL A   1      47.913  25.743  31.582  1.00  0.00     0.148 A 
ATOM    100  C   UNL A   1      50.134  25.200  30.008  1.00  0.00     0.002 A 
ATOM    101  C   UNL A   1      49.076  25.251  32.160  1.00  0.00     0.091 A 
ATOM    102  F   UNL A   1      46.806  25.784  32.329  1.00  0.00    -0.205 F 
ATOM    103  C   UNL A   1      50.209  25.025  31.381  1.00  0.00     0.022 A 
BRANCH 101 104
ATOM    104  S   UNL A   1      49.196  24.906  33.917  1.00  0.00     0.127 S 
ATOM    105  O   UNL A   1      48.024  24.056  34.129  1.00  0.00    -0.237 OA
ATOM    106  O   UNL A   1      50.480  24.210  33.992  1.00  0.00    -0.237 OA
ATOM    107  O   UNL A   1      49.159  26.193  34.595  1.00  0.00    -0.744 OA
ENDBRANCH 101 104
ENDBRANCH  74  97
ENDBRANCH  48  49
ENDBRANCH  41  43
ENDBRANCH  40  41
ENDBRANCH  39  40
ENDBRANCH  38  39
ENDBRANCH  37  38
ENDBRANCH  36  37
ENDBRANCH   1  36
TORSDOF 24
ENDMDL
MODEL 3
REMARK VINA RESULT:      -9.2      4.160      6.876
REMARK SMILES Cc1ccc(S(=O)(=O)n2cc(C(=O)C(=O)NCC(=O)NCC(=O)OCCOCCOC(=O)c3ccc(-c4c5nc(c(-c6cccc(S(=O)(=O)[O-])c6F)c6ccc([nH]6)c(-c6cccc(S(=O)(=O)[O-])c6F)c6nc(c(-c7cccc(S(=O)(=O)[O-])c7F)c7ccc4[nH]7)C=C6)C=C5)cc3)c3ccccc32)cc1
REMARK SMILES IDX 25 1 24 2 22 3 23 4 21 5 20 6 18 7 19 8 17 10 16 11 14 12
REMARK SMILES IDX 15 13 12 15 13 16 11 17 9 18 10 19 101 20 96 21 100 22 97 23
REMARK SMILES IDX 99 24 98 25 6 26 7 27 8 28 5 29 1 30 2 31 3 32 103 33 4 34
REMARK SMILES IDX 102 35 26 36 27 37 28 38 29 39 30 40 31 41 32 42 33 43 34 44
REMARK SMILES IDX 95 45 35 46 94 47 36 48 37 49 38 50 88 51 39 52 93 53 87 54
REMARK SMILES IDX 89 55 40 56 92 57 86 58 85 59 41 61 73 62 53 63 72 64 54 65
REMARK SMILES IDX 57 66 71 67 90 68 55 69 56 70 70 72 91 73 58 74 42 75 43 76
REMARK SMILES IDX 51 77 44 78 46 79 52 80 45 81 47 82 48 83 49 84 50 85 74 86
REMARK SMILES IDX 75 87 83 88 76 89 78 90 84 91 77 92 79 93 80 94 81 95 82 96
REMARK SMILES IDX 59 97 60 98 68 99 61 100 63 101 69 102 62 103 64 104 65 105
REMARK SMILES IDX 66 106 67 107
REMARK H PARENT 20 9 16 14 89 60 57 71
REMARK Flexibility Score: inf
ROOT
ATOM      1  C   UNL A   1      34.672  35.335  34.372  1.00  0.00     0.261 C 
ENDROOT
BRANCH   1   2
ATOM      2  O   UNL A   1      34.845  36.086  33.170  1.00  0.00    -0.462 OA
BRANCH   2   3
ATOM      3  C   UNL A   1      33.738  36.744  32.711  1.00  0.00     0.325 C 
ATOM      4  O   UNL A   1      33.608  37.949  32.549  1.00  0.00    -0.250 OA
BRANCH   3   5
ATOM      5  C   UNL A   1      32.647  35.726  32.381  1.00  0.00     0.238 C 
BRANCH   5   6
ATOM      6  N   UNL A   1      32.269  35.785  30.963  1.00  0.00    -0.344 N 
ATOM      7  C   UNL A   1      33.020  35.488  29.863  1.00  0.00     0.239 C 
ATOM      8  O   UNL A   1      32.608  35.857  28.760  1.00  0.00    -0.273 OA
ATOM      9  H   UNL A   1      31.347  36.080  30.783  1.00  0.00     0.164 HD
BRANCH   7  10
ATOM     10  C   UNL A   1      34.286  34.632  29.998  1.00  0.00     0.216 C 
BRANCH  10  11
ATOM     11  N   UNL A   1      34.006  33.246  29.693  1.00  0.00    -0.340 N 
ATOM     12  C   UNL A   1      34.797  32.351  29.017  1.00  0.00     0.292 C 
ATOM     13  O   UNL A   1      34.245  31.475  28.371  1.00  0.00    -0.265 OA
ATOM     14  H   UNL A   1      33.140  32.902  30.009  1.00  0.00     0.164 HD
BRANCH  12  15
ATOM     15  C   UNL A   1      36.330  32.434  28.970  1.00  0.00     0.252 C 
ATOM     16  O   UNL A   1      36.879  33.238  28.224  1.00  0.00    -0.283 OA
BRANCH  15  17
ATOM     17  C   UNL A   1      37.099  31.482  29.780  1.00  0.00     0.054 A 
ATOM     18  N   UNL A   1      37.865  30.320  31.528  1.00  0.00    -0.240 N 
ATOM     19  C   UNL A   1      37.121  31.416  31.161  1.00  0.00     0.117 A 
ATOM     20  C   UNL A   1      38.310  29.635  30.417  1.00  0.00     0.065 A 
ATOM     21  C   UNL A   1      37.881  30.379  29.307  1.00  0.00     0.012 A 
ATOM     22  C   UNL A   1      39.005  28.424  30.275  1.00  0.00     0.028 A 
ATOM     23  C   UNL A   1      38.189  29.905  28.016  1.00  0.00     0.011 A 
ATOM     24  C   UNL A   1      39.290  27.977  28.983  1.00  0.00     0.002 A 
ATOM     25  C   UNL A   1      38.898  28.711  27.868  1.00  0.00     0.001 A 
BRANCH  18  26
ATOM     26  S   UNL A   1      37.986  29.762  33.128  1.00  0.00     0.268 S 
ATOM     27  O   UNL A   1      37.935  28.340  33.025  1.00  0.00    -0.201 OA
ATOM     28  O   UNL A   1      37.060  30.625  33.871  1.00  0.00    -0.201 OA
BRANCH  26  29
ATOM     29  C   UNL A   1      39.531  30.161  33.839  1.00  0.00     0.088 A 
ATOM     30  C   UNL A   1      43.506  30.362  35.368  1.00  0.00     0.044 C 
ATOM     31  C   UNL A   1      42.108  30.346  34.834  1.00  0.00    -0.051 A 
ATOM     32  C   UNL A   1      41.911  30.170  33.461  1.00  0.00     0.005 A 
ATOM     33  C   UNL A   1      41.001  30.459  35.693  1.00  0.00     0.005 A 
ATOM     34  C   UNL A   1      40.622  30.078  32.961  1.00  0.00     0.022 A 
ATOM     35  C   UNL A   1      39.702  30.363  35.200  1.00  0.00     0.022 A 
ENDBRANCH  26  29
ENDBRANCH  18  26
ENDBRANCH  15  17
ENDBRANCH  12  15
ENDBRANCH  10  11
ENDBRANCH   7  10
ENDBRANCH   5   6
ENDBRANCH   3   5
ENDBRANCH   2   3
ENDBRANCH   1   2
BRANCH   1  36
ATOM     36  C   UNL A   1      35.292  33.958  34.177  1.00  0.00     0.202 C 
BRANCH  36  37
ATOM     37  O   UNL A   1      35.811  33.522  35.432  1.00  0.00    -0.374 OA
BRANCH  37  38
ATOM     38  C   UNL A   1      37.094  34.020  35.793  1.00  0.00     0.202 C 
BRANCH  38  39
ATOM     39  C   UNL A   1      38.273  33.467  34.981  1.00  0.00     0.261 C 
BRANCH  39  40
ATOM     40  O   UNL A   1      38.908  34.535  34.265  1.00  0.00    -0.460 OA
BRANCH  40  41
ATOM     41  C   UNL A   1      38.747  34.474  32.916  1.00  0.00     0.338 C 
ATOM     42  O   UNL A   1      37.698  34.699  32.338  1.00  0.00    -0.246 OA
BRANCH  41  43
ATOM     43  C   UNL A   1      39.961  33.867  32.310  1.00  0.00     0.060 A 
ATOM     44  C   UNL A   1      41.191  33.933  32.986  1.00  0.00     0.016 A 
ATOM     45  C   UNL A   1      39.911  33.457  30.976  1.00  0.00     0.016 A 
ATOM     46  C   UNL A   1      42.380  33.682  32.298  1.00  0.00     0.010 A 
ATOM     47  C   UNL A   1      41.084  33.295  30.282  1.00  0.00     0.010 A 
ATOM     48  C   UNL A   1      42.318  33.413  30.938  1.00  0.00    -0.014 A 
BRANCH  48  49
ATOM     49  C   UNL A   1      43.455  33.227  30.056  1.00  0.00     0.031 A 
ATOM     50  C   UNL A   1      43.999  31.847  29.893  1.00  0.00     0.074 A 
ATOM     51  C   UNL A   1      43.730  34.207  29.168  1.00  0.00     0.049 A 
ATOM     52  N   UNL A   1      45.107  31.554  29.302  1.00  0.00    -0.248 NA
ATOM     53  C   UNL A   1      43.328  30.663  30.436  1.00  0.00     0.031 C 
ATOM     54  C   UNL A   1      44.273  33.993  27.841  1.00  0.00     0.029 A 
ATOM     55  N   UNL A   1      43.592  35.594  29.216  1.00  0.00    -0.354 N 
ATOM     56  C   UNL A   1      45.113  30.185  29.088  1.00  0.00     0.074 A 
ATOM     57  C   UNL A   1      44.048  29.670  29.907  1.00  0.00     0.031 C 
ATOM     58  C   UNL A   1      44.729  35.158  27.364  1.00  0.00     0.029 A 
ATOM     59  C   UNL A   1      44.584  36.145  28.404  1.00  0.00     0.049 A 
ATOM     60  H   UNL A   1      42.916  36.092  29.728  1.00  0.00     0.167 HD
ATOM     61  C   UNL A   1      45.881  29.667  28.084  1.00  0.00     0.034 A 
ATOM     62  C   UNL A   1      45.558  37.014  28.796  1.00  0.00     0.034 A 
ATOM     63  C   UNL A   1      46.559  30.759  27.385  1.00  0.00     0.049 A 
ATOM     64  C   UNL A   1      46.934  36.404  28.607  1.00  0.00     0.074 A 
ATOM     65  C   UNL A   1      46.082  31.519  26.338  1.00  0.00     0.029 A 
ATOM     66  N   UNL A   1      47.613  31.471  27.954  1.00  0.00    -0.354 N 
ATOM     67  N   UNL A   1      47.113  35.159  28.263  1.00  0.00    -0.248 NA
ATOM     68  C   UNL A   1      48.204  37.090  28.804  1.00  0.00     0.031 C 
ATOM     69  C   UNL A   1      46.762  32.749  26.387  1.00  0.00     0.029 A 
ATOM     70  C   UNL A   1      47.784  32.693  27.306  1.00  0.00     0.049 A 
ATOM     71  H   UNL A   1      48.163  31.154  28.707  1.00  0.00     0.167 HD
ATOM     72  C   UNL A   1      48.436  34.867  28.114  1.00  0.00     0.074 A 
ATOM     73  C   UNL A   1      49.084  36.104  28.537  1.00  0.00     0.031 C 
ATOM     74  C   UNL A   1      48.846  33.646  27.633  1.00  0.00     0.034 A 
BRANCH  61  75
ATOM     75  C   UNL A   1      45.670  28.300  27.436  1.00  0.00     0.023 A 
ATOM     76  C   UNL A   1      46.828  27.539  27.137  1.00  0.00     0.012 A 
ATOM     77  C   UNL A   1      44.441  27.729  27.038  1.00  0.00     0.148 A 
ATOM     78  C   UNL A   1      46.784  26.345  26.407  1.00  0.00     0.002 A 
ATOM     79  C   UNL A   1      44.399  26.569  26.251  1.00  0.00     0.091 A 
ATOM     80  F   UNL A   1      43.293  28.251  27.481  1.00  0.00    -0.205 F 
ATOM     81  C   UNL A   1      45.572  25.877  25.931  1.00  0.00     0.022 A 
BRANCH  79  82
ATOM     82  S   UNL A   1      42.870  25.947  25.527  1.00  0.00     0.127 S 
ATOM     83  O   UNL A   1      42.446  27.061  24.674  1.00  0.00    -0.237 OA
ATOM     84  O   UNL A   1      43.323  24.766  24.797  1.00  0.00    -0.237 OA
ATOM     85  O   UNL A   1      41.974  25.693  26.650  1.00  0.00    -0.744 OA
ENDBRANCH  79  82
ENDBRANCH  61  75
BRANCH  62  86
ATOM     86  C   UNL A   1      45.098  37.943  29.857  1.00  0.00     0.023 A 
ATOM     87  C   UNL A   1      45.642  37.708  31.146  1.00  0.00     0.012 A 
ATOM     88  C   UNL A   1      44.649  39.228  29.524  1.00  0.00     0.148 A 
ATOM     89  C   UNL A   1      45.917  38.769  32.005  1.00  0.00     0.002 A 
ATOM     90  C   UNL A   1      44.947  40.285  30.380  1.00  0.00     0.091 A 
ATOM     91  F   UNL A   1      44.035  39.410  28.348  1.00  0.00    -0.205 F 
ATOM     92  C   UNL A   1      45.617  40.063  31.597  1.00  0.00     0.022 A 
BRANCH  90  93
ATOM     93  S   UNL A   1      44.676  41.991  29.890  1.00  0.00     0.127 S 
ATOM     94  O   UNL A   1      45.664  42.690  30.706  1.00  0.00    -0.237 OA
ATOM     95  O   UNL A   1      44.976  41.950  28.457  1.00  0.00    -0.237 OA
ATOM     96  O   UNL A   1      43.279  42.257  30.195  1.00  0.00    -0.744 OA
ENDBRANCH  90  93
ENDBRANCH  62  86
BRANCH  74  97
ATOM     97  C   UNL A   1      50.285  33.262  27.341  1.00  0.00     0.023 A 
ATOM     98  C   UNL A   1      51.196  32.912  28.350  1.00  0.00     0.012 A 
ATOM     99  C   UNL A   1      50.799  33.267  26.020  1.00  0.00     0.148 A 
ATOM    100  C   UNL A   1      52.443  32.350  28.062  1.00  0.00     0.002 A 
ATOM    101  C   UNL A   1      52.031  32.699  25.724  1.00  0.00     0.091 A 
ATOM    102  F   UNL A   1      50.139  33.889  25.040  1.00  0.00    -0.205 F 
ATOM    103  C   UNL A   1      52.836  32.192  26.742  1.00  0.00     0.022 A 
BRANCH 101 104
ATOM    104  S   UNL A   1      52.638  32.562  24.041  1.00  0.00     0.127 S 
ATOM    105  O   UNL A   1      52.590  33.957  23.599  1.00  0.00    -0.237 OA
ATOM    106  O   UNL A   1      53.984  32.034  24.257  1.00  0.00    -0.237 OA
ATOM    107  O   UNL A   1      51.732  31.661  23.345  1.00  0.00    -0.744 OA
ENDBRANCH 101 104
ENDBRANCH  74  97
ENDBRANCH  48  49
ENDBRANCH  41  43
ENDBRANCH  40  41
ENDBRANCH  39  40
ENDBRANCH  38  39
ENDBRANCH  37  38
ENDBRANCH  36  37
ENDBRANCH   1  36
TORSDOF 24
ENDMDL
