MODEL 1
REMARK VINA RESULT:     -10.0      0.000      0.000
REMARK SMILES CN(C)C(=O)c1cccc(NCc2cc(C(=O)OCCOCCOC(=O)c3ccc(-c4c5nc(c(-c6cccc(S(=O)(=O)[O-])c6F)c6ccc([nH]6)c(-c6cccc(S(=O)(=O)[O-])c6F)c6nc(c(-c7cccc(S(=O)(=O)[O-])c7F)c7ccc4[nH]7)C=C6)C=C5)cc3)cs2)c1
REMARK SMILES IDX 20 1 19 2 18 3 16 4 17 5 15 6 13 7 14 8 91 9 90 10 12 11
REMARK SMILES IDX 11 12 10 14 6 15 7 16 92 17 8 18 9 19 4 20 1 21 2 22 3 23
REMARK SMILES IDX 5 24 21 25 22 26 23 27 24 28 25 29 26 30 27 31 28 32 89 33
REMARK SMILES IDX 29 34 88 35 30 36 31 37 32 38 82 39 33 40 87 41 81 42 83 43
REMARK SMILES IDX 34 44 86 45 80 46 79 47 35 49 67 50 47 51 66 52 48 53 51 54
REMARK SMILES IDX 65 55 84 56 49 57 50 58 64 60 85 61 52 62 36 63 37 64 45 65
REMARK SMILES IDX 38 66 40 67 46 68 39 69 41 70 42 71 43 72 44 73 68 74 69 75
REMARK SMILES IDX 77 76 70 77 72 78 78 79 71 80 73 81 74 82 75 83 76 84 53 85
REMARK SMILES IDX 54 86 62 87 55 88 57 89 63 90 56 91 58 92 59 93 60 94 61 95
REMARK H PARENT 11 13 83 48 51 59
REMARK Flexibility Score: inf
ROOT
ATOM      1  C   UNL A   1      33.607  35.903  29.080  1.00  0.00     0.202 C 
ENDROOT
BRANCH   1   2
ATOM      2  C   UNL A   1      33.094  36.883  30.140  1.00  0.00     0.261 C 
BRANCH   2   3
ATOM      3  O   UNL A   1      32.283  36.187  31.103  1.00  0.00    -0.460 OA
BRANCH   3   4
ATOM      4  C   UNL A   1      32.697  36.264  32.400  1.00  0.00     0.339 C 
ATOM      5  O   UNL A   1      32.138  36.911  33.278  1.00  0.00    -0.246 OA
BRANCH   4   6
ATOM      6  C   UNL A   1      33.826  35.374  32.672  1.00  0.00     0.071 A 
ATOM      7  C   UNL A   1      36.038  34.622  32.972  1.00  0.00     0.025 A 
ATOM      8  C   UNL A   1      35.218  35.719  32.769  1.00  0.00     0.033 A 
ATOM      9  S   UNL A   1      35.125  33.174  33.045  1.00  0.00    -0.146 S 
ATOM     10  C   UNL A   1      33.656  34.010  32.818  1.00  0.00     0.080 A 
BRANCH   7  11
ATOM     11  C   UNL A   1      37.538  34.561  33.081  1.00  0.00     0.159 C 
BRANCH  11  12
ATOM     12  N   UNL A   1      38.058  34.447  34.432  1.00  0.00    -0.380 N 
ATOM     13  H   UNL A   1      38.473  35.251  34.821  1.00  0.00     0.160 HD
BRANCH  12  14
ATOM     14  C   UNL A   1      38.022  33.314  35.220  1.00  0.00     0.035 A 
ATOM     15  C   UNL A   1      37.626  32.334  37.422  1.00  0.00     0.042 A 
ATOM     16  C   UNL A   1      37.960  31.069  36.940  1.00  0.00     0.014 A 
ATOM     17  C   UNL A   1      37.692  33.450  36.576  1.00  0.00     0.039 A 
ATOM     18  C   UNL A   1      38.304  30.916  35.601  1.00  0.00     0.003 A 
ATOM     19  C   UNL A   1      38.319  32.028  34.750  1.00  0.00     0.026 A 
BRANCH  15  20
ATOM     20  C   UNL A   1      37.287  32.474  38.856  1.00  0.00     0.253 C 
ATOM     21  C   UNL A   1      37.941  32.861  41.172  1.00  0.00     0.146 C 
ATOM     22  N   UNL A   1      38.260  32.906  39.751  1.00  0.00    -0.345 N 
ATOM     23  C   UNL A   1      39.595  33.371  39.405  1.00  0.00     0.146 C 
ATOM     24  O   UNL A   1      36.130  32.202  39.179  1.00  0.00    -0.269 OA
ENDBRANCH  15  20
ENDBRANCH  12  14
ENDBRANCH  11  12
ENDBRANCH   7  11
ENDBRANCH   4   6
ENDBRANCH   3   4
ENDBRANCH   2   3
ENDBRANCH   1   2
BRANCH   1  25
ATOM     25  O   UNL A   1      32.564  35.173  28.427  1.00  0.00    -0.374 OA
BRANCH  25  26
ATOM     26  C   UNL A   1      32.886  33.829  28.061  1.00  0.00     0.202 C 
BRANCH  26  27
ATOM     27  C   UNL A   1      34.379  33.498  28.139  1.00  0.00     0.261 C 
BRANCH  27  28
ATOM     28  O   UNL A   1      34.583  32.245  28.816  1.00  0.00    -0.460 OA
BRANCH  28  29
ATOM     29  C   UNL A   1      34.621  31.159  28.010  1.00  0.00     0.338 C 
ATOM     30  O   UNL A   1      33.851  30.892  27.101  1.00  0.00    -0.246 OA
BRANCH  29  31
ATOM     31  C   UNL A   1      35.850  30.380  28.271  1.00  0.00     0.060 A 
ATOM     32  C   UNL A   1      35.930  29.703  29.495  1.00  0.00     0.016 A 
ATOM     33  C   UNL A   1      36.922  30.340  27.372  1.00  0.00     0.016 A 
ATOM     34  C   UNL A   1      37.100  29.038  29.851  1.00  0.00     0.010 A 
ATOM     35  C   UNL A   1      38.097  29.672  27.732  1.00  0.00     0.010 A 
ATOM     36  C   UNL A   1      38.205  29.053  28.991  1.00  0.00    -0.014 A 
BRANCH  36  37
ATOM     37  C   UNL A   1      39.511  28.549  29.479  1.00  0.00     0.031 A 
ATOM     38  C   UNL A   1      40.153  29.211  30.667  1.00  0.00     0.074 A 
ATOM     39  C   UNL A   1      40.107  27.498  28.888  1.00  0.00     0.049 A 
ATOM     40  N   UNL A   1      41.267  28.910  31.279  1.00  0.00    -0.248 NA
ATOM     41  C   UNL A   1      39.443  30.366  31.244  1.00  0.00     0.031 C 
ATOM     42  C   UNL A   1      39.591  26.777  27.726  1.00  0.00     0.029 A 
ATOM     43  N   UNL A   1      41.288  26.865  29.182  1.00  0.00    -0.354 N 
ATOM     44  C   UNL A   1      41.404  29.843  32.299  1.00  0.00     0.074 A 
ATOM     45  C   UNL A   1      40.268  30.735  32.213  1.00  0.00     0.031 C 
ATOM     46  C   UNL A   1      40.466  25.811  27.391  1.00  0.00     0.029 A 
ATOM     47  C   UNL A   1      41.605  25.854  28.306  1.00  0.00     0.049 A 
ATOM     48  H   UNL A   1      41.857  27.112  29.948  1.00  0.00     0.167 HD
ATOM     49  C   UNL A   1      42.373  29.937  33.240  1.00  0.00     0.034 A 
ATOM     50  C   UNL A   1      42.693  25.061  28.246  1.00  0.00     0.034 A 
ATOM     51  C   UNL A   1      43.487  29.036  33.346  1.00  0.00     0.049 A 
ATOM     52  C   UNL A   1      43.765  25.193  29.296  1.00  0.00     0.074 A 
ATOM     53  C   UNL A   1      44.493  29.020  34.297  1.00  0.00     0.029 A 
ATOM     54  N   UNL A   1      43.750  27.997  32.468  1.00  0.00    -0.354 N 
ATOM     55  N   UNL A   1      43.807  25.993  30.334  1.00  0.00    -0.248 NA
ATOM     56  C   UNL A   1      44.920  24.289  29.188  1.00  0.00     0.031 C 
ATOM     57  C   UNL A   1      45.372  27.977  33.985  1.00  0.00     0.029 A 
ATOM     58  C   UNL A   1      44.905  27.336  32.848  1.00  0.00     0.049 A 
ATOM     59  H   UNL A   1      43.196  27.764  31.688  1.00  0.00     0.167 HD
ATOM     60  C   UNL A   1      44.972  25.665  31.022  1.00  0.00     0.074 A 
ATOM     61  C   UNL A   1      45.597  24.581  30.291  1.00  0.00     0.031 C 
ATOM     62  C   UNL A   1      45.484  26.219  32.148  1.00  0.00     0.034 A 
BRANCH  49  63
ATOM     63  C   UNL A   1      42.243  31.031  34.264  1.00  0.00     0.023 A 
ATOM     64  C   UNL A   1      41.789  30.712  35.560  1.00  0.00     0.012 A 
ATOM     65  C   UNL A   1      42.618  32.354  33.967  1.00  0.00     0.148 A 
ATOM     66  C   UNL A   1      41.686  31.700  36.539  1.00  0.00     0.002 A 
ATOM     67  C   UNL A   1      42.547  33.327  34.958  1.00  0.00     0.091 A 
ATOM     68  F   UNL A   1      43.019  32.641  32.721  1.00  0.00    -0.205 F 
ATOM     69  C   UNL A   1      42.074  33.003  36.240  1.00  0.00     0.022 A 
BRANCH  67  70
ATOM     70  S   UNL A   1      43.089  35.018  34.687  1.00  0.00     0.127 S 
ATOM     71  O   UNL A   1      42.060  35.513  33.773  1.00  0.00    -0.237 OA
ATOM     72  O   UNL A   1      43.031  35.583  36.035  1.00  0.00    -0.237 OA
ATOM     73  O   UNL A   1      44.431  34.920  34.130  1.00  0.00    -0.744 OA
ENDBRANCH  67  70
ENDBRANCH  49  63
BRANCH  50  74
ATOM     74  C   UNL A   1      42.806  24.039  27.168  1.00  0.00     0.023 A 
ATOM     75  C   UNL A   1      43.558  24.323  26.013  1.00  0.00     0.012 A 
ATOM     76  C   UNL A   1      42.187  22.781  27.296  1.00  0.00     0.148 A 
ATOM     77  C   UNL A   1      43.670  23.379  24.990  1.00  0.00     0.002 A 
ATOM     78  C   UNL A   1      42.345  21.828  26.297  1.00  0.00     0.091 A 
ATOM     79  F   UNL A   1      41.474  22.536  28.404  1.00  0.00    -0.205 F 
ATOM     80  C   UNL A   1      43.071  22.130  25.136  1.00  0.00     0.022 A 
BRANCH  78  81
ATOM     81  S   UNL A   1      41.708  20.157  26.450  1.00  0.00     0.127 S 
ATOM     82  O   UNL A   1      42.182  19.772  27.776  1.00  0.00    -0.237 OA
ATOM     83  O   UNL A   1      40.266  20.378  26.346  1.00  0.00    -0.237 OA
ATOM     84  O   UNL A   1      42.285  19.410  25.339  1.00  0.00    -0.744 OA
ENDBRANCH  78  81
ENDBRANCH  50  74
BRANCH  62  85
ATOM     85  C   UNL A   1      46.769  25.651  32.690  1.00  0.00     0.023 A 
ATOM     86  C   UNL A   1      47.999  26.210  32.295  1.00  0.00     0.012 A 
ATOM     87  C   UNL A   1      46.752  24.621  33.652  1.00  0.00     0.148 A 
ATOM     88  C   UNL A   1      49.197  25.738  32.832  1.00  0.00     0.002 A 
ATOM     89  C   UNL A   1      47.946  24.186  34.214  1.00  0.00     0.091 A 
ATOM     90  F   UNL A   1      45.572  24.087  33.999  1.00  0.00    -0.205 F 
ATOM     91  C   UNL A   1      49.170  24.735  33.799  1.00  0.00     0.022 A 
BRANCH  89  92
ATOM     92  S   UNL A   1      47.992  22.963  35.531  1.00  0.00     0.127 S 
ATOM     93  O   UNL A   1      49.430  22.809  35.745  1.00  0.00    -0.237 OA
ATOM     94  O   UNL A   1      47.283  23.643  36.616  1.00  0.00    -0.237 OA
ATOM     95  O   UNL A   1      47.303  21.792  35.006  1.00  0.00    -0.744 OA
ENDBRANCH  89  92
ENDBRANCH  62  85
ENDBRANCH  36  37
ENDBRANCH  29  31
ENDBRANCH  28  29
ENDBRANCH  27  28
ENDBRANCH  26  27
ENDBRANCH  25  26
ENDBRANCH   1  25
TORSDOF 21
ENDMDL
MODEL 2
REMARK VINA RESULT:      -9.3      6.008     11.371
REMARK SMILES CN(C)C(=O)c1cccc(NCc2cc(C(=O)OCCOCCOC(=O)c3ccc(-c4c5nc(c(-c6cccc(S(=O)(=O)[O-])c6F)c6ccc([nH]6)c(-c6cccc(S(=O)(=O)[O-])c6F)c6nc(c(-c7cccc(S(=O)(=O)[O-])c7F)c7ccc4[nH]7)C=C6)C=C5)cc3)cs2)c1
REMARK SMILES IDX 20 1 19 2 18 3 16 4 17 5 15 6 13 7 14 8 91 9 90 10 12 11
REMARK SMILES IDX 11 12 10 14 6 15 7 16 92 17 8 18 9 19 4 20 1 21 2 22 3 23
REMARK SMILES IDX 5 24 21 25 22 26 23 27 24 28 25 29 26 30 27 31 28 32 89 33
REMARK SMILES IDX 29 34 88 35 30 36 31 37 32 38 82 39 33 40 87 41 81 42 83 43
REMARK SMILES IDX 34 44 86 45 80 46 79 47 35 49 67 50 47 51 66 52 48 53 51 54
REMARK SMILES IDX 65 55 84 56 49 57 50 58 64 60 85 61 52 62 36 63 37 64 45 65
REMARK SMILES IDX 38 66 40 67 46 68 39 69 41 70 42 71 43 72 44 73 68 74 69 75
REMARK SMILES IDX 77 76 70 77 72 78 78 79 71 80 73 81 74 82 75 83 76 84 53 85
REMARK SMILES IDX 54 86 62 87 55 88 57 89 63 90 56 91 58 92 59 93 60 94 61 95
REMARK H PARENT 11 13 83 48 51 59
REMARK Flexibility Score: inf
ROOT
ATOM      1  C   UNL A   1      36.770  21.791  24.832  1.00  0.00     0.202 C 
ENDROOT
BRANCH   1   2
ATOM      2  C   UNL A   1      35.763  22.296  25.871  1.00  0.00     0.261 C 
BRANCH   2   3
ATOM      3  O   UNL A   1      34.945  21.206  26.334  1.00  0.00    -0.460 OA
BRANCH   3   4
ATOM      4  C   UNL A   1      33.908  20.850  25.523  1.00  0.00     0.339 C 
ATOM      5  O   UNL A   1      33.796  19.766  24.963  1.00  0.00    -0.246 OA
BRANCH   4   6
ATOM      6  C   UNL A   1      32.858  21.867  25.492  1.00  0.00     0.071 A 
ATOM      7  C   UNL A   1      31.374  23.503  24.672  1.00  0.00     0.025 A 
ATOM      8  C   UNL A   1      32.317  22.543  24.344  1.00  0.00     0.033 A 
ATOM      9  S   UNL A   1      31.141  23.588  26.367  1.00  0.00    -0.146 S 
ATOM     10  C   UNL A   1      32.280  22.350  26.652  1.00  0.00     0.080 A 
BRANCH   7  11
ATOM     11  C   UNL A   1      30.620  24.444  23.770  1.00  0.00     0.159 C 
BRANCH  11  12
ATOM     12  N   UNL A   1      29.913  25.517  24.444  1.00  0.00    -0.380 N 
ATOM     13  H   UNL A   1      29.279  25.260  25.151  1.00  0.00     0.160 HD
BRANCH  12  14
ATOM     14  C   UNL A   1      30.052  26.866  24.185  1.00  0.00     0.035 A 
ATOM     15  C   UNL A   1      31.077  28.998  24.793  1.00  0.00     0.042 A 
ATOM     16  C   UNL A   1      30.378  29.646  23.775  1.00  0.00     0.014 A 
ATOM     17  C   UNL A   1      30.887  27.628  25.016  1.00  0.00     0.039 A 
ATOM     18  C   UNL A   1      29.534  28.910  22.949  1.00  0.00     0.003 A 
ATOM     19  C   UNL A   1      29.388  27.532  23.146  1.00  0.00     0.026 A 
BRANCH  15  20
ATOM     20  C   UNL A   1      31.950  29.808  25.673  1.00  0.00     0.253 C 
ATOM     21  C   UNL A   1      34.043  30.136  26.878  1.00  0.00     0.146 C 
ATOM     22  N   UNL A   1      33.271  29.419  25.872  1.00  0.00    -0.345 N 
ATOM     23  C   UNL A   1      33.955  28.329  25.190  1.00  0.00     0.146 C 
ATOM     24  O   UNL A   1      31.446  30.809  26.181  1.00  0.00    -0.269 OA
ENDBRANCH  15  20
ENDBRANCH  12  14
ENDBRANCH  11  12
ENDBRANCH   7  11
ENDBRANCH   4   6
ENDBRANCH   3   4
ENDBRANCH   2   3
ENDBRANCH   1   2
BRANCH   1  25
ATOM     25  O   UNL A   1      38.069  22.375  24.969  1.00  0.00    -0.374 OA
BRANCH  25  26
ATOM     26  C   UNL A   1      38.884  21.831  26.011  1.00  0.00     0.202 C 
BRANCH  26  27
ATOM     27  C   UNL A   1      39.404  20.420  25.729  1.00  0.00     0.261 C 
BRANCH  27  28
ATOM     28  O   UNL A   1      40.415  20.055  26.687  1.00  0.00    -0.460 OA
BRANCH  28  29
ATOM     29  C   UNL A   1      41.661  19.913  26.177  1.00  0.00     0.338 C 
ATOM     30  O   UNL A   1      42.098  18.950  25.567  1.00  0.00    -0.246 OA
BRANCH  29  31
ATOM     31  C   UNL A   1      42.411  21.179  26.318  1.00  0.00     0.060 A 
ATOM     32  C   UNL A   1      42.720  21.597  27.619  1.00  0.00     0.016 A 
ATOM     33  C   UNL A   1      42.770  21.968  25.220  1.00  0.00     0.016 A 
ATOM     34  C   UNL A   1      43.330  22.830  27.831  1.00  0.00     0.010 A 
ATOM     35  C   UNL A   1      43.382  23.207  25.435  1.00  0.00     0.010 A 
ATOM     36  C   UNL A   1      43.627  23.661  26.743  1.00  0.00    -0.014 A 
BRANCH  36  37
ATOM     37  C   UNL A   1      44.055  25.058  26.994  1.00  0.00     0.031 A 
ATOM     38  C   UNL A   1      43.060  26.039  27.552  1.00  0.00     0.074 A 
ATOM     39  C   UNL A   1      45.322  25.444  26.754  1.00  0.00     0.049 A 
ATOM     40  N   UNL A   1      43.231  27.292  27.880  1.00  0.00    -0.248 NA
ATOM     41  C   UNL A   1      41.692  25.540  27.770  1.00  0.00     0.031 C 
ATOM     42  C   UNL A   1      46.376  24.591  26.206  1.00  0.00     0.029 A 
ATOM     43  N   UNL A   1      45.928  26.662  26.928  1.00  0.00    -0.354 N 
ATOM     44  C   UNL A   1      41.993  27.739  28.326  1.00  0.00     0.074 A 
ATOM     45  C   UNL A   1      41.074  26.628  28.209  1.00  0.00     0.031 C 
ATOM     46  C   UNL A   1      47.496  25.321  26.069  1.00  0.00     0.029 A 
ATOM     47  C   UNL A   1      47.236  26.691  26.507  1.00  0.00     0.049 A 
ATOM     48  H   UNL A   1      45.470  27.442  27.317  1.00  0.00     0.167 HD
ATOM     49  C   UNL A   1      41.655  28.955  28.814  1.00  0.00     0.034 A 
ATOM     50  C   UNL A   1      48.118  27.710  26.470  1.00  0.00     0.034 A 
ATOM     51  C   UNL A   1      42.571  30.052  28.958  1.00  0.00     0.049 A 
ATOM     52  C   UNL A   1      47.714  29.058  27.005  1.00  0.00     0.074 A 
ATOM     53  C   UNL A   1      42.333  31.308  29.490  1.00  0.00     0.029 A 
ATOM     54  N   UNL A   1      43.899  30.031  28.562  1.00  0.00    -0.354 N 
ATOM     55  N   UNL A   1      46.578  29.422  27.551  1.00  0.00    -0.248 NA
ATOM     56  C   UNL A   1      48.724  30.126  26.955  1.00  0.00     0.031 C 
ATOM     57  C   UNL A   1      43.516  32.050  29.403  1.00  0.00     0.029 A 
ATOM     58  C   UNL A   1      44.493  31.252  28.830  1.00  0.00     0.049 A 
ATOM     59  H   UNL A   1      44.352  29.259  28.151  1.00  0.00     0.167 HD
ATOM     60  C   UNL A   1      46.749  30.747  27.941  1.00  0.00     0.074 A 
ATOM     61  C   UNL A   1      48.104  31.116  27.584  1.00  0.00     0.031 C 
ATOM     62  C   UNL A   1      45.861  31.586  28.528  1.00  0.00     0.034 A 
BRANCH  49  63
ATOM     63  C   UNL A   1      40.236  29.149  29.274  1.00  0.00     0.023 A 
ATOM     64  C   UNL A   1      39.239  29.454  28.326  1.00  0.00     0.012 A 
ATOM     65  C   UNL A   1      39.879  28.978  30.625  1.00  0.00     0.148 A 
ATOM     66  C   UNL A   1      37.910  29.610  28.719  1.00  0.00     0.002 A 
ATOM     67  C   UNL A   1      38.548  29.099  31.004  1.00  0.00     0.091 A 
ATOM     68  F   UNL A   1      40.848  28.717  31.514  1.00  0.00    -0.205 F 
ATOM     69  C   UNL A   1      37.564  29.423  30.055  1.00  0.00     0.022 A 
BRANCH  67  70
ATOM     70  S   UNL A   1      37.997  28.810  32.689  1.00  0.00     0.127 S 
ATOM     71  O   UNL A   1      38.142  27.359  32.802  1.00  0.00    -0.237 OA
ATOM     72  O   UNL A   1      38.963  29.583  33.470  1.00  0.00    -0.237 OA
ATOM     73  O   UNL A   1      36.631  29.312  32.751  1.00  0.00    -0.744 OA
ENDBRANCH  67  70
ENDBRANCH  49  63
BRANCH  50  74
ATOM     74  C   UNL A   1      49.490  27.482  25.939  1.00  0.00     0.023 A 
ATOM     75  C   UNL A   1      49.701  27.430  24.548  1.00  0.00     0.012 A 
ATOM     76  C   UNL A   1      50.589  27.339  26.808  1.00  0.00     0.148 A 
ATOM     77  C   UNL A   1      50.980  27.212  24.032  1.00  0.00     0.002 A 
ATOM     78  C   UNL A   1      51.866  27.174  26.287  1.00  0.00     0.091 A 
ATOM     79  F   UNL A   1      50.362  27.390  28.128  1.00  0.00    -0.205 F 
ATOM     80  C   UNL A   1      52.063  27.093  24.900  1.00  0.00     0.022 A 
BRANCH  78  81
ATOM     81  S   UNL A   1      53.332  27.127  27.322  1.00  0.00     0.127 S 
ATOM     82  O   UNL A   1      53.114  25.911  28.100  1.00  0.00    -0.237 OA
ATOM     83  O   UNL A   1      54.397  27.043  26.325  1.00  0.00    -0.237 OA
ATOM     84  O   UNL A   1      53.318  28.368  28.086  1.00  0.00    -0.744 OA
ENDBRANCH  78  81
ENDBRANCH  50  74
BRANCH  62  85
ATOM     85  C   UNL A   1      46.323  32.981  28.858  1.00  0.00     0.023 A 
ATOM     86  C   UNL A   1      47.059  33.211  30.036  1.00  0.00     0.012 A 
ATOM     87  C   UNL A   1      46.100  34.044  27.961  1.00  0.00     0.148 A 
ATOM     88  C   UNL A   1      47.548  34.484  30.329  1.00  0.00     0.002 A 
ATOM     89  C   UNL A   1      46.627  35.301  28.238  1.00  0.00     0.091 A 
ATOM     90  F   UNL A   1      45.378  33.810  26.855  1.00  0.00    -0.205 F 
ATOM     91  C   UNL A   1      47.342  35.525  29.426  1.00  0.00     0.022 A 
BRANCH  89  92
ATOM     92  S   UNL A   1      46.485  36.672  27.085  1.00  0.00     0.127 S 
ATOM     93  O   UNL A   1      45.038  36.869  27.032  1.00  0.00    -0.237 OA
ATOM     94  O   UNL A   1      47.222  37.735  27.769  1.00  0.00    -0.237 OA
ATOM     95  O   UNL A   1      47.105  36.213  25.849  1.00  0.00    -0.744 OA
ENDBRANCH  89  92
ENDBRANCH  62  85
ENDBRANCH  36  37
ENDBRANCH  29  31
ENDBRANCH  28  29
ENDBRANCH  27  28
ENDBRANCH  26  27
ENDBRANCH  25  26
ENDBRANCH   1  25
TORSDOF 21
ENDMDL
MODEL 3
REMARK VINA RESULT:      -9.3      4.052      8.039
REMARK SMILES CN(C)C(=O)c1cccc(NCc2cc(C(=O)OCCOCCOC(=O)c3ccc(-c4c5nc(c(-c6cccc(S(=O)(=O)[O-])c6F)c6ccc([nH]6)c(-c6cccc(S(=O)(=O)[O-])c6F)c6nc(c(-c7cccc(S(=O)(=O)[O-])c7F)c7ccc4[nH]7)C=C6)C=C5)cc3)cs2)c1
REMARK SMILES IDX 20 1 19 2 18 3 16 4 17 5 15 6 13 7 14 8 91 9 90 10 12 11
REMARK SMILES IDX 11 12 10 14 6 15 7 16 92 17 8 18 9 19 4 20 1 21 2 22 3 23
REMARK SMILES IDX 5 24 21 25 22 26 23 27 24 28 25 29 26 30 27 31 28 32 89 33
REMARK SMILES IDX 29 34 88 35 30 36 31 37 32 38 82 39 33 40 87 41 81 42 83 43
REMARK SMILES IDX 34 44 86 45 80 46 79 47 35 49 67 50 47 51 66 52 48 53 51 54
REMARK SMILES IDX 65 55 84 56 49 57 50 58 64 60 85 61 52 62 36 63 37 64 45 65
REMARK SMILES IDX 38 66 40 67 46 68 39 69 41 70 42 71 43 72 44 73 68 74 69 75
REMARK SMILES IDX 77 76 70 77 72 78 78 79 71 80 73 81 74 82 75 83 76 84 53 85
REMARK SMILES IDX 54 86 62 87 55 88 57 89 63 90 56 91 58 92 59 93 60 94 61 95
REMARK H PARENT 11 13 83 48 51 59
REMARK Flexibility Score: inf
ROOT
ATOM      1  C   UNL A   1      32.922  34.610  28.662  1.00  0.00     0.202 C 
ENDROOT
BRANCH   1   2
ATOM      2  C   UNL A   1      34.315  34.490  28.035  1.00  0.00     0.261 C 
BRANCH   2   3
ATOM      3  O   UNL A   1      35.228  33.893  28.973  1.00  0.00    -0.460 OA
BRANCH   3   4
ATOM      4  C   UNL A   1      34.823  32.720  29.539  1.00  0.00     0.339 C 
ATOM      5  O   UNL A   1      34.288  32.620  30.637  1.00  0.00    -0.246 OA
BRANCH   4   6
ATOM      6  C   UNL A   1      34.981  31.586  28.630  1.00  0.00     0.071 A 
ATOM      7  C   UNL A   1      34.442  29.848  27.133  1.00  0.00     0.025 A 
ATOM      8  C   UNL A   1      33.968  30.941  27.839  1.00  0.00     0.033 A 
ATOM      9  S   UNL A   1      36.112  29.601  27.425  1.00  0.00    -0.146 S 
ATOM     10  C   UNL A   1      36.195  30.944  28.473  1.00  0.00     0.080 A 
BRANCH   7  11
ATOM     11  C   UNL A   1      33.695  28.896  26.237  1.00  0.00     0.159 C 
BRANCH  11  12
ATOM     12  N   UNL A   1      32.250  29.026  26.261  1.00  0.00    -0.380 N 
ATOM     13  H   UNL A   1      31.857  29.506  27.025  1.00  0.00     0.160 HD
BRANCH  12  14
ATOM     14  C   UNL A   1      31.377  28.539  25.308  1.00  0.00     0.035 A 
ATOM     15  C   UNL A   1      30.076  28.958  23.284  1.00  0.00     0.042 A 
ATOM     16  C   UNL A   1      29.556  27.665  23.327  1.00  0.00     0.014 A 
ATOM     17  C   UNL A   1      30.950  29.400  24.286  1.00  0.00     0.039 A 
ATOM     18  C   UNL A   1      29.957  26.801  24.341  1.00  0.00     0.003 A 
ATOM     19  C   UNL A   1      30.870  27.233  25.311  1.00  0.00     0.026 A 
BRANCH  15  20
ATOM     20  C   UNL A   1      29.616  29.866  22.208  1.00  0.00     0.253 C 
ATOM     21  C   UNL A   1      27.936  31.345  21.242  1.00  0.00     0.146 C 
ATOM     22  N   UNL A   1      28.450  30.602  22.386  1.00  0.00    -0.345 N 
ATOM     23  C   UNL A   1      27.662  30.676  23.608  1.00  0.00     0.146 C 
ATOM     24  O   UNL A   1      30.317  29.925  21.198  1.00  0.00    -0.269 OA
ENDBRANCH  15  20
ENDBRANCH  12  14
ENDBRANCH  11  12
ENDBRANCH   7  11
ENDBRANCH   4   6
ENDBRANCH   3   4
ENDBRANCH   2   3
ENDBRANCH   1   2
BRANCH   1  25
ATOM     25  O   UNL A   1      32.558  35.956  28.984  1.00  0.00    -0.374 OA
BRANCH  25  26
ATOM     26  C   UNL A   1      33.547  36.712  29.688  1.00  0.00     0.202 C 
BRANCH  26  27
ATOM     27  C   UNL A   1      33.067  37.284  31.024  1.00  0.00     0.261 C 
BRANCH  27  28
ATOM     28  O   UNL A   1      33.865  36.772  32.107  1.00  0.00    -0.460 OA
BRANCH  28  29
ATOM     29  C   UNL A   1      33.563  35.510  32.493  1.00  0.00     0.338 C 
ATOM     30  O   UNL A   1      32.499  34.932  32.339  1.00  0.00    -0.246 OA
BRANCH  29  31
ATOM     31  C   UNL A   1      34.775  34.835  33.003  1.00  0.00     0.060 A 
ATOM     32  C   UNL A   1      36.002  35.218  32.445  1.00  0.00     0.016 A 
ATOM     33  C   UNL A   1      34.724  33.824  33.967  1.00  0.00     0.016 A 
ATOM     34  C   UNL A   1      37.170  34.551  32.802  1.00  0.00     0.010 A 
ATOM     35  C   UNL A   1      35.899  33.154  34.324  1.00  0.00     0.010 A 
ATOM     36  C   UNL A   1      37.121  33.487  33.712  1.00  0.00    -0.014 A 
BRANCH  36  37
ATOM     37  C   UNL A   1      38.321  32.639  33.902  1.00  0.00     0.031 A 
ATOM     38  C   UNL A   1      39.222  32.900  35.078  1.00  0.00     0.074 A 
ATOM     39  C   UNL A   1      38.593  31.630  33.055  1.00  0.00     0.049 A 
ATOM     40  N   UNL A   1      40.298  32.260  35.454  1.00  0.00    -0.248 NA
ATOM     41  C   UNL A   1      38.863  34.034  35.948  1.00  0.00     0.031 C 
ATOM     42  C   UNL A   1      37.803  31.281  31.875  1.00  0.00     0.029 A 
ATOM     43  N   UNL A   1      39.623  30.724  33.053  1.00  0.00    -0.354 N 
ATOM     44  C   UNL A   1      40.755  32.919  36.588  1.00  0.00     0.074 A 
ATOM     45  C   UNL A   1      39.851  34.022  36.831  1.00  0.00     0.031 C 
ATOM     46  C   UNL A   1      38.391  30.247  31.249  1.00  0.00     0.029 A 
ATOM     47  C   UNL A   1      39.602  29.869  31.976  1.00  0.00     0.049 A 
ATOM     48  H   UNL A   1      40.312  30.688  33.755  1.00  0.00     0.167 HD
ATOM     49  C   UNL A   1      41.815  32.619  37.374  1.00  0.00     0.034 A 
ATOM     50  C   UNL A   1      40.466  28.900  31.615  1.00  0.00     0.034 A 
ATOM     51  C   UNL A   1      42.698  31.508  37.153  1.00  0.00     0.049 A 
ATOM     52  C   UNL A   1      41.647  28.594  32.499  1.00  0.00     0.074 A 
ATOM     53  C   UNL A   1      43.771  31.094  37.924  1.00  0.00     0.029 A 
ATOM     54  N   UNL A   1      42.620  30.638  36.077  1.00  0.00    -0.354 N 
ATOM     55  N   UNL A   1      41.984  29.141  33.643  1.00  0.00    -0.248 NA
ATOM     56  C   UNL A   1      42.546  27.515  32.062  1.00  0.00     0.031 C 
ATOM     57  C   UNL A   1      44.348  29.979  37.306  1.00  0.00     0.029 A 
ATOM     58  C   UNL A   1      43.627  29.692  36.158  1.00  0.00     0.049 A 
ATOM     59  H   UNL A   1      41.946  30.685  35.361  1.00  0.00     0.167 HD
ATOM     60  C   UNL A   1      43.110  28.449  34.080  1.00  0.00     0.074 A 
ATOM     61  C   UNL A   1      43.387  27.432  33.085  1.00  0.00     0.031 C 
ATOM     62  C   UNL A   1      43.854  28.646  35.195  1.00  0.00     0.034 A 
BRANCH  49  63
ATOM     63  C   UNL A   1      42.051  33.485  38.582  1.00  0.00     0.023 A 
ATOM     64  C   UNL A   1      41.585  33.055  39.840  1.00  0.00     0.012 A 
ATOM     65  C   UNL A   1      42.776  34.688  38.485  1.00  0.00     0.148 A 
ATOM     66  C   UNL A   1      41.814  33.822  40.982  1.00  0.00     0.002 A 
ATOM     67  C   UNL A   1      43.032  35.429  39.631  1.00  0.00     0.091 A 
ATOM     68  F   UNL A   1      43.185  35.092  37.274  1.00  0.00    -0.205 F 
ATOM     69  C   UNL A   1      42.546  35.003  40.878  1.00  0.00     0.022 A 
BRANCH  67  70
ATOM     70  S   UNL A   1      44.023  36.928  39.608  1.00  0.00     0.127 S 
ATOM     71  O   UNL A   1      43.918  37.372  40.997  1.00  0.00    -0.237 OA
ATOM     72  O   UNL A   1      45.342  36.423  39.226  1.00  0.00    -0.237 OA
ATOM     73  O   UNL A   1      43.400  37.798  38.620  1.00  0.00    -0.744 OA
ENDBRANCH  67  70
ENDBRANCH  49  63
BRANCH  50  74
ATOM     74  C   UNL A   1      40.225  28.118  30.371  1.00  0.00     0.023 A 
ATOM     75  C   UNL A   1      39.260  27.093  30.367  1.00  0.00     0.012 A 
ATOM     76  C   UNL A   1      40.933  28.402  29.188  1.00  0.00     0.148 A 
ATOM     77  C   UNL A   1      39.023  26.346  29.211  1.00  0.00     0.002 A 
ATOM     78  C   UNL A   1      40.656  27.689  28.028  1.00  0.00     0.091 A 
ATOM     79  F   UNL A   1      41.848  29.381  29.218  1.00  0.00    -0.205 F 
ATOM     80  C   UNL A   1      39.715  26.649  28.041  1.00  0.00     0.022 A 
BRANCH  78  81
ATOM     81  S   UNL A   1      41.412  28.086  26.449  1.00  0.00     0.127 S 
ATOM     82  O   UNL A   1      41.196  26.856  25.693  1.00  0.00    -0.237 OA
ATOM     83  O   UNL A   1      40.611  29.230  26.016  1.00  0.00    -0.237 OA
ATOM     84  O   UNL A   1      42.804  28.402  26.744  1.00  0.00    -0.744 OA
ENDBRANCH  78  81
ENDBRANCH  50  74
BRANCH  62  85
ATOM     85  C   UNL A   1      45.026  27.730  35.430  1.00  0.00     0.023 A 
ATOM     86  C   UNL A   1      46.324  28.157  35.088  1.00  0.00     0.012 A 
ATOM     87  C   UNL A   1      44.850  26.484  36.064  1.00  0.00     0.148 A 
ATOM     88  C   UNL A   1      47.428  27.347  35.354  1.00  0.00     0.002 A 
ATOM     89  C   UNL A   1      45.960  25.702  36.365  1.00  0.00     0.091 A 
ATOM     90  F   UNL A   1      43.605  26.086  36.362  1.00  0.00    -0.205 F 
ATOM     91  C   UNL A   1      47.248  26.127  36.001  1.00  0.00     0.022 A 
BRANCH  89  92
ATOM     92  S   UNL A   1      45.823  24.160  37.278  1.00  0.00     0.127 S 
ATOM     93  O   UNL A   1      47.218  23.730  37.348  1.00  0.00    -0.237 OA
ATOM     94  O   UNL A   1      45.255  24.599  38.553  1.00  0.00    -0.237 OA
ATOM     95  O   UNL A   1      44.940  23.311  36.489  1.00  0.00    -0.744 OA
ENDBRANCH  89  92
ENDBRANCH  62  85
ENDBRANCH  36  37
ENDBRANCH  29  31
ENDBRANCH  28  29
ENDBRANCH  27  28
ENDBRANCH  26  27
ENDBRANCH  25  26
ENDBRANCH   1  25
TORSDOF 21
ENDMDL
