MODEL 1
REMARK VINA RESULT:     -11.4      0.000      0.000
REMARK SMILES C[C@H]1[C@H](C(=O)OCCOCCOC(=O)c2ccc(-c3c4nc(c(-c5cccc(S(=O)(=O)[O-])c5F)c5ccc([nH]5)c(-c5cccc(S(=O)(=O)[O-])c5F)c5nc(c(-c6cccc(S(=O)(=O)[O-])c6F)c6ccc3[nH]6)C=C5)C=C4)cc2)CCN1c1ncnc2sccc12
REMARK SMILES IDX 10 1 9 2 8 3 7 4 6 5 4 6 5 7 3 8 1 9 2 10 80 11 78 12 79 13
REMARK SMILES IDX 81 14 82 15 89 16 83 17 85 18 88 19 84 20 86 21 87 22 11 23
REMARK SMILES IDX 12 24 13 25 14 26 15 27 16 28 77 29 17 30 76 31 18 32 19 33
REMARK SMILES IDX 20 34 70 35 21 36 75 37 69 38 71 39 22 40 74 41 68 42 67 43
REMARK SMILES IDX 23 45 55 46 35 47 54 48 36 49 39 50 53 51 72 52 37 53 38 54
REMARK SMILES IDX 52 56 73 57 40 58 24 59 25 60 33 61 26 62 28 63 34 64 27 65
REMARK SMILES IDX 29 66 30 67 31 68 32 69 56 70 57 71 65 72 58 73 60 74 66 75
REMARK SMILES IDX 59 76 61 77 62 78 63 79 64 80 41 81 42 82 50 83 43 84 45 85
REMARK SMILES IDX 51 86 44 87 46 88 47 89 48 90 49 91
REMARK H PARENT 71 44 39 55
REMARK Flexibility Score: inf
ROOT
ATOM      1  C   UNL A   1      31.029  30.959  25.658  1.00  0.00     0.202 C 
ENDROOT
BRANCH   1   2
ATOM      2  O   UNL A   1      31.785  29.763  25.838  1.00  0.00    -0.374 OA
BRANCH   2   3
ATOM      3  C   UNL A   1      32.428  29.218  24.685  1.00  0.00     0.202 C 
BRANCH   3   4
ATOM      4  C   UNL A   1      31.510  28.753  23.552  1.00  0.00     0.261 C 
BRANCH   4   5
ATOM      5  O   UNL A   1      30.381  28.005  24.038  1.00  0.00    -0.463 OA
BRANCH   5   6
ATOM      6  C   UNL A   1      30.355  26.683  23.728  1.00  0.00     0.311 C 
ATOM      7  O   UNL A   1      29.343  25.993  23.676  1.00  0.00    -0.252 OA
BRANCH   6   8
ATOM      8  C   UNL A   1      31.731  26.096  23.525  1.00  0.00     0.123 C 
ATOM      9  C   UNL A   1      33.116  25.656  25.575  1.00  0.00     0.032 C 
ATOM     10  C   UNL A   1      32.184  25.018  24.534  1.00  0.00     0.095 C 
ATOM     11  N   UNL A   1      32.900  24.033  23.703  1.00  0.00    -0.352 N 
ATOM     12  C   UNL A   1      31.778  25.421  22.166  1.00  0.00     0.039 C 
ATOM     13  C   UNL A   1      32.861  24.368  22.294  1.00  0.00     0.119 C 
BRANCH  11  14
ATOM     14  C   UNL A   1      33.377  22.844  24.214  1.00  0.00     0.141 A 
ATOM     15  N   UNL A   1      32.456  21.941  24.650  1.00  0.00    -0.219 NA
ATOM     16  C   UNL A   1      34.747  22.466  24.333  1.00  0.00     0.054 A 
ATOM     17  C   UNL A   1      32.847  20.769  25.170  1.00  0.00     0.225 A 
ATOM     18  C   UNL A   1      34.998  21.212  24.880  1.00  0.00     0.128 A 
ATOM     19  C   UNL A   1      36.006  23.101  24.017  1.00  0.00     0.026 A 
ATOM     20  N   UNL A   1      34.092  20.332  25.330  1.00  0.00    -0.225 NA
ATOM     21  S   UNL A   1      36.657  20.821  24.960  1.00  0.00    -0.124 S 
ATOM     22  C   UNL A   1      37.104  22.311  24.272  1.00  0.00     0.068 A 
ENDBRANCH  11  14
ENDBRANCH   6   8
ENDBRANCH   5   6
ENDBRANCH   4   5
ENDBRANCH   3   4
ENDBRANCH   2   3
ENDBRANCH   1   2
BRANCH   1  23
ATOM     23  C   UNL A   1      31.450  32.174  26.489  1.00  0.00     0.261 C 
BRANCH  23  24
ATOM     24  O   UNL A   1      32.447  31.840  27.470  1.00  0.00    -0.460 OA
BRANCH  24  25
ATOM     25  C   UNL A   1      33.316  32.837  27.745  1.00  0.00     0.338 C 
ATOM     26  O   UNL A   1      33.036  34.017  27.952  1.00  0.00    -0.246 OA
BRANCH  25  27
ATOM     27  C   UNL A   1      34.683  32.321  27.937  1.00  0.00     0.060 A 
ATOM     28  C   UNL A   1      34.810  30.952  28.200  1.00  0.00     0.016 A 
ATOM     29  C   UNL A   1      35.803  33.156  27.973  1.00  0.00     0.016 A 
ATOM     30  C   UNL A   1      36.037  30.427  28.593  1.00  0.00     0.010 A 
ATOM     31  C   UNL A   1      37.038  32.625  28.368  1.00  0.00     0.010 A 
ATOM     32  C   UNL A   1      37.144  31.272  28.737  1.00  0.00    -0.014 A 
BRANCH  32  33
ATOM     33  C   UNL A   1      38.337  30.754  29.450  1.00  0.00     0.031 A 
ATOM     34  C   UNL A   1      38.601  31.215  30.861  1.00  0.00     0.074 A 
ATOM     35  C   UNL A   1      39.135  29.832  28.883  1.00  0.00     0.049 A 
ATOM     36  N   UNL A   1      39.514  30.813  31.706  1.00  0.00    -0.248 NA
ATOM     37  C   UNL A   1      37.714  32.264  31.391  1.00  0.00     0.031 C 
ATOM     38  C   UNL A   1      38.989  29.310  27.526  1.00  0.00     0.029 A 
ATOM     39  N   UNL A   1      40.230  29.173  29.383  1.00  0.00    -0.354 N 
ATOM     40  C   UNL A   1      39.325  31.568  32.857  1.00  0.00     0.074 A 
ATOM     41  C   UNL A   1      38.224  32.469  32.597  1.00  0.00     0.031 C 
ATOM     42  C   UNL A   1      39.969  28.419  27.295  1.00  0.00     0.029 A 
ATOM     43  C   UNL A   1      40.812  28.310  28.486  1.00  0.00     0.049 A 
ATOM     44  H   UNL A   1      40.568  29.306  30.298  1.00  0.00     0.167 HD
ATOM     45  C   UNL A   1      39.987  31.501  34.037  1.00  0.00     0.034 A 
ATOM     46  C   UNL A   1      41.897  27.521  28.612  1.00  0.00     0.034 A 
ATOM     47  C   UNL A   1      41.064  30.588  34.308  1.00  0.00     0.049 A 
ATOM     48  C   UNL A   1      42.614  27.462  29.936  1.00  0.00     0.074 A 
ATOM     49  C   UNL A   1      41.769  30.414  35.486  1.00  0.00     0.029 A 
ATOM     50  N   UNL A   1      41.596  29.701  33.387  1.00  0.00    -0.354 N 
ATOM     51  N   UNL A   1      42.333  28.081  31.057  1.00  0.00    -0.248 NA
ATOM     52  C   UNL A   1      43.773  26.560  30.025  1.00  0.00     0.031 C 
ATOM     53  C   UNL A   1      42.740  29.429  35.271  1.00  0.00     0.029 A 
ATOM     54  C   UNL A   1      42.626  28.979  33.966  1.00  0.00     0.049 A 
ATOM     55  H   UNL A   1      41.288  29.598  32.458  1.00  0.00     0.167 HD
ATOM     56  C   UNL A   1      43.255  27.618  31.992  1.00  0.00     0.074 A 
ATOM     57  C   UNL A   1      44.088  26.650  31.310  1.00  0.00     0.031 C 
ATOM     58  C   UNL A   1      43.409  27.975  33.292  1.00  0.00     0.034 A 
BRANCH  45  59
ATOM     59  C   UNL A   1      39.533  32.418  35.142  1.00  0.00     0.023 A 
ATOM     60  C   UNL A   1      38.614  31.945  36.102  1.00  0.00     0.012 A 
ATOM     61  C   UNL A   1      40.048  33.723  35.262  1.00  0.00     0.148 A 
ATOM     62  C   UNL A   1      38.192  32.766  37.146  1.00  0.00     0.002 A 
ATOM     63  C   UNL A   1      39.652  34.522  36.329  1.00  0.00     0.091 A 
ATOM     64  F   UNL A   1      40.900  34.164  34.326  1.00  0.00    -0.205 F 
ATOM     65  C   UNL A   1      38.718  34.049  37.265  1.00  0.00     0.022 A 
BRANCH  63  66
ATOM     66  S   UNL A   1      40.327  36.164  36.607  1.00  0.00     0.127 S 
ATOM     67  O   UNL A   1      39.593  36.587  37.799  1.00  0.00    -0.237 OA
ATOM     68  O   UNL A   1      41.745  35.882  36.833  1.00  0.00    -0.237 OA
ATOM     69  O   UNL A   1      40.047  36.921  35.395  1.00  0.00    -0.744 OA
ENDBRANCH  63  66
ENDBRANCH  45  59
BRANCH  46  70
ATOM     70  C   UNL A   1      42.334  26.671  27.467  1.00  0.00     0.023 A 
ATOM     71  C   UNL A   1      43.137  27.230  26.454  1.00  0.00     0.012 A 
ATOM     72  C   UNL A   1      41.975  25.312  27.389  1.00  0.00     0.148 A 
ATOM     73  C   UNL A   1      43.551  26.457  25.369  1.00  0.00     0.002 A 
ATOM     74  C   UNL A   1      42.436  24.534  26.334  1.00  0.00     0.091 A 
ATOM     75  F   UNL A   1      41.192  24.804  28.351  1.00  0.00    -0.205 F 
ATOM     76  C   UNL A   1      43.211  25.108  25.313  1.00  0.00     0.022 A 
BRANCH  74  77
ATOM     77  S   UNL A   1      42.153  22.762  26.254  1.00  0.00     0.127 S 
ATOM     78  O   UNL A   1      40.696  22.692  26.198  1.00  0.00    -0.237 OA
ATOM     79  O   UNL A   1      42.836  22.400  25.011  1.00  0.00    -0.237 OA
ATOM     80  O   UNL A   1      42.771  22.214  27.454  1.00  0.00    -0.744 OA
ENDBRANCH  74  77
ENDBRANCH  46  70
BRANCH  58  81
ATOM     81  C   UNL A   1      44.502  27.297  34.077  1.00  0.00     0.023 A 
ATOM     82  C   UNL A   1      45.814  27.808  34.031  1.00  0.00     0.012 A 
ATOM     83  C   UNL A   1      44.217  26.198  34.912  1.00  0.00     0.148 A 
ATOM     84  C   UNL A   1      46.834  27.214  34.775  1.00  0.00     0.002 A 
ATOM     85  C   UNL A   1      45.229  25.640  35.686  1.00  0.00     0.091 A 
ATOM     86  F   UNL A   1      42.968  25.711  34.929  1.00  0.00    -0.205 F 
ATOM     87  C   UNL A   1      46.539  26.139  35.610  1.00  0.00     0.022 A 
BRANCH  85  88
ATOM     88  S   UNL A   1      44.911  24.314  36.856  1.00  0.00     0.127 S 
ATOM     89  O   UNL A   1      44.539  23.215  35.969  1.00  0.00    -0.237 OA
ATOM     90  O   UNL A   1      46.209  24.154  37.514  1.00  0.00    -0.237 OA
ATOM     91  O   UNL A   1      43.854  24.807  37.731  1.00  0.00    -0.744 OA
ENDBRANCH  85  88
ENDBRANCH  58  81
ENDBRANCH  32  33
ENDBRANCH  25  27
ENDBRANCH  24  25
ENDBRANCH  23  24
ENDBRANCH   1  23
TORSDOF 18
ENDMDL
MODEL 2
REMARK VINA RESULT:     -11.4      4.883     10.334
REMARK SMILES C[C@H]1[C@H](C(=O)OCCOCCOC(=O)c2ccc(-c3c4nc(c(-c5cccc(S(=O)(=O)[O-])c5F)c5ccc([nH]5)c(-c5cccc(S(=O)(=O)[O-])c5F)c5nc(c(-c6cccc(S(=O)(=O)[O-])c6F)c6ccc3[nH]6)C=C5)C=C4)cc2)CCN1c1ncnc2sccc12
REMARK SMILES IDX 10 1 9 2 8 3 7 4 6 5 4 6 5 7 3 8 1 9 2 10 80 11 78 12 79 13
REMARK SMILES IDX 81 14 82 15 89 16 83 17 85 18 88 19 84 20 86 21 87 22 11 23
REMARK SMILES IDX 12 24 13 25 14 26 15 27 16 28 77 29 17 30 76 31 18 32 19 33
REMARK SMILES IDX 20 34 70 35 21 36 75 37 69 38 71 39 22 40 74 41 68 42 67 43
REMARK SMILES IDX 23 45 55 46 35 47 54 48 36 49 39 50 53 51 72 52 37 53 38 54
REMARK SMILES IDX 52 56 73 57 40 58 24 59 25 60 33 61 26 62 28 63 34 64 27 65
REMARK SMILES IDX 29 66 30 67 31 68 32 69 56 70 57 71 65 72 58 73 60 74 66 75
REMARK SMILES IDX 59 76 61 77 62 78 63 79 64 80 41 81 42 82 50 83 43 84 45 85
REMARK SMILES IDX 51 86 44 87 46 88 47 89 48 90 49 91
REMARK H PARENT 71 44 39 55
REMARK Flexibility Score: inf
ROOT
ATOM      1  C   UNL A   1      36.018  20.550  24.974  1.00  0.00     0.202 C 
ENDROOT
BRANCH   1   2
ATOM      2  O   UNL A   1      35.062  19.548  24.633  1.00  0.00    -0.374 OA
BRANCH   2   3
ATOM      3  C   UNL A   1      33.714  19.765  25.050  1.00  0.00     0.202 C 
BRANCH   3   4
ATOM      4  C   UNL A   1      33.522  20.582  26.331  1.00  0.00     0.261 C 
BRANCH   4   5
ATOM      5  O   UNL A   1      32.705  21.747  26.117  1.00  0.00    -0.463 OA
BRANCH   5   6
ATOM      6  C   UNL A   1      33.362  22.926  25.965  1.00  0.00     0.311 C 
ATOM      7  O   UNL A   1      34.339  23.275  26.617  1.00  0.00    -0.252 OA
BRANCH   6   8
ATOM      8  C   UNL A   1      32.718  23.834  24.945  1.00  0.00     0.123 C 
ATOM      9  C   UNL A   1      30.491  24.841  25.533  1.00  0.00     0.032 C 
ATOM     10  C   UNL A   1      32.006  25.093  25.485  1.00  0.00     0.095 C 
ATOM     11  N   UNL A   1      32.345  26.142  24.506  1.00  0.00    -0.352 N 
ATOM     12  C   UNL A   1      33.792  24.351  24.005  1.00  0.00     0.039 C 
ATOM     13  C   UNL A   1      33.245  25.662  23.476  1.00  0.00     0.119 C 
BRANCH  11  14
ATOM     14  C   UNL A   1      31.986  27.462  24.683  1.00  0.00     0.141 A 
ATOM     15  N   UNL A   1      31.017  27.957  23.865  1.00  0.00    -0.219 NA
ATOM     16  C   UNL A   1      32.534  28.363  25.641  1.00  0.00     0.054 A 
ATOM     17  C   UNL A   1      30.625  29.234  23.972  1.00  0.00     0.225 A 
ATOM     18  C   UNL A   1      32.018  29.655  25.641  1.00  0.00     0.128 A 
ATOM     19  C   UNL A   1      33.553  28.265  26.661  1.00  0.00     0.026 A 
ATOM     20  N   UNL A   1      31.079  30.150  24.822  1.00  0.00    -0.225 NA
ATOM     21  S   UNL A   1      32.701  30.664  26.836  1.00  0.00    -0.124 S 
ATOM     22  C   UNL A   1      33.715  29.417  27.396  1.00  0.00     0.068 A 
ENDBRANCH  11  14
ENDBRANCH   6   8
ENDBRANCH   5   6
ENDBRANCH   4   5
ENDBRANCH   3   4
ENDBRANCH   2   3
ENDBRANCH   1   2
BRANCH   1  23
ATOM     23  C   UNL A   1      37.492  20.135  24.948  1.00  0.00     0.261 C 
BRANCH  23  24
ATOM     24  O   UNL A   1      38.374  21.253  25.147  1.00  0.00    -0.460 OA
BRANCH  24  25
ATOM     25  C   UNL A   1      39.420  21.001  25.963  1.00  0.00     0.338 C 
ATOM     26  O   UNL A   1      40.108  19.981  25.978  1.00  0.00    -0.246 OA
BRANCH  25  27
ATOM     27  C   UNL A   1      39.774  22.185  26.765  1.00  0.00     0.060 A 
ATOM     28  C   UNL A   1      39.153  23.391  26.419  1.00  0.00     0.016 A 
ATOM     29  C   UNL A   1      40.761  22.155  27.755  1.00  0.00     0.016 A 
ATOM     30  C   UNL A   1      39.582  24.585  26.989  1.00  0.00     0.010 A 
ATOM     31  C   UNL A   1      41.191  23.359  28.328  1.00  0.00     0.010 A 
ATOM     32  C   UNL A   1      40.644  24.583  27.902  1.00  0.00    -0.014 A 
BRANCH  32  33
ATOM     33  C   UNL A   1      41.279  25.878  28.247  1.00  0.00     0.031 A 
ATOM     34  C   UNL A   1      42.679  26.156  27.761  1.00  0.00     0.074 A 
ATOM     35  C   UNL A   1      40.599  26.825  28.918  1.00  0.00     0.049 A 
ATOM     36  N   UNL A   1      43.383  27.254  27.849  1.00  0.00    -0.248 NA
ATOM     37  C   UNL A   1      43.374  25.051  27.080  1.00  0.00     0.031 C 
ATOM     38  C   UNL A   1      39.244  26.676  29.445  1.00  0.00     0.029 A 
ATOM     39  N   UNL A   1      40.962  28.100  29.271  1.00  0.00    -0.354 N 
ATOM     40  C   UNL A   1      44.606  26.970  27.254  1.00  0.00     0.074 A 
ATOM     41  C   UNL A   1      44.558  25.589  26.827  1.00  0.00     0.031 C 
ATOM     42  C   UNL A   1      38.893  27.815  30.068  1.00  0.00     0.029 A 
ATOM     43  C   UNL A   1      39.999  28.769  29.987  1.00  0.00     0.049 A 
ATOM     44  H   UNL A   1      41.831  28.499  29.035  1.00  0.00     0.167 HD
ATOM     45  C   UNL A   1      45.666  27.789  27.053  1.00  0.00     0.034 A 
ATOM     46  C   UNL A   1      40.006  30.011  30.512  1.00  0.00     0.034 A 
ATOM     47  C   UNL A   1      45.706  29.170  27.452  1.00  0.00     0.049 A 
ATOM     48  C   UNL A   1      41.196  30.904  30.272  1.00  0.00     0.074 A 
ATOM     49  C   UNL A   1      46.717  30.094  27.255  1.00  0.00     0.029 A 
ATOM     50  N   UNL A   1      44.693  29.822  28.137  1.00  0.00    -0.354 N 
ATOM     51  N   UNL A   1      42.286  30.663  29.584  1.00  0.00    -0.248 NA
ATOM     52  C   UNL A   1      41.136  32.258  30.842  1.00  0.00     0.031 C 
ATOM     53  C   UNL A   1      46.319  31.305  27.835  1.00  0.00     0.029 A 
ATOM     54  C   UNL A   1      45.055  31.137  28.377  1.00  0.00     0.049 A 
ATOM     55  H   UNL A   1      43.842  29.413  28.412  1.00  0.00     0.167 HD
ATOM     56  C   UNL A   1      43.025  31.842  29.610  1.00  0.00     0.074 A 
ATOM     57  C   UNL A   1      42.245  32.804  30.361  1.00  0.00     0.031 C 
ATOM     58  C   UNL A   1      44.244  32.101  29.075  1.00  0.00     0.034 A 
BRANCH  45  59
ATOM     59  C   UNL A   1      46.858  27.221  26.330  1.00  0.00     0.023 A 
ATOM     60  C   UNL A   1      46.937  27.337  24.926  1.00  0.00     0.012 A 
ATOM     61  C   UNL A   1      47.917  26.618  27.035  1.00  0.00     0.148 A 
ATOM     62  C   UNL A   1      48.039  26.836  24.234  1.00  0.00     0.002 A 
ATOM     63  C   UNL A   1      49.030  26.157  26.341  1.00  0.00     0.091 A 
ATOM     64  F   UNL A   1      47.812  26.494  28.366  1.00  0.00    -0.205 F 
ATOM     65  C   UNL A   1      49.088  26.256  24.941  1.00  0.00     0.022 A 
BRANCH  63  66
ATOM     66  S   UNL A   1      50.464  25.459  27.170  1.00  0.00     0.127 S 
ATOM     67  O   UNL A   1      49.907  24.233  27.740  1.00  0.00    -0.237 OA
ATOM     68  O   UNL A   1      51.391  25.247  26.058  1.00  0.00    -0.237 OA
ATOM     69  O   UNL A   1      50.895  26.462  28.134  1.00  0.00    -0.744 OA
ENDBRANCH  63  66
ENDBRANCH  45  59
BRANCH  46  70
ATOM     70  C   UNL A   1      38.818  30.506  31.264  1.00  0.00     0.023 A 
ATOM     71  C   UNL A   1      38.755  30.325  32.660  1.00  0.00     0.012 A 
ATOM     72  C   UNL A   1      37.764  31.169  30.609  1.00  0.00     0.148 A 
ATOM     73  C   UNL A   1      37.650  30.771  33.384  1.00  0.00     0.002 A 
ATOM     74  C   UNL A   1      36.692  31.660  31.344  1.00  0.00     0.091 A 
ATOM     75  F   UNL A   1      37.832  31.312  29.278  1.00  0.00    -0.205 F 
ATOM     76  C   UNL A   1      36.624  31.448  32.730  1.00  0.00     0.022 A 
BRANCH  74  77
ATOM     77  S   UNL A   1      35.394  32.655  30.599  1.00  0.00     0.127 S 
ATOM     78  O   UNL A   1      34.438  32.773  31.696  1.00  0.00    -0.237 OA
ATOM     79  O   UNL A   1      36.109  33.889  30.268  1.00  0.00    -0.237 OA
ATOM     80  O   UNL A   1      34.942  31.899  29.439  1.00  0.00    -0.744 OA
ENDBRANCH  74  77
ENDBRANCH  46  70
BRANCH  58  81
ATOM     81  C   UNL A   1      44.806  33.488  29.256  1.00  0.00     0.023 A 
ATOM     82  C   UNL A   1      45.522  33.804  30.427  1.00  0.00     0.012 A 
ATOM     83  C   UNL A   1      44.684  34.455  28.238  1.00  0.00     0.148 A 
ATOM     84  C   UNL A   1      46.077  35.071  30.600  1.00  0.00     0.002 A 
ATOM     85  C   UNL A   1      45.279  35.702  28.397  1.00  0.00     0.091 A 
ATOM     86  F   UNL A   1      43.982  34.146  27.139  1.00  0.00    -0.205 F 
ATOM     87  C   UNL A   1      45.965  36.016  29.581  1.00  0.00     0.022 A 
BRANCH  85  88
ATOM     88  S   UNL A   1      45.260  36.940  27.095  1.00  0.00     0.127 S 
ATOM     89  O   UNL A   1      43.827  37.129  26.882  1.00  0.00    -0.237 OA
ATOM     90  O   UNL A   1      45.937  38.074  27.726  1.00  0.00    -0.237 OA
ATOM     91  O   UNL A   1      45.993  36.349  25.982  1.00  0.00    -0.744 OA
ENDBRANCH  85  88
ENDBRANCH  58  81
ENDBRANCH  32  33
ENDBRANCH  25  27
ENDBRANCH  24  25
ENDBRANCH  23  24
ENDBRANCH   1  23
TORSDOF 18
ENDMDL
MODEL 3
REMARK VINA RESULT:     -11.3      1.586      2.000
REMARK SMILES C[C@H]1[C@H](C(=O)OCCOCCOC(=O)c2ccc(-c3c4nc(c(-c5cccc(S(=O)(=O)[O-])c5F)c5ccc([nH]5)c(-c5cccc(S(=O)(=O)[O-])c5F)c5nc(c(-c6cccc(S(=O)(=O)[O-])c6F)c6ccc3[nH]6)C=C5)C=C4)cc2)CCN1c1ncnc2sccc12
REMARK SMILES IDX 10 1 9 2 8 3 7 4 6 5 4 6 5 7 3 8 1 9 2 10 80 11 78 12 79 13
REMARK SMILES IDX 81 14 82 15 89 16 83 17 85 18 88 19 84 20 86 21 87 22 11 23
REMARK SMILES IDX 12 24 13 25 14 26 15 27 16 28 77 29 17 30 76 31 18 32 19 33
REMARK SMILES IDX 20 34 70 35 21 36 75 37 69 38 71 39 22 40 74 41 68 42 67 43
REMARK SMILES IDX 23 45 55 46 35 47 54 48 36 49 39 50 53 51 72 52 37 53 38 54
REMARK SMILES IDX 52 56 73 57 40 58 24 59 25 60 33 61 26 62 28 63 34 64 27 65
REMARK SMILES IDX 29 66 30 67 31 68 32 69 56 70 57 71 65 72 58 73 60 74 66 75
REMARK SMILES IDX 59 76 61 77 62 78 63 79 64 80 41 81 42 82 50 83 43 84 45 85
REMARK SMILES IDX 51 86 44 87 46 88 47 89 48 90 49 91
REMARK H PARENT 71 44 39 55
REMARK Flexibility Score: inf
ROOT
ATOM      1  C   UNL A   1      31.706  30.059  25.962  1.00  0.00     0.202 C 
ENDROOT
BRANCH   1   2
ATOM      2  O   UNL A   1      30.826  30.208  24.849  1.00  0.00    -0.374 OA
BRANCH   2   3
ATOM      3  C   UNL A   1      30.752  29.120  23.927  1.00  0.00     0.202 C 
BRANCH   3   4
ATOM      4  C   UNL A   1      32.003  28.247  23.806  1.00  0.00     0.261 C 
BRANCH   4   5
ATOM      5  O   UNL A   1      31.700  26.843  23.900  1.00  0.00    -0.463 OA
BRANCH   5   6
ATOM      6  C   UNL A   1      31.489  26.191  22.727  1.00  0.00     0.311 C 
ATOM      7  O   UNL A   1      31.288  26.735  21.647  1.00  0.00    -0.252 OA
BRANCH   6   8
ATOM      8  C   UNL A   1      31.444  24.690  22.884  1.00  0.00     0.123 C 
ATOM      9  C   UNL A   1      33.046  23.333  21.501  1.00  0.00     0.032 C 
ATOM     10  C   UNL A   1      32.800  23.950  22.886  1.00  0.00     0.095 C 
ATOM     11  N   UNL A   1      32.634  22.908  23.916  1.00  0.00    -0.352 N 
ATOM     12  C   UNL A   1      30.801  24.358  24.218  1.00  0.00     0.039 C 
ATOM     13  C   UNL A   1      31.350  22.992  24.582  1.00  0.00     0.119 C 
BRANCH  11  14
ATOM     14  C   UNL A   1      33.669  22.086  24.309  1.00  0.00     0.141 A 
ATOM     15  N   UNL A   1      33.420  20.748  24.346  1.00  0.00    -0.219 NA
ATOM     16  C   UNL A   1      34.981  22.501  24.682  1.00  0.00     0.054 A 
ATOM     17  C   UNL A   1      34.376  19.889  24.729  1.00  0.00     0.225 A 
ATOM     18  C   UNL A   1      35.870  21.493  25.043  1.00  0.00     0.128 A 
ATOM     19  C   UNL A   1      35.648  23.778  24.792  1.00  0.00     0.026 A 
ATOM     20  N   UNL A   1      35.618  20.178  25.102  1.00  0.00    -0.225 NA
ATOM     21  S   UNL A   1      37.426  22.067  25.446  1.00  0.00    -0.124 S 
ATOM     22  C   UNL A   1      36.972  23.681  25.158  1.00  0.00     0.068 A 
ENDBRANCH  11  14
ENDBRANCH   6   8
ENDBRANCH   5   6
ENDBRANCH   4   5
ENDBRANCH   3   4
ENDBRANCH   2   3
ENDBRANCH   1   2
BRANCH   1  23
ATOM     23  C   UNL A   1      32.039  31.328  26.753  1.00  0.00     0.261 C 
BRANCH  23  24
ATOM     24  O   UNL A   1      33.072  31.103  27.728  1.00  0.00    -0.460 OA
BRANCH  24  25
ATOM     25  C   UNL A   1      33.897  32.155  27.920  1.00  0.00     0.338 C 
ATOM     26  O   UNL A   1      33.563  33.329  28.071  1.00  0.00    -0.246 OA
BRANCH  25  27
ATOM     27  C   UNL A   1      35.293  31.718  28.097  1.00  0.00     0.060 A 
ATOM     28  C   UNL A   1      35.526  30.338  28.110  1.00  0.00     0.016 A 
ATOM     29  C   UNL A   1      36.334  32.615  28.353  1.00  0.00     0.016 A 
ATOM     30  C   UNL A   1      36.775  29.844  28.473  1.00  0.00     0.010 A 
ATOM     31  C   UNL A   1      37.591  32.115  28.719  1.00  0.00     0.010 A 
ATOM     32  C   UNL A   1      37.797  30.729  28.838  1.00  0.00    -0.014 A 
BRANCH  32  33
ATOM     33  C   UNL A   1      38.997  30.179  29.515  1.00  0.00     0.031 A 
ATOM     34  C   UNL A   1      39.322  30.639  30.912  1.00  0.00     0.074 A 
ATOM     35  C   UNL A   1      39.747  29.229  28.927  1.00  0.00     0.049 A 
ATOM     36  N   UNL A   1      40.250  30.214  31.729  1.00  0.00    -0.248 NA
ATOM     37  C   UNL A   1      38.485  31.718  31.464  1.00  0.00     0.031 C 
ATOM     38  C   UNL A   1      39.539  28.704  27.579  1.00  0.00     0.029 A 
ATOM     39  N   UNL A   1      40.837  28.539  29.395  1.00  0.00    -0.354 N 
ATOM     40  C   UNL A   1      40.122  30.981  32.881  1.00  0.00     0.074 A 
ATOM     41  C   UNL A   1      39.042  31.914  32.651  1.00  0.00     0.031 C 
ATOM     42  C   UNL A   1      40.484  27.781  27.322  1.00  0.00     0.029 A 
ATOM     43  C   UNL A   1      41.362  27.654  28.485  1.00  0.00     0.049 A 
ATOM     44  H   UNL A   1      41.209  28.667  30.298  1.00  0.00     0.167 HD
ATOM     45  C   UNL A   1      40.821  30.901  34.039  1.00  0.00     0.034 A 
ATOM     46  C   UNL A   1      42.426  26.832  28.580  1.00  0.00     0.034 A 
ATOM     47  C   UNL A   1      41.878  29.956  34.280  1.00  0.00     0.049 A 
ATOM     48  C   UNL A   1      43.184  26.759  29.880  1.00  0.00     0.074 A 
ATOM     49  C   UNL A   1      42.617  29.767  35.435  1.00  0.00     0.029 A 
ATOM     50  N   UNL A   1      42.351  29.048  33.348  1.00  0.00    -0.354 N 
ATOM     51  N   UNL A   1      42.960  27.392  31.006  1.00  0.00    -0.248 NA
ATOM     52  C   UNL A   1      44.317  25.822  29.936  1.00  0.00     0.031 C 
ATOM     53  C   UNL A   1      43.549  28.752  35.194  1.00  0.00     0.029 A 
ATOM     54  C   UNL A   1      43.377  28.298  33.897  1.00  0.00     0.049 A 
ATOM     55  H   UNL A   1      42.009  28.949  32.430  1.00  0.00     0.167 HD
ATOM     56  C   UNL A   1      43.898  26.907  31.912  1.00  0.00     0.074 A 
ATOM     57  C   UNL A   1      44.678  25.909  31.210  1.00  0.00     0.031 C 
ATOM     58  C   UNL A   1      44.107  27.266  33.204  1.00  0.00     0.034 A 
BRANCH  45  59
ATOM     59  C   UNL A   1      40.433  31.838  35.152  1.00  0.00     0.023 A 
ATOM     60  C   UNL A   1      41.123  33.059  35.302  1.00  0.00     0.012 A 
ATOM     61  C   UNL A   1      39.363  31.538  36.016  1.00  0.00     0.148 A 
ATOM     62  C   UNL A   1      40.772  33.953  36.312  1.00  0.00     0.002 A 
ATOM     63  C   UNL A   1      38.993  32.452  36.995  1.00  0.00     0.091 A 
ATOM     64  F   UNL A   1      38.736  30.361  35.874  1.00  0.00    -0.205 F 
ATOM     65  C   UNL A   1      39.703  33.655  37.151  1.00  0.00     0.022 A 
BRANCH  63  66
ATOM     66  S   UNL A   1      37.584  32.190  38.079  1.00  0.00     0.127 S 
ATOM     67  O   UNL A   1      38.084  32.717  39.348  1.00  0.00    -0.237 OA
ATOM     68  O   UNL A   1      36.549  33.007  37.445  1.00  0.00    -0.237 OA
ATOM     69  O   UNL A   1      37.322  30.757  38.053  1.00  0.00    -0.744 OA
ENDBRANCH  63  66
ENDBRANCH  45  59
BRANCH  46  70
ATOM     70  C   UNL A   1      42.798  25.963  27.428  1.00  0.00     0.023 A 
ATOM     71  C   UNL A   1      43.652  26.464  26.427  1.00  0.00     0.012 A 
ATOM     72  C   UNL A   1      42.326  24.639  27.330  1.00  0.00     0.148 A 
ATOM     73  C   UNL A   1      44.007  25.672  25.334  1.00  0.00     0.002 A 
ATOM     74  C   UNL A   1      42.728  23.839  26.267  1.00  0.00     0.091 A 
ATOM     75  F   UNL A   1      41.497  24.188  28.281  1.00  0.00    -0.205 F 
ATOM     76  C   UNL A   1      43.555  24.358  25.259  1.00  0.00     0.022 A 
BRANCH  74  77
ATOM     77  S   UNL A   1      42.297  22.097  26.163  1.00  0.00     0.127 S 
ATOM     78  O   UNL A   1      43.080  21.662  25.010  1.00  0.00    -0.237 OA
ATOM     79  O   UNL A   1      42.766  21.590  27.454  1.00  0.00    -0.237 OA
ATOM     80  O   UNL A   1      40.850  22.064  26.000  1.00  0.00    -0.744 OA
ENDBRANCH  74  77
ENDBRANCH  46  70
BRANCH  58  81
ATOM     81  C   UNL A   1      45.204  26.560  33.957  1.00  0.00     0.023 A 
ATOM     82  C   UNL A   1      46.529  27.031  33.865  1.00  0.00     0.012 A 
ATOM     83  C   UNL A   1      44.914  25.474  34.807  1.00  0.00     0.148 A 
ATOM     84  C   UNL A   1      47.554  26.410  34.579  1.00  0.00     0.002 A 
ATOM     85  C   UNL A   1      45.933  24.889  35.551  1.00  0.00     0.091 A 
ATOM     86  F   UNL A   1      43.652  25.025  34.867  1.00  0.00    -0.205 F 
ATOM     87  C   UNL A   1      47.254  25.348  35.430  1.00  0.00     0.022 A 
BRANCH  85  88
ATOM     88  S   UNL A   1      45.614  23.579  36.738  1.00  0.00     0.127 S 
ATOM     89  O   UNL A   1      44.773  24.261  37.719  1.00  0.00    -0.237 OA
ATOM     90  O   UNL A   1      44.917  22.579  35.927  1.00  0.00    -0.237 OA
ATOM     91  O   UNL A   1      46.925  23.154  37.215  1.00  0.00    -0.744 OA
ENDBRANCH  85  88
ENDBRANCH  58  81
ENDBRANCH  32  33
ENDBRANCH  25  27
ENDBRANCH  24  25
ENDBRANCH  23  24
ENDBRANCH   1  23
TORSDOF 18
ENDMDL
