MODEL 1
REMARK VINA RESULT:     -11.0      0.000      0.000
REMARK SMILES O=C(OCCOCCOC(=O)[C@H]1N=c2ccccc2=C1C[NH2+]CCc1ccccc1)c1ccc(-c2c3nc(c(-c4cccc(S(=O)(=O)[O-])c4F)c4ccc([nH]4)c(-c4cccc(S(=O)(=O)[O-])c4F)c4nc(c(-c5cccc(S(=O)(=O)[O-])c5F)c5ccc2[nH]5)C=C4)C=C3)cc1
REMARK SMILES IDX 7 1 6 2 5 3 4 4 3 5 2 6 1 7 31 8 32 9 93 10 33 11 92 12
REMARK SMILES IDX 34 13 35 14 36 15 86 16 37 17 91 18 85 19 87 20 38 21 90 22
REMARK SMILES IDX 84 23 83 24 39 26 71 27 51 28 70 29 52 30 55 31 69 32 88 33
REMARK SMILES IDX 53 34 54 35 68 37 89 38 56 39 40 40 41 41 49 42 42 43 44 44
REMARK SMILES IDX 50 45 43 46 45 47 46 48 47 49 48 50 72 51 73 52 81 53 74 54
REMARK SMILES IDX 76 55 82 56 75 57 77 58 78 59 79 60 80 61 57 62 58 63 66 64
REMARK SMILES IDX 59 65 61 66 67 67 60 68 62 69 63 70 64 71 65 72 8 73 9 74
REMARK SMILES IDX 10 75 11 76 12 77 13 78 20 79 14 80 19 81 15 82 18 83 16 84
REMARK SMILES IDX 17 85 21 86 22 87 23 90 24 91 25 92 26 93 30 94 27 95 29 96
REMARK SMILES IDX 28 97
REMARK H PARENT 87 25 55 36 22 88 22 89
REMARK Flexibility Score: inf
ROOT
ATOM      1  C   UNL A   1      29.684  27.470  23.529  1.00  0.00     0.202 C 
ENDROOT
BRANCH   1   2
ATOM      2  O   UNL A   1      29.981  28.790  23.984  1.00  0.00    -0.374 OA
BRANCH   2   3
ATOM      3  C   UNL A   1      31.303  29.016  24.470  1.00  0.00     0.202 C 
BRANCH   3   4
ATOM      4  C   UNL A   1      31.351  30.141  25.502  1.00  0.00     0.261 C 
BRANCH   4   5
ATOM      5  O   UNL A   1      32.681  30.636  25.712  1.00  0.00    -0.460 OA
BRANCH   5   6
ATOM      6  C   UNL A   1      33.138  31.272  26.816  1.00  0.00     0.338 C 
ATOM      7  O   UNL A   1      32.469  32.210  27.255  1.00  0.00    -0.246 OA
BRANCH   6   8
ATOM      8  C   UNL A   1      34.364  30.865  27.591  1.00  0.00     0.060 A 
ATOM      9  C   UNL A   1      35.294  31.893  27.839  1.00  0.00     0.016 A 
ATOM     10  C   UNL A   1      34.707  29.572  28.004  1.00  0.00     0.016 A 
ATOM     11  C   UNL A   1      36.532  31.628  28.428  1.00  0.00     0.010 A 
ATOM     12  C   UNL A   1      35.949  29.293  28.565  1.00  0.00     0.010 A 
ATOM     13  C   UNL A   1      36.866  30.318  28.774  1.00  0.00    -0.014 A 
BRANCH  13  14
ATOM     14  C   UNL A   1      38.096  29.995  29.510  1.00  0.00     0.031 A 
ATOM     15  C   UNL A   1      39.067  28.984  28.993  1.00  0.00     0.074 A 
ATOM     16  C   UNL A   1      38.213  30.529  30.737  1.00  0.00     0.049 A 
ATOM     17  N   UNL A   1      40.177  28.568  29.539  1.00  0.00    -0.248 NA
ATOM     18  C   UNL A   1      38.747  28.345  27.706  1.00  0.00     0.031 C 
ATOM     19  C   UNL A   1      37.231  31.429  31.350  1.00  0.00     0.029 A 
ATOM     20  N   UNL A   1      39.164  30.359  31.701  1.00  0.00    -0.354 N 
ATOM     21  C   UNL A   1      40.698  27.624  28.665  1.00  0.00     0.074 A 
ATOM     22  C   UNL A   1      39.765  27.503  27.565  1.00  0.00     0.031 C 
ATOM     23  C   UNL A   1      37.621  31.714  32.598  1.00  0.00     0.029 A 
ATOM     24  C   UNL A   1      38.876  31.022  32.866  1.00  0.00     0.049 A 
ATOM     25  H   UNL A   1      39.974  29.813  31.573  1.00  0.00     0.167 HD
ATOM     26  C   UNL A   1      41.865  26.945  28.771  1.00  0.00     0.034 A 
ATOM     27  C   UNL A   1      39.557  31.073  34.023  1.00  0.00     0.034 A 
ATOM     28  C   UNL A   1      42.756  27.076  29.896  1.00  0.00     0.049 A 
ATOM     29  C   UNL A   1      40.861  30.346  34.108  1.00  0.00     0.074 A 
ATOM     30  C   UNL A   1      43.999  26.502  30.087  1.00  0.00     0.029 A 
ATOM     31  N   UNL A   1      42.482  27.825  31.035  1.00  0.00    -0.354 N 
ATOM     32  N   UNL A   1      41.431  29.583  33.204  1.00  0.00    -0.248 NA
ATOM     33  C   UNL A   1      41.635  30.514  35.340  1.00  0.00     0.031 C 
ATOM     34  C   UNL A   1      44.470  26.891  31.347  1.00  0.00     0.029 A 
ATOM     35  C   UNL A   1      43.527  27.722  31.936  1.00  0.00     0.049 A 
ATOM     36  H   UNL A   1      41.663  28.351  31.180  1.00  0.00     0.167 HD
ATOM     37  C   UNL A   1      42.639  29.183  33.752  1.00  0.00     0.074 A 
ATOM     38  C   UNL A   1      42.726  29.812  35.059  1.00  0.00     0.031 C 
ATOM     39  C   UNL A   1      43.584  28.362  33.229  1.00  0.00     0.034 A 
BRANCH  26  40
ATOM     40  C   UNL A   1      42.279  26.071  27.615  1.00  0.00     0.023 A 
ATOM     41  C   UNL A   1      43.102  26.623  26.610  1.00  0.00     0.012 A 
ATOM     42  C   UNL A   1      41.927  24.710  27.544  1.00  0.00     0.148 A 
ATOM     43  C   UNL A   1      43.550  25.843  25.544  1.00  0.00     0.002 A 
ATOM     44  C   UNL A   1      42.400  23.930  26.492  1.00  0.00     0.091 A 
ATOM     45  F   UNL A   1      41.136  24.204  28.500  1.00  0.00    -0.205 F 
ATOM     46  C   UNL A   1      43.206  24.496  25.490  1.00  0.00     0.022 A 
BRANCH  44  47
ATOM     47  S   UNL A   1      42.054  22.173  26.341  1.00  0.00     0.127 S 
ATOM     48  O   UNL A   1      42.748  21.842  25.097  1.00  0.00    -0.237 OA
ATOM     49  O   UNL A   1      42.678  21.632  27.548  1.00  0.00    -0.237 OA
ATOM     50  O   UNL A   1      40.604  22.048  26.293  1.00  0.00    -0.744 OA
ENDBRANCH  44  47
ENDBRANCH  26  40
BRANCH  27  51
ATOM     51  C   UNL A   1      39.035  31.953  35.098  1.00  0.00     0.023 A 
ATOM     52  C   UNL A   1      38.151  31.403  36.045  1.00  0.00     0.012 A 
ATOM     53  C   UNL A   1      39.564  33.241  35.307  1.00  0.00     0.148 A 
ATOM     54  C   UNL A   1      37.811  32.117  37.192  1.00  0.00     0.002 A 
ATOM     55  C   UNL A   1      39.245  33.935  36.468  1.00  0.00     0.091 A 
ATOM     56  F   UNL A   1      40.424  33.726  34.400  1.00  0.00    -0.205 F 
ATOM     57  C   UNL A   1      38.367  33.375  37.410  1.00  0.00     0.022 A 
BRANCH  55  58
ATOM     58  S   UNL A   1      39.992  35.510  36.902  1.00  0.00     0.127 S 
ATOM     59  O   UNL A   1      39.367  35.794  38.189  1.00  0.00    -0.237 OA
ATOM     60  O   UNL A   1      41.410  35.160  36.968  1.00  0.00    -0.237 OA
ATOM     61  O   UNL A   1      39.640  36.429  35.824  1.00  0.00    -0.744 OA
ENDBRANCH  55  58
ENDBRANCH  27  51
BRANCH  39  62
ATOM     62  C   UNL A   1      44.779  28.072  34.090  1.00  0.00     0.023 A 
ATOM     63  C   UNL A   1      45.896  28.929  34.026  1.00  0.00     0.012 A 
ATOM     64  C   UNL A   1      44.775  26.998  35.001  1.00  0.00     0.148 A 
ATOM     65  C   UNL A   1      47.004  28.708  34.841  1.00  0.00     0.002 A 
ATOM     66  C   UNL A   1      45.868  26.805  35.834  1.00  0.00     0.091 A 
ATOM     67  F   UNL A   1      43.705  26.192  35.031  1.00  0.00    -0.205 F 
ATOM     68  C   UNL A   1      46.985  27.652  35.750  1.00  0.00     0.022 A 
BRANCH  66  69
ATOM     69  S   UNL A   1      45.916  25.513  37.080  1.00  0.00     0.127 S 
ATOM     70  O   UNL A   1      47.183  25.795  37.753  1.00  0.00    -0.237 OA
ATOM     71  O   UNL A   1      44.723  25.806  37.875  1.00  0.00    -0.237 OA
ATOM     72  O   UNL A   1      45.866  24.250  36.355  1.00  0.00    -0.744 OA
ENDBRANCH  66  69
ENDBRANCH  39  62
ENDBRANCH  13  14
ENDBRANCH   6   8
ENDBRANCH   5   6
ENDBRANCH   4   5
ENDBRANCH   3   4
ENDBRANCH   2   3
ENDBRANCH   1   2
BRANCH   1  73
ATOM     73  C   UNL A   1      30.949  26.637  23.311  1.00  0.00     0.261 C 
BRANCH  73  74
ATOM     74  O   UNL A   1      30.776  25.321  23.848  1.00  0.00    -0.461 OA
BRANCH  74  75
ATOM     75  C   UNL A   1      31.780  24.934  24.695  1.00  0.00     0.335 C 
ATOM     76  O   UNL A   1      31.614  24.253  25.702  1.00  0.00    -0.249 OA
BRANCH  75  77
ATOM     77  C   UNL A   1      33.168  25.372  24.182  1.00  0.00     0.248 C 
ATOM     78  N   UNL A   1      34.160  25.392  25.317  1.00  0.00    -0.265 NA
ATOM     79  C   UNL A   1      33.744  24.438  23.159  1.00  0.00     0.029 C 
ATOM     80  C   UNL A   1      35.029  24.505  24.943  1.00  0.00     0.066 A 
ATOM     81  C   UNL A   1      34.858  23.876  23.622  1.00  0.00     0.007 A 
ATOM     82  C   UNL A   1      36.208  24.081  25.729  1.00  0.00     0.028 A 
ATOM     83  C   UNL A   1      35.791  22.915  23.123  1.00  0.00     0.010 A 
ATOM     84  C   UNL A   1      37.044  23.170  25.206  1.00  0.00     0.002 A 
ATOM     85  C   UNL A   1      36.839  22.577  23.893  1.00  0.00     0.001 A 
BRANCH  79  86
ATOM     86  C   UNL A   1      33.057  24.263  21.848  1.00  0.00     0.296 C 
BRANCH  86  87
ATOM     87  N   UNL A   1      32.904  22.847  21.639  1.00  0.00    -0.342 N 
ATOM     88  H   UNL A   1      33.837  22.437  21.608  1.00  0.00     0.346 HD
ATOM     89  H   UNL A   1      32.365  22.764  20.776  1.00  0.00     0.346 HD
BRANCH  87  90
ATOM     90  C   UNL A   1      32.136  22.108  22.631  1.00  0.00     0.265 C 
BRANCH  90  91
ATOM     91  C   UNL A   1      31.774  20.684  22.184  1.00  0.00     0.097 C 
BRANCH  91  92
ATOM     92  C   UNL A   1      32.518  19.615  22.961  1.00  0.00    -0.042 A 
ATOM     93  C   UNL A   1      32.536  18.293  22.496  1.00  0.00     0.004 A 
ATOM     94  C   UNL A   1      33.273  19.949  24.095  1.00  0.00     0.004 A 
ATOM     95  C   UNL A   1      33.301  17.326  23.148  1.00  0.00     0.000 A 
ATOM     96  C   UNL A   1      34.041  18.980  24.741  1.00  0.00     0.000 A 
ATOM     97  C   UNL A   1      34.055  17.670  24.268  1.00  0.00     0.000 A 
ENDBRANCH  91  92
ENDBRANCH  90  91
ENDBRANCH  87  90
ENDBRANCH  86  87
ENDBRANCH  79  86
ENDBRANCH  75  77
ENDBRANCH  74  75
ENDBRANCH  73  74
ENDBRANCH   1  73
TORSDOF 22
ENDMDL
MODEL 2
REMARK VINA RESULT:     -10.9      2.242      4.301
REMARK SMILES O=C(OCCOCCOC(=O)[C@H]1N=c2ccccc2=C1C[NH2+]CCc1ccccc1)c1ccc(-c2c3nc(c(-c4cccc(S(=O)(=O)[O-])c4F)c4ccc([nH]4)c(-c4cccc(S(=O)(=O)[O-])c4F)c4nc(c(-c5cccc(S(=O)(=O)[O-])c5F)c5ccc2[nH]5)C=C4)C=C3)cc1
REMARK SMILES IDX 7 1 6 2 5 3 4 4 3 5 2 6 1 7 31 8 32 9 93 10 33 11 92 12
REMARK SMILES IDX 34 13 35 14 36 15 86 16 37 17 91 18 85 19 87 20 38 21 90 22
REMARK SMILES IDX 84 23 83 24 39 26 71 27 51 28 70 29 52 30 55 31 69 32 88 33
REMARK SMILES IDX 53 34 54 35 68 37 89 38 56 39 40 40 41 41 49 42 42 43 44 44
REMARK SMILES IDX 50 45 43 46 45 47 46 48 47 49 48 50 72 51 73 52 81 53 74 54
REMARK SMILES IDX 76 55 82 56 75 57 77 58 78 59 79 60 80 61 57 62 58 63 66 64
REMARK SMILES IDX 59 65 61 66 67 67 60 68 62 69 63 70 64 71 65 72 8 73 9 74
REMARK SMILES IDX 10 75 11 76 12 77 13 78 20 79 14 80 19 81 15 82 18 83 16 84
REMARK SMILES IDX 17 85 21 86 22 87 23 90 24 91 25 92 26 93 30 94 27 95 29 96
REMARK SMILES IDX 28 97
REMARK H PARENT 87 25 55 36 22 88 22 89
REMARK Flexibility Score: inf
ROOT
ATOM      1  C   UNL A   1      32.260  29.515  27.212  1.00  0.00     0.202 C 
ENDROOT
BRANCH   1   2
ATOM      2  O   UNL A   1      31.656  30.281  26.170  1.00  0.00    -0.374 OA
BRANCH   2   3
ATOM      3  C   UNL A   1      31.378  31.649  26.460  1.00  0.00     0.202 C 
BRANCH   3   4
ATOM      4  C   UNL A   1      32.622  32.402  26.927  1.00  0.00     0.261 C 
BRANCH   4   5
ATOM      5  O   UNL A   1      32.301  33.594  27.658  1.00  0.00    -0.460 OA
BRANCH   5   6
ATOM      6  C   UNL A   1      33.106  34.247  28.529  1.00  0.00     0.338 C 
ATOM      7  O   UNL A   1      32.753  35.367  28.903  1.00  0.00    -0.246 OA
BRANCH   6   8
ATOM      8  C   UNL A   1      34.359  33.670  29.132  1.00  0.00     0.060 A 
ATOM      9  C   UNL A   1      34.161  32.758  30.187  1.00  0.00     0.016 A 
ATOM     10  C   UNL A   1      35.679  34.010  28.814  1.00  0.00     0.016 A 
ATOM     11  C   UNL A   1      35.233  32.251  30.922  1.00  0.00     0.010 A 
ATOM     12  C   UNL A   1      36.753  33.532  29.558  1.00  0.00     0.010 A 
ATOM     13  C   UNL A   1      36.533  32.656  30.616  1.00  0.00    -0.014 A 
BRANCH  13  14
ATOM     14  C   UNL A   1      37.709  32.063  31.268  1.00  0.00     0.031 A 
ATOM     15  C   UNL A   1      38.434  30.907  30.659  1.00  0.00     0.074 A 
ATOM     16  C   UNL A   1      37.988  32.504  32.505  1.00  0.00     0.049 A 
ATOM     17  N   UNL A   1      39.464  30.255  31.125  1.00  0.00    -0.248 NA
ATOM     18  C   UNL A   1      37.932  30.406  29.369  1.00  0.00     0.031 C 
ATOM     19  C   UNL A   1      37.235  33.548  33.207  1.00  0.00     0.029 A 
ATOM     20  N   UNL A   1      38.932  32.103  33.407  1.00  0.00    -0.354 N 
ATOM     21  C   UNL A   1      39.745  29.271  30.188  1.00  0.00     0.074 A 
ATOM     22  C   UNL A   1      38.755  29.389  29.139  1.00  0.00     0.031 C 
ATOM     23  C   UNL A   1      37.734  33.690  34.441  1.00  0.00     0.029 A 
ATOM     24  C   UNL A   1      38.837  32.753  34.611  1.00  0.00     0.049 A 
ATOM     25  H   UNL A   1      39.611  31.416  33.213  1.00  0.00     0.167 HD
ATOM     26  C   UNL A   1      40.759  28.372  30.202  1.00  0.00     0.034 A 
ATOM     27  C   UNL A   1      39.570  32.613  35.728  1.00  0.00     0.034 A 
ATOM     28  C   UNL A   1      41.710  28.271  31.279  1.00  0.00     0.049 A 
ATOM     29  C   UNL A   1      40.707  31.642  35.712  1.00  0.00     0.074 A 
ATOM     30  C   UNL A   1      42.823  27.456  31.376  1.00  0.00     0.029 A 
ATOM     31  N   UNL A   1      41.646  29.003  32.458  1.00  0.00    -0.354 N 
ATOM     32  N   UNL A   1      41.070  30.827  34.749  1.00  0.00    -0.248 NA
ATOM     33  C   UNL A   1      41.557  31.595  36.903  1.00  0.00     0.031 C 
ATOM     34  C   UNL A   1      43.422  27.684  32.622  1.00  0.00     0.029 A 
ATOM     35  C   UNL A   1      42.691  28.654  33.294  1.00  0.00     0.049 A 
ATOM     36  H   UNL A   1      40.955  29.672  32.669  1.00  0.00     0.167 HD
ATOM     37  C   UNL A   1      42.200  30.171  35.211  1.00  0.00     0.074 A 
ATOM     38  C   UNL A   1      42.473  30.707  36.535  1.00  0.00     0.031 C 
ATOM     39  C   UNL A   1      42.936  29.208  34.605  1.00  0.00     0.034 A 
BRANCH  26  40
ATOM     40  C   UNL A   1      40.935  27.491  28.991  1.00  0.00     0.023 A 
ATOM     41  C   UNL A   1      40.146  26.326  28.880  1.00  0.00     0.012 A 
ATOM     42  C   UNL A   1      41.809  27.831  27.941  1.00  0.00     0.148 A 
ATOM     43  C   UNL A   1      40.239  25.504  27.759  1.00  0.00     0.002 A 
ATOM     44  C   UNL A   1      41.876  27.021  26.812  1.00  0.00     0.091 A 
ATOM     45  F   UNL A   1      42.560  28.935  28.066  1.00  0.00    -0.205 F 
ATOM     46  C   UNL A   1      41.096  25.855  26.721  1.00  0.00     0.022 A 
BRANCH  44  47
ATOM     47  S   UNL A   1      42.917  27.396  25.395  1.00  0.00     0.127 S 
ATOM     48  O   UNL A   1      42.172  28.482  24.761  1.00  0.00    -0.237 OA
ATOM     49  O   UNL A   1      44.168  27.806  26.032  1.00  0.00    -0.237 OA
ATOM     50  O   UNL A   1      43.001  26.167  24.617  1.00  0.00    -0.744 OA
ENDBRANCH  44  47
ENDBRANCH  26  40
BRANCH  27  51
ATOM     51  C   UNL A   1      39.286  33.525  36.864  1.00  0.00     0.023 A 
ATOM     52  C   UNL A   1      38.357  33.115  37.838  1.00  0.00     0.012 A 
ATOM     53  C   UNL A   1      40.069  34.674  37.092  1.00  0.00     0.148 A 
ATOM     54  C   UNL A   1      38.221  33.825  39.029  1.00  0.00     0.002 A 
ATOM     55  C   UNL A   1      39.951  35.360  38.294  1.00  0.00     0.091 A 
ATOM     56  F   UNL A   1      40.964  35.024  36.156  1.00  0.00    -0.205 F 
ATOM     57  C   UNL A   1      39.025  34.938  39.263  1.00  0.00     0.022 A 
BRANCH  55  58
ATOM     58  S   UNL A   1      41.016  36.735  38.744  1.00  0.00     0.127 S 
ATOM     59  O   UNL A   1      40.061  37.835  38.837  1.00  0.00    -0.237 OA
ATOM     60  O   UNL A   1      41.563  36.283  40.022  1.00  0.00    -0.237 OA
ATOM     61  O   UNL A   1      41.994  36.850  37.667  1.00  0.00    -0.744 OA
ENDBRANCH  55  58
ENDBRANCH  27  51
BRANCH  39  62
ATOM     62  C   UNL A   1      44.091  28.647  35.385  1.00  0.00     0.023 A 
ATOM     63  C   UNL A   1      45.366  29.227  35.236  1.00  0.00     0.012 A 
ATOM     64  C   UNL A   1      43.904  27.598  36.305  1.00  0.00     0.148 A 
ATOM     65  C   UNL A   1      46.447  28.754  35.976  1.00  0.00     0.002 A 
ATOM     66  C   UNL A   1      44.979  27.155  37.064  1.00  0.00     0.091 A 
ATOM     67  F   UNL A   1      42.683  27.056  36.417  1.00  0.00    -0.205 F 
ATOM     68  C   UNL A   1      46.252  27.725  36.895  1.00  0.00     0.022 A 
BRANCH  66  69
ATOM     69  S   UNL A   1      44.817  25.879  38.317  1.00  0.00     0.127 S 
ATOM     70  O   UNL A   1      46.185  25.783  38.823  1.00  0.00    -0.237 OA
ATOM     71  O   UNL A   1      43.861  26.480  39.248  1.00  0.00    -0.237 OA
ATOM     72  O   UNL A   1      44.326  24.694  37.626  1.00  0.00    -0.744 OA
ENDBRANCH  66  69
ENDBRANCH  39  62
ENDBRANCH  13  14
ENDBRANCH   6   8
ENDBRANCH   5   6
ENDBRANCH   4   5
ENDBRANCH   3   4
ENDBRANCH   2   3
ENDBRANCH   1   2
BRANCH   1  73
ATOM     73  C   UNL A   1      31.753  28.071  27.236  1.00  0.00     0.261 C 
BRANCH  73  74
ATOM     74  O   UNL A   1      32.451  27.284  26.265  1.00  0.00    -0.461 OA
BRANCH  74  75
ATOM     75  C   UNL A   1      32.145  25.950  26.313  1.00  0.00     0.335 C 
ATOM     76  O   UNL A   1      31.172  25.481  26.896  1.00  0.00    -0.249 OA
BRANCH  75  77
ATOM     77  C   UNL A   1      33.114  25.106  25.459  1.00  0.00     0.248 C 
ATOM     78  N   UNL A   1      33.887  24.154  26.336  1.00  0.00    -0.265 NA
ATOM     79  C   UNL A   1      32.418  24.247  24.445  1.00  0.00     0.029 C 
ATOM     80  C   UNL A   1      33.520  22.996  25.881  1.00  0.00     0.066 A 
ATOM     81  C   UNL A   1      32.626  22.959  24.710  1.00  0.00     0.007 A 
ATOM     82  C   UNL A   1      33.946  21.690  26.428  1.00  0.00     0.028 A 
ATOM     83  C   UNL A   1      32.205  21.724  24.128  1.00  0.00     0.010 A 
ATOM     84  C   UNL A   1      33.510  20.565  25.839  1.00  0.00     0.002 A 
ATOM     85  C   UNL A   1      32.631  20.575  24.680  1.00  0.00     0.001 A 
BRANCH  79  86
ATOM     86  C   UNL A   1      31.637  24.883  23.347  1.00  0.00     0.296 C 
BRANCH  86  87
ATOM     87  N   UNL A   1      30.245  24.755  23.692  1.00  0.00    -0.342 N 
ATOM     88  H   UNL A   1      30.191  24.222  24.560  1.00  0.00     0.346 HD
ATOM     89  H   UNL A   1      29.813  24.307  22.882  1.00  0.00     0.346 HD
BRANCH  87  90
ATOM     90  C   UNL A   1      29.491  25.985  23.886  1.00  0.00     0.265 C 
BRANCH  90  91
ATOM     91  C   UNL A   1      30.265  27.245  23.469  1.00  0.00     0.097 C 
BRANCH  91  92
ATOM     92  C   UNL A   1      29.366  28.447  23.260  1.00  0.00    -0.042 A 
ATOM     93  C   UNL A   1      27.976  28.282  23.195  1.00  0.00     0.004 A 
ATOM     94  C   UNL A   1      29.900  29.744  23.226  1.00  0.00     0.004 A 
ATOM     95  C   UNL A   1      27.136  29.392  23.105  1.00  0.00     0.000 A 
ATOM     96  C   UNL A   1      29.057  30.852  23.142  1.00  0.00     0.000 A 
ATOM     97  C   UNL A   1      27.676  30.676  23.082  1.00  0.00     0.000 A 
ENDBRANCH  91  92
ENDBRANCH  90  91
ENDBRANCH  87  90
ENDBRANCH  86  87
ENDBRANCH  79  86
ENDBRANCH  75  77
ENDBRANCH  74  75
ENDBRANCH  73  74
ENDBRANCH   1  73
TORSDOF 22
ENDMDL
MODEL 3
REMARK VINA RESULT:     -10.9      1.610      7.872
REMARK SMILES O=C(OCCOCCOC(=O)[C@H]1N=c2ccccc2=C1C[NH2+]CCc1ccccc1)c1ccc(-c2c3nc(c(-c4cccc(S(=O)(=O)[O-])c4F)c4ccc([nH]4)c(-c4cccc(S(=O)(=O)[O-])c4F)c4nc(c(-c5cccc(S(=O)(=O)[O-])c5F)c5ccc2[nH]5)C=C4)C=C3)cc1
REMARK SMILES IDX 7 1 6 2 5 3 4 4 3 5 2 6 1 7 31 8 32 9 93 10 33 11 92 12
REMARK SMILES IDX 34 13 35 14 36 15 86 16 37 17 91 18 85 19 87 20 38 21 90 22
REMARK SMILES IDX 84 23 83 24 39 26 71 27 51 28 70 29 52 30 55 31 69 32 88 33
REMARK SMILES IDX 53 34 54 35 68 37 89 38 56 39 40 40 41 41 49 42 42 43 44 44
REMARK SMILES IDX 50 45 43 46 45 47 46 48 47 49 48 50 72 51 73 52 81 53 74 54
REMARK SMILES IDX 76 55 82 56 75 57 77 58 78 59 79 60 80 61 57 62 58 63 66 64
REMARK SMILES IDX 59 65 61 66 67 67 60 68 62 69 63 70 64 71 65 72 8 73 9 74
REMARK SMILES IDX 10 75 11 76 12 77 13 78 20 79 14 80 19 81 15 82 18 83 16 84
REMARK SMILES IDX 17 85 21 86 22 87 23 90 24 91 25 92 26 93 30 94 27 95 29 96
REMARK SMILES IDX 28 97
REMARK H PARENT 87 25 55 36 22 88 22 89
REMARK Flexibility Score: inf
ROOT
ATOM      1  C   UNL A   1      31.288  27.322  26.770  1.00  0.00     0.202 C 
ENDROOT
BRANCH   1   2
ATOM      2  O   UNL A   1      31.710  28.193  25.721  1.00  0.00    -0.374 OA
BRANCH   2   3
ATOM      3  C   UNL A   1      32.757  29.110  26.033  1.00  0.00     0.202 C 
BRANCH   3   4
ATOM      4  C   UNL A   1      32.219  30.438  26.561  1.00  0.00     0.261 C 
BRANCH   4   5
ATOM      5  O   UNL A   1      33.171  31.504  26.438  1.00  0.00    -0.460 OA
BRANCH   5   6
ATOM      6  C   UNL A   1      33.810  32.135  27.451  1.00  0.00     0.338 C 
ATOM      7  O   UNL A   1      33.278  33.142  27.924  1.00  0.00    -0.246 OA
BRANCH   6   8
ATOM      8  C   UNL A   1      35.082  31.649  28.093  1.00  0.00     0.060 A 
ATOM      9  C   UNL A   1      35.017  30.370  28.679  1.00  0.00     0.016 A 
ATOM     10  C   UNL A   1      36.276  32.365  28.241  1.00  0.00     0.016 A 
ATOM     11  C   UNL A   1      36.080  29.854  29.422  1.00  0.00     0.010 A 
ATOM     12  C   UNL A   1      37.331  31.872  29.003  1.00  0.00     0.010 A 
ATOM     13  C   UNL A   1      37.234  30.619  29.599  1.00  0.00    -0.014 A 
BRANCH  13  14
ATOM     14  C   UNL A   1      38.432  30.082  30.260  1.00  0.00     0.031 A 
ATOM     15  C   UNL A   1      38.904  30.626  31.569  1.00  0.00     0.074 A 
ATOM     16  C   UNL A   1      39.160  29.205  29.551  1.00  0.00     0.049 A 
ATOM     17  N   UNL A   1      39.957  30.282  32.261  1.00  0.00    -0.248 NA
ATOM     18  C   UNL A   1      38.106  31.703  32.175  1.00  0.00     0.031 C 
ATOM     19  C   UNL A   1      38.814  28.729  28.208  1.00  0.00     0.029 A 
ATOM     20  N   UNL A   1      40.354  28.602  29.826  1.00  0.00    -0.354 N 
ATOM     21  C   UNL A   1      39.949  31.091  33.389  1.00  0.00     0.074 A 
ATOM     22  C   UNL A   1      38.804  31.968  33.273  1.00  0.00     0.031 C 
ATOM     23  C   UNL A   1      39.787  27.923  27.767  1.00  0.00     0.029 A 
ATOM     24  C   UNL A   1      40.817  27.826  28.795  1.00  0.00     0.049 A 
ATOM     25  H   UNL A   1      40.834  28.714  30.679  1.00  0.00     0.167 HD
ATOM     26  C   UNL A   1      40.813  31.073  34.432  1.00  0.00     0.034 A 
ATOM     27  C   UNL A   1      41.946  27.107  28.694  1.00  0.00     0.034 A 
ATOM     28  C   UNL A   1      41.956  30.200  34.497  1.00  0.00     0.049 A 
ATOM     29  C   UNL A   1      42.869  27.071  29.870  1.00  0.00     0.074 A 
ATOM     30  C   UNL A   1      42.861  30.034  35.529  1.00  0.00     0.029 A 
ATOM     31  N   UNL A   1      42.361  29.355  33.470  1.00  0.00    -0.354 N 
ATOM     32  N   UNL A   1      42.766  27.717  31.008  1.00  0.00    -0.248 NA
ATOM     33  C   UNL A   1      44.033  26.188  29.774  1.00  0.00     0.031 C 
ATOM     34  C   UNL A   1      43.822  29.101  35.120  1.00  0.00     0.029 A 
ATOM     35  C   UNL A   1      43.506  28.671  33.838  1.00  0.00     0.049 A 
ATOM     36  H   UNL A   1      41.900  29.257  32.606  1.00  0.00     0.167 HD
ATOM     37  C   UNL A   1      43.848  27.313  31.775  1.00  0.00     0.074 A 
ATOM     38  C   UNL A   1      44.580  26.347  30.974  1.00  0.00     0.031 C 
ATOM     39  C   UNL A   1      44.210  27.713  33.019  1.00  0.00     0.034 A 
BRANCH  26  40
ATOM     40  C   UNL A   1      40.510  31.962  35.612  1.00  0.00     0.023 A 
ATOM     41  C   UNL A   1      41.358  33.061  35.867  1.00  0.00     0.012 A 
ATOM     42  C   UNL A   1      39.373  31.769  36.419  1.00  0.00     0.148 A 
ATOM     43  C   UNL A   1      41.093  33.939  36.918  1.00  0.00     0.002 A 
ATOM     44  C   UNL A   1      39.099  32.665  37.449  1.00  0.00     0.091 A 
ATOM     45  F   UNL A   1      38.583  30.714  36.171  1.00  0.00    -0.205 F 
ATOM     46  C   UNL A   1      39.961  33.746  37.702  1.00  0.00     0.022 A 
BRANCH  44  47
ATOM     47  S   UNL A   1      37.647  32.539  38.500  1.00  0.00     0.127 S 
ATOM     48  O   UNL A   1      36.583  32.944  37.582  1.00  0.00    -0.237 OA
ATOM     49  O   UNL A   1      37.641  31.119  38.849  1.00  0.00    -0.237 OA
ATOM     50  O   UNL A   1      37.876  33.444  39.619  1.00  0.00    -0.744 OA
ENDBRANCH  44  47
ENDBRANCH  26  40
BRANCH  27  51
ATOM     51  C   UNL A   1      42.142  26.288  27.472  1.00  0.00     0.023 A 
ATOM     52  C   UNL A   1      42.911  26.824  26.422  1.00  0.00     0.012 A 
ATOM     53  C   UNL A   1      41.761  24.933  27.432  1.00  0.00     0.148 A 
ATOM     54  C   UNL A   1      43.309  26.020  25.355  1.00  0.00     0.002 A 
ATOM     55  C   UNL A   1      42.188  24.129  26.382  1.00  0.00     0.091 A 
ATOM     56  F   UNL A   1      41.052  24.445  28.461  1.00  0.00    -0.205 F 
ATOM     57  C   UNL A   1      42.960  24.672  25.342  1.00  0.00     0.022 A 
BRANCH  55  58
ATOM     58  S   UNL A   1      41.892  22.358  26.323  1.00  0.00     0.127 S 
ATOM     59  O   UNL A   1      42.670  21.963  25.154  1.00  0.00    -0.237 OA
ATOM     60  O   UNL A   1      42.440  21.921  27.606  1.00  0.00    -0.237 OA
ATOM     61  O   UNL A   1      40.447  22.200  26.191  1.00  0.00    -0.744 OA
ENDBRANCH  55  58
ENDBRANCH  27  51
BRANCH  39  62
ATOM     62  C   UNL A   1      45.475  27.127  33.576  1.00  0.00     0.023 A 
ATOM     63  C   UNL A   1      46.713  27.684  33.201  1.00  0.00     0.012 A 
ATOM     64  C   UNL A   1      45.438  26.074  34.510  1.00  0.00     0.148 A 
ATOM     65  C   UNL A   1      47.902  27.186  33.731  1.00  0.00     0.002 A 
ATOM     66  C   UNL A   1      46.623  25.607  35.061  1.00  0.00     0.091 A 
ATOM     67  F   UNL A   1      44.247  25.554  34.838  1.00  0.00    -0.205 F 
ATOM     68  C   UNL A   1      47.855  26.155  34.667  1.00  0.00     0.022 A 
BRANCH  66  69
ATOM     69  S   UNL A   1      46.665  24.325  36.318  1.00  0.00     0.127 S 
ATOM     70  O   UNL A   1      48.067  24.360  36.732  1.00  0.00    -0.237 OA
ATOM     71  O   UNL A   1      45.722  24.837  37.311  1.00  0.00    -0.237 OA
ATOM     72  O   UNL A   1      46.244  23.097  35.656  1.00  0.00    -0.744 OA
ENDBRANCH  66  69
ENDBRANCH  39  62
ENDBRANCH  13  14
ENDBRANCH   6   8
ENDBRANCH   5   6
ENDBRANCH   4   5
ENDBRANCH   3   4
ENDBRANCH   2   3
ENDBRANCH   1   2
BRANCH   1  73
ATOM     73  C   UNL A   1      31.676  25.866  26.501  1.00  0.00     0.261 C 
BRANCH  73  74
ATOM     74  O   UNL A   1      30.526  25.019  26.599  1.00  0.00    -0.461 OA
BRANCH  74  75
ATOM     75  C   UNL A   1      30.825  23.682  26.622  1.00  0.00     0.335 C 
ATOM     76  O   UNL A   1      30.154  22.831  27.198  1.00  0.00    -0.249 OA
BRANCH  75  77
ATOM     77  C   UNL A   1      32.054  23.352  25.750  1.00  0.00     0.248 C 
ATOM     78  N   UNL A   1      32.926  22.336  26.443  1.00  0.00    -0.265 NA
ATOM     79  C   UNL A   1      31.697  22.742  24.427  1.00  0.00     0.029 C 
ATOM     80  C   UNL A   1      32.895  21.334  25.620  1.00  0.00     0.066 A 
ATOM     81  C   UNL A   1      32.171  21.500  24.347  1.00  0.00     0.007 A 
ATOM     82  C   UNL A   1      33.552  20.028  25.840  1.00  0.00     0.028 A 
ATOM     83  C   UNL A   1      32.119  20.457  23.373  1.00  0.00     0.010 A 
ATOM     84  C   UNL A   1      33.461  19.086  24.887  1.00  0.00     0.002 A 
ATOM     85  C   UNL A   1      32.739  19.295  23.642  1.00  0.00     0.001 A 
BRANCH  79  86
ATOM     86  C   UNL A   1      30.916  23.533  23.434  1.00  0.00     0.296 C 
BRANCH  86  87
ATOM     87  N   UNL A   1      31.742  24.643  23.036  1.00  0.00    -0.342 N 
ATOM     88  H   UNL A   1      31.817  25.273  23.835  1.00  0.00     0.346 HD
ATOM     89  H   UNL A   1      31.277  25.036  22.217  1.00  0.00     0.346 HD
BRANCH  87  90
ATOM     90  C   UNL A   1      33.094  24.338  22.590  1.00  0.00     0.265 C 
BRANCH  90  91
ATOM     91  C   UNL A   1      34.180  25.060  23.403  1.00  0.00     0.097 C 
BRANCH  91  92
ATOM     92  C   UNL A   1      35.147  24.105  24.073  1.00  0.00    -0.042 A 
ATOM     93  C   UNL A   1      35.634  24.385  25.357  1.00  0.00     0.004 A 
ATOM     94  C   UNL A   1      35.491  22.890  23.463  1.00  0.00     0.004 A 
ATOM     95  C   UNL A   1      36.443  23.463  26.022  1.00  0.00     0.000 A 
ATOM     96  C   UNL A   1      36.296  21.967  24.133  1.00  0.00     0.000 A 
ATOM     97  C   UNL A   1      36.771  22.254  25.411  1.00  0.00     0.000 A 
ENDBRANCH  91  92
ENDBRANCH  90  91
ENDBRANCH  87  90
ENDBRANCH  86  87
ENDBRANCH  79  86
ENDBRANCH  75  77
ENDBRANCH  74  75
ENDBRANCH  73  74
ENDBRANCH   1  73
TORSDOF 22
ENDMDL
