MODEL 1
REMARK VINA RESULT:     -10.2      0.000      0.000
REMARK SMILES CCCCCn1c(SCC(=O)OCCOCCOC(=O)c2ccc(-c3c4nc(c(-c5cccc(S(=O)(=O)[O-])c5F)c5ccc([nH]5)c(-c5cccc(S(=O)(=O)[O-])c5F)c5nc(c(-c6cccc(S(=O)(=O)[O-])c6F)c6ccc3[nH]6)C=C5)C=C4)cc2)nc2ccccc2c1=O
REMARK SMILES IDX 13 1 12 2 10 3 11 4 9 5 8 6 7 7 6 8 91 9 84 10 90 11 92 12
REMARK SMILES IDX 85 13 89 14 86 15 88 16 87 17 5 18 4 19 3 20 2 21 1 22 14 23
REMARK SMILES IDX 15 24 16 25 17 26 18 27 19 28 20 29 21 30 22 31 83 32 23 33
REMARK SMILES IDX 82 34 24 35 25 36 26 37 76 38 27 39 81 40 75 41 77 42 28 43
REMARK SMILES IDX 80 44 74 45 73 46 29 48 61 49 41 50 60 51 42 52 45 53 59 54
REMARK SMILES IDX 78 55 43 56 44 57 58 59 79 60 46 61 30 62 31 63 39 64 32 65
REMARK SMILES IDX 34 66 40 67 33 68 35 69 36 70 37 71 38 72 62 73 63 74 71 75
REMARK SMILES IDX 64 76 66 77 72 78 65 79 67 80 68 81 69 82 70 83 47 84 48 85
REMARK SMILES IDX 56 86 49 87 51 88 57 89 50 90 52 91 53 92 54 93 55 94
REMARK H PARENT 77 47 45 58
REMARK Flexibility Score: inf
ROOT
ATOM      1  C   UNL A   1      30.024  27.262  23.462  1.00  0.00     0.261 C 
ENDROOT
BRANCH   1   2
ATOM      2  O   UNL A   1      30.690  26.033  23.080  1.00  0.00    -0.463 OA
BRANCH   2   3
ATOM      3  C   UNL A   1      31.079  25.207  24.093  1.00  0.00     0.316 C 
ATOM      4  O   UNL A   1      31.013  25.493  25.285  1.00  0.00    -0.251 OA
BRANCH   3   5
ATOM      5  C   UNL A   1      31.652  23.881  23.619  1.00  0.00     0.200 C 
BRANCH   5   6
ATOM      6  S   UNL A   1      31.654  22.557  24.808  1.00  0.00    -0.076 SA
BRANCH   6   7
ATOM      7  C   UNL A   1      32.895  21.323  24.670  1.00  0.00     0.171 A 
ATOM      8  N   UNL A   1      34.152  21.264  25.274  1.00  0.00    -0.287 N 
ATOM      9  C   UNL A   1      34.992  20.194  24.945  1.00  0.00     0.262 A 
ATOM     10  N   UNL A   1      32.434  20.345  23.946  1.00  0.00    -0.224 NA
ATOM     11  C   UNL A   1      34.353  18.971  24.475  1.00  0.00     0.066 A 
ATOM     12  O   UNL A   1      36.220  20.216  25.002  1.00  0.00    -0.269 OA
ATOM     13  C   UNL A   1      33.111  19.125  23.890  1.00  0.00     0.079 A 
ATOM     14  C   UNL A   1      34.946  17.715  24.639  1.00  0.00     0.016 A 
ATOM     15  C   UNL A   1      32.493  17.998  23.346  1.00  0.00     0.029 A 
ATOM     16  C   UNL A   1      34.294  16.587  24.148  1.00  0.00     0.001 A 
ATOM     17  C   UNL A   1      33.084  16.733  23.469  1.00  0.00     0.002 A 
BRANCH   8  18
ATOM     18  C   UNL A   1      34.803  22.240  26.152  1.00  0.00     0.128 C 
BRANCH  18  19
ATOM     19  C   UNL A   1      35.230  23.551  25.443  1.00  0.00     0.022 C 
BRANCH  19  20
ATOM     20  C   UNL A   1      36.334  24.414  26.066  1.00  0.00     0.002 C 
BRANCH  20  21
ATOM     21  C   UNL A   1      37.764  23.983  25.755  1.00  0.00    -0.003 C 
ATOM     22  C   UNL A   1      38.688  24.114  26.953  1.00  0.00     0.004 C 
ENDBRANCH  20  21
ENDBRANCH  19  20
ENDBRANCH  18  19
ENDBRANCH   8  18
ENDBRANCH   6   7
ENDBRANCH   5   6
ENDBRANCH   3   5
ENDBRANCH   2   3
ENDBRANCH   1   2
BRANCH   1  23
ATOM     23  C   UNL A   1      30.953  28.491  23.463  1.00  0.00     0.202 C 
BRANCH  23  24
ATOM     24  O   UNL A   1      30.684  29.495  24.446  1.00  0.00    -0.374 OA
BRANCH  24  25
ATOM     25  C   UNL A   1      31.705  29.593  25.435  1.00  0.00     0.202 C 
BRANCH  25  26
ATOM     26  C   UNL A   1      31.796  30.973  26.088  1.00  0.00     0.261 C 
BRANCH  26  27
ATOM     27  O   UNL A   1      32.606  30.858  27.252  1.00  0.00    -0.460 OA
BRANCH  27  28
ATOM     28  C   UNL A   1      33.363  31.956  27.443  1.00  0.00     0.338 C 
ATOM     29  O   UNL A   1      32.971  33.114  27.438  1.00  0.00    -0.246 OA
BRANCH  28  30
ATOM     30  C   UNL A   1      34.684  31.512  27.926  1.00  0.00     0.060 A 
ATOM     31  C   UNL A   1      35.761  32.397  28.079  1.00  0.00     0.016 A 
ATOM     32  C   UNL A   1      34.843  30.143  28.155  1.00  0.00     0.016 A 
ATOM     33  C   UNL A   1      36.987  31.909  28.515  1.00  0.00     0.010 A 
ATOM     34  C   UNL A   1      36.058  29.660  28.618  1.00  0.00     0.010 A 
ATOM     35  C   UNL A   1      37.120  30.547  28.833  1.00  0.00    -0.014 A 
BRANCH  35  36
ATOM     36  C   UNL A   1      38.296  30.092  29.594  1.00  0.00     0.031 A 
ATOM     37  C   UNL A   1      39.279  29.133  29.014  1.00  0.00     0.074 A 
ATOM     38  C   UNL A   1      38.400  30.531  30.863  1.00  0.00     0.049 A 
ATOM     39  N   UNL A   1      40.375  28.674  29.553  1.00  0.00    -0.248 NA
ATOM     40  C   UNL A   1      39.001  28.609  27.668  1.00  0.00     0.031 C 
ATOM     41  C   UNL A   1      37.432  31.412  31.526  1.00  0.00     0.029 A 
ATOM     42  N   UNL A   1      39.348  30.301  31.821  1.00  0.00    -0.354 N 
ATOM     43  C   UNL A   1      40.910  27.792  28.628  1.00  0.00     0.074 A 
ATOM     44  C   UNL A   1      40.016  27.772  27.491  1.00  0.00     0.031 C 
ATOM     45  C   UNL A   1      37.854  31.674  32.769  1.00  0.00     0.029 A 
ATOM     46  C   UNL A   1      39.098  30.954  33.003  1.00  0.00     0.049 A 
ATOM     47  H   UNL A   1      40.134  29.724  31.677  1.00  0.00     0.167 HD
ATOM     48  C   UNL A   1      42.053  27.079  28.730  1.00  0.00     0.034 A 
ATOM     49  C   UNL A   1      39.798  30.972  34.153  1.00  0.00     0.034 A 
ATOM     50  C   UNL A   1      42.929  27.133  29.869  1.00  0.00     0.049 A 
ATOM     51  C   UNL A   1      41.075  30.195  34.222  1.00  0.00     0.074 A 
ATOM     52  C   UNL A   1      44.154  26.514  30.035  1.00  0.00     0.029 A 
ATOM     53  N   UNL A   1      42.663  27.827  31.039  1.00  0.00    -0.354 N 
ATOM     54  N   UNL A   1      41.643  29.477  33.284  1.00  0.00    -0.248 NA
ATOM     55  C   UNL A   1      41.819  30.240  35.486  1.00  0.00     0.031 C 
ATOM     56  C   UNL A   1      44.615  26.809  31.320  1.00  0.00     0.029 A 
ATOM     57  C   UNL A   1      43.691  27.635  31.943  1.00  0.00     0.049 A 
ATOM     58  H   UNL A   1      41.861  28.376  31.202  1.00  0.00     0.167 HD
ATOM     59  C   UNL A   1      42.820  28.995  33.835  1.00  0.00     0.074 A 
ATOM     60  C   UNL A   1      42.890  29.512  35.188  1.00  0.00     0.031 C 
ATOM     61  C   UNL A   1      43.751  28.189  33.272  1.00  0.00     0.034 A 
BRANCH  48  62
ATOM     62  C   UNL A   1      42.455  26.206  27.576  1.00  0.00     0.023 A 
ATOM     63  C   UNL A   1      43.191  26.761  26.511  1.00  0.00     0.012 A 
ATOM     64  C   UNL A   1      42.209  24.820  27.604  1.00  0.00     0.148 A 
ATOM     65  C   UNL A   1      43.674  25.948  25.486  1.00  0.00     0.002 A 
ATOM     66  C   UNL A   1      42.716  24.013  26.595  1.00  0.00     0.091 A 
ATOM     67  F   UNL A   1      41.494  24.320  28.623  1.00  0.00    -0.205 F 
ATOM     68  C   UNL A   1      43.447  24.575  25.534  1.00  0.00     0.022 A 
BRANCH  66  69
ATOM     69  S   UNL A   1      42.519  22.228  26.584  1.00  0.00     0.127 S 
ATOM     70  O   UNL A   1      43.559  21.824  25.637  1.00  0.00    -0.237 OA
ATOM     71  O   UNL A   1      42.795  21.881  27.978  1.00  0.00    -0.237 OA
ATOM     72  O   UNL A   1      41.155  21.973  26.144  1.00  0.00    -0.744 OA
ENDBRANCH  66  69
ENDBRANCH  48  62
BRANCH  49  73
ATOM     73  C   UNL A   1      39.315  31.823  35.270  1.00  0.00     0.023 A 
ATOM     74  C   UNL A   1      38.393  31.289  36.189  1.00  0.00     0.012 A 
ATOM     75  C   UNL A   1      39.868  33.097  35.503  1.00  0.00     0.148 A 
ATOM     76  C   UNL A   1      38.028  32.011  37.325  1.00  0.00     0.002 A 
ATOM     77  C   UNL A   1      39.527  33.797  36.654  1.00  0.00     0.091 A 
ATOM     78  F   UNL A   1      40.757  33.571  34.619  1.00  0.00    -0.205 F 
ATOM     79  C   UNL A   1      38.602  33.258  37.563  1.00  0.00     0.022 A 
BRANCH  77  80
ATOM     80  S   UNL A   1      40.286  35.362  37.099  1.00  0.00     0.127 S 
ATOM     81  O   UNL A   1      40.046  35.410  38.540  1.00  0.00    -0.237 OA
ATOM     82  O   UNL A   1      41.679  35.138  36.713  1.00  0.00    -0.237 OA
ATOM     83  O   UNL A   1      39.593  36.377  36.319  1.00  0.00    -0.744 OA
ENDBRANCH  77  80
ENDBRANCH  49  73
BRANCH  61  84
ATOM     84  C   UNL A   1      44.943  27.805  34.099  1.00  0.00     0.023 A 
ATOM     85  C   UNL A   1      46.093  28.616  34.068  1.00  0.00     0.012 A 
ATOM     86  C   UNL A   1      44.854  26.748  35.026  1.00  0.00     0.148 A 
ATOM     87  C   UNL A   1      47.139  28.384  34.958  1.00  0.00     0.002 A 
ATOM     88  C   UNL A   1      45.885  26.545  35.932  1.00  0.00     0.091 A 
ATOM     89  F   UNL A   1      43.745  25.995  35.026  1.00  0.00    -0.205 F 
ATOM     90  C   UNL A   1      47.029  27.361  35.898  1.00  0.00     0.022 A 
BRANCH  88  91
ATOM     91  S   UNL A   1      45.802  25.306  37.229  1.00  0.00     0.127 S 
ATOM     92  O   UNL A   1      45.775  24.066  36.453  1.00  0.00    -0.237 OA
ATOM     93  O   UNL A   1      47.046  25.543  37.959  1.00  0.00    -0.237 OA
ATOM     94  O   UNL A   1      44.587  25.586  37.981  1.00  0.00    -0.744 OA
ENDBRANCH  88  91
ENDBRANCH  61  84
ENDBRANCH  35  36
ENDBRANCH  28  30
ENDBRANCH  27  28
ENDBRANCH  26  27
ENDBRANCH  25  26
ENDBRANCH  24  25
ENDBRANCH  23  24
ENDBRANCH   1  23
TORSDOF 23
ENDMDL
MODEL 2
REMARK VINA RESULT:     -10.0      3.118      5.388
REMARK SMILES CCCCCn1c(SCC(=O)OCCOCCOC(=O)c2ccc(-c3c4nc(c(-c5cccc(S(=O)(=O)[O-])c5F)c5ccc([nH]5)c(-c5cccc(S(=O)(=O)[O-])c5F)c5nc(c(-c6cccc(S(=O)(=O)[O-])c6F)c6ccc3[nH]6)C=C5)C=C4)cc2)nc2ccccc2c1=O
REMARK SMILES IDX 13 1 12 2 10 3 11 4 9 5 8 6 7 7 6 8 91 9 84 10 90 11 92 12
REMARK SMILES IDX 85 13 89 14 86 15 88 16 87 17 5 18 4 19 3 20 2 21 1 22 14 23
REMARK SMILES IDX 15 24 16 25 17 26 18 27 19 28 20 29 21 30 22 31 83 32 23 33
REMARK SMILES IDX 82 34 24 35 25 36 26 37 76 38 27 39 81 40 75 41 77 42 28 43
REMARK SMILES IDX 80 44 74 45 73 46 29 48 61 49 41 50 60 51 42 52 45 53 59 54
REMARK SMILES IDX 78 55 43 56 44 57 58 59 79 60 46 61 30 62 31 63 39 64 32 65
REMARK SMILES IDX 34 66 40 67 33 68 35 69 36 70 37 71 38 72 62 73 63 74 71 75
REMARK SMILES IDX 64 76 66 77 72 78 65 79 67 80 68 81 69 82 70 83 47 84 48 85
REMARK SMILES IDX 56 86 49 87 51 88 57 89 50 90 52 91 53 92 54 93 55 94
REMARK H PARENT 77 47 45 58
REMARK Flexibility Score: inf
ROOT
ATOM      1  C   UNL A   1      33.122  28.751  25.712  1.00  0.00     0.261 C 
ENDROOT
BRANCH   1   2
ATOM      2  O   UNL A   1      33.551  27.373  25.833  1.00  0.00    -0.463 OA
BRANCH   2   3
ATOM      3  C   UNL A   1      33.774  26.697  24.669  1.00  0.00     0.316 C 
ATOM      4  O   UNL A   1      34.145  25.529  24.606  1.00  0.00    -0.251 OA
BRANCH   3   5
ATOM      5  C   UNL A   1      33.557  27.536  23.419  1.00  0.00     0.200 C 
BRANCH   5   6
ATOM      6  S   UNL A   1      32.249  27.008  22.336  1.00  0.00    -0.076 SA
BRANCH   6   7
ATOM      7  C   UNL A   1      30.647  27.683  22.581  1.00  0.00     0.171 A 
ATOM      8  N   UNL A   1      29.598  27.204  23.368  1.00  0.00    -0.287 N 
ATOM      9  C   UNL A   1      28.383  27.898  23.341  1.00  0.00     0.262 A 
ATOM     10  N   UNL A   1      30.574  28.823  21.958  1.00  0.00    -0.224 NA
ATOM     11  C   UNL A   1      28.435  29.309  22.978  1.00  0.00     0.066 A 
ATOM     12  O   UNL A   1      27.282  27.405  23.576  1.00  0.00    -0.269 OA
ATOM     13  C   UNL A   1      29.508  29.693  22.197  1.00  0.00     0.079 A 
ATOM     14  C   UNL A   1      27.476  30.224  23.425  1.00  0.00     0.016 A 
ATOM     15  C   UNL A   1      29.561  31.015  21.750  1.00  0.00     0.029 A 
ATOM     16  C   UNL A   1      27.570  31.555  23.025  1.00  0.00     0.001 A 
ATOM     17  C   UNL A   1      28.592  31.942  22.158  1.00  0.00     0.002 A 
BRANCH   8  18
ATOM     18  C   UNL A   1      29.528  25.979  24.168  1.00  0.00     0.128 C 
BRANCH  18  19
ATOM     19  C   UNL A   1      30.241  26.072  25.542  1.00  0.00     0.022 C 
BRANCH  19  20
ATOM     20  C   UNL A   1      30.282  24.836  26.449  1.00  0.00     0.002 C 
BRANCH  20  21
ATOM     21  C   UNL A   1      31.483  23.916  26.259  1.00  0.00    -0.003 C 
ATOM     22  C   UNL A   1      31.155  22.691  25.423  1.00  0.00     0.004 C 
ENDBRANCH  20  21
ENDBRANCH  19  20
ENDBRANCH  18  19
ENDBRANCH   8  18
ENDBRANCH   6   7
ENDBRANCH   5   6
ENDBRANCH   3   5
ENDBRANCH   2   3
ENDBRANCH   1   2
BRANCH   1  23
ATOM     23  C   UNL A   1      33.959  29.733  26.554  1.00  0.00     0.202 C 
BRANCH  23  24
ATOM     24  O   UNL A   1      33.237  30.592  27.441  1.00  0.00    -0.374 OA
BRANCH  24  25
ATOM     25  C   UNL A   1      32.127  31.231  26.815  1.00  0.00     0.202 C 
BRANCH  25  26
ATOM     26  C   UNL A   1      32.015  32.721  27.137  1.00  0.00     0.261 C 
BRANCH  26  27
ATOM     27  O   UNL A   1      33.330  33.234  27.317  1.00  0.00    -0.460 OA
BRANCH  27  28
ATOM     28  C   UNL A   1      33.399  34.075  28.368  1.00  0.00     0.338 C 
ATOM     29  O   UNL A   1      32.580  34.933  28.660  1.00  0.00    -0.246 OA
BRANCH  28  30
ATOM     30  C   UNL A   1      34.481  33.603  29.250  1.00  0.00     0.060 A 
ATOM     31  C   UNL A   1      34.261  32.666  30.270  1.00  0.00     0.016 A 
ATOM     32  C   UNL A   1      35.737  34.192  29.078  1.00  0.00     0.016 A 
ATOM     33  C   UNL A   1      35.320  32.282  31.083  1.00  0.00     0.010 A 
ATOM     34  C   UNL A   1      36.801  33.787  29.870  1.00  0.00     0.010 A 
ATOM     35  C   UNL A   1      36.602  32.807  30.850  1.00  0.00    -0.014 A 
BRANCH  35  36
ATOM     36  C   UNL A   1      37.772  32.170  31.479  1.00  0.00     0.031 A 
ATOM     37  C   UNL A   1      38.491  31.039  30.827  1.00  0.00     0.074 A 
ATOM     38  C   UNL A   1      38.116  32.616  32.702  1.00  0.00     0.049 A 
ATOM     39  N   UNL A   1      39.554  30.408  31.246  1.00  0.00    -0.248 NA
ATOM     40  C   UNL A   1      37.953  30.539  29.552  1.00  0.00     0.031 C 
ATOM     41  C   UNL A   1      37.409  33.670  33.439  1.00  0.00     0.029 A 
ATOM     42  N   UNL A   1      39.128  32.247  33.544  1.00  0.00    -0.354 N 
ATOM     43  C   UNL A   1      39.803  29.422  30.304  1.00  0.00     0.074 A 
ATOM     44  C   UNL A   1      38.778  29.531  29.290  1.00  0.00     0.031 C 
ATOM     45  C   UNL A   1      38.030  33.885  34.605  1.00  0.00     0.029 A 
ATOM     46  C   UNL A   1      39.152  32.963  34.716  1.00  0.00     0.049 A 
ATOM     47  H   UNL A   1      39.777  31.537  33.331  1.00  0.00     0.167 HD
ATOM     48  C   UNL A   1      40.810  28.522  30.296  1.00  0.00     0.034 A 
ATOM     49  C   UNL A   1      39.989  32.887  35.766  1.00  0.00     0.034 A 
ATOM     50  C   UNL A   1      41.825  28.450  31.313  1.00  0.00     0.049 A 
ATOM     51  C   UNL A   1      41.112  31.899  35.712  1.00  0.00     0.074 A 
ATOM     52  C   UNL A   1      42.937  27.629  31.353  1.00  0.00     0.029 A 
ATOM     53  N   UNL A   1      41.838  29.209  32.473  1.00  0.00    -0.354 N 
ATOM     54  N   UNL A   1      41.420  31.068  34.746  1.00  0.00    -0.248 NA
ATOM     55  C   UNL A   1      42.013  31.844  36.869  1.00  0.00     0.031 C 
ATOM     56  C   UNL A   1      43.606  27.871  32.555  1.00  0.00     0.029 A 
ATOM     57  C   UNL A   1      42.928  28.862  33.248  1.00  0.00     0.049 A 
ATOM     58  H   UNL A   1      41.171  29.894  32.708  1.00  0.00     0.167 HD
ATOM     59  C   UNL A   1      42.560  30.401  35.168  1.00  0.00     0.074 A 
ATOM     60  C   UNL A   1      42.894  30.932  36.475  1.00  0.00     0.031 C 
ATOM     61  C   UNL A   1      43.256  29.430  34.532  1.00  0.00     0.034 A 
BRANCH  48  62
ATOM     62  C   UNL A   1      40.902  27.563  29.144  1.00  0.00     0.023 A 
ATOM     63  C   UNL A   1      40.035  26.454  29.095  1.00  0.00     0.012 A 
ATOM     64  C   UNL A   1      41.760  27.824  28.058  1.00  0.00     0.148 A 
ATOM     65  C   UNL A   1      40.022  25.615  27.982  1.00  0.00     0.002 A 
ATOM     66  C   UNL A   1      41.722  27.000  26.941  1.00  0.00     0.091 A 
ATOM     67  F   UNL A   1      42.584  28.879  28.137  1.00  0.00    -0.205 F 
ATOM     68  C   UNL A   1      40.855  25.894  26.902  1.00  0.00     0.022 A 
BRANCH  66  69
ATOM     69  S   UNL A   1      42.721  27.296  25.479  1.00  0.00     0.127 S 
ATOM     70  O   UNL A   1      42.265  28.626  25.076  1.00  0.00    -0.237 OA
ATOM     71  O   UNL A   1      44.078  27.254  26.022  1.00  0.00    -0.237 OA
ATOM     72  O   UNL A   1      42.398  26.226  24.544  1.00  0.00    -0.744 OA
ENDBRANCH  66  69
ENDBRANCH  48  62
BRANCH  49  73
ATOM     73  C   UNL A   1      39.811  33.837  36.893  1.00  0.00     0.023 A 
ATOM     74  C   UNL A   1      40.083  35.203  36.687  1.00  0.00     0.012 A 
ATOM     75  C   UNL A   1      39.247  33.419  38.114  1.00  0.00     0.148 A 
ATOM     76  C   UNL A   1      39.794  36.139  37.680  1.00  0.00     0.002 A 
ATOM     77  C   UNL A   1      38.929  34.360  39.085  1.00  0.00     0.091 A 
ATOM     78  F   UNL A   1      38.983  32.115  38.273  1.00  0.00    -0.205 F 
ATOM     79  C   UNL A   1      39.208  35.720  38.873  1.00  0.00     0.022 A 
BRANCH  77  80
ATOM     80  S   UNL A   1      38.083  33.934  40.610  1.00  0.00     0.127 S 
ATOM     81  O   UNL A   1      38.010  35.230  41.283  1.00  0.00    -0.237 OA
ATOM     82  O   UNL A   1      36.804  33.427  40.110  1.00  0.00    -0.237 OA
ATOM     83  O   UNL A   1      38.918  32.939  41.266  1.00  0.00    -0.744 OA
ENDBRANCH  77  80
ENDBRANCH  49  73
BRANCH  61  84
ATOM     84  C   UNL A   1      44.463  28.863  35.220  1.00  0.00     0.023 A 
ATOM     85  C   UNL A   1      45.720  29.460  35.011  1.00  0.00     0.012 A 
ATOM     86  C   UNL A   1      44.317  27.859  36.197  1.00  0.00     0.148 A 
ATOM     87  C   UNL A   1      46.819  29.069  35.773  1.00  0.00     0.002 A 
ATOM     88  C   UNL A   1      45.407  27.499  36.976  1.00  0.00     0.091 A 
ATOM     89  F   UNL A   1      43.106  27.310  36.369  1.00  0.00    -0.205 F 
ATOM     90  C   UNL A   1      46.659  28.102  36.764  1.00  0.00     0.022 A 
BRANCH  88  91
ATOM     91  S   UNL A   1      45.285  26.323  38.327  1.00  0.00     0.127 S 
ATOM     92  O   UNL A   1      46.299  26.828  39.252  1.00  0.00    -0.237 OA
ATOM     93  O   UNL A   1      43.905  26.509  38.773  1.00  0.00    -0.237 OA
ATOM     94  O   UNL A   1      45.573  25.015  37.755  1.00  0.00    -0.744 OA
ENDBRANCH  88  91
ENDBRANCH  61  84
ENDBRANCH  35  36
ENDBRANCH  28  30
ENDBRANCH  27  28
ENDBRANCH  26  27
ENDBRANCH  25  26
ENDBRANCH  24  25
ENDBRANCH  23  24
ENDBRANCH   1  23
TORSDOF 23
ENDMDL
MODEL 3
REMARK VINA RESULT:      -9.9      2.547      8.141
REMARK SMILES CCCCCn1c(SCC(=O)OCCOCCOC(=O)c2ccc(-c3c4nc(c(-c5cccc(S(=O)(=O)[O-])c5F)c5ccc([nH]5)c(-c5cccc(S(=O)(=O)[O-])c5F)c5nc(c(-c6cccc(S(=O)(=O)[O-])c6F)c6ccc3[nH]6)C=C5)C=C4)cc2)nc2ccccc2c1=O
REMARK SMILES IDX 13 1 12 2 10 3 11 4 9 5 8 6 7 7 6 8 91 9 84 10 90 11 92 12
REMARK SMILES IDX 85 13 89 14 86 15 88 16 87 17 5 18 4 19 3 20 2 21 1 22 14 23
REMARK SMILES IDX 15 24 16 25 17 26 18 27 19 28 20 29 21 30 22 31 83 32 23 33
REMARK SMILES IDX 82 34 24 35 25 36 26 37 76 38 27 39 81 40 75 41 77 42 28 43
REMARK SMILES IDX 80 44 74 45 73 46 29 48 61 49 41 50 60 51 42 52 45 53 59 54
REMARK SMILES IDX 78 55 43 56 44 57 58 59 79 60 46 61 30 62 31 63 39 64 32 65
REMARK SMILES IDX 34 66 40 67 33 68 35 69 36 70 37 71 38 72 62 73 63 74 71 75
REMARK SMILES IDX 64 76 66 77 72 78 65 79 67 80 68 81 69 82 70 83 47 84 48 85
REMARK SMILES IDX 56 86 49 87 51 88 57 89 50 90 52 91 53 92 54 93 55 94
REMARK H PARENT 77 47 45 58
REMARK Flexibility Score: inf
ROOT
ATOM      1  C   UNL A   1      31.598  29.154  24.764  1.00  0.00     0.261 C 
ENDROOT
BRANCH   1   2
ATOM      2  O   UNL A   1      32.027  27.784  24.575  1.00  0.00    -0.463 OA
BRANCH   2   3
ATOM      3  C   UNL A   1      32.895  27.549  23.550  1.00  0.00     0.316 C 
ATOM      4  O   UNL A   1      33.181  28.369  22.682  1.00  0.00    -0.251 OA
BRANCH   3   5
ATOM      5  C   UNL A   1      33.471  26.142  23.542  1.00  0.00     0.200 C 
BRANCH   5   6
ATOM      6  S   UNL A   1      34.181  25.575  25.072  1.00  0.00    -0.076 SA
BRANCH   6   7
ATOM      7  C   UNL A   1      34.853  23.955  25.122  1.00  0.00     0.171 A 
ATOM      8  N   UNL A   1      34.390  22.788  24.511  1.00  0.00    -0.287 N 
ATOM      9  C   UNL A   1      35.076  21.594  24.765  1.00  0.00     0.262 A 
ATOM     10  N   UNL A   1      35.974  23.986  25.782  1.00  0.00    -0.224 NA
ATOM     11  C   UNL A   1      36.476  21.705  25.156  1.00  0.00     0.066 A 
ATOM     12  O   UNL A   1      34.582  20.470  24.705  1.00  0.00    -0.269 OA
ATOM     13  C   UNL A   1      36.843  22.894  25.754  1.00  0.00     0.079 A 
ATOM     14  C   UNL A   1      37.398  20.683  24.906  1.00  0.00     0.016 A 
ATOM     15  C   UNL A   1      38.152  23.021  26.225  1.00  0.00     0.029 A 
ATOM     16  C   UNL A   1      38.716  20.841  25.323  1.00  0.00     0.001 A 
ATOM     17  C   UNL A   1      39.085  21.996  26.015  1.00  0.00     0.002 A 
BRANCH   8  18
ATOM     18  C   UNL A   1      33.189  22.584  23.698  1.00  0.00     0.128 C 
BRANCH  18  19
ATOM     19  C   UNL A   1      31.874  22.492  24.513  1.00  0.00     0.022 C 
BRANCH  19  20
ATOM     20  C   UNL A   1      30.953  23.715  24.591  1.00  0.00     0.002 C 
BRANCH  20  21
ATOM     21  C   UNL A   1      30.546  24.148  25.996  1.00  0.00    -0.003 C 
ATOM     22  C   UNL A   1      30.269  22.970  26.914  1.00  0.00     0.004 C 
ENDBRANCH  20  21
ENDBRANCH  19  20
ENDBRANCH  18  19
ENDBRANCH   8  18
ENDBRANCH   6   7
ENDBRANCH   5   6
ENDBRANCH   3   5
ENDBRANCH   2   3
ENDBRANCH   1   2
BRANCH   1  23
ATOM     23  C   UNL A   1      32.597  30.006  25.570  1.00  0.00     0.202 C 
BRANCH  23  24
ATOM     24  O   UNL A   1      32.096  30.627  26.758  1.00  0.00    -0.374 OA
BRANCH  24  25
ATOM     25  C   UNL A   1      31.251  31.742  26.489  1.00  0.00     0.202 C 
BRANCH  25  26
ATOM     26  C   UNL A   1      31.899  33.092  26.801  1.00  0.00     0.261 C 
BRANCH  26  27
ATOM     27  O   UNL A   1      33.050  32.854  27.602  1.00  0.00    -0.460 OA
BRANCH  27  28
ATOM     28  C   UNL A   1      33.362  33.925  28.358  1.00  0.00     0.338 C 
ATOM     29  O   UNL A   1      32.726  34.966  28.432  1.00  0.00    -0.246 OA
BRANCH  28  30
ATOM     30  C   UNL A   1      34.441  33.526  29.279  1.00  0.00     0.060 A 
ATOM     31  C   UNL A   1      34.207  32.718  30.401  1.00  0.00     0.016 A 
ATOM     32  C   UNL A   1      35.711  34.054  29.029  1.00  0.00     0.016 A 
ATOM     33  C   UNL A   1      35.265  32.398  31.244  1.00  0.00     0.010 A 
ATOM     34  C   UNL A   1      36.773  33.711  29.853  1.00  0.00     0.010 A 
ATOM     35  C   UNL A   1      36.558  32.855  30.940  1.00  0.00    -0.014 A 
BRANCH  35  36
ATOM     36  C   UNL A   1      37.717  32.261  31.628  1.00  0.00     0.031 A 
ATOM     37  C   UNL A   1      38.193  32.775  32.944  1.00  0.00     0.074 A 
ATOM     38  C   UNL A   1      38.366  31.276  30.977  1.00  0.00     0.049 A 
ATOM     39  N   UNL A   1      39.174  32.328  33.679  1.00  0.00    -0.248 NA
ATOM     40  C   UNL A   1      37.497  33.942  33.507  1.00  0.00     0.031 C 
ATOM     41  C   UNL A   1      38.003  30.771  29.648  1.00  0.00     0.029 A 
ATOM     42  N   UNL A   1      39.457  30.530  31.328  1.00  0.00    -0.354 N 
ATOM     43  C   UNL A   1      39.232  33.167  34.781  1.00  0.00     0.074 A 
ATOM     44  C   UNL A   1      38.191  34.157  34.618  1.00  0.00     0.031 C 
ATOM     45  C   UNL A   1      38.834  29.777  29.312  1.00  0.00     0.029 A 
ATOM     46  C   UNL A   1      39.808  29.599  30.381  1.00  0.00     0.049 A 
ATOM     47  H   UNL A   1      39.942  30.648  32.177  1.00  0.00     0.167 HD
ATOM     48  C   UNL A   1      40.078  33.096  35.831  1.00  0.00     0.034 A 
ATOM     49  C   UNL A   1      40.806  28.697  30.375  1.00  0.00     0.034 A 
ATOM     50  C   UNL A   1      41.095  32.088  35.970  1.00  0.00     0.049 A 
ATOM     51  C   UNL A   1      41.708  28.624  31.567  1.00  0.00     0.074 A 
ATOM     52  C   UNL A   1      41.949  31.878  37.037  1.00  0.00     0.029 A 
ATOM     53  N   UNL A   1      41.407  31.141  35.007  1.00  0.00    -0.354 N 
ATOM     54  N   UNL A   1      41.660  29.333  32.669  1.00  0.00    -0.248 NA
ATOM     55  C   UNL A   1      42.783  27.626  31.535  1.00  0.00     0.031 C 
ATOM     56  C   UNL A   1      42.800  30.821  36.705  1.00  0.00     0.029 A 
ATOM     57  C   UNL A   1      42.456  30.354  35.445  1.00  0.00     0.049 A 
ATOM     58  H   UNL A   1      40.949  31.042  34.141  1.00  0.00     0.167 HD
ATOM     59  C   UNL A   1      42.687  28.859  33.471  1.00  0.00     0.074 A 
ATOM     60  C   UNL A   1      43.334  27.793  32.732  1.00  0.00     0.031 C 
ATOM     61  C   UNL A   1      43.061  29.278  34.702  1.00  0.00     0.034 A 
BRANCH  48  62
ATOM     62  C   UNL A   1      39.932  34.101  36.936  1.00  0.00     0.023 A 
ATOM     63  C   UNL A   1      40.251  35.451  36.692  1.00  0.00     0.012 A 
ATOM     64  C   UNL A   1      39.369  33.732  38.174  1.00  0.00     0.148 A 
ATOM     65  C   UNL A   1      40.014  36.422  37.665  1.00  0.00     0.002 A 
ATOM     66  C   UNL A   1      39.111  34.708  39.128  1.00  0.00     0.091 A 
ATOM     67  F   UNL A   1      39.087  32.438  38.385  1.00  0.00    -0.205 F 
ATOM     68  C   UNL A   1      39.435  36.052  38.876  1.00  0.00     0.022 A 
BRANCH  66  69
ATOM     69  S   UNL A   1      38.327  34.347  40.702  1.00  0.00     0.127 S 
ATOM     70  O   UNL A   1      38.113  35.691  41.238  1.00  0.00    -0.237 OA
ATOM     71  O   UNL A   1      37.108  33.654  40.285  1.00  0.00    -0.237 OA
ATOM     72  O   UNL A   1      39.274  33.531  41.449  1.00  0.00    -0.744 OA
ENDBRANCH  66  69
ENDBRANCH  48  62
BRANCH  49  73
ATOM     73  C   UNL A   1      40.920  27.763  29.226  1.00  0.00     0.023 A 
ATOM     74  C   UNL A   1      40.052  26.658  29.153  1.00  0.00     0.012 A 
ATOM     75  C   UNL A   1      41.781  28.041  28.146  1.00  0.00     0.148 A 
ATOM     76  C   UNL A   1      40.039  25.842  28.022  1.00  0.00     0.002 A 
ATOM     77  C   UNL A   1      41.737  27.246  27.008  1.00  0.00     0.091 A 
ATOM     78  F   UNL A   1      42.582  29.111  28.238  1.00  0.00    -0.205 F 
ATOM     79  C   UNL A   1      40.872  26.142  26.946  1.00  0.00     0.022 A 
BRANCH  77  80
ATOM     80  S   UNL A   1      42.697  27.608  25.534  1.00  0.00     0.127 S 
ATOM     81  O   UNL A   1      42.048  28.824  25.047  1.00  0.00    -0.237 OA
ATOM     82  O   UNL A   1      44.036  27.806  26.091  1.00  0.00    -0.237 OA
ATOM     83  O   UNL A   1      42.561  26.443  24.673  1.00  0.00    -0.744 OA
ENDBRANCH  77  80
ENDBRANCH  49  73
BRANCH  61  84
ATOM     84  C   UNL A   1      44.225  28.592  35.356  1.00  0.00     0.023 A 
ATOM     85  C   UNL A   1      45.526  29.084  35.139  1.00  0.00     0.012 A 
ATOM     86  C   UNL A   1      44.007  27.579  36.310  1.00  0.00     0.148 A 
ATOM     87  C   UNL A   1      46.598  28.580  35.873  1.00  0.00     0.002 A 
ATOM     88  C   UNL A   1      45.074  27.106  37.061  1.00  0.00     0.091 A 
ATOM     89  F   UNL A   1      42.756  27.132  36.490  1.00  0.00    -0.205 F 
ATOM     90  C   UNL A   1      46.370  27.605  36.842  1.00  0.00     0.022 A 
BRANCH  88  91
ATOM     91  S   UNL A   1      44.871  25.911  38.385  1.00  0.00     0.127 S 
ATOM     92  O   UNL A   1      44.023  26.648  39.322  1.00  0.00    -0.237 OA
ATOM     93  O   UNL A   1      44.205  24.804  37.700  1.00  0.00    -0.237 OA
ATOM     94  O   UNL A   1      46.210  25.612  38.872  1.00  0.00    -0.744 OA
ENDBRANCH  88  91
ENDBRANCH  61  84
ENDBRANCH  35  36
ENDBRANCH  28  30
ENDBRANCH  27  28
ENDBRANCH  26  27
ENDBRANCH  25  26
ENDBRANCH  24  25
ENDBRANCH  23  24
ENDBRANCH   1  23
TORSDOF 23
ENDMDL
