MODEL 1
REMARK VINA RESULT:     -10.2      0.000      0.000
REMARK SMILES CSC[C@H](C(=O)OCCOCCOC(=O)c1ccc(-c2c3nc(c(-c4cccc(S(=O)(=O)[O-])c4F)c4ccc([nH]4)c(-c4cccc(S(=O)(=O)[O-])c4F)c4nc(c(-c5cccc(S(=O)(=O)[O-])c5F)c5ccc2[nH]5)C=C4)C=C3)cc1)c1ccccc1
REMARK SMILES IDX 11 1 10 2 9 3 8 4 7 5 5 6 6 7 4 8 3 9 2 10 1 11 79 12 80 13
REMARK SMILES IDX 84 14 81 15 83 16 82 17 12 18 13 19 14 20 15 21 16 22 17 23
REMARK SMILES IDX 78 24 18 25 77 26 19 27 20 28 21 29 71 30 22 31 76 32 70 33
REMARK SMILES IDX 72 34 23 35 75 36 69 37 68 38 24 40 56 41 36 42 55 43 37 44
REMARK SMILES IDX 40 45 54 46 73 47 38 48 39 49 53 51 74 52 41 53 25 54 26 55
REMARK SMILES IDX 34 56 27 57 29 58 35 59 28 60 30 61 31 62 32 63 33 64 57 65
REMARK SMILES IDX 58 66 66 67 59 68 61 69 67 70 60 71 62 72 63 73 64 74 65 75
REMARK SMILES IDX 42 76 43 77 51 78 44 79 46 80 52 81 45 82 47 83 48 84 49 85
REMARK SMILES IDX 50 86
REMARK H PARENT 72 39 40 50
REMARK Flexibility Score: inf
ROOT
ATOM      1  C   UNL A   1      36.051  20.870  25.177  1.00  0.00     0.202 C 
ENDROOT
BRANCH   1   2
ATOM      2  O   UNL A   1      35.876  21.714  26.312  1.00  0.00    -0.374 OA
BRANCH   2   3
ATOM      3  C   UNL A   1      35.252  22.985  26.107  1.00  0.00     0.202 C 
BRANCH   3   4
ATOM      4  C   UNL A   1      34.085  23.327  27.038  1.00  0.00     0.261 C 
BRANCH   4   5
ATOM      5  O   UNL A   1      33.124  24.152  26.357  1.00  0.00    -0.463 OA
BRANCH   5   6
ATOM      6  C   UNL A   1      31.821  23.754  26.462  1.00  0.00     0.314 C 
ATOM      7  O   UNL A   1      31.228  23.589  27.521  1.00  0.00    -0.252 OA
BRANCH   6   8
ATOM      8  C   UNL A   1      31.198  23.640  25.069  1.00  0.00     0.139 C 
BRANCH   8   9
ATOM      9  C   UNL A   1      31.299  24.912  24.201  1.00  0.00     0.089 C 
BRANCH   9  10
ATOM     10  S   UNL A   1      29.961  26.149  24.345  1.00  0.00    -0.164 SA
ATOM     11  C   UNL A   1      30.957  27.627  24.700  1.00  0.00     0.085 C 
ENDBRANCH   9  10
ENDBRANCH   8   9
BRANCH   8  12
ATOM     12  C   UNL A   1      31.701  22.364  24.385  1.00  0.00    -0.033 A 
ATOM     13  C   UNL A   1      31.998  21.206  25.118  1.00  0.00     0.004 A 
ATOM     14  C   UNL A   1      31.763  22.301  22.981  1.00  0.00     0.004 A 
ATOM     15  C   UNL A   1      32.348  20.021  24.466  1.00  0.00     0.000 A 
ATOM     16  C   UNL A   1      32.097  21.111  22.332  1.00  0.00     0.000 A 
ATOM     17  C   UNL A   1      32.390  19.971  23.074  1.00  0.00     0.000 A 
ENDBRANCH   8  12
ENDBRANCH   6   8
ENDBRANCH   5   6
ENDBRANCH   4   5
ENDBRANCH   3   4
ENDBRANCH   2   3
ENDBRANCH   1   2
BRANCH   1  18
ATOM     18  C   UNL A   1      37.433  20.233  24.982  1.00  0.00     0.261 C 
BRANCH  18  19
ATOM     19  O   UNL A   1      38.513  21.180  24.991  1.00  0.00    -0.460 OA
BRANCH  19  20
ATOM     20  C   UNL A   1      39.398  21.003  26.003  1.00  0.00     0.338 C 
ATOM     21  O   UNL A   1      39.985  19.970  26.298  1.00  0.00    -0.246 OA
BRANCH  20  22
ATOM     22  C   UNL A   1      39.694  22.283  26.668  1.00  0.00     0.060 A 
ATOM     23  C   UNL A   1      39.011  23.423  26.225  1.00  0.00     0.016 A 
ATOM     24  C   UNL A   1      40.727  22.388  27.602  1.00  0.00     0.016 A 
ATOM     25  C   UNL A   1      39.397  24.685  26.674  1.00  0.00     0.010 A 
ATOM     26  C   UNL A   1      41.119  23.656  28.042  1.00  0.00     0.010 A 
ATOM     27  C   UNL A   1      40.484  24.810  27.548  1.00  0.00    -0.014 A 
BRANCH  27  28
ATOM     28  C   UNL A   1      41.065  26.148  27.815  1.00  0.00     0.031 A 
ATOM     29  C   UNL A   1      42.471  26.434  27.358  1.00  0.00     0.074 A 
ATOM     30  C   UNL A   1      40.359  27.089  28.465  1.00  0.00     0.049 A 
ATOM     31  N   UNL A   1      43.197  27.505  27.538  1.00  0.00    -0.248 NA
ATOM     32  C   UNL A   1      43.147  25.368  26.599  1.00  0.00     0.031 C 
ATOM     33  C   UNL A   1      38.987  26.932  28.946  1.00  0.00     0.029 A 
ATOM     34  N   UNL A   1      40.713  28.355  28.858  1.00  0.00    -0.354 N 
ATOM     35  C   UNL A   1      44.424  27.233  26.945  1.00  0.00     0.074 A 
ATOM     36  C   UNL A   1      44.347  25.894  26.403  1.00  0.00     0.031 C 
ATOM     37  C   UNL A   1      38.627  28.049  29.602  1.00  0.00     0.029 A 
ATOM     38  C   UNL A   1      39.748  28.987  29.605  1.00  0.00     0.049 A 
ATOM     39  H   UNL A   1      41.575  28.771  28.627  1.00  0.00     0.167 HD
ATOM     40  C   UNL A   1      45.513  28.032  26.847  1.00  0.00     0.034 A 
ATOM     41  C   UNL A   1      39.776  30.178  30.237  1.00  0.00     0.034 A 
ATOM     42  C   UNL A   1      45.578  29.373  27.361  1.00  0.00     0.049 A 
ATOM     43  C   UNL A   1      41.006  31.043  30.124  1.00  0.00     0.074 A 
ATOM     44  C   UNL A   1      46.624  30.275  27.280  1.00  0.00     0.029 A 
ATOM     45  N   UNL A   1      44.558  30.002  28.056  1.00  0.00    -0.354 N 
ATOM     46  N   UNL A   1      42.116  30.816  29.467  1.00  0.00    -0.248 NA
ATOM     47  C   UNL A   1      40.973  32.343  30.812  1.00  0.00     0.031 C 
ATOM     48  C   UNL A   1      46.239  31.448  27.937  1.00  0.00     0.029 A 
ATOM     49  C   UNL A   1      44.948  31.280  28.413  1.00  0.00     0.049 A 
ATOM     50  H   UNL A   1      43.684  29.599  28.266  1.00  0.00     0.167 HD
ATOM     51  C   UNL A   1      42.896  31.958  29.624  1.00  0.00     0.074 A 
ATOM     52  C   UNL A   1      42.125  32.880  30.434  1.00  0.00     0.031 C 
ATOM     53  C   UNL A   1      44.141  32.214  29.155  1.00  0.00     0.034 A 
BRANCH  40  54
ATOM     54  C   UNL A   1      46.715  27.490  26.122  1.00  0.00     0.023 A 
ATOM     55  C   UNL A   1      46.842  27.703  24.735  1.00  0.00     0.012 A 
ATOM     56  C   UNL A   1      47.742  26.824  26.818  1.00  0.00     0.148 A 
ATOM     57  C   UNL A   1      47.962  27.239  24.046  1.00  0.00     0.002 A 
ATOM     58  C   UNL A   1      48.873  26.397  26.131  1.00  0.00     0.091 A 
ATOM     59  F   UNL A   1      47.589  26.607  28.132  1.00  0.00    -0.205 F 
ATOM     60  C   UNL A   1      48.981  26.597  24.744  1.00  0.00     0.022 A 
BRANCH  58  61
ATOM     61  S   UNL A   1      50.267  25.621  26.958  1.00  0.00     0.127 S 
ATOM     62  O   UNL A   1      51.201  25.435  25.850  1.00  0.00    -0.237 OA
ATOM     63  O   UNL A   1      50.664  26.646  27.925  1.00  0.00    -0.237 OA
ATOM     64  O   UNL A   1      49.746  24.399  27.553  1.00  0.00    -0.744 OA
ENDBRANCH  58  61
ENDBRANCH  40  54
BRANCH  41  65
ATOM     65  C   UNL A   1      38.584  30.641  31.001  1.00  0.00     0.023 A 
ATOM     66  C   UNL A   1      38.522  30.420  32.390  1.00  0.00     0.012 A 
ATOM     67  C   UNL A   1      37.527  31.320  30.365  1.00  0.00     0.148 A 
ATOM     68  C   UNL A   1      37.417  30.844  33.129  1.00  0.00     0.002 A 
ATOM     69  C   UNL A   1      36.454  31.788  31.116  1.00  0.00     0.091 A 
ATOM     70  F   UNL A   1      37.594  31.502  29.039  1.00  0.00    -0.205 F 
ATOM     71  C   UNL A   1      36.390  31.539  32.495  1.00  0.00     0.022 A 
BRANCH  69  72
ATOM     72  S   UNL A   1      35.158  32.803  30.397  1.00  0.00     0.127 S 
ATOM     73  O   UNL A   1      34.276  33.016  31.541  1.00  0.00    -0.237 OA
ATOM     74  O   UNL A   1      35.901  33.987  29.962  1.00  0.00    -0.237 OA
ATOM     75  O   UNL A   1      34.607  32.012  29.305  1.00  0.00    -0.744 OA
ENDBRANCH  69  72
ENDBRANCH  41  65
BRANCH  53  76
ATOM     76  C   UNL A   1      44.745  33.561  29.449  1.00  0.00     0.023 A 
ATOM     77  C   UNL A   1      45.485  33.751  30.632  1.00  0.00     0.012 A 
ATOM     78  C   UNL A   1      44.667  34.603  28.504  1.00  0.00     0.148 A 
ATOM     79  C   UNL A   1      46.122  34.967  30.879  1.00  0.00     0.002 A 
ATOM     80  C   UNL A   1      45.341  35.796  28.736  1.00  0.00     0.091 A 
ATOM     81  F   UNL A   1      43.941  34.406  27.393  1.00  0.00    -0.205 F 
ATOM     82  C   UNL A   1      46.062  35.982  29.927  1.00  0.00     0.022 A 
BRANCH  80  83
ATOM     83  S   UNL A   1      45.396  37.120  27.523  1.00  0.00     0.127 S 
ATOM     84  O   UNL A   1      46.015  36.452  26.380  1.00  0.00    -0.237 OA
ATOM     85  O   UNL A   1      43.979  37.441  27.347  1.00  0.00    -0.237 OA
ATOM     86  O   UNL A   1      46.184  38.185  28.130  1.00  0.00    -0.744 OA
ENDBRANCH  80  83
ENDBRANCH  53  76
ENDBRANCH  27  28
ENDBRANCH  20  22
ENDBRANCH  19  20
ENDBRANCH  18  19
ENDBRANCH   1  18
TORSDOF 20
ENDMDL
MODEL 2
REMARK VINA RESULT:     -10.1      5.270     10.512
REMARK SMILES CSC[C@H](C(=O)OCCOCCOC(=O)c1ccc(-c2c3nc(c(-c4cccc(S(=O)(=O)[O-])c4F)c4ccc([nH]4)c(-c4cccc(S(=O)(=O)[O-])c4F)c4nc(c(-c5cccc(S(=O)(=O)[O-])c5F)c5ccc2[nH]5)C=C4)C=C3)cc1)c1ccccc1
REMARK SMILES IDX 11 1 10 2 9 3 8 4 7 5 5 6 6 7 4 8 3 9 2 10 1 11 79 12 80 13
REMARK SMILES IDX 84 14 81 15 83 16 82 17 12 18 13 19 14 20 15 21 16 22 17 23
REMARK SMILES IDX 78 24 18 25 77 26 19 27 20 28 21 29 71 30 22 31 76 32 70 33
REMARK SMILES IDX 72 34 23 35 75 36 69 37 68 38 24 40 56 41 36 42 55 43 37 44
REMARK SMILES IDX 40 45 54 46 73 47 38 48 39 49 53 51 74 52 41 53 25 54 26 55
REMARK SMILES IDX 34 56 27 57 29 58 35 59 28 60 30 61 31 62 32 63 33 64 57 65
REMARK SMILES IDX 58 66 66 67 59 68 61 69 67 70 60 71 62 72 63 73 64 74 65 75
REMARK SMILES IDX 42 76 43 77 51 78 44 79 46 80 52 81 45 82 47 83 48 84 49 85
REMARK SMILES IDX 50 86
REMARK H PARENT 72 39 40 50
REMARK Flexibility Score: inf
ROOT
ATOM      1  C   UNL A   1      31.689  30.977  26.466  1.00  0.00     0.202 C 
ENDROOT
BRANCH   1   2
ATOM      2  O   UNL A   1      31.092  30.549  25.245  1.00  0.00    -0.374 OA
BRANCH   2   3
ATOM      3  C   UNL A   1      31.565  29.332  24.662  1.00  0.00     0.202 C 
BRANCH   3   4
ATOM      4  C   UNL A   1      32.624  28.564  25.460  1.00  0.00     0.261 C 
BRANCH   4   5
ATOM      5  O   UNL A   1      33.764  28.276  24.632  1.00  0.00    -0.463 OA
BRANCH   5   6
ATOM      6  C   UNL A   1      33.533  27.444  23.572  1.00  0.00     0.314 C 
ATOM      7  O   UNL A   1      33.884  27.672  22.421  1.00  0.00    -0.252 OA
BRANCH   6   8
ATOM      8  C   UNL A   1      32.861  26.158  24.058  1.00  0.00     0.139 C 
BRANCH   8   9
ATOM      9  C   UNL A   1      31.623  25.720  23.245  1.00  0.00     0.089 C 
BRANCH   9  10
ATOM     10  S   UNL A   1      29.986  25.862  24.045  1.00  0.00    -0.164 SA
ATOM     11  C   UNL A   1      30.482  25.658  25.782  1.00  0.00     0.085 C 
ENDBRANCH   9  10
ENDBRANCH   8   9
BRANCH   8  12
ATOM     12  C   UNL A   1      33.917  25.064  24.243  1.00  0.00    -0.033 A 
ATOM     13  C   UNL A   1      34.250  24.181  23.204  1.00  0.00     0.004 A 
ATOM     14  C   UNL A   1      34.660  25.003  25.436  1.00  0.00     0.004 A 
ATOM     15  C   UNL A   1      35.293  23.264  23.356  1.00  0.00     0.000 A 
ATOM     16  C   UNL A   1      35.712  24.097  25.579  1.00  0.00     0.000 A 
ATOM     17  C   UNL A   1      36.028  23.227  24.539  1.00  0.00     0.000 A 
ENDBRANCH   8  12
ENDBRANCH   6   8
ENDBRANCH   5   6
ENDBRANCH   4   5
ENDBRANCH   3   4
ENDBRANCH   2   3
ENDBRANCH   1   2
BRANCH   1  18
ATOM     18  C   UNL A   1      31.484  32.442  26.872  1.00  0.00     0.261 C 
BRANCH  18  19
ATOM     19  O   UNL A   1      32.674  33.241  26.778  1.00  0.00    -0.460 OA
BRANCH  19  20
ATOM     20  C   UNL A   1      33.208  33.586  27.976  1.00  0.00     0.338 C 
ATOM     21  O   UNL A   1      32.709  34.315  28.824  1.00  0.00    -0.246 OA
BRANCH  20  22
ATOM     22  C   UNL A   1      34.462  32.854  28.220  1.00  0.00     0.060 A 
ATOM     23  C   UNL A   1      34.373  31.491  28.530  1.00  0.00     0.016 A 
ATOM     24  C   UNL A   1      35.686  33.523  28.291  1.00  0.00     0.016 A 
ATOM     25  C   UNL A   1      35.501  30.801  28.969  1.00  0.00     0.010 A 
ATOM     26  C   UNL A   1      36.813  32.831  28.742  1.00  0.00     0.010 A 
ATOM     27  C   UNL A   1      36.717  31.480  29.122  1.00  0.00    -0.014 A 
BRANCH  27  28
ATOM     28  C   UNL A   1      37.840  30.828  29.836  1.00  0.00     0.031 A 
ATOM     29  C   UNL A   1      38.078  31.168  31.283  1.00  0.00     0.074 A 
ATOM     30  C   UNL A   1      38.647  29.958  29.203  1.00  0.00     0.049 A 
ATOM     31  N   UNL A   1      39.032  30.769  32.081  1.00  0.00    -0.248 NA
ATOM     32  C   UNL A   1      37.109  32.082  31.913  1.00  0.00     0.031 C 
ATOM     33  C   UNL A   1      38.510  29.542  27.808  1.00  0.00     0.029 A 
ATOM     34  N   UNL A   1      39.760  29.290  29.648  1.00  0.00    -0.354 N 
ATOM     35  C   UNL A   1      38.801  31.405  33.295  1.00  0.00     0.074 A 
ATOM     36  C   UNL A   1      37.618  32.221  33.129  1.00  0.00     0.031 C 
ATOM     37  C   UNL A   1      39.524  28.715  27.501  1.00  0.00     0.029 A 
ATOM     38  C   UNL A   1      40.390  28.561  28.668  1.00  0.00     0.049 A 
ATOM     39  H   UNL A   1      40.075  29.328  30.580  1.00  0.00     0.167 HD
ATOM     40  C   UNL A   1      39.501  31.307  34.450  1.00  0.00     0.034 A 
ATOM     41  C   UNL A   1      41.546  27.868  28.706  1.00  0.00     0.034 A 
ATOM     42  C   UNL A   1      40.660  30.475  34.622  1.00  0.00     0.049 A 
ATOM     43  C   UNL A   1      42.315  27.786  29.999  1.00  0.00     0.074 A 
ATOM     44  C   UNL A   1      41.417  30.280  35.763  1.00  0.00     0.029 A 
ATOM     45  N   UNL A   1      41.231  29.702  33.624  1.00  0.00    -0.354 N 
ATOM     46  N   UNL A   1      42.022  28.304  31.167  1.00  0.00    -0.248 NA
ATOM     47  C   UNL A   1      43.556  26.996  29.990  1.00  0.00     0.031 C 
ATOM     48  C   UNL A   1      42.455  29.396  35.452  1.00  0.00     0.029 A 
ATOM     49  C   UNL A   1      42.334  29.029  34.120  1.00  0.00     0.049 A 
ATOM     50  H   UNL A   1      40.902  29.641  32.698  1.00  0.00     0.167 HD
ATOM     51  C   UNL A   1      43.015  27.869  32.039  1.00  0.00     0.074 A 
ATOM     52  C   UNL A   1      43.914  27.037  31.267  1.00  0.00     0.031 C 
ATOM     53  C   UNL A   1      43.175  28.145  33.356  1.00  0.00     0.034 A 
BRANCH  40  54
ATOM     54  C   UNL A   1      39.010  32.095  35.634  1.00  0.00     0.023 A 
ATOM     55  C   UNL A   1      39.205  33.490  35.668  1.00  0.00     0.012 A 
ATOM     56  C   UNL A   1      38.307  31.467  36.681  1.00  0.00     0.148 A 
ATOM     57  C   UNL A   1      38.731  34.247  36.738  1.00  0.00     0.002 A 
ATOM     58  C   UNL A   1      37.804  32.234  37.727  1.00  0.00     0.091 A 
ATOM     59  F   UNL A   1      38.155  30.137  36.643  1.00  0.00    -0.205 F 
ATOM     60  C   UNL A   1      38.022  33.622  37.761  1.00  0.00     0.022 A 
BRANCH  58  61
ATOM     61  S   UNL A   1      36.821  31.526  39.053  1.00  0.00     0.127 S 
ATOM     62  O   UNL A   1      37.799  31.447  40.136  1.00  0.00    -0.237 OA
ATOM     63  O   UNL A   1      35.782  32.539  39.244  1.00  0.00    -0.237 OA
ATOM     64  O   UNL A   1      36.334  30.250  38.550  1.00  0.00    -0.744 OA
ENDBRANCH  58  61
ENDBRANCH  40  54
BRANCH  41  65
ATOM     65  C   UNL A   1      42.026  27.161  27.485  1.00  0.00     0.023 A 
ATOM     66  C   UNL A   1      42.641  27.897  26.455  1.00  0.00     0.012 A 
ATOM     67  C   UNL A   1      41.901  25.765  27.353  1.00  0.00     0.148 A 
ATOM     68  C   UNL A   1      43.101  27.259  25.302  1.00  0.00     0.002 A 
ATOM     69  C   UNL A   1      42.409  25.128  26.226  1.00  0.00     0.091 A 
ATOM     70  F   UNL A   1      41.293  25.084  28.334  1.00  0.00    -0.205 F 
ATOM     71  C   UNL A   1      42.997  25.874  25.193  1.00  0.00     0.022 A 
BRANCH  69  72
ATOM     72  S   UNL A   1      42.432  23.339  26.069  1.00  0.00     0.127 S 
ATOM     73  O   UNL A   1      43.038  23.161  24.753  1.00  0.00    -0.237 OA
ATOM     74  O   UNL A   1      43.276  22.943  27.197  1.00  0.00    -0.237 OA
ATOM     75  O   UNL A   1      41.041  22.921  26.193  1.00  0.00    -0.744 OA
ENDBRANCH  69  72
ENDBRANCH  41  65
BRANCH  53  76
ATOM     76  C   UNL A   1      44.334  27.508  34.077  1.00  0.00     0.023 A 
ATOM     77  C   UNL A   1      45.600  28.123  34.045  1.00  0.00     0.012 A 
ATOM     78  C   UNL A   1      44.140  26.359  34.869  1.00  0.00     0.148 A 
ATOM     79  C   UNL A   1      46.662  27.591  34.777  1.00  0.00     0.002 A 
ATOM     80  C   UNL A   1      45.190  25.861  35.630  1.00  0.00     0.091 A 
ATOM     81  F   UNL A   1      42.930  25.779  34.869  1.00  0.00    -0.205 F 
ATOM     82  C   UNL A   1      46.454  26.471  35.578  1.00  0.00     0.022 A 
BRANCH  80  83
ATOM     83  S   UNL A   1      44.987  24.480  36.761  1.00  0.00     0.127 S 
ATOM     84  O   UNL A   1      44.635  23.396  35.847  1.00  0.00    -0.237 OA
ATOM     85  O   UNL A   1      46.318  24.366  37.358  1.00  0.00    -0.237 OA
ATOM     86  O   UNL A   1      43.941  24.879  37.694  1.00  0.00    -0.744 OA
ENDBRANCH  80  83
ENDBRANCH  53  76
ENDBRANCH  27  28
ENDBRANCH  20  22
ENDBRANCH  19  20
ENDBRANCH  18  19
ENDBRANCH   1  18
TORSDOF 20
ENDMDL
MODEL 3
REMARK VINA RESULT:      -9.9      1.687      2.837
REMARK SMILES CSC[C@H](C(=O)OCCOCCOC(=O)c1ccc(-c2c3nc(c(-c4cccc(S(=O)(=O)[O-])c4F)c4ccc([nH]4)c(-c4cccc(S(=O)(=O)[O-])c4F)c4nc(c(-c5cccc(S(=O)(=O)[O-])c5F)c5ccc2[nH]5)C=C4)C=C3)cc1)c1ccccc1
REMARK SMILES IDX 11 1 10 2 9 3 8 4 7 5 5 6 6 7 4 8 3 9 2 10 1 11 79 12 80 13
REMARK SMILES IDX 84 14 81 15 83 16 82 17 12 18 13 19 14 20 15 21 16 22 17 23
REMARK SMILES IDX 78 24 18 25 77 26 19 27 20 28 21 29 71 30 22 31 76 32 70 33
REMARK SMILES IDX 72 34 23 35 75 36 69 37 68 38 24 40 56 41 36 42 55 43 37 44
REMARK SMILES IDX 40 45 54 46 73 47 38 48 39 49 53 51 74 52 41 53 25 54 26 55
REMARK SMILES IDX 34 56 27 57 29 58 35 59 28 60 30 61 31 62 32 63 33 64 57 65
REMARK SMILES IDX 58 66 66 67 59 68 61 69 67 70 60 71 62 72 63 73 64 74 65 75
REMARK SMILES IDX 42 76 43 77 51 78 44 79 46 80 52 81 45 82 47 83 48 84 49 85
REMARK SMILES IDX 50 86
REMARK H PARENT 72 39 40 50
REMARK Flexibility Score: inf
ROOT
ATOM      1  C   UNL A   1      36.133  20.154  24.997  1.00  0.00     0.202 C 
ENDROOT
BRANCH   1   2
ATOM      2  O   UNL A   1      35.513  21.435  25.054  1.00  0.00    -0.374 OA
BRANCH   2   3
ATOM      3  C   UNL A   1      34.206  21.518  25.628  1.00  0.00     0.202 C 
BRANCH   3   4
ATOM      4  C   UNL A   1      33.962  22.676  26.600  1.00  0.00     0.261 C 
BRANCH   4   5
ATOM      5  O   UNL A   1      33.423  23.812  25.903  1.00  0.00    -0.463 OA
BRANCH   5   6
ATOM      6  C   UNL A   1      34.331  24.763  25.528  1.00  0.00     0.314 C 
ATOM      7  O   UNL A   1      35.529  24.717  25.778  1.00  0.00    -0.252 OA
BRANCH   6   8
ATOM      8  C   UNL A   1      33.642  25.832  24.676  1.00  0.00     0.139 C 
BRANCH   8   9
ATOM      9  C   UNL A   1      32.481  25.319  23.797  1.00  0.00     0.089 C 
BRANCH   9  10
ATOM     10  S   UNL A   1      32.908  24.410  22.269  1.00  0.00    -0.164 SA
ATOM     11  C   UNL A   1      32.633  25.729  21.050  1.00  0.00     0.085 C 
ENDBRANCH   9  10
ENDBRANCH   8   9
BRANCH   8  12
ATOM     12  C   UNL A   1      33.289  27.038  25.552  1.00  0.00    -0.033 A 
ATOM     13  C   UNL A   1      33.738  28.330  25.239  1.00  0.00     0.004 A 
ATOM     14  C   UNL A   1      32.403  26.882  26.634  1.00  0.00     0.004 A 
ATOM     15  C   UNL A   1      33.314  29.431  25.987  1.00  0.00     0.000 A 
ATOM     16  C   UNL A   1      31.969  27.986  27.369  1.00  0.00     0.000 A 
ATOM     17  C   UNL A   1      32.425  29.261  27.046  1.00  0.00     0.000 A 
ENDBRANCH   8  12
ENDBRANCH   6   8
ENDBRANCH   5   6
ENDBRANCH   4   5
ENDBRANCH   3   4
ENDBRANCH   2   3
ENDBRANCH   1   2
BRANCH   1  18
ATOM     18  C   UNL A   1      37.664  20.118  24.895  1.00  0.00     0.261 C 
BRANCH  18  19
ATOM     19  O   UNL A   1      38.298  21.352  25.267  1.00  0.00    -0.460 OA
BRANCH  19  20
ATOM     20  C   UNL A   1      39.361  21.203  26.095  1.00  0.00     0.338 C 
ATOM     21  O   UNL A   1      40.072  20.213  26.213  1.00  0.00    -0.246 OA
BRANCH  20  22
ATOM     22  C   UNL A   1      39.669  22.467  26.783  1.00  0.00     0.060 A 
ATOM     23  C   UNL A   1      38.973  23.615  26.383  1.00  0.00     0.016 A 
ATOM     24  C   UNL A   1      40.724  22.554  27.694  1.00  0.00     0.016 A 
ATOM     25  C   UNL A   1      39.366  24.868  26.853  1.00  0.00     0.010 A 
ATOM     26  C   UNL A   1      41.122  23.812  28.155  1.00  0.00     0.010 A 
ATOM     27  C   UNL A   1      40.473  24.976  27.704  1.00  0.00    -0.014 A 
BRANCH  27  28
ATOM     28  C   UNL A   1      41.056  26.309  27.988  1.00  0.00     0.031 A 
ATOM     29  C   UNL A   1      42.481  26.580  27.583  1.00  0.00     0.074 A 
ATOM     30  C   UNL A   1      40.336  27.258  28.610  1.00  0.00     0.049 A 
ATOM     31  N   UNL A   1      43.210  27.645  27.786  1.00  0.00    -0.248 NA
ATOM     32  C   UNL A   1      43.174  25.506  26.851  1.00  0.00     0.031 C 
ATOM     33  C   UNL A   1      38.946  27.116  29.041  1.00  0.00     0.029 A 
ATOM     34  N   UNL A   1      40.688  28.522  29.013  1.00  0.00    -0.354 N 
ATOM     35  C   UNL A   1      44.456  27.360  27.239  1.00  0.00     0.074 A 
ATOM     36  C   UNL A   1      44.386  26.021  26.698  1.00  0.00     0.031 C 
ATOM     37  C   UNL A   1      38.573  28.238  29.680  1.00  0.00     0.029 A 
ATOM     38  C   UNL A   1      39.702  29.165  29.722  1.00  0.00     0.049 A 
ATOM     39  H   UNL A   1      41.562  28.929  28.812  1.00  0.00     0.167 HD
ATOM     40  C   UNL A   1      45.554  28.149  27.179  1.00  0.00     0.034 A 
ATOM     41  C   UNL A   1      39.719  30.358  30.352  1.00  0.00     0.034 A 
ATOM     42  C   UNL A   1      45.614  29.490  27.693  1.00  0.00     0.049 A 
ATOM     43  C   UNL A   1      40.959  31.211  30.282  1.00  0.00     0.074 A 
ATOM     44  C   UNL A   1      46.670  30.382  27.647  1.00  0.00     0.029 A 
ATOM     45  N   UNL A   1      44.575  30.130  28.348  1.00  0.00    -0.354 N 
ATOM     46  N   UNL A   1      42.091  30.972  29.667  1.00  0.00    -0.248 NA
ATOM     47  C   UNL A   1      40.914  32.512  30.966  1.00  0.00     0.031 C 
ATOM     48  C   UNL A   1      46.273  31.560  28.287  1.00  0.00     0.029 A 
ATOM     49  C   UNL A   1      44.964  31.406  28.715  1.00  0.00     0.049 A 
ATOM     50  H   UNL A   1      43.690  29.736  28.527  1.00  0.00     0.167 HD
ATOM     51  C   UNL A   1      42.875  32.106  29.850  1.00  0.00     0.074 A 
ATOM     52  C   UNL A   1      42.084  33.038  30.628  1.00  0.00     0.031 C 
ATOM     53  C   UNL A   1      44.139  32.349  29.425  1.00  0.00     0.034 A 
BRANCH  40  54
ATOM     54  C   UNL A   1      46.777  27.593  26.500  1.00  0.00     0.023 A 
ATOM     55  C   UNL A   1      47.659  26.769  27.226  1.00  0.00     0.012 A 
ATOM     56  C   UNL A   1      47.022  27.837  25.135  1.00  0.00     0.148 A 
ATOM     57  C   UNL A   1      48.781  26.215  26.611  1.00  0.00     0.002 A 
ATOM     58  C   UNL A   1      48.122  27.252  24.518  1.00  0.00     0.091 A 
ATOM     59  F   UNL A   1      46.186  28.646  24.468  1.00  0.00    -0.205 F 
ATOM     60  C   UNL A   1      49.007  26.447  25.256  1.00  0.00     0.022 A 
BRANCH  58  61
ATOM     61  S   UNL A   1      48.455  27.438  22.763  1.00  0.00     0.127 S 
ATOM     62  O   UNL A   1      47.310  28.235  22.328  1.00  0.00    -0.237 OA
ATOM     63  O   UNL A   1      49.731  28.155  22.762  1.00  0.00    -0.237 OA
ATOM     64  O   UNL A   1      48.522  26.087  22.225  1.00  0.00    -0.744 OA
ENDBRANCH  58  61
ENDBRANCH  40  54
BRANCH  41  65
ATOM     65  C   UNL A   1      38.503  30.833  31.071  1.00  0.00     0.023 A 
ATOM     66  C   UNL A   1      38.414  30.667  32.465  1.00  0.00     0.012 A 
ATOM     67  C   UNL A   1      37.452  31.472  30.385  1.00  0.00     0.148 A 
ATOM     68  C   UNL A   1      37.287  31.105  33.163  1.00  0.00     0.002 A 
ATOM     69  C   UNL A   1      36.356  31.954  31.093  1.00  0.00     0.091 A 
ATOM     70  F   UNL A   1      37.546  31.601  29.054  1.00  0.00    -0.205 F 
ATOM     71  C   UNL A   1      36.265  31.760  32.479  1.00  0.00     0.022 A 
BRANCH  69  72
ATOM     72  S   UNL A   1      35.063  32.921  30.306  1.00  0.00     0.127 S 
ATOM     73  O   UNL A   1      35.818  34.051  29.771  1.00  0.00    -0.237 OA
ATOM     74  O   UNL A   1      34.551  31.989  29.302  1.00  0.00    -0.237 OA
ATOM     75  O   UNL A   1      34.114  33.234  31.367  1.00  0.00    -0.744 OA
ENDBRANCH  69  72
ENDBRANCH  41  65
BRANCH  53  76
ATOM     76  C   UNL A   1      44.744  33.692  29.739  1.00  0.00     0.023 A 
ATOM     77  C   UNL A   1      45.495  33.861  30.917  1.00  0.00     0.012 A 
ATOM     78  C   UNL A   1      44.657  34.750  28.813  1.00  0.00     0.148 A 
ATOM     79  C   UNL A   1      46.134  35.073  31.180  1.00  0.00     0.002 A 
ATOM     80  C   UNL A   1      45.332  35.939  29.061  1.00  0.00     0.091 A 
ATOM     81  F   UNL A   1      43.921  34.573  27.706  1.00  0.00    -0.205 F 
ATOM     82  C   UNL A   1      46.064  36.105  30.248  1.00  0.00     0.022 A 
BRANCH  80  83
ATOM     83  S   UNL A   1      45.374  37.285  27.871  1.00  0.00     0.127 S 
ATOM     84  O   UNL A   1      43.976  37.709  27.852  1.00  0.00    -0.237 OA
ATOM     85  O   UNL A   1      46.290  38.234  28.505  1.00  0.00    -0.237 OA
ATOM     86  O   UNL A   1      45.871  36.706  26.630  1.00  0.00    -0.744 OA
ENDBRANCH  80  83
ENDBRANCH  53  76
ENDBRANCH  27  28
ENDBRANCH  20  22
ENDBRANCH  19  20
ENDBRANCH  18  19
ENDBRANCH   1  18
TORSDOF 20
ENDMDL
