MODEL 1
REMARK VINA RESULT:     -11.1      0.000      0.000
REMARK SMILES COc1c(N)cc(-c2ccccc2)cc1C(=O)OCCOCCOC(=O)c1ccc(-c2c3nc(c(-c4cccc(S(=O)(=O)[O-])c4F)c4ccc([nH]4)c(-c4cccc(S(=O)(=O)[O-])c4F)c4nc(c(-c5cccc(S(=O)(=O)[O-])c5F)c5ccc2[nH]5)C=C4)C=C3)cc1
REMARK SMILES IDX 22 1 21 2 20 3 19 4 18 5 16 6 17 7 15 8 3 9 4 10 6 11 14 12
REMARK SMILES IDX 7 13 2 14 1 15 5 16 8 19 9 20 13 21 10 22 12 23 11 24 23 25
REMARK SMILES IDX 24 26 25 27 26 28 27 29 28 30 89 31 29 32 88 33 30 34 31 35
REMARK SMILES IDX 32 36 82 37 33 38 87 39 81 40 83 41 34 42 86 43 80 44 79 45
REMARK SMILES IDX 35 47 67 48 47 49 66 50 48 51 51 52 65 53 84 54 49 55 50 56
REMARK SMILES IDX 64 58 85 59 52 60 36 61 37 62 45 63 38 64 40 65 46 66 39 67
REMARK SMILES IDX 41 68 42 69 43 70 44 71 68 72 69 73 77 74 70 75 72 76 78 77
REMARK SMILES IDX 71 78 73 79 74 80 75 81 76 82 53 83 54 84 62 85 55 86 57 87
REMARK SMILES IDX 63 88 56 89 58 90 59 91 60 92 61 93
REMARK H PARENT 5 17 5 18 83 46 51 57
REMARK Flexibility Score: inf
ROOT
ATOM      1  C   UNL A   1      37.780  20.065  24.937  1.00  0.00     0.202 C 
ENDROOT
BRANCH   1   2
ATOM      2  O   UNL A   1      37.436  21.390  25.342  1.00  0.00    -0.374 OA
BRANCH   2   3
ATOM      3  C   UNL A   1      36.974  22.287  24.331  1.00  0.00     0.202 C 
BRANCH   3   4
ATOM      4  C   UNL A   1      35.457  22.427  24.188  1.00  0.00     0.261 C 
BRANCH   4   5
ATOM      5  O   UNL A   1      34.999  23.657  24.774  1.00  0.00    -0.460 OA
BRANCH   5   6
ATOM      6  C   UNL A   1      34.481  23.543  26.019  1.00  0.00     0.342 C 
ATOM      7  O   UNL A   1      35.076  23.172  27.021  1.00  0.00    -0.246 OA
BRANCH   6   8
ATOM      8  C   UNL A   1      33.130  24.139  26.103  1.00  0.00     0.104 A 
ATOM      9  C   UNL A   1      31.949  23.414  26.294  1.00  0.00     0.156 A 
ATOM     10  C   UNL A   1      30.747  24.098  26.563  1.00  0.00     0.076 A 
ATOM     11  C   UNL A   1      30.713  25.494  26.434  1.00  0.00     0.038 A 
ATOM     12  C   UNL A   1      33.081  25.540  26.021  1.00  0.00     0.028 A 
ATOM     13  C   UNL A   1      31.874  26.231  26.162  1.00  0.00    -0.015 A 
BRANCH   9  14
ATOM     14  O   UNL A   1      31.978  22.041  26.325  1.00  0.00    -0.494 OA
ATOM     15  C   UNL A   1      31.917  21.496  25.000  1.00  0.00     0.278 C 
ENDBRANCH   9  14
BRANCH  10  16
ATOM     16  N   UNL A   1      29.564  23.413  26.848  1.00  0.00    -0.396 N 
ATOM     17  H   UNL A   1      28.786  23.505  26.252  1.00  0.00     0.156 HD
ATOM     18  H   UNL A   1      29.508  22.838  27.646  1.00  0.00     0.156 HD
ENDBRANCH  10  16
BRANCH  13  19
ATOM     19  C   UNL A   1      31.844  27.693  26.090  1.00  0.00    -0.018 A 
ATOM     20  C   UNL A   1      31.296  28.332  24.967  1.00  0.00     0.009 A 
ATOM     21  C   UNL A   1      32.333  28.483  27.140  1.00  0.00     0.009 A 
ATOM     22  C   UNL A   1      31.241  29.725  24.894  1.00  0.00     0.001 A 
ATOM     23  C   UNL A   1      32.281  29.878  27.066  1.00  0.00     0.001 A 
ATOM     24  C   UNL A   1      31.735  30.497  25.944  1.00  0.00     0.000 A 
ENDBRANCH  13  19
ENDBRANCH   6   8
ENDBRANCH   5   6
ENDBRANCH   4   5
ENDBRANCH   3   4
ENDBRANCH   2   3
ENDBRANCH   1   2
BRANCH   1  25
ATOM     25  C   UNL A   1      39.053  19.462  25.545  1.00  0.00     0.261 C 
BRANCH  25  26
ATOM     26  O   UNL A   1      40.138  20.404  25.614  1.00  0.00    -0.460 OA
BRANCH  26  27
ATOM     27  C   UNL A   1      40.804  20.416  26.794  1.00  0.00     0.338 C 
ATOM     28  O   UNL A   1      41.329  19.462  27.355  1.00  0.00    -0.246 OA
BRANCH  27  29
ATOM     29  C   UNL A   1      40.978  21.802  27.267  1.00  0.00     0.060 A 
ATOM     30  C   UNL A   1      40.443  22.829  26.478  1.00  0.00     0.016 A 
ATOM     31  C   UNL A   1      41.711  22.099  28.418  1.00  0.00     0.016 A 
ATOM     32  C   UNL A   1      40.678  24.162  26.812  1.00  0.00     0.010 A 
ATOM     33  C   UNL A   1      41.952  23.439  28.746  1.00  0.00     0.010 A 
ATOM     34  C   UNL A   1      41.468  24.474  27.927  1.00  0.00    -0.014 A 
BRANCH  34  35
ATOM     35  C   UNL A   1      41.894  25.876  28.155  1.00  0.00     0.031 A 
ATOM     36  C   UNL A   1      43.281  26.295  27.744  1.00  0.00     0.074 A 
ATOM     37  C   UNL A   1      41.053  26.770  28.707  1.00  0.00     0.049 A 
ATOM     38  N   UNL A   1      43.868  27.455  27.875  1.00  0.00    -0.248 NA
ATOM     39  C   UNL A   1      44.117  25.269  27.097  1.00  0.00     0.031 C 
ATOM     40  C   UNL A   1      39.683  26.490  29.134  1.00  0.00     0.029 A 
ATOM     41  N   UNL A   1      41.239  28.094  29.020  1.00  0.00    -0.354 N 
ATOM     42  C   UNL A   1      45.143  27.298  27.341  1.00  0.00     0.074 A 
ATOM     43  C   UNL A   1      45.253  25.923  26.904  1.00  0.00     0.031 C 
ATOM     44  C   UNL A   1      39.160  27.601  29.679  1.00  0.00     0.029 A 
ATOM     45  C   UNL A   1      40.163  28.664  29.660  1.00  0.00     0.049 A 
ATOM     46  H   UNL A   1      42.064  28.587  28.808  1.00  0.00     0.167 HD
ATOM     47  C   UNL A   1      46.125  28.221  27.204  1.00  0.00     0.034 A 
ATOM     48  C   UNL A   1      40.015  29.897  30.183  1.00  0.00     0.034 A 
ATOM     49  C   UNL A   1      46.011  29.591  27.626  1.00  0.00     0.049 A 
ATOM     50  C   UNL A   1      41.142  30.891  30.053  1.00  0.00     0.074 A 
ATOM     51  C   UNL A   1      46.948  30.603  27.523  1.00  0.00     0.029 A 
ATOM     52  N   UNL A   1      44.891  30.141  28.228  1.00  0.00    -0.354 N 
ATOM     53  N   UNL A   1      42.302  30.753  29.458  1.00  0.00    -0.248 NA
ATOM     54  C   UNL A   1      40.925  32.223  30.639  1.00  0.00     0.031 C 
ATOM     55  C   UNL A   1      46.399  31.765  28.075  1.00  0.00     0.029 A 
ATOM     56  C   UNL A   1      45.113  31.480  28.501  1.00  0.00     0.049 A 
ATOM     57  H   UNL A   1      44.061  29.654  28.431  1.00  0.00     0.167 HD
ATOM     58  C   UNL A   1      42.931  31.991  29.557  1.00  0.00     0.074 A 
ATOM     59  C   UNL A   1      42.016  32.870  30.254  1.00  0.00     0.031 C 
ATOM     60  C   UNL A   1      44.162  32.362  29.128  1.00  0.00     0.034 A 
BRANCH  47  61
ATOM     61  C   UNL A   1      47.398  27.793  26.523  1.00  0.00     0.023 A 
ATOM     62  C   UNL A   1      48.453  27.275  27.301  1.00  0.00     0.012 A 
ATOM     63  C   UNL A   1      47.524  27.829  25.121  1.00  0.00     0.148 A 
ATOM     64  C   UNL A   1      49.624  26.821  26.697  1.00  0.00     0.002 A 
ATOM     65  C   UNL A   1      48.678  27.338  24.523  1.00  0.00     0.091 A 
ATOM     66  F   UNL A   1      46.516  28.343  24.402  1.00  0.00    -0.205 F 
ATOM     67  C   UNL A   1      49.732  26.841  25.310  1.00  0.00     0.022 A 
BRANCH  65  68
ATOM     68  S   UNL A   1      48.892  27.254  22.741  1.00  0.00     0.127 S 
ATOM     69  O   UNL A   1      50.344  27.370  22.612  1.00  0.00    -0.237 OA
ATOM     70  O   UNL A   1      48.355  25.930  22.429  1.00  0.00    -0.237 OA
ATOM     71  O   UNL A   1      48.128  28.367  22.192  1.00  0.00    -0.744 OA
ENDBRANCH  65  68
ENDBRANCH  47  61
BRANCH  48  72
ATOM     72  C   UNL A   1      38.740  30.287  30.851  1.00  0.00     0.023 A 
ATOM     73  C   UNL A   1      38.521  29.926  32.195  1.00  0.00     0.012 A 
ATOM     74  C   UNL A   1      37.736  30.991  30.159  1.00  0.00     0.148 A 
ATOM     75  C   UNL A   1      37.311  30.222  32.823  1.00  0.00     0.002 A 
ATOM     76  C   UNL A   1      36.555  31.331  30.808  1.00  0.00     0.091 A 
ATOM     77  F   UNL A   1      37.949  31.306  28.873  1.00  0.00    -0.205 F 
ATOM     78  C   UNL A   1      36.331  30.932  32.134  1.00  0.00     0.022 A 
BRANCH  76  79
ATOM     79  S   UNL A   1      35.299  32.349  30.024  1.00  0.00     0.127 S 
ATOM     80  O   UNL A   1      34.345  32.542  31.114  1.00  0.00    -0.237 OA
ATOM     81  O   UNL A   1      36.059  33.543  29.651  1.00  0.00    -0.237 OA
ATOM     82  O   UNL A   1      34.824  31.567  28.890  1.00  0.00    -0.744 OA
ENDBRANCH  76  79
ENDBRANCH  48  72
BRANCH  60  83
ATOM     83  C   UNL A   1      44.580  33.793  29.346  1.00  0.00     0.023 A 
ATOM     84  C   UNL A   1      45.194  34.167  30.557  1.00  0.00     0.012 A 
ATOM     85  C   UNL A   1      44.433  34.749  28.321  1.00  0.00     0.148 A 
ATOM     86  C   UNL A   1      45.625  35.478  30.758  1.00  0.00     0.002 A 
ATOM     87  C   UNL A   1      44.908  36.041  28.511  1.00  0.00     0.091 A 
ATOM     88  F   UNL A   1      43.830  34.378  27.182  1.00  0.00    -0.205 F 
ATOM     89  C   UNL A   1      45.493  36.410  29.732  1.00  0.00     0.022 A 
BRANCH  87  90
ATOM     90  S   UNL A   1      44.866  37.282  27.211  1.00  0.00     0.127 S 
ATOM     91  O   UNL A   1      45.402  38.454  27.903  1.00  0.00    -0.237 OA
ATOM     92  O   UNL A   1      45.758  36.708  26.204  1.00  0.00    -0.237 OA
ATOM     93  O   UNL A   1      43.474  37.382  26.798  1.00  0.00    -0.744 OA
ENDBRANCH  87  90
ENDBRANCH  60  83
ENDBRANCH  34  35
ENDBRANCH  27  29
ENDBRANCH  26  27
ENDBRANCH  25  26
ENDBRANCH   1  25
TORSDOF 20
ENDMDL
MODEL 2
REMARK VINA RESULT:     -11.0      1.865      3.770
REMARK SMILES COc1c(N)cc(-c2ccccc2)cc1C(=O)OCCOCCOC(=O)c1ccc(-c2c3nc(c(-c4cccc(S(=O)(=O)[O-])c4F)c4ccc([nH]4)c(-c4cccc(S(=O)(=O)[O-])c4F)c4nc(c(-c5cccc(S(=O)(=O)[O-])c5F)c5ccc2[nH]5)C=C4)C=C3)cc1
REMARK SMILES IDX 22 1 21 2 20 3 19 4 18 5 16 6 17 7 15 8 3 9 4 10 6 11 14 12
REMARK SMILES IDX 7 13 2 14 1 15 5 16 8 19 9 20 13 21 10 22 12 23 11 24 23 25
REMARK SMILES IDX 24 26 25 27 26 28 27 29 28 30 89 31 29 32 88 33 30 34 31 35
REMARK SMILES IDX 32 36 82 37 33 38 87 39 81 40 83 41 34 42 86 43 80 44 79 45
REMARK SMILES IDX 35 47 67 48 47 49 66 50 48 51 51 52 65 53 84 54 49 55 50 56
REMARK SMILES IDX 64 58 85 59 52 60 36 61 37 62 45 63 38 64 40 65 46 66 39 67
REMARK SMILES IDX 41 68 42 69 43 70 44 71 68 72 69 73 77 74 70 75 72 76 78 77
REMARK SMILES IDX 71 78 73 79 74 80 75 81 76 82 53 83 54 84 62 85 55 86 57 87
REMARK SMILES IDX 63 88 56 89 58 90 59 91 60 92 61 93
REMARK H PARENT 5 17 5 18 83 46 51 57
REMARK Flexibility Score: inf
ROOT
ATOM      1  C   UNL A   1      36.505  20.340  24.968  1.00  0.00     0.202 C 
ENDROOT
BRANCH   1   2
ATOM      2  O   UNL A   1      36.364  21.757  25.072  1.00  0.00    -0.374 OA
BRANCH   2   3
ATOM      3  C   UNL A   1      36.606  22.529  23.894  1.00  0.00     0.202 C 
BRANCH   3   4
ATOM      4  C   UNL A   1      35.602  23.644  23.593  1.00  0.00     0.261 C 
BRANCH   4   5
ATOM      5  O   UNL A   1      34.741  23.277  22.502  1.00  0.00    -0.460 OA
BRANCH   5   6
ATOM      6  C   UNL A   1      33.426  23.528  22.696  1.00  0.00     0.342 C 
ATOM      7  O   UNL A   1      32.700  24.192  21.970  1.00  0.00    -0.246 OA
BRANCH   6   8
ATOM      8  C   UNL A   1      32.874  22.713  23.800  1.00  0.00     0.104 A 
ATOM      9  C   UNL A   1      32.115  23.218  24.862  1.00  0.00     0.156 A 
ATOM     10  C   UNL A   1      31.469  22.328  25.742  1.00  0.00     0.076 A 
ATOM     11  C   UNL A   1      31.761  20.960  25.663  1.00  0.00     0.038 A 
ATOM     12  C   UNL A   1      33.117  21.333  23.714  1.00  0.00     0.028 A 
ATOM     13  C   UNL A   1      32.585  20.445  24.653  1.00  0.00    -0.015 A 
BRANCH   9  14
ATOM     14  O   UNL A   1      31.913  24.572  24.984  1.00  0.00    -0.494 OA
ATOM     15  C   UNL A   1      32.927  25.171  25.800  1.00  0.00     0.278 C 
ENDBRANCH   9  14
BRANCH  10  16
ATOM     16  N   UNL A   1      30.631  22.787  26.760  1.00  0.00    -0.396 N 
ATOM     17  H   UNL A   1      29.809  22.293  26.981  1.00  0.00     0.156 HD
ATOM     18  H   UNL A   1      30.862  23.605  27.257  1.00  0.00     0.156 HD
ENDBRANCH  10  16
BRANCH  13  19
ATOM     19  C   UNL A   1      32.835  19.007  24.539  1.00  0.00    -0.018 A 
ATOM     20  C   UNL A   1      32.763  18.187  25.676  1.00  0.00     0.009 A 
ATOM     21  C   UNL A   1      33.128  18.415  23.302  1.00  0.00     0.009 A 
ATOM     22  C   UNL A   1      32.978  16.811  25.578  1.00  0.00     0.001 A 
ATOM     23  C   UNL A   1      33.346  17.038  23.205  1.00  0.00     0.001 A 
ATOM     24  C   UNL A   1      33.271  16.238  24.343  1.00  0.00     0.000 A 
ENDBRANCH  13  19
ENDBRANCH   6   8
ENDBRANCH   5   6
ENDBRANCH   4   5
ENDBRANCH   3   4
ENDBRANCH   2   3
ENDBRANCH   1   2
BRANCH   1  25
ATOM     25  C   UNL A   1      37.899  19.761  25.239  1.00  0.00     0.261 C 
BRANCH  25  26
ATOM     26  O   UNL A   1      38.924  20.770  25.282  1.00  0.00    -0.460 OA
BRANCH  26  27
ATOM     27  C   UNL A   1      39.819  20.627  26.290  1.00  0.00     0.338 C 
ATOM     28  O   UNL A   1      40.395  19.598  26.624  1.00  0.00    -0.246 OA
BRANCH  27  29
ATOM     29  C   UNL A   1      40.164  21.943  26.857  1.00  0.00     0.060 A 
ATOM     30  C   UNL A   1      39.526  23.069  26.319  1.00  0.00     0.016 A 
ATOM     31  C   UNL A   1      41.142  22.085  27.843  1.00  0.00     0.016 A 
ATOM     32  C   UNL A   1      39.898  24.347  26.732  1.00  0.00     0.010 A 
ATOM     33  C   UNL A   1      41.520  23.370  28.250  1.00  0.00     0.010 A 
ATOM     34  C   UNL A   1      40.925  24.506  27.672  1.00  0.00    -0.014 A 
BRANCH  34  35
ATOM     35  C   UNL A   1      41.463  25.861  27.948  1.00  0.00     0.031 A 
ATOM     36  C   UNL A   1      42.873  26.186  27.529  1.00  0.00     0.074 A 
ATOM     37  C   UNL A   1      40.704  26.794  28.551  1.00  0.00     0.049 A 
ATOM     38  N   UNL A   1      43.552  27.291  27.695  1.00  0.00    -0.248 NA
ATOM     39  C   UNL A   1      43.615  25.125  26.825  1.00  0.00     0.031 C 
ATOM     40  C   UNL A   1      39.323  26.604  28.992  1.00  0.00     0.029 A 
ATOM     41  N   UNL A   1      40.999  28.085  28.914  1.00  0.00    -0.354 N 
ATOM     42  C   UNL A   1      44.802  27.057  27.132  1.00  0.00     0.074 A 
ATOM     43  C   UNL A   1      44.796  25.697  26.638  1.00  0.00     0.031 C 
ATOM     44  C   UNL A   1      38.898  27.729  29.591  1.00  0.00     0.029 A 
ATOM     45  C   UNL A   1      39.982  28.711  29.596  1.00  0.00     0.049 A 
ATOM     46  H   UNL A   1      41.857  28.520  28.706  1.00  0.00     0.167 HD
ATOM     47  C   UNL A   1      45.851  27.905  27.013  1.00  0.00     0.034 A 
ATOM     48  C   UNL A   1      39.939  29.929  30.170  1.00  0.00     0.034 A 
ATOM     49  C   UNL A   1      45.852  29.261  27.491  1.00  0.00     0.049 A 
ATOM     50  C   UNL A   1      41.139  30.836  30.060  1.00  0.00     0.074 A 
ATOM     51  C   UNL A   1      46.865  30.200  27.412  1.00  0.00     0.029 A 
ATOM     52  N   UNL A   1      44.789  29.872  28.136  1.00  0.00    -0.354 N 
ATOM     53  N   UNL A   1      42.275  30.633  29.437  1.00  0.00    -0.248 NA
ATOM     54  C   UNL A   1      41.037  32.156  30.702  1.00  0.00     0.031 C 
ATOM     55  C   UNL A   1      46.418  31.377  28.020  1.00  0.00     0.029 A 
ATOM     56  C   UNL A   1      45.120  31.177  28.458  1.00  0.00     0.049 A 
ATOM     57  H   UNL A   1      43.926  29.443  28.334  1.00  0.00     0.167 HD
ATOM     58  C   UNL A   1      43.001  31.812  29.575  1.00  0.00     0.074 A 
ATOM     59  C   UNL A   1      42.170  32.731  30.322  1.00  0.00     0.031 C 
ATOM     60  C   UNL A   1      44.251  32.104  29.138  1.00  0.00     0.034 A 
BRANCH  47  61
ATOM     61  C   UNL A   1      47.076  27.407  26.292  1.00  0.00     0.023 A 
ATOM     62  C   UNL A   1      47.247  27.724  24.929  1.00  0.00     0.012 A 
ATOM     63  C   UNL A   1      48.085  26.697  26.970  1.00  0.00     0.148 A 
ATOM     64  C   UNL A   1      48.394  27.324  24.246  1.00  0.00     0.002 A 
ATOM     65  C   UNL A   1      49.243  26.335  26.293  1.00  0.00     0.091 A 
ATOM     66  F   UNL A   1      47.893  26.389  28.261  1.00  0.00    -0.205 F 
ATOM     67  C   UNL A   1      49.396  26.640  24.929  1.00  0.00     0.022 A 
BRANCH  65  68
ATOM     68  S   UNL A   1      50.625  25.514  27.096  1.00  0.00     0.127 S 
ATOM     69  O   UNL A   1      51.537  25.303  25.972  1.00  0.00    -0.237 OA
ATOM     70  O   UNL A   1      51.065  26.522  28.059  1.00  0.00    -0.237 OA
ATOM     71  O   UNL A   1      50.080  24.299  27.689  1.00  0.00    -0.744 OA
ENDBRANCH  65  68
ENDBRANCH  47  61
BRANCH  48  72
ATOM     72  C   UNL A   1      38.710  30.389  30.877  1.00  0.00     0.023 A 
ATOM     73  C   UNL A   1      38.546  30.100  32.246  1.00  0.00     0.012 A 
ATOM     74  C   UNL A   1      37.694  31.089  30.199  1.00  0.00     0.148 A 
ATOM     75  C   UNL A   1      37.376  30.463  32.915  1.00  0.00     0.002 A 
ATOM     76  C   UNL A   1      36.555  31.496  30.885  1.00  0.00     0.091 A 
ATOM     77  F   UNL A   1      37.854  31.335  28.890  1.00  0.00    -0.205 F 
ATOM     78  C   UNL A   1      36.385  31.168  32.238  1.00  0.00     0.022 A 
BRANCH  76  79
ATOM     79  S   UNL A   1      35.293  32.513  30.111  1.00  0.00     0.127 S 
ATOM     80  O   UNL A   1      34.843  31.654  29.019  1.00  0.00    -0.237 OA
ATOM     81  O   UNL A   1      34.327  32.686  31.198  1.00  0.00    -0.237 OA
ATOM     82  O   UNL A   1      35.974  33.740  29.720  1.00  0.00    -0.744 OA
ENDBRANCH  76  79
ENDBRANCH  48  72
BRANCH  60  83
ATOM     83  C   UNL A   1      44.784  33.487  29.405  1.00  0.00     0.023 A 
ATOM     84  C   UNL A   1      45.444  33.761  30.619  1.00  0.00     0.012 A 
ATOM     85  C   UNL A   1      44.697  34.493  28.421  1.00  0.00     0.148 A 
ATOM     86  C   UNL A   1      45.980  35.026  30.864  1.00  0.00     0.002 A 
ATOM     87  C   UNL A   1      45.275  35.735  28.654  1.00  0.00     0.091 A 
ATOM     88  F   UNL A   1      44.050  34.217  27.280  1.00  0.00    -0.205 F 
ATOM     89  C   UNL A   1      45.907  36.006  29.878  1.00  0.00     0.022 A 
BRANCH  87  90
ATOM     90  S   UNL A   1      45.312  37.028  27.406  1.00  0.00     0.127 S 
ATOM     91  O   UNL A   1      43.887  37.237  27.154  1.00  0.00    -0.237 OA
ATOM     92  O   UNL A   1      45.973  38.124  28.114  1.00  0.00    -0.237 OA
ATOM     93  O   UNL A   1      46.073  36.485  26.290  1.00  0.00    -0.744 OA
ENDBRANCH  87  90
ENDBRANCH  60  83
ENDBRANCH  34  35
ENDBRANCH  27  29
ENDBRANCH  26  27
ENDBRANCH  25  26
ENDBRANCH   1  25
TORSDOF 20
ENDMDL
MODEL 3
REMARK VINA RESULT:     -10.9      1.683      2.227
REMARK SMILES COc1c(N)cc(-c2ccccc2)cc1C(=O)OCCOCCOC(=O)c1ccc(-c2c3nc(c(-c4cccc(S(=O)(=O)[O-])c4F)c4ccc([nH]4)c(-c4cccc(S(=O)(=O)[O-])c4F)c4nc(c(-c5cccc(S(=O)(=O)[O-])c5F)c5ccc2[nH]5)C=C4)C=C3)cc1
REMARK SMILES IDX 22 1 21 2 20 3 19 4 18 5 16 6 17 7 15 8 3 9 4 10 6 11 14 12
REMARK SMILES IDX 7 13 2 14 1 15 5 16 8 19 9 20 13 21 10 22 12 23 11 24 23 25
REMARK SMILES IDX 24 26 25 27 26 28 27 29 28 30 89 31 29 32 88 33 30 34 31 35
REMARK SMILES IDX 32 36 82 37 33 38 87 39 81 40 83 41 34 42 86 43 80 44 79 45
REMARK SMILES IDX 35 47 67 48 47 49 66 50 48 51 51 52 65 53 84 54 49 55 50 56
REMARK SMILES IDX 64 58 85 59 52 60 36 61 37 62 45 63 38 64 40 65 46 66 39 67
REMARK SMILES IDX 41 68 42 69 43 70 44 71 68 72 69 73 77 74 70 75 72 76 78 77
REMARK SMILES IDX 71 78 73 79 74 80 75 81 76 82 53 83 54 84 62 85 55 86 57 87
REMARK SMILES IDX 63 88 56 89 58 90 59 91 60 92 61 93
REMARK H PARENT 5 17 5 18 83 46 51 57
REMARK Flexibility Score: inf
ROOT
ATOM      1  C   UNL A   1      35.809  20.812  25.001  1.00  0.00     0.202 C 
ENDROOT
BRANCH   1   2
ATOM      2  O   UNL A   1      35.398  21.867  25.871  1.00  0.00    -0.374 OA
BRANCH   2   3
ATOM      3  C   UNL A   1      34.928  23.072  25.264  1.00  0.00     0.202 C 
BRANCH   3   4
ATOM      4  C   UNL A   1      33.418  23.317  25.318  1.00  0.00     0.261 C 
BRANCH   4   5
ATOM      5  O   UNL A   1      33.046  23.947  26.554  1.00  0.00    -0.460 OA
BRANCH   5   6
ATOM      6  C   UNL A   1      31.797  24.468  26.581  1.00  0.00     0.342 C 
ATOM      7  O   UNL A   1      30.837  24.017  27.189  1.00  0.00    -0.246 OA
BRANCH   6   8
ATOM      8  C   UNL A   1      31.752  25.807  25.956  1.00  0.00     0.104 A 
ATOM      9  C   UNL A   1      30.925  26.160  24.884  1.00  0.00     0.156 A 
ATOM     10  C   UNL A   1      30.815  27.512  24.504  1.00  0.00     0.076 A 
ATOM     11  C   UNL A   1      31.687  28.452  25.070  1.00  0.00     0.038 A 
ATOM     12  C   UNL A   1      32.586  26.776  26.539  1.00  0.00     0.028 A 
ATOM     13  C   UNL A   1      32.581  28.099  26.091  1.00  0.00    -0.015 A 
BRANCH   9  14
ATOM     14  O   UNL A   1      30.143  25.210  24.273  1.00  0.00    -0.494 OA
ATOM     15  C   UNL A   1      30.810  24.650  23.134  1.00  0.00     0.278 C 
ENDBRANCH   9  14
BRANCH  10  16
ATOM     16  N   UNL A   1      29.935  27.919  23.500  1.00  0.00    -0.396 N 
ATOM     17  H   UNL A   1      28.968  27.776  23.605  1.00  0.00     0.156 HD
ATOM     18  H   UNL A   1      30.283  28.351  22.686  1.00  0.00     0.156 HD
ENDBRANCH  10  16
BRANCH  13  19
ATOM     19  C   UNL A   1      33.444  29.099  26.721  1.00  0.00    -0.018 A 
ATOM     20  C   UNL A   1      34.786  28.796  27.001  1.00  0.00     0.009 A 
ATOM     21  C   UNL A   1      32.966  30.379  27.036  1.00  0.00     0.009 A 
ATOM     22  C   UNL A   1      35.626  29.746  27.583  1.00  0.00     0.001 A 
ATOM     23  C   UNL A   1      33.806  31.330  27.621  1.00  0.00     0.001 A 
ATOM     24  C   UNL A   1      35.135  31.013  27.894  1.00  0.00     0.000 A 
ENDBRANCH  13  19
ENDBRANCH   6   8
ENDBRANCH   5   6
ENDBRANCH   4   5
ENDBRANCH   3   4
ENDBRANCH   2   3
ENDBRANCH   1   2
BRANCH   1  25
ATOM     25  C   UNL A   1      37.266  20.345  25.118  1.00  0.00     0.261 C 
BRANCH  25  26
ATOM     26  O   UNL A   1      38.194  21.437  25.231  1.00  0.00    -0.460 OA
BRANCH  26  27
ATOM     27  C   UNL A   1      39.202  21.235  26.114  1.00  0.00     0.338 C 
ATOM     28  O   UNL A   1      39.795  20.184  26.329  1.00  0.00    -0.246 OA
BRANCH  27  29
ATOM     29  C   UNL A   1      39.639  22.519  26.692  1.00  0.00     0.060 A 
ATOM     30  C   UNL A   1      39.019  23.685  26.224  1.00  0.00     0.016 A 
ATOM     31  C   UNL A   1      40.682  22.592  27.617  1.00  0.00     0.016 A 
ATOM     32  C   UNL A   1      39.471  24.935  26.646  1.00  0.00     0.010 A 
ATOM     33  C   UNL A   1      41.139  23.848  28.033  1.00  0.00     0.010 A 
ATOM     34  C   UNL A   1      40.560  25.024  27.523  1.00  0.00    -0.014 A 
BRANCH  34  35
ATOM     35  C   UNL A   1      41.173  26.346  27.799  1.00  0.00     0.031 A 
ATOM     36  C   UNL A   1      42.555  26.635  27.274  1.00  0.00     0.074 A 
ATOM     37  C   UNL A   1      40.504  27.284  28.495  1.00  0.00     0.049 A 
ATOM     38  N   UNL A   1      43.289  27.707  27.420  1.00  0.00    -0.248 NA
ATOM     39  C   UNL A   1      43.193  25.575  26.474  1.00  0.00     0.031 C 
ATOM     40  C   UNL A   1      39.158  27.128  29.045  1.00  0.00     0.029 A 
ATOM     41  N   UNL A   1      40.879  28.548  28.876  1.00  0.00    -0.354 N 
ATOM     42  C   UNL A   1      44.478  27.449  26.746  1.00  0.00     0.074 A 
ATOM     43  C   UNL A   1      44.376  26.109  26.208  1.00  0.00     0.031 C 
ATOM     44  C   UNL A   1      38.829  28.245  29.716  1.00  0.00     0.029 A 
ATOM     45  C   UNL A   1      39.947  29.185  29.663  1.00  0.00     0.049 A 
ATOM     46  H   UNL A   1      41.734  28.960  28.612  1.00  0.00     0.167 HD
ATOM     47  C   UNL A   1      45.546  28.261  26.569  1.00  0.00     0.034 A 
ATOM     48  C   UNL A   1      40.002  30.381  30.281  1.00  0.00     0.034 A 
ATOM     49  C   UNL A   1      45.641  29.597  27.092  1.00  0.00     0.049 A 
ATOM     50  C   UNL A   1      41.223  31.248  30.100  1.00  0.00     0.074 A 
ATOM     51  C   UNL A   1      46.680  30.501  26.960  1.00  0.00     0.029 A 
ATOM     52  N   UNL A   1      44.660  30.222  27.844  1.00  0.00    -0.354 N 
ATOM     53  N   UNL A   1      42.295  31.026  29.378  1.00  0.00    -0.248 NA
ATOM     54  C   UNL A   1      41.227  32.545  30.794  1.00  0.00     0.031 C 
ATOM     55  C   UNL A   1      46.332  31.670  27.643  1.00  0.00     0.029 A 
ATOM     56  C   UNL A   1      45.068  31.501  28.182  1.00  0.00     0.049 A 
ATOM     57  H   UNL A   1      43.800  29.818  28.100  1.00  0.00     0.167 HD
ATOM     58  C   UNL A   1      43.076  32.172  29.494  1.00  0.00     0.074 A 
ATOM     59  C   UNL A   1      42.347  33.092  30.341  1.00  0.00     0.031 C 
ATOM     60  C   UNL A   1      44.296  32.433  28.964  1.00  0.00     0.034 A 
BRANCH  47  61
ATOM     61  C   UNL A   1      46.686  27.746  25.730  1.00  0.00     0.023 A 
ATOM     62  C   UNL A   1      46.642  27.915  24.332  1.00  0.00     0.012 A 
ATOM     63  C   UNL A   1      47.826  27.169  26.322  1.00  0.00     0.148 A 
ATOM     64  C   UNL A   1      47.704  27.497  23.532  1.00  0.00     0.002 A 
ATOM     65  C   UNL A   1      48.897  26.790  25.523  1.00  0.00     0.091 A 
ATOM     66  F   UNL A   1      47.839  27.000  27.653  1.00  0.00    -0.205 F 
ATOM     67  C   UNL A   1      48.835  26.946  24.127  1.00  0.00     0.022 A 
BRANCH  65  68
ATOM     68  S   UNL A   1      50.429  26.134  26.194  1.00  0.00     0.127 S 
ATOM     69  O   UNL A   1      51.230  25.956  24.983  1.00  0.00    -0.237 OA
ATOM     70  O   UNL A   1      50.874  27.222  27.065  1.00  0.00    -0.237 OA
ATOM     71  O   UNL A   1      50.071  24.904  26.888  1.00  0.00    -0.744 OA
ENDBRANCH  65  68
ENDBRANCH  47  61
BRANCH  48  72
ATOM     72  C   UNL A   1      38.854  30.860  31.103  1.00  0.00     0.023 A 
ATOM     73  C   UNL A   1      38.694  30.380  32.418  1.00  0.00     0.012 A 
ATOM     74  C   UNL A   1      37.910  31.767  30.586  1.00  0.00     0.148 A 
ATOM     75  C   UNL A   1      37.594  30.762  33.187  1.00  0.00     0.002 A 
ATOM     76  C   UNL A   1      36.845  32.186  31.377  1.00  0.00     0.091 A 
ATOM     77  F   UNL A   1      38.062  32.196  29.324  1.00  0.00    -0.205 F 
ATOM     78  C   UNL A   1      36.674  31.671  32.670  1.00  0.00     0.022 A 
BRANCH  76  79
ATOM     79  S   UNL A   1      35.691  33.446  30.825  1.00  0.00     0.127 S 
ATOM     80  O   UNL A   1      35.824  34.455  31.873  1.00  0.00    -0.237 OA
ATOM     81  O   UNL A   1      36.248  33.828  29.527  1.00  0.00    -0.237 OA
ATOM     82  O   UNL A   1      34.400  32.776  30.745  1.00  0.00    -0.744 OA
ENDBRANCH  76  79
ENDBRANCH  48  72
BRANCH  60  83
ATOM     83  C   UNL A   1      44.904  33.785  29.233  1.00  0.00     0.023 A 
ATOM     84  C   UNL A   1      45.661  33.993  30.403  1.00  0.00     0.012 A 
ATOM     85  C   UNL A   1      44.789  34.825  28.289  1.00  0.00     0.148 A 
ATOM     86  C   UNL A   1      46.265  35.227  30.646  1.00  0.00     0.002 A 
ATOM     87  C   UNL A   1      45.434  36.035  28.516  1.00  0.00     0.091 A 
ATOM     88  F   UNL A   1      44.051  34.613  27.190  1.00  0.00    -0.205 F 
ATOM     89  C   UNL A   1      46.162  36.241  29.698  1.00  0.00     0.022 A 
BRANCH  87  90
ATOM     90  S   UNL A   1      45.435  37.366  27.308  1.00  0.00     0.127 S 
ATOM     91  O   UNL A   1      46.147  38.421  28.029  1.00  0.00    -0.237 OA
ATOM     92  O   UNL A   1      46.181  36.777  26.196  1.00  0.00    -0.237 OA
ATOM     93  O   UNL A   1      44.035  37.643  27.016  1.00  0.00    -0.744 OA
ENDBRANCH  87  90
ENDBRANCH  60  83
ENDBRANCH  34  35
ENDBRANCH  27  29
ENDBRANCH  26  27
ENDBRANCH  25  26
ENDBRANCH   1  25
TORSDOF 20
ENDMDL
