MODEL 1
REMARK VINA RESULT:     -11.1      0.000      0.000
REMARK SMILES C[C@@H]1[C@@H](C(=O)OCCOCCOC(=O)c2ccc(-c3c4nc(c(-c5cccc(S(=O)(=O)[O-])c5F)c5ccc([nH]5)c(-c5cccc(S(=O)(=O)[O-])c5F)c5nc(c(-c6cccc(S(=O)(=O)[O-])c6F)c6ccc3[nH]6)C=C5)C=C4)cc2)CCN1C(=O)Nc1nccs1
REMARK SMILES IDX 10 1 9 2 8 3 7 4 6 5 4 6 5 7 3 8 1 9 2 10 80 11 78 12 79 13
REMARK SMILES IDX 81 14 82 15 83 16 84 18 85 19 88 20 86 21 87 22 11 23 12 24
REMARK SMILES IDX 13 25 14 26 15 27 16 28 77 29 17 30 76 31 18 32 19 33 20 34
REMARK SMILES IDX 70 35 21 36 75 37 69 38 71 39 22 40 74 41 68 42 67 43 23 45
REMARK SMILES IDX 55 46 35 47 54 48 36 49 39 50 53 51 72 52 37 53 38 54 52 56
REMARK SMILES IDX 73 57 40 58 24 59 25 60 33 61 26 62 28 63 34 64 27 65 29 66
REMARK SMILES IDX 30 67 31 68 32 69 56 70 57 71 65 72 58 73 60 74 66 75 59 76
REMARK SMILES IDX 61 77 62 78 63 79 64 80 41 81 42 82 50 83 43 84 45 85 51 86
REMARK SMILES IDX 44 87 46 88 47 89 48 90 49 91
REMARK H PARENT 83 17 71 44 39 55
REMARK Flexibility Score: inf
ROOT
ATOM      1  C   UNL A   1      35.970  20.383  24.999  1.00  0.00     0.202 C 
ENDROOT
BRANCH   1   2
ATOM      2  O   UNL A   1      35.552  21.404  25.905  1.00  0.00    -0.374 OA
BRANCH   2   3
ATOM      3  C   UNL A   1      34.190  21.409  26.329  1.00  0.00     0.202 C 
BRANCH   3   4
ATOM      4  C   UNL A   1      33.140  20.915  25.330  1.00  0.00     0.261 C 
BRANCH   4   5
ATOM      5  O   UNL A   1      31.925  21.676  25.412  1.00  0.00    -0.463 OA
BRANCH   5   6
ATOM      6  C   UNL A   1      31.806  22.652  24.470  1.00  0.00     0.311 C 
ATOM      7  O   UNL A   1      32.388  22.648  23.391  1.00  0.00    -0.252 OA
BRANCH   6   8
ATOM      8  C   UNL A   1      30.776  23.687  24.902  1.00  0.00     0.123 C 
ATOM      9  C   UNL A   1      29.912  25.963  24.162  1.00  0.00     0.032 C 
ATOM     10  C   UNL A   1      31.115  25.017  24.222  1.00  0.00     0.098 C 
ATOM     11  N   UNL A   1      32.168  25.568  25.079  1.00  0.00    -0.321 N 
ATOM     12  C   UNL A   1      30.890  24.017  26.383  1.00  0.00     0.039 C 
ATOM     13  C   UNL A   1      32.042  25.019  26.431  1.00  0.00     0.122 C 
BRANCH  11  14
ATOM     14  C   UNL A   1      33.374  26.118  24.738  1.00  0.00     0.323 C 
ATOM     15  O   UNL A   1      34.302  25.397  24.347  1.00  0.00    -0.248 OA
ATOM     16  N   UNL A   1      33.587  27.446  24.636  1.00  0.00    -0.283 N 
ATOM     17  H   UNL A   1      34.300  27.686  24.003  1.00  0.00     0.174 HD
BRANCH  16  18
ATOM     18  C   UNL A   1      33.007  28.516  25.240  1.00  0.00     0.190 A 
ATOM     19  N   UNL A   1      32.064  29.322  24.825  1.00  0.00    -0.228 NA
ATOM     20  S   UNL A   1      33.605  28.813  26.817  1.00  0.00    -0.105 S 
ATOM     21  C   UNL A   1      31.858  30.313  25.763  1.00  0.00     0.125 A 
ATOM     22  C   UNL A   1      32.632  30.223  26.900  1.00  0.00     0.088 A 
ENDBRANCH  16  18
ENDBRANCH  11  14
ENDBRANCH   6   8
ENDBRANCH   5   6
ENDBRANCH   4   5
ENDBRANCH   3   4
ENDBRANCH   2   3
ENDBRANCH   1   2
BRANCH   1  23
ATOM     23  C   UNL A   1      37.465  20.046  24.951  1.00  0.00     0.261 C 
BRANCH  23  24
ATOM     24  O   UNL A   1      38.297  21.198  25.172  1.00  0.00    -0.460 OA
BRANCH  24  25
ATOM     25  C   UNL A   1      39.312  21.005  26.048  1.00  0.00     0.338 C 
ATOM     26  O   UNL A   1      39.946  19.971  26.224  1.00  0.00    -0.246 OA
BRANCH  25  27
ATOM     27  C   UNL A   1      39.714  22.287  26.652  1.00  0.00     0.060 A 
ATOM     28  C   UNL A   1      39.079  23.448  26.190  1.00  0.00     0.016 A 
ATOM     29  C   UNL A   1      40.744  22.366  27.591  1.00  0.00     0.016 A 
ATOM     30  C   UNL A   1      39.507  24.699  26.628  1.00  0.00     0.010 A 
ATOM     31  C   UNL A   1      41.180  23.624  28.020  1.00  0.00     0.010 A 
ATOM     32  C   UNL A   1      40.589  24.795  27.511  1.00  0.00    -0.014 A 
BRANCH  32  33
ATOM     33  C   UNL A   1      41.191  26.122  27.783  1.00  0.00     0.031 A 
ATOM     34  C   UNL A   1      42.595  26.394  27.315  1.00  0.00     0.074 A 
ATOM     35  C   UNL A   1      40.495  27.073  28.430  1.00  0.00     0.049 A 
ATOM     36  N   UNL A   1      43.318  27.475  27.454  1.00  0.00    -0.248 NA
ATOM     37  C   UNL A   1      43.274  25.304  26.595  1.00  0.00     0.031 C 
ATOM     38  C   UNL A   1      39.129  26.927  28.928  1.00  0.00     0.029 A 
ATOM     39  N   UNL A   1      40.855  28.345  28.797  1.00  0.00    -0.354 N 
ATOM     40  C   UNL A   1      44.544  27.188  26.865  1.00  0.00     0.074 A 
ATOM     41  C   UNL A   1      44.472  25.828  26.378  1.00  0.00     0.031 C 
ATOM     42  C   UNL A   1      38.774  28.058  29.563  1.00  0.00     0.029 A 
ATOM     43  C   UNL A   1      39.894  28.997  29.532  1.00  0.00     0.049 A 
ATOM     44  H   UNL A   1      41.719  28.752  28.557  1.00  0.00     0.167 HD
ATOM     45  C   UNL A   1      45.625  27.991  26.726  1.00  0.00     0.034 A 
ATOM     46  C   UNL A   1      39.924  30.206  30.128  1.00  0.00     0.034 A 
ATOM     47  C   UNL A   1      45.687  29.350  27.191  1.00  0.00     0.049 A 
ATOM     48  C   UNL A   1      41.148  31.072  29.975  1.00  0.00     0.074 A 
ATOM     49  C   UNL A   1      46.720  30.260  27.055  1.00  0.00     0.029 A 
ATOM     50  N   UNL A   1      44.678  29.991  27.892  1.00  0.00    -0.354 N 
ATOM     51  N   UNL A   1      42.251  30.834  29.307  1.00  0.00    -0.248 NA
ATOM     52  C   UNL A   1      41.117  32.389  30.628  1.00  0.00     0.031 C 
ATOM     53  C   UNL A   1      46.345  31.446  27.694  1.00  0.00     0.029 A 
ATOM     54  C   UNL A   1      45.067  31.282  28.207  1.00  0.00     0.049 A 
ATOM     55  H   UNL A   1      43.813  29.588  28.131  1.00  0.00     0.167 HD
ATOM     56  C   UNL A   1      43.028  31.980  29.430  1.00  0.00     0.074 A 
ATOM     57  C   UNL A   1      42.260  32.922  30.219  1.00  0.00     0.031 C 
ATOM     58  C   UNL A   1      44.270  32.228  28.945  1.00  0.00     0.034 A 
BRANCH  45  59
ATOM     59  C   UNL A   1      46.826  27.427  26.014  1.00  0.00     0.023 A 
ATOM     60  C   UNL A   1      47.661  26.508  26.681  1.00  0.00     0.012 A 
ATOM     61  C   UNL A   1      47.096  27.761  24.673  1.00  0.00     0.148 A 
ATOM     62  C   UNL A   1      48.764  25.951  26.033  1.00  0.00     0.002 A 
ATOM     63  C   UNL A   1      48.172  27.170  24.020  1.00  0.00     0.091 A 
ATOM     64  F   UNL A   1      46.304  28.656  24.064  1.00  0.00    -0.205 F 
ATOM     65  C   UNL A   1      49.012  26.274  24.702  1.00  0.00     0.022 A 
BRANCH  63  66
ATOM     66  S   UNL A   1      48.532  27.466  22.286  1.00  0.00     0.127 S 
ATOM     67  O   UNL A   1      48.662  26.102  21.775  1.00  0.00    -0.237 OA
ATOM     68  O   UNL A   1      47.332  28.173  21.838  1.00  0.00    -0.237 OA
ATOM     69  O   UNL A   1      49.750  28.264  22.260  1.00  0.00    -0.744 OA
ENDBRANCH  63  66
ENDBRANCH  45  59
BRANCH  46  70
ATOM     70  C   UNL A   1      38.741  30.686  30.895  1.00  0.00     0.023 A 
ATOM     71  C   UNL A   1      38.692  30.497  32.290  1.00  0.00     0.012 A 
ATOM     72  C   UNL A   1      37.674  31.345  30.254  1.00  0.00     0.148 A 
ATOM     73  C   UNL A   1      37.589  30.929  33.028  1.00  0.00     0.002 A 
ATOM     74  C   UNL A   1      36.603  31.821  31.001  1.00  0.00     0.091 A 
ATOM     75  F   UNL A   1      37.730  31.497  28.923  1.00  0.00    -0.205 F 
ATOM     76  C   UNL A   1      36.550  31.600  32.386  1.00  0.00     0.022 A 
BRANCH  74  77
ATOM     77  S   UNL A   1      35.290  32.807  30.275  1.00  0.00     0.127 S 
ATOM     78  O   UNL A   1      36.015  33.997  29.839  1.00  0.00    -0.237 OA
ATOM     79  O   UNL A   1      34.822  31.939  29.194  1.00  0.00    -0.237 OA
ATOM     80  O   UNL A   1      34.318  33.011  31.341  1.00  0.00    -0.744 OA
ENDBRANCH  74  77
ENDBRANCH  46  70
BRANCH  58  81
ATOM     81  C   UNL A   1      44.874  33.581  29.219  1.00  0.00     0.023 A 
ATOM     82  C   UNL A   1      45.572  33.806  30.422  1.00  0.00     0.012 A 
ATOM     83  C   UNL A   1      44.817  34.604  28.251  1.00  0.00     0.148 A 
ATOM     84  C   UNL A   1      46.178  35.037  30.670  1.00  0.00     0.002 A 
ATOM     85  C   UNL A   1      45.464  35.812  28.485  1.00  0.00     0.091 A 
ATOM     86  F   UNL A   1      44.132  34.377  27.121  1.00  0.00    -0.205 F 
ATOM     87  C   UNL A   1      46.134  36.034  29.698  1.00  0.00     0.022 A 
BRANCH  85  88
ATOM     88  S   UNL A   1      45.541  37.115  27.251  1.00  0.00     0.127 S 
ATOM     89  O   UNL A   1      44.128  37.311  26.935  1.00  0.00    -0.237 OA
ATOM     90  O   UNL A   1      46.157  38.214  27.995  1.00  0.00    -0.237 OA
ATOM     91  O   UNL A   1      46.360  36.590  26.166  1.00  0.00    -0.744 OA
ENDBRANCH  85  88
ENDBRANCH  58  81
ENDBRANCH  32  33
ENDBRANCH  25  27
ENDBRANCH  24  25
ENDBRANCH  23  24
ENDBRANCH   1  23
TORSDOF 19
ENDMDL
MODEL 2
REMARK VINA RESULT:     -11.0      1.326      1.932
REMARK SMILES C[C@@H]1[C@@H](C(=O)OCCOCCOC(=O)c2ccc(-c3c4nc(c(-c5cccc(S(=O)(=O)[O-])c5F)c5ccc([nH]5)c(-c5cccc(S(=O)(=O)[O-])c5F)c5nc(c(-c6cccc(S(=O)(=O)[O-])c6F)c6ccc3[nH]6)C=C5)C=C4)cc2)CCN1C(=O)Nc1nccs1
REMARK SMILES IDX 10 1 9 2 8 3 7 4 6 5 4 6 5 7 3 8 1 9 2 10 80 11 78 12 79 13
REMARK SMILES IDX 81 14 82 15 83 16 84 18 85 19 88 20 86 21 87 22 11 23 12 24
REMARK SMILES IDX 13 25 14 26 15 27 16 28 77 29 17 30 76 31 18 32 19 33 20 34
REMARK SMILES IDX 70 35 21 36 75 37 69 38 71 39 22 40 74 41 68 42 67 43 23 45
REMARK SMILES IDX 55 46 35 47 54 48 36 49 39 50 53 51 72 52 37 53 38 54 52 56
REMARK SMILES IDX 73 57 40 58 24 59 25 60 33 61 26 62 28 63 34 64 27 65 29 66
REMARK SMILES IDX 30 67 31 68 32 69 56 70 57 71 65 72 58 73 60 74 66 75 59 76
REMARK SMILES IDX 61 77 62 78 63 79 64 80 41 81 42 82 50 83 43 84 45 85 51 86
REMARK SMILES IDX 44 87 46 88 47 89 48 90 49 91
REMARK H PARENT 83 17 71 44 39 55
REMARK Flexibility Score: inf
ROOT
ATOM      1  C   UNL A   1      36.130  19.741  24.948  1.00  0.00     0.202 C 
ENDROOT
BRANCH   1   2
ATOM      2  O   UNL A   1      35.026  20.609  24.693  1.00  0.00    -0.374 OA
BRANCH   2   3
ATOM      3  C   UNL A   1      33.946  20.614  25.626  1.00  0.00     0.202 C 
BRANCH   3   4
ATOM      4  C   UNL A   1      34.187  21.295  26.977  1.00  0.00     0.261 C 
BRANCH   4   5
ATOM      5  O   UNL A   1      34.729  22.615  26.820  1.00  0.00    -0.463 OA
BRANCH   5   6
ATOM      6  C   UNL A   1      33.806  23.573  26.530  1.00  0.00     0.311 C 
ATOM      7  O   UNL A   1      32.644  23.555  26.917  1.00  0.00    -0.252 OA
BRANCH   6   8
ATOM      8  C   UNL A   1      34.448  24.711  25.749  1.00  0.00     0.123 C 
ATOM      9  C   UNL A   1      33.748  26.787  24.453  1.00  0.00     0.032 C 
ATOM     10  C   UNL A   1      33.372  25.364  24.875  1.00  0.00     0.098 C 
ATOM     11  N   UNL A   1      33.306  24.477  23.712  1.00  0.00    -0.321 N 
ATOM     12  C   UNL A   1      35.457  24.202  24.730  1.00  0.00     0.039 C 
ATOM     13  C   UNL A   1      34.582  23.776  23.553  1.00  0.00     0.122 C 
BRANCH  11  14
ATOM     14  C   UNL A   1      32.215  23.940  23.084  1.00  0.00     0.323 C 
ATOM     15  O   UNL A   1      32.204  22.744  22.761  1.00  0.00    -0.248 OA
ATOM     16  N   UNL A   1      31.046  24.593  22.927  1.00  0.00    -0.283 N 
ATOM     17  H   UNL A   1      30.264  24.000  22.869  1.00  0.00     0.174 HD
BRANCH  16  18
ATOM     18  C   UNL A   1      30.740  25.914  22.834  1.00  0.00     0.190 A 
ATOM     19  N   UNL A   1      31.176  26.834  22.012  1.00  0.00    -0.228 NA
ATOM     20  S   UNL A   1      29.561  26.419  23.967  1.00  0.00    -0.105 S 
ATOM     21  C   UNL A   1      30.628  28.055  22.355  1.00  0.00     0.125 A 
ATOM     22  C   UNL A   1      29.751  28.034  23.418  1.00  0.00     0.088 A 
ENDBRANCH  16  18
ENDBRANCH  11  14
ENDBRANCH   6   8
ENDBRANCH   5   6
ENDBRANCH   4   5
ENDBRANCH   3   4
ENDBRANCH   2   3
ENDBRANCH   1   2
BRANCH   1  23
ATOM     23  C   UNL A   1      37.540  20.297  24.711  1.00  0.00     0.261 C 
BRANCH  23  24
ATOM     24  O   UNL A   1      37.916  21.279  25.691  1.00  0.00    -0.460 OA
BRANCH  24  25
ATOM     25  C   UNL A   1      39.193  21.181  26.133  1.00  0.00     0.338 C 
ATOM     26  O   UNL A   1      39.976  20.262  25.923  1.00  0.00    -0.246 OA
BRANCH  25  27
ATOM     27  C   UNL A   1      39.615  22.446  26.758  1.00  0.00     0.060 A 
ATOM     28  C   UNL A   1      38.945  23.615  26.371  1.00  0.00     0.016 A 
ATOM     29  C   UNL A   1      40.692  22.505  27.644  1.00  0.00     0.016 A 
ATOM     30  C   UNL A   1      39.384  24.855  26.828  1.00  0.00     0.010 A 
ATOM     31  C   UNL A   1      41.139  23.752  28.092  1.00  0.00     0.010 A 
ATOM     32  C   UNL A   1      40.511  24.933  27.656  1.00  0.00    -0.014 A 
BRANCH  32  33
ATOM     33  C   UNL A   1      41.114  26.257  27.941  1.00  0.00     0.031 A 
ATOM     34  C   UNL A   1      42.528  26.523  27.500  1.00  0.00     0.074 A 
ATOM     35  C   UNL A   1      40.410  27.210  28.575  1.00  0.00     0.049 A 
ATOM     36  N   UNL A   1      43.253  27.599  27.654  1.00  0.00    -0.248 NA
ATOM     37  C   UNL A   1      43.216  25.430  26.792  1.00  0.00     0.031 C 
ATOM     38  C   UNL A   1      39.034  27.072  29.046  1.00  0.00     0.029 A 
ATOM     39  N   UNL A   1      40.769  28.481  28.950  1.00  0.00    -0.354 N 
ATOM     40  C   UNL A   1      44.489  27.307  27.089  1.00  0.00     0.074 A 
ATOM     41  C   UNL A   1      44.420  25.947  26.599  1.00  0.00     0.031 C 
ATOM     42  C   UNL A   1      38.673  28.203  29.675  1.00  0.00     0.029 A 
ATOM     43  C   UNL A   1      39.798  29.137  29.667  1.00  0.00     0.049 A 
ATOM     44  H   UNL A   1      41.640  28.884  28.727  1.00  0.00     0.167 HD
ATOM     45  C   UNL A   1      45.577  28.104  26.972  1.00  0.00     0.034 A 
ATOM     46  C   UNL A   1      39.822  30.344  30.265  1.00  0.00     0.034 A 
ATOM     47  C   UNL A   1      45.636  29.462  27.439  1.00  0.00     0.049 A 
ATOM     48  C   UNL A   1      41.053  31.205  30.136  1.00  0.00     0.074 A 
ATOM     49  C   UNL A   1      46.677  30.367  27.324  1.00  0.00     0.029 A 
ATOM     50  N   UNL A   1      44.618  30.108  28.122  1.00  0.00    -0.354 N 
ATOM     51  N   UNL A   1      42.168  30.962  29.490  1.00  0.00    -0.248 NA
ATOM     52  C   UNL A   1      41.016  32.521  30.790  1.00  0.00     0.031 C 
ATOM     53  C   UNL A   1      46.295  31.554  27.957  1.00  0.00     0.029 A 
ATOM     54  C   UNL A   1      45.007  31.397  28.446  1.00  0.00     0.049 A 
ATOM     55  H   UNL A   1      43.746  29.710  28.344  1.00  0.00     0.167 HD
ATOM     56  C   UNL A   1      42.948  32.104  29.629  1.00  0.00     0.074 A 
ATOM     57  C   UNL A   1      42.170  33.049  30.404  1.00  0.00     0.031 C 
ATOM     58  C   UNL A   1      44.201  32.346  29.169  1.00  0.00     0.034 A 
BRANCH  45  59
ATOM     59  C   UNL A   1      46.789  27.535  26.282  1.00  0.00     0.023 A 
ATOM     60  C   UNL A   1      47.622  26.632  26.975  1.00  0.00     0.012 A 
ATOM     61  C   UNL A   1      47.071  27.847  24.939  1.00  0.00     0.148 A 
ATOM     62  C   UNL A   1      48.734  26.071  26.348  1.00  0.00     0.002 A 
ATOM     63  C   UNL A   1      48.158  27.251  24.308  1.00  0.00     0.091 A 
ATOM     64  F   UNL A   1      46.281  28.727  24.306  1.00  0.00    -0.205 F 
ATOM     65  C   UNL A   1      48.995  26.372  25.014  1.00  0.00     0.022 A 
BRANCH  63  66
ATOM     66  S   UNL A   1      48.534  27.519  22.573  1.00  0.00     0.127 S 
ATOM     67  O   UNL A   1      47.373  28.291  22.134  1.00  0.00    -0.237 OA
ATOM     68  O   UNL A   1      49.782  28.281  22.642  1.00  0.00    -0.237 OA
ATOM     69  O   UNL A   1      48.666  26.194  21.982  1.00  0.00    -0.744 OA
ENDBRANCH  63  66
ENDBRANCH  45  59
BRANCH  46  70
ATOM     70  C   UNL A   1      38.627  30.830  31.009  1.00  0.00     0.023 A 
ATOM     71  C   UNL A   1      38.560  30.662  32.407  1.00  0.00     0.012 A 
ATOM     72  C   UNL A   1      37.565  31.473  30.345  1.00  0.00     0.148 A 
ATOM     73  C   UNL A   1      37.446  31.099  33.123  1.00  0.00     0.002 A 
ATOM     74  C   UNL A   1      36.482  31.956  31.071  1.00  0.00     0.091 A 
ATOM     75  F   UNL A   1      37.637  31.606  29.012  1.00  0.00    -0.205 F 
ATOM     76  C   UNL A   1      36.413  31.755  32.458  1.00  0.00     0.022 A 
BRANCH  74  77
ATOM     77  S   UNL A   1      35.173  32.924  30.313  1.00  0.00     0.127 S 
ATOM     78  O   UNL A   1      34.300  33.190  31.453  1.00  0.00    -0.237 OA
ATOM     79  O   UNL A   1      35.907  34.086  29.814  1.00  0.00    -0.237 OA
ATOM     80  O   UNL A   1      34.614  32.076  29.269  1.00  0.00    -0.744 OA
ENDBRANCH  74  77
ENDBRANCH  46  70
BRANCH  58  81
ATOM     81  C   UNL A   1      44.805  33.696  29.456  1.00  0.00     0.023 A 
ATOM     82  C   UNL A   1      45.579  33.884  30.618  1.00  0.00     0.012 A 
ATOM     83  C   UNL A   1      44.674  34.754  28.535  1.00  0.00     0.148 A 
ATOM     84  C   UNL A   1      46.186  35.113  30.875  1.00  0.00     0.002 A 
ATOM     85  C   UNL A   1      45.321  35.961  28.773  1.00  0.00     0.091 A 
ATOM     86  F   UNL A   1      43.918  34.562  27.443  1.00  0.00    -0.205 F 
ATOM     87  C   UNL A   1      46.067  36.146  29.948  1.00  0.00     0.022 A 
BRANCH  85  88
ATOM     88  S   UNL A   1      45.302  37.313  27.589  1.00  0.00     0.127 S 
ATOM     89  O   UNL A   1      46.138  36.779  26.515  1.00  0.00    -0.237 OA
ATOM     90  O   UNL A   1      43.881  37.419  27.259  1.00  0.00    -0.237 OA
ATOM     91  O   UNL A   1      45.845  38.467  28.291  1.00  0.00    -0.744 OA
ENDBRANCH  85  88
ENDBRANCH  58  81
ENDBRANCH  32  33
ENDBRANCH  25  27
ENDBRANCH  24  25
ENDBRANCH  23  24
ENDBRANCH   1  23
TORSDOF 19
ENDMDL
MODEL 3
REMARK VINA RESULT:     -11.0      1.893      2.380
REMARK SMILES C[C@@H]1[C@@H](C(=O)OCCOCCOC(=O)c2ccc(-c3c4nc(c(-c5cccc(S(=O)(=O)[O-])c5F)c5ccc([nH]5)c(-c5cccc(S(=O)(=O)[O-])c5F)c5nc(c(-c6cccc(S(=O)(=O)[O-])c6F)c6ccc3[nH]6)C=C5)C=C4)cc2)CCN1C(=O)Nc1nccs1
REMARK SMILES IDX 10 1 9 2 8 3 7 4 6 5 4 6 5 7 3 8 1 9 2 10 80 11 78 12 79 13
REMARK SMILES IDX 81 14 82 15 83 16 84 18 85 19 88 20 86 21 87 22 11 23 12 24
REMARK SMILES IDX 13 25 14 26 15 27 16 28 77 29 17 30 76 31 18 32 19 33 20 34
REMARK SMILES IDX 70 35 21 36 75 37 69 38 71 39 22 40 74 41 68 42 67 43 23 45
REMARK SMILES IDX 55 46 35 47 54 48 36 49 39 50 53 51 72 52 37 53 38 54 52 56
REMARK SMILES IDX 73 57 40 58 24 59 25 60 33 61 26 62 28 63 34 64 27 65 29 66
REMARK SMILES IDX 30 67 31 68 32 69 56 70 57 71 65 72 58 73 60 74 66 75 59 76
REMARK SMILES IDX 61 77 62 78 63 79 64 80 41 81 42 82 50 83 43 84 45 85 51 86
REMARK SMILES IDX 44 87 46 88 47 89 48 90 49 91
REMARK H PARENT 83 17 71 44 39 55
REMARK Flexibility Score: inf
ROOT
ATOM      1  C   UNL A   1      35.844  20.487  25.096  1.00  0.00     0.202 C 
ENDROOT
BRANCH   1   2
ATOM      2  O   UNL A   1      35.236  21.487  24.279  1.00  0.00    -0.374 OA
BRANCH   2   3
ATOM      3  C   UNL A   1      34.640  22.611  24.925  1.00  0.00     0.202 C 
BRANCH   3   4
ATOM      4  C   UNL A   1      35.263  23.986  24.663  1.00  0.00     0.261 C 
BRANCH   4   5
ATOM      5  O   UNL A   1      34.389  25.052  25.061  1.00  0.00    -0.463 OA
BRANCH   5   6
ATOM      6  C   UNL A   1      33.538  25.477  24.087  1.00  0.00     0.311 C 
ATOM      7  O   UNL A   1      33.843  25.605  22.908  1.00  0.00    -0.252 OA
BRANCH   6   8
ATOM      8  C   UNL A   1      32.136  25.669  24.651  1.00  0.00     0.123 C 
ATOM      9  C   UNL A   1      29.818  26.346  23.849  1.00  0.00     0.032 C 
ATOM     10  C   UNL A   1      31.328  26.512  23.660  1.00  0.00     0.098 C 
ATOM     11  N   UNL A   1      31.745  27.881  23.974  1.00  0.00    -0.321 N 
ATOM     12  C   UNL A   1      32.143  26.526  25.908  1.00  0.00     0.039 C 
ATOM     13  C   UNL A   1      32.209  27.950  25.361  1.00  0.00     0.122 C 
BRANCH  11  14
ATOM     14  C   UNL A   1      32.131  28.891  23.135  1.00  0.00     0.323 C 
ATOM     15  O   UNL A   1      33.333  29.131  22.955  1.00  0.00    -0.248 OA
ATOM     16  N   UNL A   1      31.279  29.564  22.335  1.00  0.00    -0.283 N 
ATOM     17  H   UNL A   1      31.699  29.924  21.522  1.00  0.00     0.174 HD
BRANCH  16  18
ATOM     18  C   UNL A   1      29.953  29.841  22.436  1.00  0.00     0.190 A 
ATOM     19  N   UNL A   1      28.934  29.399  21.745  1.00  0.00    -0.228 NA
ATOM     20  S   UNL A   1      29.580  30.924  23.709  1.00  0.00    -0.105 S 
ATOM     21  C   UNL A   1      27.780  30.028  22.169  1.00  0.00     0.125 A 
ATOM     22  C   UNL A   1      27.939  30.920  23.207  1.00  0.00     0.088 A 
ENDBRANCH  16  18
ENDBRANCH  11  14
ENDBRANCH   6   8
ENDBRANCH   5   6
ENDBRANCH   4   5
ENDBRANCH   3   4
ENDBRANCH   2   3
ENDBRANCH   1   2
BRANCH   1  23
ATOM     23  C   UNL A   1      37.349  20.248  24.923  1.00  0.00     0.261 C 
BRANCH  23  24
ATOM     24  O   UNL A   1      38.130  21.420  25.213  1.00  0.00    -0.460 OA
BRANCH  24  25
ATOM     25  C   UNL A   1      39.205  21.203  26.007  1.00  0.00     0.338 C 
ATOM     26  O   UNL A   1      39.869  20.176  26.083  1.00  0.00    -0.246 OA
BRANCH  25  27
ATOM     27  C   UNL A   1      39.622  22.459  26.654  1.00  0.00     0.060 A 
ATOM     28  C   UNL A   1      38.947  23.632  26.288  1.00  0.00     0.016 A 
ATOM     29  C   UNL A   1      40.700  22.507  27.541  1.00  0.00     0.016 A 
ATOM     30  C   UNL A   1      39.381  24.865  26.766  1.00  0.00     0.010 A 
ATOM     31  C   UNL A   1      41.141  23.749  28.011  1.00  0.00     0.010 A 
ATOM     32  C   UNL A   1      40.508  24.934  27.595  1.00  0.00    -0.014 A 
BRANCH  32  33
ATOM     33  C   UNL A   1      41.105  26.255  27.903  1.00  0.00     0.031 A 
ATOM     34  C   UNL A   1      42.500  26.553  27.422  1.00  0.00     0.074 A 
ATOM     35  C   UNL A   1      40.414  27.178  28.592  1.00  0.00     0.049 A 
ATOM     36  N   UNL A   1      43.218  27.633  27.587  1.00  0.00    -0.248 NA
ATOM     37  C   UNL A   1      43.174  25.493  26.654  1.00  0.00     0.031 C 
ATOM     38  C   UNL A   1      39.057  27.007  29.107  1.00  0.00     0.029 A 
ATOM     39  N   UNL A   1      40.771  28.440  28.997  1.00  0.00    -0.354 N 
ATOM     40  C   UNL A   1      44.436  27.375  26.969  1.00  0.00     0.074 A 
ATOM     41  C   UNL A   1      44.366  26.032  26.436  1.00  0.00     0.031 C 
ATOM     42  C   UNL A   1      38.705  28.112  29.786  1.00  0.00     0.029 A 
ATOM     43  C   UNL A   1      39.819  29.060  29.769  1.00  0.00     0.049 A 
ATOM     44  H   UNL A   1      41.629  28.861  28.757  1.00  0.00     0.167 HD
ATOM     45  C   UNL A   1      45.510  28.190  26.840  1.00  0.00     0.034 A 
ATOM     46  C   UNL A   1      39.850  30.247  30.406  1.00  0.00     0.034 A 
ATOM     47  C   UNL A   1      45.570  29.532  27.351  1.00  0.00     0.049 A 
ATOM     48  C   UNL A   1      41.066  31.126  30.263  1.00  0.00     0.074 A 
ATOM     49  C   UNL A   1      46.596  30.454  27.230  1.00  0.00     0.029 A 
ATOM     50  N   UNL A   1      44.569  30.142  28.089  1.00  0.00    -0.354 N 
ATOM     51  N   UNL A   1      42.159  30.919  29.571  1.00  0.00    -0.248 NA
ATOM     52  C   UNL A   1      41.037  32.420  30.962  1.00  0.00     0.031 C 
ATOM     53  C   UNL A   1      46.223  31.614  27.915  1.00  0.00     0.029 A 
ATOM     54  C   UNL A   1      44.955  31.425  28.442  1.00  0.00     0.049 A 
ATOM     55  H   UNL A   1      43.710  29.726  28.328  1.00  0.00     0.167 HD
ATOM     56  C   UNL A   1      42.931  32.066  29.720  1.00  0.00     0.074 A 
ATOM     57  C   UNL A   1      42.170  32.975  30.553  1.00  0.00     0.031 C 
ATOM     58  C   UNL A   1      44.164  32.339  29.225  1.00  0.00     0.034 A 
BRANCH  45  59
ATOM     59  C   UNL A   1      46.703  27.659  26.090  1.00  0.00     0.023 A 
ATOM     60  C   UNL A   1      46.762  27.801  24.689  1.00  0.00     0.012 A 
ATOM     61  C   UNL A   1      47.786  27.072  26.773  1.00  0.00     0.148 A 
ATOM     62  C   UNL A   1      47.869  27.341  23.976  1.00  0.00     0.002 A 
ATOM     63  C   UNL A   1      48.904  26.655  26.061  1.00  0.00     0.091 A 
ATOM     64  F   UNL A   1      47.698  26.924  28.104  1.00  0.00    -0.205 F 
ATOM     65  C   UNL A   1      48.943  26.779  24.662  1.00  0.00     0.022 A 
BRANCH  63  66
ATOM     66  S   UNL A   1      50.365  25.985  26.860  1.00  0.00     0.127 S 
ATOM     67  O   UNL A   1      50.538  26.907  27.981  1.00  0.00    -0.237 OA
ATOM     68  O   UNL A   1      49.922  24.642  27.238  1.00  0.00    -0.237 OA
ATOM     69  O   UNL A   1      51.420  26.014  25.856  1.00  0.00    -0.744 OA
ENDBRANCH  63  66
ENDBRANCH  45  59
BRANCH  46  70
ATOM     70  C   UNL A   1      38.676  30.693  31.208  1.00  0.00     0.023 A 
ATOM     71  C   UNL A   1      38.660  30.475  32.600  1.00  0.00     0.012 A 
ATOM     72  C   UNL A   1      37.585  31.347  30.603  1.00  0.00     0.148 A 
ATOM     73  C   UNL A   1      37.567  30.874  33.369  1.00  0.00     0.002 A 
ATOM     74  C   UNL A   1      36.523  31.791  31.383  1.00  0.00     0.091 A 
ATOM     75  F   UNL A   1      37.610  31.526  29.274  1.00  0.00    -0.205 F 
ATOM     76  C   UNL A   1      36.504  31.541  32.763  1.00  0.00     0.022 A 
BRANCH  74  77
ATOM     77  S   UNL A   1      35.179  32.770  30.705  1.00  0.00     0.127 S 
ATOM     78  O   UNL A   1      34.249  32.819  31.829  1.00  0.00    -0.237 OA
ATOM     79  O   UNL A   1      35.849  34.035  30.402  1.00  0.00    -0.237 OA
ATOM     80  O   UNL A   1      34.718  32.042  29.531  1.00  0.00    -0.744 OA
ENDBRANCH  74  77
ENDBRANCH  46  70
BRANCH  58  81
ATOM     81  C   UNL A   1      44.763  33.686  29.535  1.00  0.00     0.023 A 
ATOM     82  C   UNL A   1      45.517  33.862  30.712  1.00  0.00     0.012 A 
ATOM     83  C   UNL A   1      44.645  34.754  28.623  1.00  0.00     0.148 A 
ATOM     84  C   UNL A   1      46.119  35.089  30.991  1.00  0.00     0.002 A 
ATOM     85  C   UNL A   1      45.287  35.959  28.885  1.00  0.00     0.091 A 
ATOM     86  F   UNL A   1      43.908  34.573  27.518  1.00  0.00    -0.205 F 
ATOM     87  C   UNL A   1      46.014  36.132  30.073  1.00  0.00     0.022 A 
BRANCH  85  88
ATOM     88  S   UNL A   1      45.286  37.322  27.714  1.00  0.00     0.127 S 
ATOM     89  O   UNL A   1      45.813  38.415  28.530  1.00  0.00    -0.237 OA
ATOM     90  O   UNL A   1      46.199  36.843  26.676  1.00  0.00    -0.237 OA
ATOM     91  O   UNL A   1      43.905  37.474  27.278  1.00  0.00    -0.744 OA
ENDBRANCH  85  88
ENDBRANCH  58  81
ENDBRANCH  32  33
ENDBRANCH  25  27
ENDBRANCH  24  25
ENDBRANCH  23  24
ENDBRANCH   1  23
TORSDOF 19
ENDMDL
