MODEL 1
REMARK VINA RESULT:     -12.0      0.000      0.000
REMARK SMILES CS(=O)(=O)c1ccc(/C=C(/C(=O)OCCOCCOC(=O)c2ccc(-c3c4nc(c(-c5cccc(S(=O)(=O)[O-])c5F)c5ccc([nH]5)c(-c5cccc(S(=O)(=O)[O-])c5F)c5nc(c(-c6cccc(S(=O)(=O)[O-])c6F)c6ccc3[nH]6)C=C5)C=C4)cc2)c2cccc(-c3ccc(S(C)(=O)=O)cc3)c2)cc1
REMARK SMILES IDX 16 1 15 2 14 3 13 4 11 5 12 6 10 7 9 8 8 9 5 10 6 11 102 12
REMARK SMILES IDX 7 13 101 14 2 15 1 16 3 17 4 18 85 19 86 20 100 21 87 22
REMARK SMILES IDX 89 23 88 24 90 25 91 26 99 27 92 28 98 29 93 30 94 31 95 32
REMARK SMILES IDX 96 33 97 34 17 35 18 36 19 37 20 38 21 39 22 40 23 41 84 42
REMARK SMILES IDX 24 43 83 44 25 45 26 46 27 47 77 48 28 49 82 50 76 51 78 52
REMARK SMILES IDX 29 53 81 54 75 55 74 56 30 58 62 59 42 60 61 61 43 62 46 63
REMARK SMILES IDX 60 64 79 65 44 66 45 67 59 69 80 70 47 71 31 72 32 73 40 74
REMARK SMILES IDX 33 75 35 76 41 77 34 78 36 79 37 80 38 81 39 82 63 83 64 84
REMARK SMILES IDX 72 85 65 86 67 87 73 88 66 89 68 90 69 91 70 92 71 93 48 94
REMARK SMILES IDX 49 95 57 96 50 97 52 98 58 99 51 100 53 101 54 102 55 103
REMARK SMILES IDX 56 104
REMARK H PARENT 78 57 46 68
REMARK Flexibility Score: inf
ROOT
ATOM      1  O   UNL A   1      37.374  20.480  24.592  1.00  0.00    -0.374 OA
ENDROOT
BRANCH   1   2
ATOM      2  C   UNL A   1      36.444  21.566  24.567  1.00  0.00     0.202 C 
BRANCH   2   3
ATOM      3  C   UNL A   1      36.963  22.940  24.134  1.00  0.00     0.261 C 
BRANCH   3   4
ATOM      4  O   UNL A   1      35.895  23.899  24.035  1.00  0.00    -0.460 OA
BRANCH   4   5
ATOM      5  C   UNL A   1      35.505  24.429  25.222  1.00  0.00     0.338 C 
ATOM      6  O   UNL A   1      36.209  24.550  26.215  1.00  0.00    -0.246 OA
BRANCH   5   7
ATOM      7  C   UNL A   1      34.126  25.006  25.152  1.00  0.00     0.067 C 
ATOM      8  C   UNL A   1      33.928  26.267  24.696  1.00  0.00     0.024 C 
BRANCH   8   9
ATOM      9  C   UNL A   1      32.648  26.898  24.264  1.00  0.00    -0.025 A 
ATOM     10  C   UNL A   1      30.523  28.525  23.376  1.00  0.00     0.067 A 
ATOM     11  C   UNL A   1      31.001  27.497  22.566  1.00  0.00     0.021 A 
ATOM     12  C   UNL A   1      31.018  28.679  24.670  1.00  0.00     0.021 A 
ATOM     13  C   UNL A   1      32.021  26.662  23.033  1.00  0.00     0.009 A 
ATOM     14  C   UNL A   1      32.079  27.870  25.105  1.00  0.00     0.009 A 
BRANCH  10  15
ATOM     15  S   UNL A   1      29.348  29.666  22.689  1.00  0.00     0.175 S 
ATOM     16  C   UNL A   1      27.770  28.860  22.771  1.00  0.00     0.163 C 
ATOM     17  O   UNL A   1      29.701  29.846  21.295  1.00  0.00    -0.224 OA
ATOM     18  O   UNL A   1      29.286  30.803  23.592  1.00  0.00    -0.224 OA
ENDBRANCH  10  15
ENDBRANCH   8   9
BRANCH   7  19
ATOM     19  C   UNL A   1      33.033  24.063  25.457  1.00  0.00    -0.010 A 
ATOM     20  C   UNL A   1      31.731  24.520  25.701  1.00  0.00     0.009 A 
ATOM     21  C   UNL A   1      33.280  22.692  25.417  1.00  0.00     0.017 A 
ATOM     22  C   UNL A   1      30.689  23.616  25.890  1.00  0.00     0.001 A 
ATOM     23  C   UNL A   1      32.231  21.770  25.533  1.00  0.00    -0.018 A 
ATOM     24  C   UNL A   1      30.937  22.248  25.794  1.00  0.00     0.009 A 
BRANCH  23  25
ATOM     25  C   UNL A   1      32.497  20.360  25.246  1.00  0.00    -0.018 A 
ATOM     26  C   UNL A   1      32.521  19.909  23.914  1.00  0.00     0.010 A 
ATOM     27  C   UNL A   1      32.864  19.469  26.269  1.00  0.00     0.010 A 
ATOM     28  C   UNL A   1      32.915  18.609  23.609  1.00  0.00     0.021 A 
ATOM     29  C   UNL A   1      33.254  18.164  25.973  1.00  0.00     0.021 A 
ATOM     30  C   UNL A   1      33.272  17.744  24.643  1.00  0.00     0.067 A 
BRANCH  30  31
ATOM     31  S   UNL A   1      33.753  16.086  24.246  1.00  0.00     0.175 S 
ATOM     32  C   UNL A   1      35.221  15.858  25.216  1.00  0.00     0.163 C 
ATOM     33  O   UNL A   1      32.723  15.199  24.761  1.00  0.00    -0.224 OA
ATOM     34  O   UNL A   1      34.140  16.048  22.852  1.00  0.00    -0.224 OA
ENDBRANCH  30  31
ENDBRANCH  23  25
ENDBRANCH   7  19
ENDBRANCH   5   7
ENDBRANCH   4   5
ENDBRANCH   3   4
ENDBRANCH   2   3
ENDBRANCH   1   2
BRANCH   1  35
ATOM     35  C   UNL A   1      38.505  20.601  25.449  1.00  0.00     0.202 C 
BRANCH  35  36
ATOM     36  C   UNL A   1      39.375  19.365  25.702  1.00  0.00     0.261 C 
BRANCH  36  37
ATOM     37  O   UNL A   1      40.754  19.570  25.378  1.00  0.00    -0.460 OA
BRANCH  37  38
ATOM     38  C   UNL A   1      41.563  19.690  26.456  1.00  0.00     0.338 C 
ATOM     39  O   UNL A   1      42.275  18.821  26.946  1.00  0.00    -0.246 OA
BRANCH  38  40
ATOM     40  C   UNL A   1      41.629  21.100  26.872  1.00  0.00     0.060 A 
ATOM     41  C   UNL A   1      41.551  22.072  25.866  1.00  0.00     0.016 A 
ATOM     42  C   UNL A   1      41.804  21.463  28.208  1.00  0.00     0.016 A 
ATOM     43  C   UNL A   1      41.699  23.417  26.187  1.00  0.00     0.010 A 
ATOM     44  C   UNL A   1      41.964  22.814  28.527  1.00  0.00     0.010 A 
ATOM     45  C   UNL A   1      41.950  23.789  27.514  1.00  0.00    -0.014 A 
BRANCH  45  46
ATOM     46  C   UNL A   1      42.346  25.183  27.812  1.00  0.00     0.031 A 
ATOM     47  C   UNL A   1      43.778  25.590  27.607  1.00  0.00     0.074 A 
ATOM     48  C   UNL A   1      41.441  26.073  28.252  1.00  0.00     0.049 A 
ATOM     49  N   UNL A   1      44.347  26.749  27.809  1.00  0.00    -0.248 NA
ATOM     50  C   UNL A   1      44.692  24.547  27.112  1.00  0.00     0.031 C 
ATOM     51  C   UNL A   1      40.025  25.793  28.479  1.00  0.00     0.029 A 
ATOM     52  N   UNL A   1      41.587  27.390  28.603  1.00  0.00    -0.354 N 
ATOM     53  C   UNL A   1      45.688  26.570  27.497  1.00  0.00     0.074 A 
ATOM     54  C   UNL A   1      45.852  25.187  27.106  1.00  0.00     0.031 C 
ATOM     55  C   UNL A   1      39.434  26.902  28.955  1.00  0.00     0.029 A 
ATOM     56  C   UNL A   1      40.433  27.960  29.086  1.00  0.00     0.049 A 
ATOM     57  H   UNL A   1      42.436  27.881  28.519  1.00  0.00     0.167 HD
ATOM     58  C   UNL A   1      46.690  27.479  27.519  1.00  0.00     0.034 A 
ATOM     59  C   UNL A   1      40.217  29.190  29.592  1.00  0.00     0.034 A 
ATOM     60  C   UNL A   1      46.517  28.856  27.894  1.00  0.00     0.049 A 
ATOM     61  C   UNL A   1      41.354  30.177  29.634  1.00  0.00     0.074 A 
ATOM     62  C   UNL A   1      47.456  29.873  27.898  1.00  0.00     0.029 A 
ATOM     63  N   UNL A   1      45.330  29.407  28.353  1.00  0.00    -0.354 N 
ATOM     64  N   UNL A   1      42.590  30.031  29.220  1.00  0.00    -0.248 NA
ATOM     65  C   UNL A   1      41.058  31.508  30.182  1.00  0.00     0.031 C 
ATOM     66  C   UNL A   1      46.843  31.030  28.390  1.00  0.00     0.029 A 
ATOM     67  C   UNL A   1      45.514  30.744  28.661  1.00  0.00     0.049 A 
ATOM     68  H   UNL A   1      44.480  28.919  28.445  1.00  0.00     0.167 HD
ATOM     69  C   UNL A   1      43.210  31.260  29.423  1.00  0.00     0.074 A 
ATOM     70  C   UNL A   1      42.206  32.142  29.983  1.00  0.00     0.031 C 
ATOM     71  C   UNL A   1      44.493  31.622  29.176  1.00  0.00     0.034 A 
BRANCH  58  72
ATOM     72  C   UNL A   1      48.062  27.008  27.113  1.00  0.00     0.023 A 
ATOM     73  C   UNL A   1      48.816  26.199  27.990  1.00  0.00     0.012 A 
ATOM     74  C   UNL A   1      48.599  27.349  25.856  1.00  0.00     0.148 A 
ATOM     75  C   UNL A   1      50.096  25.772  27.639  1.00  0.00     0.002 A 
ATOM     76  C   UNL A   1      49.858  26.881  25.495  1.00  0.00     0.091 A 
ATOM     77  F   UNL A   1      47.883  28.142  25.047  1.00  0.00    -0.205 F 
ATOM     78  C   UNL A   1      50.613  26.105  26.390  1.00  0.00     0.022 A 
BRANCH  76  79
ATOM     79  S   UNL A   1      50.573  27.194  23.878  1.00  0.00     0.127 S 
ATOM     80  O   UNL A   1      49.603  26.550  22.996  1.00  0.00    -0.237 OA
ATOM     81  O   UNL A   1      50.575  28.656  23.818  1.00  0.00    -0.237 OA
ATOM     82  O   UNL A   1      51.898  26.589  23.905  1.00  0.00    -0.744 OA
ENDBRANCH  76  79
ENDBRANCH  58  72
BRANCH  59  83
ATOM     83  C   UNL A   1      38.853  29.568  30.054  1.00  0.00     0.023 A 
ATOM     84  C   UNL A   1      38.481  29.327  31.390  1.00  0.00     0.012 A 
ATOM     85  C   UNL A   1      37.939  30.203  29.189  1.00  0.00     0.148 A 
ATOM     86  C   UNL A   1      37.217  29.691  31.853  1.00  0.00     0.002 A 
ATOM     87  C   UNL A   1      36.702  30.613  29.671  1.00  0.00     0.091 A 
ATOM     88  F   UNL A   1      38.310  30.413  27.919  1.00  0.00    -0.205 F 
ATOM     89  C   UNL A   1      36.332  30.344  30.998  1.00  0.00     0.022 A 
BRANCH  87  90
ATOM     90  S   UNL A   1      35.551  31.575  28.682  1.00  0.00     0.127 S 
ATOM     91  O   UNL A   1      35.067  30.577  27.732  1.00  0.00    -0.237 OA
ATOM     92  O   UNL A   1      34.573  31.994  29.687  1.00  0.00    -0.237 OA
ATOM     93  O   UNL A   1      36.331  32.662  28.110  1.00  0.00    -0.744 OA
ENDBRANCH  87  90
ENDBRANCH  59  83
BRANCH  71  94
ATOM     94  C   UNL A   1      44.890  33.046  29.477  1.00  0.00     0.023 A 
ATOM     95  C   UNL A   1      45.473  33.366  30.720  1.00  0.00     0.012 A 
ATOM     96  C   UNL A   1      44.753  34.050  28.499  1.00  0.00     0.148 A 
ATOM     97  C   UNL A   1      45.885  34.670  30.993  1.00  0.00     0.002 A 
ATOM     98  C   UNL A   1      45.212  35.336  28.761  1.00  0.00     0.091 A 
ATOM     99  F   UNL A   1      44.179  33.730  27.330  1.00  0.00    -0.205 F 
ATOM    100  C   UNL A   1      45.766  35.650  30.012  1.00  0.00     0.022 A 
BRANCH  98 101
ATOM    101  S   UNL A   1      45.190  36.638  27.522  1.00  0.00     0.127 S 
ATOM    102  O   UNL A   1      45.756  37.763  28.263  1.00  0.00    -0.237 OA
ATOM    103  O   UNL A   1      46.061  36.091  26.482  1.00  0.00    -0.237 OA
ATOM    104  O   UNL A   1      43.797  36.789  27.125  1.00  0.00    -0.744 OA
ENDBRANCH  98 101
ENDBRANCH  71  94
ENDBRANCH  45  46
ENDBRANCH  38  40
ENDBRANCH  37  38
ENDBRANCH  36  37
ENDBRANCH  35  36
ENDBRANCH   1  35
TORSDOF 22
ENDMDL
MODEL 2
REMARK VINA RESULT:     -11.9      5.257     10.539
REMARK SMILES CS(=O)(=O)c1ccc(/C=C(/C(=O)OCCOCCOC(=O)c2ccc(-c3c4nc(c(-c5cccc(S(=O)(=O)[O-])c5F)c5ccc([nH]5)c(-c5cccc(S(=O)(=O)[O-])c5F)c5nc(c(-c6cccc(S(=O)(=O)[O-])c6F)c6ccc3[nH]6)C=C5)C=C4)cc2)c2cccc(-c3ccc(S(C)(=O)=O)cc3)c2)cc1
REMARK SMILES IDX 16 1 15 2 14 3 13 4 11 5 12 6 10 7 9 8 8 9 5 10 6 11 102 12
REMARK SMILES IDX 7 13 101 14 2 15 1 16 3 17 4 18 85 19 86 20 100 21 87 22
REMARK SMILES IDX 89 23 88 24 90 25 91 26 99 27 92 28 98 29 93 30 94 31 95 32
REMARK SMILES IDX 96 33 97 34 17 35 18 36 19 37 20 38 21 39 22 40 23 41 84 42
REMARK SMILES IDX 24 43 83 44 25 45 26 46 27 47 77 48 28 49 82 50 76 51 78 52
REMARK SMILES IDX 29 53 81 54 75 55 74 56 30 58 62 59 42 60 61 61 43 62 46 63
REMARK SMILES IDX 60 64 79 65 44 66 45 67 59 69 80 70 47 71 31 72 32 73 40 74
REMARK SMILES IDX 33 75 35 76 41 77 34 78 36 79 37 80 38 81 39 82 63 83 64 84
REMARK SMILES IDX 72 85 65 86 67 87 73 88 66 89 68 90 69 91 70 92 71 93 48 94
REMARK SMILES IDX 49 95 57 96 50 97 52 98 58 99 51 100 53 101 54 102 55 103
REMARK SMILES IDX 56 104
REMARK H PARENT 78 57 46 68
REMARK Flexibility Score: inf
ROOT
ATOM      1  O   UNL A   1      31.506  28.419  25.866  1.00  0.00    -0.374 OA
ENDROOT
BRANCH   1   2
ATOM      2  C   UNL A   1      32.440  27.486  26.417  1.00  0.00     0.202 C 
BRANCH   2   3
ATOM      3  C   UNL A   1      33.278  26.654  25.441  1.00  0.00     0.261 C 
BRANCH   3   4
ATOM      4  O   UNL A   1      33.356  25.278  25.854  1.00  0.00    -0.460 OA
BRANCH   4   5
ATOM      5  C   UNL A   1      32.433  24.467  25.279  1.00  0.00     0.338 C 
ATOM      6  O   UNL A   1      31.368  24.828  24.795  1.00  0.00    -0.246 OA
BRANCH   5   7
ATOM      7  C   UNL A   1      32.923  23.058  25.156  1.00  0.00     0.067 C 
ATOM      8  C   UNL A   1      32.157  22.022  25.579  1.00  0.00     0.024 C 
BRANCH   8   9
ATOM      9  C   UNL A   1      32.320  20.574  25.268  1.00  0.00    -0.025 A 
ATOM     10  C   UNL A   1      33.091  17.981  24.471  1.00  0.00     0.067 A 
ATOM     11  C   UNL A   1      33.061  18.315  25.823  1.00  0.00     0.021 A 
ATOM     12  C   UNL A   1      32.633  18.889  23.518  1.00  0.00     0.021 A 
ATOM     13  C   UNL A   1      32.629  19.587  26.214  1.00  0.00     0.009 A 
ATOM     14  C   UNL A   1      32.256  20.180  23.920  1.00  0.00     0.009 A 
BRANCH  10  15
ATOM     15  S   UNL A   1      33.800  16.421  24.002  1.00  0.00     0.175 S 
ATOM     16  C   UNL A   1      35.284  16.244  24.959  1.00  0.00     0.163 C 
ATOM     17  O   UNL A   1      34.165  16.528  22.604  1.00  0.00    -0.224 OA
ATOM     18  O   UNL A   1      32.883  15.388  24.453  1.00  0.00    -0.224 OA
ENDBRANCH  10  15
ENDBRANCH   8   9
BRANCH   7  19
ATOM     19  C   UNL A   1      34.188  22.894  24.417  1.00  0.00    -0.010 A 
ATOM     20  C   UNL A   1      34.330  23.379  23.110  1.00  0.00     0.009 A 
ATOM     21  C   UNL A   1      35.288  22.326  25.058  1.00  0.00     0.017 A 
ATOM     22  C   UNL A   1      35.558  23.306  22.459  1.00  0.00     0.001 A 
ATOM     23  C   UNL A   1      36.548  22.311  24.444  1.00  0.00    -0.018 A 
ATOM     24  C   UNL A   1      36.664  22.785  23.128  1.00  0.00     0.009 A 
BRANCH  23  25
ATOM     25  C   UNL A   1      37.715  21.928  25.240  1.00  0.00    -0.018 A 
ATOM     26  C   UNL A   1      38.187  20.605  25.200  1.00  0.00     0.010 A 
ATOM     27  C   UNL A   1      38.460  22.892  25.942  1.00  0.00     0.010 A 
ATOM     28  C   UNL A   1      39.377  20.253  25.831  1.00  0.00     0.021 A 
ATOM     29  C   UNL A   1      39.650  22.547  26.580  1.00  0.00     0.021 A 
ATOM     30  C   UNL A   1      40.097  21.227  26.523  1.00  0.00     0.067 A 
BRANCH  30  31
ATOM     31  S   UNL A   1      41.600  20.766  27.338  1.00  0.00     0.175 S 
ATOM     32  C   UNL A   1      42.844  21.221  26.158  1.00  0.00     0.163 C 
ATOM     33  O   UNL A   1      41.742  21.621  28.504  1.00  0.00    -0.224 OA
ATOM     34  O   UNL A   1      41.624  19.324  27.463  1.00  0.00    -0.224 OA
ENDBRANCH  30  31
ENDBRANCH  23  25
ENDBRANCH   7  19
ENDBRANCH   5   7
ENDBRANCH   4   5
ENDBRANCH   3   4
ENDBRANCH   2   3
ENDBRANCH   1   2
BRANCH   1  35
ATOM     35  C   UNL A   1      31.940  29.764  25.696  1.00  0.00     0.202 C 
BRANCH  35  36
ATOM     36  C   UNL A   1      32.464  30.531  26.916  1.00  0.00     0.261 C 
BRANCH  36  37
ATOM     37  O   UNL A   1      33.794  31.029  26.741  1.00  0.00    -0.460 OA
BRANCH  37  38
ATOM     38  C   UNL A   1      34.201  31.872  27.718  1.00  0.00     0.338 C 
ATOM     39  O   UNL A   1      33.562  32.792  28.214  1.00  0.00    -0.246 OA
BRANCH  38  40
ATOM     40  C   UNL A   1      35.488  31.413  28.264  1.00  0.00     0.060 A 
ATOM     41  C   UNL A   1      35.556  30.094  28.732  1.00  0.00     0.016 A 
ATOM     42  C   UNL A   1      36.591  32.262  28.356  1.00  0.00     0.016 A 
ATOM     43  C   UNL A   1      36.716  29.632  29.342  1.00  0.00     0.010 A 
ATOM     44  C   UNL A   1      37.753  31.800  28.980  1.00  0.00     0.010 A 
ATOM     45  C   UNL A   1      37.804  30.498  29.507  1.00  0.00    -0.014 A 
BRANCH  45  46
ATOM     46  C   UNL A   1      38.936  30.083  30.366  1.00  0.00     0.031 A 
ATOM     47  C   UNL A   1      39.050  30.666  31.746  1.00  0.00     0.074 A 
ATOM     48  C   UNL A   1      39.842  29.195  29.922  1.00  0.00     0.049 A 
ATOM     49  N   UNL A   1      39.958  30.452  32.662  1.00  0.00    -0.248 NA
ATOM     50  C   UNL A   1      38.004  31.621  32.145  1.00  0.00     0.031 C 
ATOM     51  C   UNL A   1      39.826  28.560  28.607  1.00  0.00     0.029 A 
ATOM     52  N   UNL A   1      40.963  28.691  30.530  1.00  0.00    -0.354 N 
ATOM     53  C   UNL A   1      39.612  31.267  33.733  1.00  0.00     0.074 A 
ATOM     54  C   UNL A   1      38.419  31.990  33.347  1.00  0.00     0.031 C 
ATOM     55  C   UNL A   1      40.903  27.763  28.496  1.00  0.00     0.029 A 
ATOM     56  C   UNL A   1      41.693  27.852  29.723  1.00  0.00     0.049 A 
ATOM     57  H   UNL A   1      41.221  28.909  31.455  1.00  0.00     0.167 HD
ATOM     58  C   UNL A   1      40.223  31.390  34.934  1.00  0.00     0.034 A 
ATOM     59  C   UNL A   1      42.873  27.241  29.945  1.00  0.00     0.034 A 
ATOM     60  C   UNL A   1      41.399  30.657  35.316  1.00  0.00     0.049 A 
ATOM     61  C   UNL A   1      43.551  27.415  31.279  1.00  0.00     0.074 A 
ATOM     62  C   UNL A   1      42.065  30.667  36.528  1.00  0.00     0.029 A 
ATOM     63  N   UNL A   1      42.098  29.796  34.483  1.00  0.00    -0.354 N 
ATOM     64  N   UNL A   1      43.147  28.093  32.327  1.00  0.00    -0.248 NA
ATOM     65  C   UNL A   1      44.828  26.716  31.472  1.00  0.00     0.031 C 
ATOM     66  C   UNL A   1      43.185  29.837  36.418  1.00  0.00     0.029 A 
ATOM     67  C   UNL A   1      43.199  29.282  35.147  1.00  0.00     0.049 A 
ATOM     68  H   UNL A   1      41.848  29.580  33.556  1.00  0.00     0.167 HD
ATOM     69  C   UNL A   1      44.101  27.872  33.316  1.00  0.00     0.074 A 
ATOM     70  C   UNL A   1      45.093  26.985  32.743  1.00  0.00     0.031 C 
ATOM     71  C   UNL A   1      44.154  28.365  34.579  1.00  0.00     0.034 A 
BRANCH  58  72
ATOM     72  C   UNL A   1      39.616  32.349  35.924  1.00  0.00     0.023 A 
ATOM     73  C   UNL A   1      38.588  31.912  36.786  1.00  0.00     0.012 A 
ATOM     74  C   UNL A   1      40.076  33.677  36.018  1.00  0.00     0.148 A 
ATOM     75  C   UNL A   1      38.000  32.792  37.694  1.00  0.00     0.002 A 
ATOM     76  C   UNL A   1      39.517  34.536  36.957  1.00  0.00     0.091 A 
ATOM     77  F   UNL A   1      41.034  34.084  35.173  1.00  0.00    -0.205 F 
ATOM     78  C   UNL A   1      38.470  34.100  37.786  1.00  0.00     0.022 A 
BRANCH  76  79
ATOM     79  S   UNL A   1      40.109  36.213  37.202  1.00  0.00     0.127 S 
ATOM     80  O   UNL A   1      41.514  35.985  37.533  1.00  0.00    -0.237 OA
ATOM     81  O   UNL A   1      39.883  36.815  35.887  1.00  0.00    -0.237 OA
ATOM     82  O   UNL A   1      39.293  36.772  38.270  1.00  0.00    -0.744 OA
ENDBRANCH  76  79
ENDBRANCH  58  72
BRANCH  59  83
ATOM     83  C   UNL A   1      43.462  26.369  28.891  1.00  0.00     0.023 A 
ATOM     84  C   UNL A   1      43.099  25.011  28.832  1.00  0.00     0.012 A 
ATOM     85  C   UNL A   1      44.345  26.889  27.923  1.00  0.00     0.148 A 
ATOM     86  C   UNL A   1      43.620  24.178  27.842  1.00  0.00     0.002 A 
ATOM     87  C   UNL A   1      44.817  26.067  26.907  1.00  0.00     0.091 A 
ATOM     88  F   UNL A   1      44.686  28.182  28.005  1.00  0.00    -0.205 F 
ATOM     89  C   UNL A   1      44.469  24.708  26.873  1.00  0.00     0.022 A 
BRANCH  87  90
ATOM     90  S   UNL A   1      45.809  26.689  25.544  1.00  0.00     0.127 S 
ATOM     91  O   UNL A   1      45.938  25.502  24.702  1.00  0.00    -0.237 OA
ATOM     92  O   UNL A   1      44.947  27.739  25.002  1.00  0.00    -0.237 OA
ATOM     93  O   UNL A   1      47.045  27.173  26.142  1.00  0.00    -0.744 OA
ENDBRANCH  87  90
ENDBRANCH  59  83
BRANCH  71  94
ATOM     94  C   UNL A   1      45.307  27.934  35.450  1.00  0.00     0.023 A 
ATOM     95  C   UNL A   1      46.481  28.713  35.500  1.00  0.00     0.012 A 
ATOM     96  C   UNL A   1      45.196  26.799  36.277  1.00  0.00     0.148 A 
ATOM     97  C   UNL A   1      47.537  28.350  36.335  1.00  0.00     0.002 A 
ATOM     98  C   UNL A   1      46.232  26.472  37.144  1.00  0.00     0.091 A 
ATOM     99  F   UNL A   1      44.079  26.060  36.203  1.00  0.00    -0.205 F 
ATOM    100  C   UNL A   1      47.408  27.239  37.165  1.00  0.00     0.022 A 
BRANCH  98 101
ATOM    101  S   UNL A   1      46.114  25.118  38.319  1.00  0.00     0.127 S 
ATOM    102  O   UNL A   1      44.754  25.283  38.830  1.00  0.00    -0.237 OA
ATOM    103  O   UNL A   1      46.307  23.948  37.463  1.00  0.00    -0.237 OA
ATOM    104  O   UNL A   1      47.177  25.337  39.291  1.00  0.00    -0.744 OA
ENDBRANCH  98 101
ENDBRANCH  71  94
ENDBRANCH  45  46
ENDBRANCH  38  40
ENDBRANCH  37  38
ENDBRANCH  36  37
ENDBRANCH  35  36
ENDBRANCH   1  35
TORSDOF 22
ENDMDL
MODEL 3
REMARK VINA RESULT:     -11.6      5.361      8.443
REMARK SMILES CS(=O)(=O)c1ccc(/C=C(/C(=O)OCCOCCOC(=O)c2ccc(-c3c4nc(c(-c5cccc(S(=O)(=O)[O-])c5F)c5ccc([nH]5)c(-c5cccc(S(=O)(=O)[O-])c5F)c5nc(c(-c6cccc(S(=O)(=O)[O-])c6F)c6ccc3[nH]6)C=C5)C=C4)cc2)c2cccc(-c3ccc(S(C)(=O)=O)cc3)c2)cc1
REMARK SMILES IDX 16 1 15 2 14 3 13 4 11 5 12 6 10 7 9 8 8 9 5 10 6 11 102 12
REMARK SMILES IDX 7 13 101 14 2 15 1 16 3 17 4 18 85 19 86 20 100 21 87 22
REMARK SMILES IDX 89 23 88 24 90 25 91 26 99 27 92 28 98 29 93 30 94 31 95 32
REMARK SMILES IDX 96 33 97 34 17 35 18 36 19 37 20 38 21 39 22 40 23 41 84 42
REMARK SMILES IDX 24 43 83 44 25 45 26 46 27 47 77 48 28 49 82 50 76 51 78 52
REMARK SMILES IDX 29 53 81 54 75 55 74 56 30 58 62 59 42 60 61 61 43 62 46 63
REMARK SMILES IDX 60 64 79 65 44 66 45 67 59 69 80 70 47 71 31 72 32 73 40 74
REMARK SMILES IDX 33 75 35 76 41 77 34 78 36 79 37 80 38 81 39 82 63 83 64 84
REMARK SMILES IDX 72 85 65 86 67 87 73 88 66 89 68 90 69 91 70 92 71 93 48 94
REMARK SMILES IDX 49 95 57 96 50 97 52 98 58 99 51 100 53 101 54 102 55 103
REMARK SMILES IDX 56 104
REMARK H PARENT 78 57 46 68
REMARK Flexibility Score: inf
ROOT
ATOM      1  O   UNL A   1      32.333  27.762  24.371  1.00  0.00    -0.374 OA
ENDROOT
BRANCH   1   2
ATOM      2  C   UNL A   1      32.556  28.086  22.996  1.00  0.00     0.202 C 
BRANCH   2   3
ATOM      3  C   UNL A   1      32.472  26.949  21.972  1.00  0.00     0.261 C 
BRANCH   3   4
ATOM      4  O   UNL A   1      33.402  25.895  22.278  1.00  0.00    -0.460 OA
BRANCH   4   5
ATOM      5  C   UNL A   1      33.136  24.715  21.664  1.00  0.00     0.338 C 
ATOM      6  O   UNL A   1      33.108  24.530  20.454  1.00  0.00    -0.246 OA
BRANCH   5   7
ATOM      7  C   UNL A   1      33.020  23.587  22.641  1.00  0.00     0.067 C 
ATOM      8  C   UNL A   1      32.594  22.365  22.237  1.00  0.00     0.024 C 
BRANCH   8   9
ATOM      9  C   UNL A   1      32.706  21.068  22.962  1.00  0.00    -0.025 A 
ATOM     10  C   UNL A   1      33.250  18.480  23.942  1.00  0.00     0.067 A 
ATOM     11  C   UNL A   1      33.740  19.598  24.614  1.00  0.00     0.021 A 
ATOM     12  C   UNL A   1      32.397  18.641  22.852  1.00  0.00     0.021 A 
ATOM     13  C   UNL A   1      33.424  20.880  24.151  1.00  0.00     0.009 A 
ATOM     14  C   UNL A   1      32.134  19.931  22.365  1.00  0.00     0.009 A 
BRANCH  10  15
ATOM     15  S   UNL A   1      33.805  16.874  24.458  1.00  0.00     0.175 S 
ATOM     16  C   UNL A   1      32.637  16.312  25.669  1.00  0.00     0.163 C 
ATOM     17  O   UNL A   1      35.087  17.059  25.107  1.00  0.00    -0.224 OA
ATOM     18  O   UNL A   1      33.675  15.993  23.309  1.00  0.00    -0.224 OA
ENDBRANCH  10  15
ENDBRANCH   8   9
BRANCH   7  19
ATOM     19  C   UNL A   1      33.544  23.869  23.991  1.00  0.00    -0.010 A 
ATOM     20  C   UNL A   1      32.706  24.351  25.005  1.00  0.00     0.009 A 
ATOM     21  C   UNL A   1      34.872  23.570  24.287  1.00  0.00     0.017 A 
ATOM     22  C   UNL A   1      33.190  24.519  26.300  1.00  0.00     0.001 A 
ATOM     23  C   UNL A   1      35.355  23.664  25.599  1.00  0.00    -0.018 A 
ATOM     24  C   UNL A   1      34.505  24.166  26.597  1.00  0.00     0.009 A 
BRANCH  23  25
ATOM     25  C   UNL A   1      36.677  23.114  25.906  1.00  0.00    -0.018 A 
ATOM     26  C   UNL A   1      37.005  21.810  25.494  1.00  0.00     0.010 A 
ATOM     27  C   UNL A   1      37.676  23.912  26.487  1.00  0.00     0.010 A 
ATOM     28  C   UNL A   1      38.299  21.320  25.644  1.00  0.00     0.021 A 
ATOM     29  C   UNL A   1      38.973  23.427  26.646  1.00  0.00     0.021 A 
ATOM     30  C   UNL A   1      39.272  22.131  26.227  1.00  0.00     0.067 A 
BRANCH  30  31
ATOM     31  S   UNL A   1      40.912  21.492  26.432  1.00  0.00     0.175 S 
ATOM     32  C   UNL A   1      40.725  19.782  26.002  1.00  0.00     0.163 C 
ATOM     33  O   UNL A   1      41.753  22.125  25.430  1.00  0.00    -0.224 OA
ATOM     34  O   UNL A   1      41.249  21.555  27.838  1.00  0.00    -0.224 OA
ENDBRANCH  30  31
ENDBRANCH  23  25
ENDBRANCH   7  19
ENDBRANCH   5   7
ENDBRANCH   4   5
ENDBRANCH   3   4
ENDBRANCH   2   3
ENDBRANCH   1   2
BRANCH   1  35
ATOM     35  C   UNL A   1      33.343  28.128  25.306  1.00  0.00     0.202 C 
BRANCH  35  36
ATOM     36  C   UNL A   1      33.072  29.290  26.268  1.00  0.00     0.261 C 
BRANCH  36  37
ATOM     37  O   UNL A   1      34.129  30.254  26.299  1.00  0.00    -0.460 OA
BRANCH  37  38
ATOM     38  C   UNL A   1      34.225  30.932  27.467  1.00  0.00     0.338 C 
ATOM     39  O   UNL A   1      33.337  31.560  28.031  1.00  0.00    -0.246 OA
BRANCH  38  40
ATOM     40  C   UNL A   1      35.526  30.657  28.095  1.00  0.00     0.060 A 
ATOM     41  C   UNL A   1      35.665  29.445  28.785  1.00  0.00     0.016 A 
ATOM     42  C   UNL A   1      36.574  31.577  28.048  1.00  0.00     0.016 A 
ATOM     43  C   UNL A   1      36.839  29.170  29.476  1.00  0.00     0.010 A 
ATOM     44  C   UNL A   1      37.749  31.304  28.752  1.00  0.00     0.010 A 
ATOM     45  C   UNL A   1      37.869  30.118  29.498  1.00  0.00    -0.014 A 
BRANCH  45  46
ATOM     46  C   UNL A   1      39.008  29.930  30.425  1.00  0.00     0.031 A 
ATOM     47  C   UNL A   1      40.108  28.983  30.038  1.00  0.00     0.074 A 
ATOM     48  C   UNL A   1      39.061  30.600  31.588  1.00  0.00     0.049 A 
ATOM     49  N   UNL A   1      41.191  28.661  30.694  1.00  0.00    -0.248 NA
ATOM     50  C   UNL A   1      39.965  28.305  28.739  1.00  0.00     0.031 C 
ATOM     51  C   UNL A   1      38.056  31.549  32.062  1.00  0.00     0.029 A 
ATOM     52  N   UNL A   1      39.996  30.566  32.590  1.00  0.00    -0.354 N 
ATOM     53  C   UNL A   1      41.844  27.721  29.906  1.00  0.00     0.074 A 
ATOM     54  C   UNL A   1      41.028  27.514  28.729  1.00  0.00     0.031 C 
ATOM     55  C   UNL A   1      38.418  31.993  33.278  1.00  0.00     0.029 A 
ATOM     56  C   UNL A   1      39.665  31.343  33.675  1.00  0.00     0.049 A 
ATOM     57  H   UNL A   1      40.825  30.037  32.539  1.00  0.00     0.167 HD
ATOM     58  C   UNL A   1      43.024  27.099  30.134  1.00  0.00     0.034 A 
ATOM     59  C   UNL A   1      40.290  31.495  34.858  1.00  0.00     0.034 A 
ATOM     60  C   UNL A   1      43.838  27.321  31.298  1.00  0.00     0.049 A 
ATOM     61  C   UNL A   1      41.588  30.771  35.102  1.00  0.00     0.074 A 
ATOM     62  C   UNL A   1      45.076  26.782  31.599  1.00  0.00     0.029 A 
ATOM     63  N   UNL A   1      43.485  28.134  32.364  1.00  0.00    -0.354 N 
ATOM     64  N   UNL A   1      42.256  29.980  34.296  1.00  0.00    -0.248 NA
ATOM     65  C   UNL A   1      42.234  30.984  36.404  1.00  0.00     0.031 C 
ATOM     66  C   UNL A   1      45.456  27.245  32.863  1.00  0.00     0.029 A 
ATOM     67  C   UNL A   1      44.471  28.099  33.335  1.00  0.00     0.049 A 
ATOM     68  H   UNL A   1      42.655  28.660  32.423  1.00  0.00     0.167 HD
ATOM     69  C   UNL A   1      43.417  29.631  34.978  1.00  0.00     0.074 A 
ATOM     70  C   UNL A   1      43.367  30.310  36.257  1.00  0.00     0.031 C 
ATOM     71  C   UNL A   1      44.428  28.816  34.585  1.00  0.00     0.034 A 
BRANCH  58  72
ATOM     72  C   UNL A   1      43.507  26.125  29.090  1.00  0.00     0.023 A 
ATOM     73  C   UNL A   1      43.160  24.761  29.189  1.00  0.00     0.012 A 
ATOM     74  C   UNL A   1      44.285  26.562  28.001  1.00  0.00     0.148 A 
ATOM     75  C   UNL A   1      43.616  23.842  28.244  1.00  0.00     0.002 A 
ATOM     76  C   UNL A   1      44.698  25.648  27.038  1.00  0.00     0.091 A 
ATOM     77  F   UNL A   1      44.629  27.856  27.938  1.00  0.00    -0.205 F 
ATOM     78  C   UNL A   1      44.377  24.287  27.165  1.00  0.00     0.022 A 
BRANCH  76  79
ATOM     79  S   UNL A   1      45.614  26.139  25.575  1.00  0.00     0.127 S 
ATOM     80  O   UNL A   1      45.170  25.145  24.600  1.00  0.00    -0.237 OA
ATOM     81  O   UNL A   1      45.112  27.493  25.335  1.00  0.00    -0.237 OA
ATOM     82  O   UNL A   1      47.021  26.073  25.944  1.00  0.00    -0.744 OA
ENDBRANCH  76  79
ENDBRANCH  58  72
BRANCH  59  83
ATOM     83  C   UNL A   1      39.717  32.412  35.883  1.00  0.00     0.023 A 
ATOM     84  C   UNL A   1      38.818  31.906  36.840  1.00  0.00     0.012 A 
ATOM     85  C   UNL A   1      40.092  33.769  35.939  1.00  0.00     0.148 A 
ATOM     86  C   UNL A   1      38.284  32.739  37.824  1.00  0.00     0.002 A 
ATOM     87  C   UNL A   1      39.599  34.580  36.954  1.00  0.00     0.091 A 
ATOM     88  F   UNL A   1      40.941  34.231  35.011  1.00  0.00    -0.205 F 
ATOM     89  C   UNL A   1      38.683  34.072  37.888  1.00  0.00     0.022 A 
BRANCH  87  90
ATOM     90  S   UNL A   1      40.155  36.272  37.194  1.00  0.00     0.127 S 
ATOM     91  O   UNL A   1      39.264  36.732  38.256  1.00  0.00    -0.237 OA
ATOM     92  O   UNL A   1      41.547  36.074  37.599  1.00  0.00    -0.237 OA
ATOM     93  O   UNL A   1      39.990  36.930  35.906  1.00  0.00    -0.744 OA
ENDBRANCH  87  90
ENDBRANCH  59  83
BRANCH  71  94
ATOM     94  C   UNL A   1      45.588  28.633  35.531  1.00  0.00     0.023 A 
ATOM     95  C   UNL A   1      46.689  29.511  35.473  1.00  0.00     0.012 A 
ATOM     96  C   UNL A   1      45.551  27.636  36.527  1.00  0.00     0.148 A 
ATOM     97  C   UNL A   1      47.747  29.380  36.372  1.00  0.00     0.002 A 
ATOM     98  C   UNL A   1      46.586  27.544  37.450  1.00  0.00     0.091 A 
ATOM     99  F   UNL A   1      44.504  26.799  36.554  1.00  0.00    -0.205 F 
ATOM    100  C   UNL A   1      47.690  28.407  37.366  1.00  0.00     0.022 A 
BRANCH  98 101
ATOM    101  S   UNL A   1      46.551  26.387  38.824  1.00  0.00     0.127 S 
ATOM    102  O   UNL A   1      47.618  26.906  39.678  1.00  0.00    -0.237 OA
ATOM    103  O   UNL A   1      45.200  26.573  39.353  1.00  0.00    -0.237 OA
ATOM    104  O   UNL A   1      46.796  25.072  38.246  1.00  0.00    -0.744 OA
ENDBRANCH  98 101
ENDBRANCH  71  94
ENDBRANCH  45  46
ENDBRANCH  38  40
ENDBRANCH  37  38
ENDBRANCH  36  37
ENDBRANCH  35  36
ENDBRANCH   1  35
TORSDOF 22
ENDMDL
