MODEL 1
REMARK VINA RESULT:      -9.3      0.000      0.000
REMARK SMILES CCCN1CCC[C@@]2(CCN(c3ccc(C(=O)OCCOCCOC(=O)c4ccc(-c5c6nc(c(-c7cccc(S(=O)(=O)[O-])c7F)c7ccc([nH]7)c(-c7cccc(S(=O)(=O)[O-])c7F)c7nc(c(-c8cccc(S(=O)(=O)[O-])c8F)c8ccc5[nH]8)C=C7)C=C6)cc4)cn3)C2)C1=O
REMARK SMILES IDX 21 1 20 2 19 3 18 4 16 5 17 6 15 7 12 8 13 9 91 10 14 11
REMARK SMILES IDX 90 12 11 13 4 14 5 15 93 16 6 17 8 18 94 19 7 20 9 21 92 22
REMARK SMILES IDX 10 23 3 24 2 25 1 26 22 27 23 28 24 29 25 30 26 31 27 32
REMARK SMILES IDX 28 33 89 34 29 35 88 36 30 37 31 38 32 39 82 40 33 41 87 42
REMARK SMILES IDX 81 43 83 44 34 45 86 46 80 47 79 48 35 50 67 51 47 52 66 53
REMARK SMILES IDX 48 54 51 55 65 56 84 57 49 58 50 59 64 61 85 62 52 63 36 64
REMARK SMILES IDX 37 65 45 66 38 67 40 68 46 69 39 70 41 71 42 72 43 73 44 74
REMARK SMILES IDX 68 75 69 76 77 77 70 78 72 79 78 80 71 81 73 82 74 83 75 84
REMARK SMILES IDX 76 85 53 86 54 87 62 88 55 89 57 90 63 91 56 92 58 93 59 94
REMARK SMILES IDX 60 95 61 96
REMARK H PARENT 83 49 51 60
REMARK Flexibility Score: inf
ROOT
ATOM      1  O   UNL A   1      34.557  34.964  30.116  1.00  0.00    -0.374 OA
ENDROOT
BRANCH   1   2
ATOM      2  C   UNL A   1      33.783  34.906  31.314  1.00  0.00     0.202 C 
BRANCH   2   3
ATOM      3  C   UNL A   1      34.378  34.132  32.496  1.00  0.00     0.261 C 
BRANCH   3   4
ATOM      4  O   UNL A   1      35.681  33.616  32.191  1.00  0.00    -0.460 OA
BRANCH   4   5
ATOM      5  C   UNL A   1      36.717  34.347  32.664  1.00  0.00     0.339 C 
ATOM      6  O   UNL A   1      36.784  34.920  33.743  1.00  0.00    -0.246 OA
BRANCH   5   7
ATOM      7  C   UNL A   1      37.869  34.223  31.759  1.00  0.00     0.078 A 
ATOM      8  C   UNL A   1      40.163  34.129  30.232  1.00  0.00     0.128 A 
ATOM      9  C   UNL A   1      38.938  33.738  29.678  1.00  0.00     0.048 A 
ATOM     10  N   UNL A   1      40.266  34.489  31.526  1.00  0.00    -0.238 NA
ATOM     11  C   UNL A   1      37.778  33.771  30.449  1.00  0.00     0.021 A 
ATOM     12  C   UNL A   1      39.123  34.551  32.251  1.00  0.00     0.129 A 
BRANCH   8  13
ATOM     13  N   UNL A   1      41.260  34.265  29.401  1.00  0.00    -0.356 N 
ATOM     14  N   UNL A   1      43.379  38.051  28.906  1.00  0.00    -0.342 N 
ATOM     15  C   UNL A   1      43.350  38.423  27.500  1.00  0.00     0.119 C 
ATOM     16  C   UNL A   1      43.621  36.725  29.274  1.00  0.00     0.230 C 
ATOM     17  C   UNL A   1      42.528  37.464  26.661  1.00  0.00     0.023 C 
ATOM     18  C   UNL A   1      42.915  35.678  28.397  1.00  0.00     0.069 C 
ATOM     19  O   UNL A   1      44.190  36.426  30.322  1.00  0.00    -0.274 OA
ATOM     20  C   UNL A   1      42.994  36.035  26.908  1.00  0.00     0.021 C 
ATOM     21  C   UNL A   1      43.451  34.256  28.666  1.00  0.00     0.040 C 
ATOM     22  C   UNL A   1      41.441  35.618  28.875  1.00  0.00     0.135 C 
ATOM     23  C   UNL A   1      42.550  33.719  29.781  1.00  0.00     0.119 C 
BRANCH  14  24
ATOM     24  C   UNL A   1      43.069  39.012  29.965  1.00  0.00     0.119 C 
BRANCH  24  25
ATOM     25  C   UNL A   1      42.836  40.475  29.583  1.00  0.00     0.018 C 
ATOM     26  C   UNL A   1      42.380  41.369  30.732  1.00  0.00     0.006 C 
ENDBRANCH  24  25
ENDBRANCH  14  24
ENDBRANCH   8  13
ENDBRANCH   5   7
ENDBRANCH   4   5
ENDBRANCH   3   4
ENDBRANCH   2   3
ENDBRANCH   1   2
BRANCH   1  27
ATOM     27  C   UNL A   1      33.868  34.786  28.878  1.00  0.00     0.202 C 
BRANCH  27  28
ATOM     28  C   UNL A   1      33.677  33.353  28.366  1.00  0.00     0.261 C 
BRANCH  28  29
ATOM     29  O   UNL A   1      34.728  32.466  28.782  1.00  0.00    -0.460 OA
BRANCH  29  30
ATOM     30  C   UNL A   1      34.656  31.220  28.252  1.00  0.00     0.338 C 
ATOM     31  O   UNL A   1      33.771  30.770  27.542  1.00  0.00    -0.246 OA
BRANCH  30  32
ATOM     32  C   UNL A   1      35.918  30.499  28.499  1.00  0.00     0.060 A 
ATOM     33  C   UNL A   1      36.012  29.737  29.671  1.00  0.00     0.016 A 
ATOM     34  C   UNL A   1      37.011  30.614  27.638  1.00  0.00     0.016 A 
ATOM     35  C   UNL A   1      37.214  29.118  30.007  1.00  0.00     0.010 A 
ATOM     36  C   UNL A   1      38.218  29.997  27.981  1.00  0.00     0.010 A 
ATOM     37  C   UNL A   1      38.335  29.271  29.182  1.00  0.00    -0.014 A 
BRANCH  37  38
ATOM     38  C   UNL A   1      39.654  28.756  29.623  1.00  0.00     0.031 A 
ATOM     39  C   UNL A   1      40.393  29.466  30.724  1.00  0.00     0.074 A 
ATOM     40  C   UNL A   1      40.191  27.668  29.039  1.00  0.00     0.049 A 
ATOM     41  N   UNL A   1      41.569  29.203  31.232  1.00  0.00    -0.248 NA
ATOM     42  C   UNL A   1      39.721  30.626  31.333  1.00  0.00     0.031 C 
ATOM     43  C   UNL A   1      39.568  26.893  27.967  1.00  0.00     0.029 A 
ATOM     44  N   UNL A   1      41.395  27.045  29.251  1.00  0.00    -0.354 N 
ATOM     45  C   UNL A   1      41.797  30.185  32.191  1.00  0.00     0.074 A 
ATOM     46  C   UNL A   1      40.638  31.050  32.193  1.00  0.00     0.031 C 
ATOM     47  C   UNL A   1      40.407  25.910  27.597  1.00  0.00     0.029 A 
ATOM     48  C   UNL A   1      41.636  26.007  28.382  1.00  0.00     0.049 A 
ATOM     49  H   UNL A   1      42.026  27.316  29.956  1.00  0.00     0.167 HD
ATOM     50  C   UNL A   1      42.872  30.344  32.998  1.00  0.00     0.034 A 
ATOM     51  C   UNL A   1      42.733  25.239  28.221  1.00  0.00     0.034 A 
ATOM     52  C   UNL A   1      44.011  29.468  33.012  1.00  0.00     0.049 A 
ATOM     53  C   UNL A   1      43.924  25.460  29.118  1.00  0.00     0.074 A 
ATOM     54  C   UNL A   1      45.116  29.508  33.845  1.00  0.00     0.029 A 
ATOM     55  N   UNL A   1      44.206  28.408  32.142  1.00  0.00    -0.354 N 
ATOM     56  N   UNL A   1      44.068  26.309  30.107  1.00  0.00    -0.248 NA
ATOM     57  C   UNL A   1      45.093  24.597  28.895  1.00  0.00     0.031 C 
ATOM     58  C   UNL A   1      45.999  28.499  33.450  1.00  0.00     0.029 A 
ATOM     59  C   UNL A   1      45.425  27.802  32.399  1.00  0.00     0.049 A 
ATOM     60  H   UNL A   1      43.572  28.126  31.443  1.00  0.00     0.167 HD
ATOM     61  C   UNL A   1      45.324  26.054  30.649  1.00  0.00     0.074 A 
ATOM     62  C   UNL A   1      45.891  24.958  29.891  1.00  0.00     0.031 C 
ATOM     63  C   UNL A   1      45.957  26.678  31.673  1.00  0.00     0.034 A 
BRANCH  50  64
ATOM     64  C   UNL A   1      42.871  31.510  33.953  1.00  0.00     0.023 A 
ATOM     65  C   UNL A   1      43.367  32.762  33.538  1.00  0.00     0.012 A 
ATOM     66  C   UNL A   1      42.299  31.383  35.235  1.00  0.00     0.148 A 
ATOM     67  C   UNL A   1      43.315  33.863  34.392  1.00  0.00     0.002 A 
ATOM     68  C   UNL A   1      42.208  32.495  36.062  1.00  0.00     0.091 A 
ATOM     69  F   UNL A   1      41.851  30.178  35.617  1.00  0.00    -0.205 F 
ATOM     70  C   UNL A   1      42.725  33.734  35.647  1.00  0.00     0.022 A 
BRANCH  68  71
ATOM     71  S   UNL A   1      41.393  32.450  37.662  1.00  0.00     0.127 S 
ATOM     72  O   UNL A   1      41.405  33.864  38.038  1.00  0.00    -0.237 OA
ATOM     73  O   UNL A   1      40.073  31.923  37.317  1.00  0.00    -0.237 OA
ATOM     74  O   UNL A   1      42.199  31.577  38.502  1.00  0.00    -0.744 OA
ENDBRANCH  68  71
ENDBRANCH  50  64
BRANCH  51  75
ATOM     75  C   UNL A   1      42.756  24.170  27.183  1.00  0.00     0.023 A 
ATOM     76  C   UNL A   1      43.399  24.410  25.954  1.00  0.00     0.012 A 
ATOM     77  C   UNL A   1      42.138  22.923  27.402  1.00  0.00     0.148 A 
ATOM     78  C   UNL A   1      43.393  23.444  24.946  1.00  0.00     0.002 A 
ATOM     79  C   UNL A   1      42.186  21.943  26.417  1.00  0.00     0.091 A 
ATOM     80  F   UNL A   1      41.517  22.719  28.572  1.00  0.00    -0.205 F 
ATOM     81  C   UNL A   1      42.794  22.208  25.181  1.00  0.00     0.022 A 
BRANCH  79  82
ATOM     82  S   UNL A   1      41.555  20.283  26.680  1.00  0.00     0.127 S 
ATOM     83  O   UNL A   1      41.936  19.617  25.438  1.00  0.00    -0.237 OA
ATOM     84  O   UNL A   1      42.306  19.859  27.863  1.00  0.00    -0.237 OA
ATOM     85  O   UNL A   1      40.123  20.436  26.904  1.00  0.00    -0.744 OA
ENDBRANCH  79  82
ENDBRANCH  51  75
BRANCH  63  86
ATOM     86  C   UNL A   1      47.320  26.169  32.071  1.00  0.00     0.023 A 
ATOM     87  C   UNL A   1      47.447  25.253  33.134  1.00  0.00     0.012 A 
ATOM     88  C   UNL A   1      48.466  26.545  31.342  1.00  0.00     0.148 A 
ATOM     89  C   UNL A   1      48.697  24.749  33.489  1.00  0.00     0.002 A 
ATOM     90  C   UNL A   1      49.701  25.996  31.667  1.00  0.00     0.091 A 
ATOM     91  F   UNL A   1      48.327  27.428  30.343  1.00  0.00    -0.205 F 
ATOM     92  C   UNL A   1      49.821  25.110  32.749  1.00  0.00     0.022 A 
BRANCH  90  93
ATOM     93  S   UNL A   1      51.185  26.326  30.709  1.00  0.00     0.127 S 
ATOM     94  O   UNL A   1      52.195  25.581  31.461  1.00  0.00    -0.237 OA
ATOM     95  O   UNL A   1      50.847  25.750  29.408  1.00  0.00    -0.237 OA
ATOM     96  O   UNL A   1      51.351  27.772  30.707  1.00  0.00    -0.744 OA
ENDBRANCH  90  93
ENDBRANCH  63  86
ENDBRANCH  37  38
ENDBRANCH  30  32
ENDBRANCH  29  30
ENDBRANCH  28  29
ENDBRANCH  27  28
ENDBRANCH   1  27
TORSDOF 20
ENDMDL
MODEL 2
REMARK VINA RESULT:      -9.2      1.268      2.498
REMARK SMILES CCCN1CCC[C@@]2(CCN(c3ccc(C(=O)OCCOCCOC(=O)c4ccc(-c5c6nc(c(-c7cccc(S(=O)(=O)[O-])c7F)c7ccc([nH]7)c(-c7cccc(S(=O)(=O)[O-])c7F)c7nc(c(-c8cccc(S(=O)(=O)[O-])c8F)c8ccc5[nH]8)C=C7)C=C6)cc4)cn3)C2)C1=O
REMARK SMILES IDX 21 1 20 2 19 3 18 4 16 5 17 6 15 7 12 8 13 9 91 10 14 11
REMARK SMILES IDX 90 12 11 13 4 14 5 15 93 16 6 17 8 18 94 19 7 20 9 21 92 22
REMARK SMILES IDX 10 23 3 24 2 25 1 26 22 27 23 28 24 29 25 30 26 31 27 32
REMARK SMILES IDX 28 33 89 34 29 35 88 36 30 37 31 38 32 39 82 40 33 41 87 42
REMARK SMILES IDX 81 43 83 44 34 45 86 46 80 47 79 48 35 50 67 51 47 52 66 53
REMARK SMILES IDX 48 54 51 55 65 56 84 57 49 58 50 59 64 61 85 62 52 63 36 64
REMARK SMILES IDX 37 65 45 66 38 67 40 68 46 69 39 70 41 71 42 72 43 73 44 74
REMARK SMILES IDX 68 75 69 76 77 77 70 78 72 79 78 80 71 81 73 82 74 83 75 84
REMARK SMILES IDX 76 85 53 86 54 87 62 88 55 89 57 90 63 91 56 92 58 93 59 94
REMARK SMILES IDX 60 95 61 96
REMARK H PARENT 83 49 51 60
REMARK Flexibility Score: inf
ROOT
ATOM      1  O   UNL A   1      33.651  34.225  28.119  1.00  0.00    -0.374 OA
ENDROOT
BRANCH   1   2
ATOM      2  C   UNL A   1      33.418  34.821  29.395  1.00  0.00     0.202 C 
BRANCH   2   3
ATOM      3  C   UNL A   1      34.154  34.218  30.597  1.00  0.00     0.261 C 
BRANCH   3   4
ATOM      4  O   UNL A   1      35.084  33.203  30.195  1.00  0.00    -0.460 OA
BRANCH   4   5
ATOM      5  C   UNL A   1      36.028  32.888  31.111  1.00  0.00     0.339 C 
ATOM      6  O   UNL A   1      35.893  32.172  32.095  1.00  0.00    -0.246 OA
BRANCH   5   7
ATOM      7  C   UNL A   1      37.337  33.395  30.673  1.00  0.00     0.078 A 
ATOM      8  C   UNL A   1      39.811  34.457  30.081  1.00  0.00     0.128 A 
ATOM      9  C   UNL A   1      39.022  33.912  29.061  1.00  0.00     0.048 A 
ATOM     10  N   UNL A   1      39.421  34.415  31.371  1.00  0.00    -0.238 NA
ATOM     11  C   UNL A   1      37.777  33.361  29.356  1.00  0.00     0.021 A 
ATOM     12  C   UNL A   1      38.191  33.910  31.635  1.00  0.00     0.129 A 
BRANCH   8  13
ATOM     13  N   UNL A   1      40.954  35.159  29.742  1.00  0.00    -0.356 N 
ATOM     14  N   UNL A   1      44.917  33.327  29.718  1.00  0.00    -0.342 N 
ATOM     15  C   UNL A   1      45.777  34.059  30.634  1.00  0.00     0.119 C 
ATOM     16  C   UNL A   1      44.049  34.018  28.870  1.00  0.00     0.230 C 
ATOM     17  C   UNL A   1      45.036  35.150  31.382  1.00  0.00     0.023 C 
ATOM     18  C   UNL A   1      43.340  35.218  29.519  1.00  0.00     0.069 C 
ATOM     19  O   UNL A   1      43.732  33.590  27.762  1.00  0.00    -0.274 OA
ATOM     20  C   UNL A   1      44.294  36.040  30.393  1.00  0.00     0.021 C 
ATOM     21  C   UNL A   1      42.635  36.100  28.467  1.00  0.00     0.040 C 
ATOM     22  C   UNL A   1      42.173  34.641  30.363  1.00  0.00     0.135 C 
ATOM     23  C   UNL A   1      41.227  35.509  28.360  1.00  0.00     0.119 C 
BRANCH  14  24
ATOM     24  C   UNL A   1      44.861  31.864  29.716  1.00  0.00     0.119 C 
BRANCH  24  25
ATOM     25  C   UNL A   1      45.783  31.095  28.767  1.00  0.00     0.018 C 
ATOM     26  C   UNL A   1      46.065  29.655  29.181  1.00  0.00     0.006 C 
ENDBRANCH  24  25
ENDBRANCH  14  24
ENDBRANCH   8  13
ENDBRANCH   5   7
ENDBRANCH   4   5
ENDBRANCH   3   4
ENDBRANCH   2   3
ENDBRANCH   1   2
BRANCH   1  27
ATOM     27  C   UNL A   1      32.629  33.382  27.589  1.00  0.00     0.202 C 
BRANCH  27  28
ATOM     28  C   UNL A   1      32.978  31.910  27.333  1.00  0.00     0.261 C 
BRANCH  28  29
ATOM     29  O   UNL A   1      34.275  31.547  27.836  1.00  0.00    -0.460 OA
BRANCH  29  30
ATOM     30  C   UNL A   1      34.623  30.256  27.616  1.00  0.00     0.338 C 
ATOM     31  O   UNL A   1      34.039  29.442  26.918  1.00  0.00    -0.246 OA
BRANCH  30  32
ATOM     32  C   UNL A   1      35.948  29.989  28.204  1.00  0.00     0.060 A 
ATOM     33  C   UNL A   1      37.070  30.165  27.385  1.00  0.00     0.016 A 
ATOM     34  C   UNL A   1      36.090  29.514  29.510  1.00  0.00     0.016 A 
ATOM     35  C   UNL A   1      38.338  29.829  27.854  1.00  0.00     0.010 A 
ATOM     36  C   UNL A   1      37.364  29.172  29.977  1.00  0.00     0.010 A 
ATOM     37  C   UNL A   1      38.490  29.299  29.142  1.00  0.00    -0.014 A 
BRANCH  37  38
ATOM     38  C   UNL A   1      39.811  28.785  29.579  1.00  0.00     0.031 A 
ATOM     39  C   UNL A   1      40.548  29.489  30.686  1.00  0.00     0.074 A 
ATOM     40  C   UNL A   1      40.353  27.705  28.984  1.00  0.00     0.049 A 
ATOM     41  N   UNL A   1      41.725  29.227  31.191  1.00  0.00    -0.248 NA
ATOM     42  C   UNL A   1      39.871  30.641  31.304  1.00  0.00     0.031 C 
ATOM     43  C   UNL A   1      39.733  26.936  27.906  1.00  0.00     0.029 A 
ATOM     44  N   UNL A   1      41.560  27.085  29.190  1.00  0.00    -0.354 N 
ATOM     45  C   UNL A   1      41.949  30.201  32.158  1.00  0.00     0.074 A 
ATOM     46  C   UNL A   1      40.786  31.061  32.167  1.00  0.00     0.031 C 
ATOM     47  C   UNL A   1      40.576  25.960  27.528  1.00  0.00     0.029 A 
ATOM     48  C   UNL A   1      41.804  26.055  28.312  1.00  0.00     0.049 A 
ATOM     49  H   UNL A   1      42.190  27.353  29.898  1.00  0.00     0.167 HD
ATOM     50  C   UNL A   1      43.023  30.358  32.966  1.00  0.00     0.034 A 
ATOM     51  C   UNL A   1      42.905  25.294  28.145  1.00  0.00     0.034 A 
ATOM     52  C   UNL A   1      44.167  29.487  32.972  1.00  0.00     0.049 A 
ATOM     53  C   UNL A   1      44.095  25.513  29.044  1.00  0.00     0.074 A 
ATOM     54  C   UNL A   1      45.271  29.524  33.805  1.00  0.00     0.029 A 
ATOM     55  N   UNL A   1      44.366  28.435  32.093  1.00  0.00    -0.354 N 
ATOM     56  N   UNL A   1      44.236  26.353  30.040  1.00  0.00    -0.248 NA
ATOM     57  C   UNL A   1      45.268  24.656  28.813  1.00  0.00     0.031 C 
ATOM     58  C   UNL A   1      46.158  28.522  33.401  1.00  0.00     0.029 A 
ATOM     59  C   UNL A   1      45.587  27.832  32.344  1.00  0.00     0.049 A 
ATOM     60  H   UNL A   1      43.733  28.156  31.392  1.00  0.00     0.167 HD
ATOM     61  C   UNL A   1      45.494  26.099  30.579  1.00  0.00     0.074 A 
ATOM     62  C   UNL A   1      46.064  25.012  29.812  1.00  0.00     0.031 C 
ATOM     63  C   UNL A   1      46.124  26.717  31.608  1.00  0.00     0.034 A 
BRANCH  50  64
ATOM     64  C   UNL A   1      43.018  31.515  33.931  1.00  0.00     0.023 A 
ATOM     65  C   UNL A   1      43.482  32.780  33.518  1.00  0.00     0.012 A 
ATOM     66  C   UNL A   1      42.472  31.367  35.222  1.00  0.00     0.148 A 
ATOM     67  C   UNL A   1      43.425  33.873  34.383  1.00  0.00     0.002 A 
ATOM     68  C   UNL A   1      42.375  32.470  36.060  1.00  0.00     0.091 A 
ATOM     69  F   UNL A   1      42.054  30.150  35.602  1.00  0.00    -0.205 F 
ATOM     70  C   UNL A   1      42.861  33.721  35.647  1.00  0.00     0.022 A 
BRANCH  68  71
ATOM     71  S   UNL A   1      41.590  32.396  37.674  1.00  0.00     0.127 S 
ATOM     72  O   UNL A   1      40.246  31.937  37.326  1.00  0.00    -0.237 OA
ATOM     73  O   UNL A   1      42.412  31.405  38.368  1.00  0.00    -0.237 OA
ATOM     74  O   UNL A   1      41.664  33.742  38.222  1.00  0.00    -0.744 OA
ENDBRANCH  68  71
ENDBRANCH  50  64
BRANCH  51  75
ATOM     75  C   UNL A   1      42.933  24.234  27.097  1.00  0.00     0.023 A 
ATOM     76  C   UNL A   1      43.628  24.464  25.895  1.00  0.00     0.012 A 
ATOM     77  C   UNL A   1      42.268  23.006  27.281  1.00  0.00     0.148 A 
ATOM     78  C   UNL A   1      43.627  23.508  24.878  1.00  0.00     0.002 A 
ATOM     79  C   UNL A   1      42.320  22.034  26.288  1.00  0.00     0.091 A 
ATOM     80  F   UNL A   1      41.597  22.811  28.426  1.00  0.00    -0.205 F 
ATOM     81  C   UNL A   1      42.982  22.291  25.078  1.00  0.00     0.022 A 
BRANCH  79  82
ATOM     82  S   UNL A   1      41.628  20.392  26.512  1.00  0.00     0.127 S 
ATOM     83  O   UNL A   1      40.194  20.662  26.462  1.00  0.00    -0.237 OA
ATOM     84  O   UNL A   1      42.163  19.679  25.353  1.00  0.00    -0.237 OA
ATOM     85  O   UNL A   1      42.139  19.920  27.793  1.00  0.00    -0.744 OA
ENDBRANCH  79  82
ENDBRANCH  51  75
BRANCH  63  86
ATOM     86  C   UNL A   1      47.489  26.210  32.002  1.00  0.00     0.023 A 
ATOM     87  C   UNL A   1      47.618  25.272  33.045  1.00  0.00     0.012 A 
ATOM     88  C   UNL A   1      48.635  26.610  31.286  1.00  0.00     0.148 A 
ATOM     89  C   UNL A   1      48.872  24.771  33.395  1.00  0.00     0.002 A 
ATOM     90  C   UNL A   1      49.873  26.065  31.605  1.00  0.00     0.091 A 
ATOM     91  F   UNL A   1      48.493  27.514  30.306  1.00  0.00    -0.205 F 
ATOM     92  C   UNL A   1      49.996  25.157  32.668  1.00  0.00     0.022 A 
BRANCH  90  93
ATOM     93  S   UNL A   1      51.359  26.426  30.661  1.00  0.00     0.127 S 
ATOM     94  O   UNL A   1      50.946  26.063  29.307  1.00  0.00    -0.237 OA
ATOM     95  O   UNL A   1      51.523  27.863  30.883  1.00  0.00    -0.237 OA
ATOM     96  O   UNL A   1      52.412  25.601  31.235  1.00  0.00    -0.744 OA
ENDBRANCH  90  93
ENDBRANCH  63  86
ENDBRANCH  37  38
ENDBRANCH  30  32
ENDBRANCH  29  30
ENDBRANCH  28  29
ENDBRANCH  27  28
ENDBRANCH   1  27
TORSDOF 20
ENDMDL
MODEL 3
REMARK VINA RESULT:      -8.8      4.382     10.222
REMARK SMILES CCCN1CCC[C@@]2(CCN(c3ccc(C(=O)OCCOCCOC(=O)c4ccc(-c5c6nc(c(-c7cccc(S(=O)(=O)[O-])c7F)c7ccc([nH]7)c(-c7cccc(S(=O)(=O)[O-])c7F)c7nc(c(-c8cccc(S(=O)(=O)[O-])c8F)c8ccc5[nH]8)C=C7)C=C6)cc4)cn3)C2)C1=O
REMARK SMILES IDX 21 1 20 2 19 3 18 4 16 5 17 6 15 7 12 8 13 9 91 10 14 11
REMARK SMILES IDX 90 12 11 13 4 14 5 15 93 16 6 17 8 18 94 19 7 20 9 21 92 22
REMARK SMILES IDX 10 23 3 24 2 25 1 26 22 27 23 28 24 29 25 30 26 31 27 32
REMARK SMILES IDX 28 33 89 34 29 35 88 36 30 37 31 38 32 39 82 40 33 41 87 42
REMARK SMILES IDX 81 43 83 44 34 45 86 46 80 47 79 48 35 50 67 51 47 52 66 53
REMARK SMILES IDX 48 54 51 55 65 56 84 57 49 58 50 59 64 61 85 62 52 63 36 64
REMARK SMILES IDX 37 65 45 66 38 67 40 68 46 69 39 70 41 71 42 72 43 73 44 74
REMARK SMILES IDX 68 75 69 76 77 77 70 78 72 79 78 80 71 81 73 82 74 83 75 84
REMARK SMILES IDX 76 85 53 86 54 87 62 88 55 89 57 90 63 91 56 92 58 93 59 94
REMARK SMILES IDX 60 95 61 96
REMARK H PARENT 83 49 51 60
REMARK Flexibility Score: inf
ROOT
ATOM      1  O   UNL A   1      34.035  22.365  25.876  1.00  0.00    -0.374 OA
ENDROOT
BRANCH   1   2
ATOM      2  C   UNL A   1      33.559  23.597  26.417  1.00  0.00     0.202 C 
BRANCH   2   3
ATOM      3  C   UNL A   1      32.100  23.971  26.133  1.00  0.00     0.261 C 
BRANCH   3   4
ATOM      4  O   UNL A   1      31.653  25.043  26.975  1.00  0.00    -0.460 OA
BRANCH   4   5
ATOM      5  C   UNL A   1      31.269  26.166  26.326  1.00  0.00     0.339 C 
ATOM      6  O   UNL A   1      30.216  26.350  25.728  1.00  0.00    -0.246 OA
BRANCH   5   7
ATOM      7  C   UNL A   1      32.235  27.244  26.580  1.00  0.00     0.078 A 
ATOM      8  C   UNL A   1      34.197  29.158  26.877  1.00  0.00     0.128 A 
ATOM      9  C   UNL A   1      33.165  29.063  27.818  1.00  0.00     0.048 A 
ATOM     10  N   UNL A   1      34.223  28.377  25.779  1.00  0.00    -0.238 NA
ATOM     11  C   UNL A   1      32.163  28.107  27.665  1.00  0.00     0.021 A 
ATOM     12  C   UNL A   1      33.262  27.428  25.666  1.00  0.00     0.129 A 
BRANCH   8  13
ATOM     13  N   UNL A   1      35.273  29.985  27.145  1.00  0.00    -0.356 N 
ATOM     14  N   UNL A   1      35.286  32.827  30.460  1.00  0.00    -0.342 N 
ATOM     15  C   UNL A   1      35.492  34.165  29.929  1.00  0.00     0.119 C 
ATOM     16  C   UNL A   1      36.030  31.755  29.963  1.00  0.00     0.230 C 
ATOM     17  C   UNL A   1      35.539  34.189  28.414  1.00  0.00     0.023 C 
ATOM     18  C   UNL A   1      36.227  31.764  28.438  1.00  0.00     0.069 C 
ATOM     19  O   UNL A   1      36.335  30.786  30.656  1.00  0.00    -0.274 OA
ATOM     20  C   UNL A   1      36.553  33.168  27.914  1.00  0.00     0.021 C 
ATOM     21  C   UNL A   1      37.287  30.735  27.994  1.00  0.00     0.040 C 
ATOM     22  C   UNL A   1      34.908  31.233  27.816  1.00  0.00     0.135 C 
ATOM     23  C   UNL A   1      36.487  29.455  27.738  1.00  0.00     0.119 C 
BRANCH  14  24
ATOM     24  C   UNL A   1      34.246  32.541  31.450  1.00  0.00     0.119 C 
BRANCH  24  25
ATOM     25  C   UNL A   1      34.544  32.810  32.926  1.00  0.00     0.018 C 
ATOM     26  C   UNL A   1      34.543  34.283  33.319  1.00  0.00     0.006 C 
ENDBRANCH  24  25
ENDBRANCH  14  24
ENDBRANCH   8  13
ENDBRANCH   5   7
ENDBRANCH   4   5
ENDBRANCH   3   4
ENDBRANCH   2   3
ENDBRANCH   1   2
BRANCH   1  27
ATOM     27  C   UNL A   1      35.306  22.378  25.225  1.00  0.00     0.202 C 
BRANCH  27  28
ATOM     28  C   UNL A   1      36.531  21.952  26.044  1.00  0.00     0.261 C 
BRANCH  28  29
ATOM     29  O   UNL A   1      37.707  22.716  25.729  1.00  0.00    -0.460 OA
BRANCH  29  30
ATOM     30  C   UNL A   1      38.818  22.347  26.412  1.00  0.00     0.338 C 
ATOM     31  O   UNL A   1      39.308  21.231  26.477  1.00  0.00    -0.246 OA
BRANCH  30  32
ATOM     32  C   UNL A   1      39.497  23.543  26.945  1.00  0.00     0.060 A 
ATOM     33  C   UNL A   1      39.096  24.791  26.452  1.00  0.00     0.016 A 
ATOM     34  C   UNL A   1      40.548  23.444  27.859  1.00  0.00     0.016 A 
ATOM     35  C   UNL A   1      39.772  25.945  26.843  1.00  0.00     0.010 A 
ATOM     36  C   UNL A   1      41.228  24.604  28.245  1.00  0.00     0.010 A 
ATOM     37  C   UNL A   1      40.864  25.857  27.715  1.00  0.00    -0.014 A 
BRANCH  37  38
ATOM     38  C   UNL A   1      41.685  27.059  27.997  1.00  0.00     0.031 A 
ATOM     39  C   UNL A   1      43.086  27.140  27.455  1.00  0.00     0.074 A 
ATOM     40  C   UNL A   1      41.187  28.066  28.739  1.00  0.00     0.049 A 
ATOM     41  N   UNL A   1      43.980  28.081  27.614  1.00  0.00    -0.248 NA
ATOM     42  C   UNL A   1      43.542  26.012  26.625  1.00  0.00     0.031 C 
ATOM     43  C   UNL A   1      39.843  28.105  29.314  1.00  0.00     0.029 A 
ATOM     44  N   UNL A   1      41.767  29.238  29.156  1.00  0.00    -0.354 N 
ATOM     45  C   UNL A   1      45.115  27.644  26.940  1.00  0.00     0.074 A 
ATOM     46  C   UNL A   1      44.798  26.352  26.371  1.00  0.00     0.031 C 
ATOM     47  C   UNL A   1      39.709  29.234  30.030  1.00  0.00     0.029 A 
ATOM     48  C   UNL A   1      40.965  29.980  29.991  1.00  0.00     0.049 A 
ATOM     49  H   UNL A   1      42.670  29.520  28.883  1.00  0.00     0.167 HD
ATOM     50  C   UNL A   1      46.309  28.267  26.804  1.00  0.00     0.034 A 
ATOM     51  C   UNL A   1      41.224  31.117  30.667  1.00  0.00     0.034 A 
ATOM     52  C   UNL A   1      46.613  29.562  27.349  1.00  0.00     0.049 A 
ATOM     53  C   UNL A   1      42.574  31.772  30.515  1.00  0.00     0.074 A 
ATOM     54  C   UNL A   1      47.772  30.306  27.202  1.00  0.00     0.029 A 
ATOM     55  N   UNL A   1      45.766  30.299  28.161  1.00  0.00    -0.354 N 
ATOM     56  N   UNL A   1      43.589  31.411  29.768  1.00  0.00    -0.248 NA
ATOM     57  C   UNL A   1      42.802  33.008  31.279  1.00  0.00     0.031 C 
ATOM     58  C   UNL A   1      47.642  31.472  27.962  1.00  0.00     0.029 A 
ATOM     59  C   UNL A   1      46.386  31.476  28.547  1.00  0.00     0.049 A 
ATOM     60  H   UNL A   1      44.859  30.026  28.426  1.00  0.00     0.167 HD
ATOM     61  C   UNL A   1      44.558  32.395  29.940  1.00  0.00     0.074 A 
ATOM     62  C   UNL A   1      44.000  33.377  30.846  1.00  0.00     0.031 C 
ATOM     63  C   UNL A   1      45.802  32.473  29.407  1.00  0.00     0.034 A 
BRANCH  50  64
ATOM     64  C   UNL A   1      47.388  27.564  26.022  1.00  0.00     0.023 A 
ATOM     65  C   UNL A   1      48.126  26.522  26.618  1.00  0.00     0.012 A 
ATOM     66  C   UNL A   1      47.610  27.881  24.666  1.00  0.00     0.148 A 
ATOM     67  C   UNL A   1      49.084  25.823  25.885  1.00  0.00     0.002 A 
ATOM     68  C   UNL A   1      48.533  27.150  23.930  1.00  0.00     0.091 A 
ATOM     69  F   UNL A   1      46.912  28.890  24.125  1.00  0.00    -0.205 F 
ATOM     70  C   UNL A   1      49.279  26.127  24.540  1.00  0.00     0.022 A 
BRANCH  68  71
ATOM     71  S   UNL A   1      48.796  27.410  22.172  1.00  0.00     0.127 S 
ATOM     72  O   UNL A   1      50.207  27.792  22.140  1.00  0.00    -0.237 OA
ATOM     73  O   UNL A   1      48.511  26.085  21.621  1.00  0.00    -0.237 OA
ATOM     74  O   UNL A   1      47.861  28.452  21.773  1.00  0.00    -0.744 OA
ENDBRANCH  68  71
ENDBRANCH  50  64
BRANCH  51  75
ATOM     75  C   UNL A   1      40.179  31.731  31.536  1.00  0.00     0.023 A 
ATOM     76  C   UNL A   1      39.381  32.774  31.030  1.00  0.00     0.012 A 
ATOM     77  C   UNL A   1      39.979  31.293  32.859  1.00  0.00     0.148 A 
ATOM     78  C   UNL A   1      38.431  33.399  31.839  1.00  0.00     0.002 A 
ATOM     79  C   UNL A   1      38.990  31.879  33.641  1.00  0.00     0.091 A 
ATOM     80  F   UNL A   1      40.759  30.309  33.328  1.00  0.00    -0.205 F 
ATOM     81  C   UNL A   1      38.229  32.946  33.140  1.00  0.00     0.022 A 
BRANCH  79  82
ATOM     82  S   UNL A   1      38.575  31.274  35.280  1.00  0.00     0.127 S 
ATOM     83  O   UNL A   1      38.353  29.853  35.027  1.00  0.00    -0.237 OA
ATOM     84  O   UNL A   1      39.789  31.586  36.033  1.00  0.00    -0.237 OA
ATOM     85  O   UNL A   1      37.401  32.033  35.695  1.00  0.00    -0.744 OA
ENDBRANCH  79  82
ENDBRANCH  51  75
BRANCH  63  86
ATOM     86  C   UNL A   1      46.638  33.680  29.747  1.00  0.00     0.023 A 
ATOM     87  C   UNL A   1      47.499  33.651  30.863  1.00  0.00     0.012 A 
ATOM     88  C   UNL A   1      46.624  34.819  28.916  1.00  0.00     0.148 A 
ATOM     89  C   UNL A   1      48.302  34.749  31.167  1.00  0.00     0.002 A 
ATOM     90  C   UNL A   1      47.468  35.887  29.195  1.00  0.00     0.091 A 
ATOM     91  F   UNL A   1      45.789  34.833  27.867  1.00  0.00    -0.205 F 
ATOM     92  C   UNL A   1      48.296  35.861  30.327  1.00  0.00     0.022 A 
BRANCH  90  93
ATOM     93  S   UNL A   1      47.601  37.318  28.116  1.00  0.00     0.127 S 
ATOM     94  O   UNL A   1      48.616  38.115  28.804  1.00  0.00    -0.237 OA
ATOM     95  O   UNL A   1      48.048  36.717  26.859  1.00  0.00    -0.237 OA
ATOM     96  O   UNL A   1      46.272  37.911  28.066  1.00  0.00    -0.744 OA
ENDBRANCH  90  93
ENDBRANCH  63  86
ENDBRANCH  37  38
ENDBRANCH  30  32
ENDBRANCH  29  30
ENDBRANCH  28  29
ENDBRANCH  27  28
ENDBRANCH   1  27
TORSDOF 20
ENDMDL
