MODEL 1
REMARK VINA RESULT:     -10.4      0.000      0.000
REMARK SMILES CCC[C@@H]1C[N@@H+](Cc2cc(OC)c3c(c2)OCO3)C[C@H]1C(=O)OCCOCCOC(=O)c1ccc(-c2c3nc(c(-c4cccc(S(=O)(=O)[O-])c4F)c4ccc([nH]4)c(-c4cccc(S(=O)(=O)[O-])c4F)c4nc(c(-c5cccc(S(=O)(=O)[O-])c5F)c5ccc2[nH]5)C=C4)C=C3)cc1
REMARK SMILES IDX 26 1 25 2 24 3 23 4 21 5 22 6 20 7 4 8 5 9 6 10 19 11 3 13
REMARK SMILES IDX 2 14 1 15 7 16 8 17 9 18 15 19 10 20 14 21 13 22 16 23 18 24
REMARK SMILES IDX 17 25 11 26 12 27 27 28 28 29 29 30 30 31 31 32 32 33 33 34
REMARK SMILES IDX 94 35 34 36 93 37 35 38 36 39 37 40 87 41 38 42 92 43 86 44
REMARK SMILES IDX 88 45 39 46 91 47 85 48 84 49 40 51 72 52 52 53 71 54 53 55
REMARK SMILES IDX 56 56 70 57 89 58 54 59 55 60 69 62 90 63 57 64 41 65 42 66
REMARK SMILES IDX 50 67 43 68 45 69 51 70 44 71 46 72 47 73 48 74 49 75 73 76
REMARK SMILES IDX 74 77 82 78 75 79 77 80 83 81 76 82 78 83 79 84 80 85 81 86
REMARK SMILES IDX 58 87 59 88 67 89 60 90 62 91 68 92 61 93 63 94 64 95 65 96
REMARK SMILES IDX 66 97
REMARK H PARENT 6 12 88 50 56 61
REMARK Flexibility Score: inf
ROOT
ATOM      1  O   UNL A   1      34.043  30.789  27.878  1.00  0.00    -0.374 OA
ENDROOT
BRANCH   1   2
ATOM      2  C   UNL A   1      34.685  29.608  27.377  1.00  0.00     0.202 C 
BRANCH   2   3
ATOM      3  C   UNL A   1      33.931  28.919  26.227  1.00  0.00     0.261 C 
BRANCH   3   4
ATOM      4  O   UNL A   1      33.234  27.713  26.642  1.00  0.00    -0.463 OA
BRANCH   4   5
ATOM      5  C   UNL A   1      33.164  26.689  25.749  1.00  0.00     0.315 C 
ATOM      6  O   UNL A   1      34.064  25.878  25.558  1.00  0.00    -0.252 OA
BRANCH   5   7
ATOM      7  C   UNL A   1      31.877  26.671  24.934  1.00  0.00     0.163 C 
ATOM      8  C   UNL A   1      31.982  26.926  23.431  1.00  0.00     0.064 C 
ATOM      9  C   UNL A   1      30.723  26.202  22.912  1.00  0.00     0.267 C 
ATOM     10  N   UNL A   1      30.472  25.067  23.793  1.00  0.00    -0.330 N 
ATOM     11  C   UNL A   1      31.196  25.298  25.048  1.00  0.00     0.278 C 
ATOM     12  H   UNL A   1      29.476  25.020  24.009  1.00  0.00     0.348 HD
BRANCH   8  13
ATOM     13  C   UNL A   1      31.944  28.375  22.885  1.00  0.00     0.010 C 
BRANCH  13  14
ATOM     14  C   UNL A   1      30.621  28.968  22.406  1.00  0.00    -0.003 C 
ATOM     15  C   UNL A   1      29.877  29.702  23.499  1.00  0.00     0.004 C 
ENDBRANCH  13  14
ENDBRANCH   8  13
BRANCH  10  16
ATOM     16  C   UNL A   1      30.653  23.745  23.174  1.00  0.00     0.299 C 
BRANCH  16  17
ATOM     17  C   UNL A   1      32.001  23.112  23.420  1.00  0.00     0.014 A 
ATOM     18  C   UNL A   1      32.123  22.082  24.369  1.00  0.00     0.060 A 
ATOM     19  C   UNL A   1      33.153  23.611  22.796  1.00  0.00     0.060 A 
ATOM     20  C   UNL A   1      33.367  21.625  24.796  1.00  0.00     0.165 A 
ATOM     21  C   UNL A   1      34.373  23.138  23.218  1.00  0.00     0.170 A 
ATOM     22  C   UNL A   1      34.487  22.185  24.206  1.00  0.00     0.207 A 
ATOM     23  O   UNL A   1      35.573  23.587  22.760  1.00  0.00    -0.453 OA
ATOM     24  O   UNL A   1      35.794  21.940  24.488  1.00  0.00    -0.450 OA
ATOM     25  C   UNL A   1      36.470  22.768  23.526  1.00  0.00     0.468 C 
BRANCH  20  26
ATOM     26  O   UNL A   1      33.284  20.694  25.790  1.00  0.00    -0.493 OA
ATOM     27  C   UNL A   1      32.896  19.401  25.376  1.00  0.00     0.278 C 
ENDBRANCH  20  26
ENDBRANCH  16  17
ENDBRANCH  10  16
ENDBRANCH   5   7
ENDBRANCH   4   5
ENDBRANCH   3   4
ENDBRANCH   2   3
ENDBRANCH   1   2
BRANCH   1  28
ATOM     28  C   UNL A   1      33.115  31.345  26.955  1.00  0.00     0.202 C 
BRANCH  28  29
ATOM     29  C   UNL A   1      32.328  32.550  27.476  1.00  0.00     0.261 C 
BRANCH  29  30
ATOM     30  O   UNL A   1      33.030  33.786  27.297  1.00  0.00    -0.460 OA
BRANCH  30  31
ATOM     31  C   UNL A   1      33.184  34.541  28.412  1.00  0.00     0.338 C 
ATOM     32  O   UNL A   1      32.528  35.508  28.760  1.00  0.00    -0.246 OA
BRANCH  31  33
ATOM     33  C   UNL A   1      34.301  33.986  29.195  1.00  0.00     0.060 A 
ATOM     34  C   UNL A   1      35.613  34.136  28.733  1.00  0.00     0.016 A 
ATOM     35  C   UNL A   1      34.047  33.341  30.406  1.00  0.00     0.016 A 
ATOM     36  C   UNL A   1      36.681  33.653  29.500  1.00  0.00     0.010 A 
ATOM     37  C   UNL A   1      35.117  32.886  31.178  1.00  0.00     0.010 A 
ATOM     38  C   UNL A   1      36.442  33.021  30.729  1.00  0.00    -0.014 A 
BRANCH  38  39
ATOM     39  C   UNL A   1      37.540  32.385  31.508  1.00  0.00     0.031 A 
ATOM     40  C   UNL A   1      38.281  31.228  30.889  1.00  0.00     0.074 A 
ATOM     41  C   UNL A   1      37.829  32.760  32.771  1.00  0.00     0.049 A 
ATOM     42  N   UNL A   1      39.279  30.537  31.370  1.00  0.00    -0.248 NA
ATOM     43  C   UNL A   1      37.824  30.776  29.562  1.00  0.00     0.031 C 
ATOM     44  C   UNL A   1      37.161  33.821  33.520  1.00  0.00     0.029 A 
ATOM     45  N   UNL A   1      38.745  32.267  33.668  1.00  0.00    -0.354 N 
ATOM     46  C   UNL A   1      39.560  29.569  30.414  1.00  0.00     0.074 A 
ATOM     47  C   UNL A   1      38.578  29.707  29.365  1.00  0.00     0.031 C 
ATOM     48  C   UNL A   1      37.631  33.855  34.777  1.00  0.00     0.029 A 
ATOM     49  C   UNL A   1      38.693  32.865  34.908  1.00  0.00     0.049 A 
ATOM     50  H   UNL A   1      39.383  31.550  33.445  1.00  0.00     0.167 HD
ATOM     51  C   UNL A   1      40.586  28.688  30.374  1.00  0.00     0.034 A 
ATOM     52  C   UNL A   1      39.449  32.680  36.007  1.00  0.00     0.034 A 
ATOM     53  C   UNL A   1      41.601  28.603  31.384  1.00  0.00     0.049 A 
ATOM     54  C   UNL A   1      40.630  31.750  35.915  1.00  0.00     0.074 A 
ATOM     55  C   UNL A   1      42.746  27.829  31.394  1.00  0.00     0.029 A 
ATOM     56  N   UNL A   1      41.591  29.325  32.567  1.00  0.00    -0.354 N 
ATOM     57  N   UNL A   1      41.013  31.003  34.909  1.00  0.00    -0.248 NA
ATOM     58  C   UNL A   1      41.532  31.700  37.076  1.00  0.00     0.031 C 
ATOM     59  C   UNL A   1      43.429  28.083  32.589  1.00  0.00     0.029 A 
ATOM     60  C   UNL A   1      42.711  29.019  33.316  1.00  0.00     0.049 A 
ATOM     61  H   UNL A   1      40.890  29.962  32.834  1.00  0.00     0.167 HD
ATOM     62  C   UNL A   1      42.225  30.441  35.289  1.00  0.00     0.074 A 
ATOM     63  C   UNL A   1      42.518  30.940  36.617  1.00  0.00     0.031 C 
ATOM     64  C   UNL A   1      43.020  29.583  34.604  1.00  0.00     0.034 A 
BRANCH  51  65
ATOM     65  C   UNL A   1      40.699  27.825  29.148  1.00  0.00     0.023 A 
ATOM     66  C   UNL A   1      39.957  26.625  29.083  1.00  0.00     0.012 A 
ATOM     67  C   UNL A   1      41.527  28.185  28.070  1.00  0.00     0.148 A 
ATOM     68  C   UNL A   1      40.078  25.773  27.987  1.00  0.00     0.002 A 
ATOM     69  C   UNL A   1      41.609  27.350  26.962  1.00  0.00     0.091 A 
ATOM     70  F   UNL A   1      42.241  29.317  28.160  1.00  0.00    -0.205 F 
ATOM     71  C   UNL A   1      40.897  26.139  26.925  1.00  0.00     0.022 A 
BRANCH  69  72
ATOM     72  S   UNL A   1      42.587  27.759  25.512  1.00  0.00     0.127 S 
ATOM     73  O   UNL A   1      42.419  26.558  24.695  1.00  0.00    -0.237 OA
ATOM     74  O   UNL A   1      41.900  28.945  25.001  1.00  0.00    -0.237 OA
ATOM     75  O   UNL A   1      43.939  28.002  25.997  1.00  0.00    -0.744 OA
ENDBRANCH  69  72
ENDBRANCH  51  65
BRANCH  52  76
ATOM     76  C   UNL A   1      39.225  33.508  37.227  1.00  0.00     0.023 A 
ATOM     77  C   UNL A   1      39.779  34.804  37.285  1.00  0.00     0.012 A 
ATOM     78  C   UNL A   1      38.471  33.037  38.320  1.00  0.00     0.148 A 
ATOM     79  C   UNL A   1      39.625  35.597  38.423  1.00  0.00     0.002 A 
ATOM     80  C   UNL A   1      38.290  33.849  39.437  1.00  0.00     0.091 A 
ATOM     81  F   UNL A   1      37.955  31.803  38.251  1.00  0.00    -0.205 F 
ATOM     82  C   UNL A   1      38.878  35.123  39.496  1.00  0.00     0.022 A 
BRANCH  80  83
ATOM     83  S   UNL A   1      37.265  33.364  40.832  1.00  0.00     0.127 S 
ATOM     84  O   UNL A   1      36.051  32.900  40.164  1.00  0.00    -0.237 OA
ATOM     85  O   UNL A   1      38.070  32.306  41.448  1.00  0.00    -0.237 OA
ATOM     86  O   UNL A   1      37.123  34.561  41.648  1.00  0.00    -0.744 OA
ENDBRANCH  80  83
ENDBRANCH  52  76
BRANCH  64  87
ATOM     87  C   UNL A   1      44.306  29.148  35.251  1.00  0.00     0.023 A 
ATOM     88  C   UNL A   1      45.487  29.874  35.007  1.00  0.00     0.012 A 
ATOM     89  C   UNL A   1      44.317  28.093  36.184  1.00  0.00     0.148 A 
ATOM     90  C   UNL A   1      46.668  29.544  35.670  1.00  0.00     0.002 A 
ATOM     91  C   UNL A   1      45.486  27.801  36.876  1.00  0.00     0.091 A 
ATOM     92  F   UNL A   1      43.186  27.400  36.382  1.00  0.00    -0.205 F 
ATOM     93  C   UNL A   1      46.664  28.520  36.614  1.00  0.00     0.022 A 
BRANCH  91  94
ATOM     94  S   UNL A   1      45.542  26.571  38.184  1.00  0.00     0.127 S 
ATOM     95  O   UNL A   1      45.296  25.336  37.441  1.00  0.00    -0.237 OA
ATOM     96  O   UNL A   1      46.905  26.717  38.692  1.00  0.00    -0.237 OA
ATOM     97  O   UNL A   1      44.503  26.951  39.132  1.00  0.00    -0.744 OA
ENDBRANCH  91  94
ENDBRANCH  64  87
ENDBRANCH  38  39
ENDBRANCH  31  33
ENDBRANCH  30  31
ENDBRANCH  29  30
ENDBRANCH  28  29
ENDBRANCH   1  28
TORSDOF 22
ENDMDL
MODEL 2
REMARK VINA RESULT:     -10.3      2.510      8.115
REMARK SMILES CCC[C@@H]1C[N@@H+](Cc2cc(OC)c3c(c2)OCO3)C[C@H]1C(=O)OCCOCCOC(=O)c1ccc(-c2c3nc(c(-c4cccc(S(=O)(=O)[O-])c4F)c4ccc([nH]4)c(-c4cccc(S(=O)(=O)[O-])c4F)c4nc(c(-c5cccc(S(=O)(=O)[O-])c5F)c5ccc2[nH]5)C=C4)C=C3)cc1
REMARK SMILES IDX 26 1 25 2 24 3 23 4 21 5 22 6 20 7 4 8 5 9 6 10 19 11 3 13
REMARK SMILES IDX 2 14 1 15 7 16 8 17 9 18 15 19 10 20 14 21 13 22 16 23 18 24
REMARK SMILES IDX 17 25 11 26 12 27 27 28 28 29 29 30 30 31 31 32 32 33 33 34
REMARK SMILES IDX 94 35 34 36 93 37 35 38 36 39 37 40 87 41 38 42 92 43 86 44
REMARK SMILES IDX 88 45 39 46 91 47 85 48 84 49 40 51 72 52 52 53 71 54 53 55
REMARK SMILES IDX 56 56 70 57 89 58 54 59 55 60 69 62 90 63 57 64 41 65 42 66
REMARK SMILES IDX 50 67 43 68 45 69 51 70 44 71 46 72 47 73 48 74 49 75 73 76
REMARK SMILES IDX 74 77 82 78 75 79 77 80 83 81 76 82 78 83 79 84 80 85 81 86
REMARK SMILES IDX 58 87 59 88 67 89 60 90 62 91 68 92 61 93 63 94 64 95 65 96
REMARK SMILES IDX 66 97
REMARK H PARENT 6 12 88 50 56 61
REMARK Flexibility Score: inf
ROOT
ATOM      1  O   UNL A   1      32.657  28.927  23.387  1.00  0.00    -0.374 OA
ENDROOT
BRANCH   1   2
ATOM      2  C   UNL A   1      33.865  28.446  22.786  1.00  0.00     0.202 C 
BRANCH   2   3
ATOM      3  C   UNL A   1      33.660  27.283  21.799  1.00  0.00     0.261 C 
BRANCH   3   4
ATOM      4  O   UNL A   1      32.734  26.275  22.289  1.00  0.00    -0.463 OA
BRANCH   4   5
ATOM      5  C   UNL A   1      33.264  25.163  22.867  1.00  0.00     0.315 C 
ATOM      6  O   UNL A   1      34.393  24.739  22.641  1.00  0.00    -0.252 OA
BRANCH   5   7
ATOM      7  C   UNL A   1      32.297  24.426  23.784  1.00  0.00     0.163 C 
ATOM      8  C   UNL A   1      32.361  22.899  23.809  1.00  0.00     0.064 C 
ATOM      9  C   UNL A   1      31.798  22.595  25.212  1.00  0.00     0.267 C 
ATOM     10  N   UNL A   1      32.174  23.699  26.088  1.00  0.00    -0.330 N 
ATOM     11  C   UNL A   1      32.525  24.847  25.244  1.00  0.00     0.278 C 
ATOM     12  H   UNL A   1      31.374  23.963  26.662  1.00  0.00     0.348 HD
BRANCH   8  13
ATOM     13  C   UNL A   1      31.540  22.071  22.788  1.00  0.00     0.010 C 
BRANCH  13  14
ATOM     14  C   UNL A   1      32.153  20.819  22.165  1.00  0.00    -0.003 C 
ATOM     15  C   UNL A   1      32.209  19.652  23.125  1.00  0.00     0.004 C 
ENDBRANCH  13  14
ENDBRANCH   8  13
BRANCH  10  16
ATOM     16  C   UNL A   1      33.136  23.355  27.147  1.00  0.00     0.299 C 
BRANCH  16  17
ATOM     17  C   UNL A   1      34.441  22.780  26.653  1.00  0.00     0.014 A 
ATOM     18  C   UNL A   1      35.558  23.619  26.502  1.00  0.00     0.060 A 
ATOM     19  C   UNL A   1      34.524  21.443  26.237  1.00  0.00     0.060 A 
ATOM     20  C   UNL A   1      36.708  23.194  25.841  1.00  0.00     0.165 A 
ATOM     21  C   UNL A   1      35.673  21.035  25.600  1.00  0.00     0.170 A 
ATOM     22  C   UNL A   1      36.733  21.887  25.385  1.00  0.00     0.207 A 
ATOM     23  O   UNL A   1      35.862  19.794  25.074  1.00  0.00    -0.453 OA
ATOM     24  O   UNL A   1      37.713  21.265  24.678  1.00  0.00    -0.450 OA
ATOM     25  C   UNL A   1      37.192  19.931  24.550  1.00  0.00     0.468 C 
BRANCH  20  26
ATOM     26  O   UNL A   1      37.644  24.177  25.709  1.00  0.00    -0.493 OA
ATOM     27  C   UNL A   1      38.402  24.451  26.868  1.00  0.00     0.278 C 
ENDBRANCH  20  26
ENDBRANCH  16  17
ENDBRANCH  10  16
ENDBRANCH   5   7
ENDBRANCH   4   5
ENDBRANCH   3   4
ENDBRANCH   2   3
ENDBRANCH   1   2
BRANCH   1  28
ATOM     28  C   UNL A   1      32.706  28.918  24.809  1.00  0.00     0.202 C 
BRANCH  28  29
ATOM     29  C   UNL A   1      31.992  30.088  25.490  1.00  0.00     0.261 C 
BRANCH  29  30
ATOM     30  O   UNL A   1      32.385  30.252  26.857  1.00  0.00    -0.460 OA
BRANCH  30  31
ATOM     31  C   UNL A   1      33.061  31.392  27.141  1.00  0.00     0.338 C 
ATOM     32  O   UNL A   1      32.729  32.541  26.902  1.00  0.00    -0.246 OA
BRANCH  31  33
ATOM     33  C   UNL A   1      34.309  31.029  27.834  1.00  0.00     0.060 A 
ATOM     34  C   UNL A   1      35.292  32.001  28.045  1.00  0.00     0.016 A 
ATOM     35  C   UNL A   1      34.489  29.726  28.301  1.00  0.00     0.016 A 
ATOM     36  C   UNL A   1      36.458  31.670  28.747  1.00  0.00     0.010 A 
ATOM     37  C   UNL A   1      35.640  29.410  29.023  1.00  0.00     0.010 A 
ATOM     38  C   UNL A   1      36.644  30.370  29.240  1.00  0.00    -0.014 A 
BRANCH  38  39
ATOM     39  C   UNL A   1      37.922  29.951  29.879  1.00  0.00     0.031 A 
ATOM     40  C   UNL A   1      38.252  30.492  31.246  1.00  0.00     0.074 A 
ATOM     41  C   UNL A   1      38.820  29.175  29.236  1.00  0.00     0.049 A 
ATOM     42  N   UNL A   1      39.291  30.251  31.999  1.00  0.00    -0.248 NA
ATOM     43  C   UNL A   1      37.294  31.445  31.835  1.00  0.00     0.031 C 
ATOM     44  C   UNL A   1      38.666  28.627  27.892  1.00  0.00     0.029 A 
ATOM     45  N   UNL A   1      40.065  28.736  29.619  1.00  0.00    -0.354 N 
ATOM     46  C   UNL A   1      39.118  31.027  33.138  1.00  0.00     0.074 A 
ATOM     47  C   UNL A   1      37.918  31.807  32.944  1.00  0.00     0.031 C 
ATOM     48  C   UNL A   1      39.792  27.990  27.529  1.00  0.00     0.029 A 
ATOM     49  C   UNL A   1      40.726  28.017  28.647  1.00  0.00     0.049 A 
ATOM     50  H   UNL A   1      40.449  28.918  30.506  1.00  0.00     0.167 HD
ATOM     51  C   UNL A   1      39.848  31.039  34.277  1.00  0.00     0.034 A 
ATOM     52  C   UNL A   1      41.924  27.401  28.672  1.00  0.00     0.034 A 
ATOM     53  C   UNL A   1      40.997  30.209  34.492  1.00  0.00     0.049 A 
ATOM     54  C   UNL A   1      42.685  27.365  29.971  1.00  0.00     0.074 A 
ATOM     55  C   UNL A   1      41.748  30.055  35.643  1.00  0.00     0.029 A 
ATOM     56  N   UNL A   1      41.562  29.387  33.530  1.00  0.00    -0.354 N 
ATOM     57  N   UNL A   1      42.384  27.927  31.116  1.00  0.00    -0.248 NA
ATOM     58  C   UNL A   1      43.904  26.543  30.008  1.00  0.00     0.031 C 
ATOM     59  C   UNL A   1      42.769  29.138  35.374  1.00  0.00     0.029 A 
ATOM     60  C   UNL A   1      42.649  28.718  34.058  1.00  0.00     0.049 A 
ATOM     61  H   UNL A   1      41.236  29.292  32.606  1.00  0.00     0.167 HD
ATOM     62  C   UNL A   1      43.339  27.482  32.022  1.00  0.00     0.074 A 
ATOM     63  C   UNL A   1      44.225  26.596  31.294  1.00  0.00     0.031 C 
ATOM     64  C   UNL A   1      43.474  27.785  33.337  1.00  0.00     0.034 A 
BRANCH  51  65
ATOM     65  C   UNL A   1      39.354  31.911  35.396  1.00  0.00     0.023 A 
ATOM     66  C   UNL A   1      38.356  31.415  36.264  1.00  0.00     0.012 A 
ATOM     67  C   UNL A   1      39.859  33.209  35.594  1.00  0.00     0.148 A 
ATOM     68  C   UNL A   1      37.833  32.214  37.278  1.00  0.00     0.002 A 
ATOM     69  C   UNL A   1      39.362  33.984  36.637  1.00  0.00     0.091 A 
ATOM     70  F   UNL A   1      40.789  33.671  34.747  1.00  0.00    -0.205 F 
ATOM     71  C   UNL A   1      38.341  33.494  37.468  1.00  0.00     0.022 A 
BRANCH  69  72
ATOM     72  S   UNL A   1      39.992  35.624  37.008  1.00  0.00     0.127 S 
ATOM     73  O   UNL A   1      39.278  35.942  38.244  1.00  0.00    -0.237 OA
ATOM     74  O   UNL A   1      41.424  35.373  37.177  1.00  0.00    -0.237 OA
ATOM     75  O   UNL A   1      39.653  36.453  35.858  1.00  0.00    -0.744 OA
ENDBRANCH  69  72
ENDBRANCH  51  65
BRANCH  52  76
ATOM     76  C   UNL A   1      42.400  26.626  27.489  1.00  0.00     0.023 A 
ATOM     77  C   UNL A   1      43.099  27.299  26.466  1.00  0.00     0.012 A 
ATOM     78  C   UNL A   1      42.176  25.240  27.367  1.00  0.00     0.148 A 
ATOM     79  C   UNL A   1      43.527  26.619  25.325  1.00  0.00     0.002 A 
ATOM     80  C   UNL A   1      42.639  24.561  26.243  1.00  0.00     0.091 A 
ATOM     81  F   UNL A   1      41.506  24.616  28.346  1.00  0.00    -0.205 F 
ATOM     82  C   UNL A   1      43.302  25.251  25.216  1.00  0.00     0.022 A 
BRANCH  80  83
ATOM     83  S   UNL A   1      42.480  22.780  26.054  1.00  0.00     0.127 S 
ATOM     84  O   UNL A   1      41.035  22.596  26.161  1.00  0.00    -0.237 OA
ATOM     85  O   UNL A   1      43.029  22.566  24.713  1.00  0.00    -0.237 OA
ATOM     86  O   UNL A   1      43.276  22.200  27.126  1.00  0.00    -0.744 OA
ENDBRANCH  80  83
ENDBRANCH  52  76
BRANCH  64  87
ATOM     87  C   UNL A   1      44.596  27.133  34.096  1.00  0.00     0.023 A 
ATOM     88  C   UNL A   1      45.859  27.755  34.141  1.00  0.00     0.012 A 
ATOM     89  C   UNL A   1      44.367  25.969  34.854  1.00  0.00     0.148 A 
ATOM     90  C   UNL A   1      46.884  27.216  34.915  1.00  0.00     0.002 A 
ATOM     91  C   UNL A   1      45.378  25.464  35.661  1.00  0.00     0.091 A 
ATOM     92  F   UNL A   1      43.164  25.380  34.777  1.00  0.00    -0.205 F 
ATOM     93  C   UNL A   1      46.641  26.082  35.686  1.00  0.00     0.022 A 
BRANCH  91  94
ATOM     94  S   UNL A   1      45.117  24.073  36.766  1.00  0.00     0.127 S 
ATOM     95  O   UNL A   1      44.189  24.639  37.744  1.00  0.00    -0.237 OA
ATOM     96  O   UNL A   1      44.529  23.072  35.875  1.00  0.00    -0.237 OA
ATOM     97  O   UNL A   1      46.433  23.720  37.280  1.00  0.00    -0.744 OA
ENDBRANCH  91  94
ENDBRANCH  64  87
ENDBRANCH  38  39
ENDBRANCH  31  33
ENDBRANCH  30  31
ENDBRANCH  29  30
ENDBRANCH  28  29
ENDBRANCH   1  28
TORSDOF 22
ENDMDL
MODEL 3
REMARK VINA RESULT:     -10.2      2.784      8.692
REMARK SMILES CCC[C@@H]1C[N@@H+](Cc2cc(OC)c3c(c2)OCO3)C[C@H]1C(=O)OCCOCCOC(=O)c1ccc(-c2c3nc(c(-c4cccc(S(=O)(=O)[O-])c4F)c4ccc([nH]4)c(-c4cccc(S(=O)(=O)[O-])c4F)c4nc(c(-c5cccc(S(=O)(=O)[O-])c5F)c5ccc2[nH]5)C=C4)C=C3)cc1
REMARK SMILES IDX 26 1 25 2 24 3 23 4 21 5 22 6 20 7 4 8 5 9 6 10 19 11 3 13
REMARK SMILES IDX 2 14 1 15 7 16 8 17 9 18 15 19 10 20 14 21 13 22 16 23 18 24
REMARK SMILES IDX 17 25 11 26 12 27 27 28 28 29 29 30 30 31 31 32 32 33 33 34
REMARK SMILES IDX 94 35 34 36 93 37 35 38 36 39 37 40 87 41 38 42 92 43 86 44
REMARK SMILES IDX 88 45 39 46 91 47 85 48 84 49 40 51 72 52 52 53 71 54 53 55
REMARK SMILES IDX 56 56 70 57 89 58 54 59 55 60 69 62 90 63 57 64 41 65 42 66
REMARK SMILES IDX 50 67 43 68 45 69 51 70 44 71 46 72 47 73 48 74 49 75 73 76
REMARK SMILES IDX 74 77 82 78 75 79 77 80 83 81 76 82 78 83 79 84 80 85 81 86
REMARK SMILES IDX 58 87 59 88 67 89 60 90 62 91 68 92 61 93 63 94 64 95 65 96
REMARK SMILES IDX 66 97
REMARK H PARENT 6 12 88 50 56 61
REMARK Flexibility Score: inf
ROOT
ATOM      1  O   UNL A   1      31.438  26.912  26.399  1.00  0.00    -0.374 OA
ENDROOT
BRANCH   1   2
ATOM      2  C   UNL A   1      32.310  25.819  26.084  1.00  0.00     0.202 C 
BRANCH   2   3
ATOM      3  C   UNL A   1      31.667  24.431  26.244  1.00  0.00     0.261 C 
BRANCH   3   4
ATOM      4  O   UNL A   1      32.324  23.402  25.455  1.00  0.00    -0.463 OA
BRANCH   4   5
ATOM      5  C   UNL A   1      31.949  22.111  25.667  1.00  0.00     0.315 C 
ATOM      6  O   UNL A   1      30.784  21.740  25.771  1.00  0.00    -0.252 OA
BRANCH   5   7
ATOM      7  C   UNL A   1      33.119  21.151  25.841  1.00  0.00     0.163 C 
ATOM      8  C   UNL A   1      33.440  20.202  24.687  1.00  0.00     0.064 C 
ATOM      9  C   UNL A   1      34.938  19.930  24.926  1.00  0.00     0.267 C 
ATOM     10  N   UNL A   1      35.515  21.131  25.521  1.00  0.00    -0.330 N 
ATOM     11  C   UNL A   1      34.419  21.935  26.072  1.00  0.00     0.278 C 
ATOM     12  H   UNL A   1      36.129  20.865  26.292  1.00  0.00     0.348 HD
BRANCH   8  13
ATOM     13  C   UNL A   1      32.727  18.830  24.589  1.00  0.00     0.010 C 
BRANCH  13  14
ATOM     14  C   UNL A   1      32.606  18.138  23.233  1.00  0.00    -0.003 C 
ATOM     15  C   UNL A   1      33.647  17.060  23.028  1.00  0.00     0.004 C 
ENDBRANCH  13  14
ENDBRANCH   8  13
BRANCH  10  16
ATOM     16  C   UNL A   1      36.481  21.845  24.672  1.00  0.00     0.299 C 
BRANCH  16  17
ATOM     17  C   UNL A   1      37.683  22.391  25.404  1.00  0.00     0.014 A 
ATOM     18  C   UNL A   1      38.726  21.523  25.773  1.00  0.00     0.060 A 
ATOM     19  C   UNL A   1      37.724  23.729  25.819  1.00  0.00     0.060 A 
ATOM     20  C   UNL A   1      39.739  21.924  26.639  1.00  0.00     0.165 A 
ATOM     21  C   UNL A   1      38.741  24.114  26.661  1.00  0.00     0.170 A 
ATOM     22  C   UNL A   1      39.714  23.236  27.082  1.00  0.00     0.207 A 
ATOM     23  O   UNL A   1      38.862  25.356  27.205  1.00  0.00    -0.453 OA
ATOM     24  O   UNL A   1      40.559  23.840  27.961  1.00  0.00    -0.450 OA
ATOM     25  C   UNL A   1      40.062  25.189  27.976  1.00  0.00     0.468 C 
BRANCH  20  26
ATOM     26  O   UNL A   1      40.603  20.918  26.956  1.00  0.00    -0.493 OA
ATOM     27  C   UNL A   1      41.803  20.894  26.214  1.00  0.00     0.278 C 
ENDBRANCH  20  26
ENDBRANCH  16  17
ENDBRANCH  10  16
ENDBRANCH   5   7
ENDBRANCH   4   5
ENDBRANCH   3   4
ENDBRANCH   2   3
ENDBRANCH   1   2
BRANCH   1  28
ATOM     28  C   UNL A   1      31.881  28.147  25.851  1.00  0.00     0.202 C 
BRANCH  28  29
ATOM     29  C   UNL A   1      32.256  29.215  26.881  1.00  0.00     0.261 C 
BRANCH  29  30
ATOM     30  O   UNL A   1      33.573  29.739  26.678  1.00  0.00    -0.460 OA
BRANCH  30  31
ATOM     31  C   UNL A   1      33.842  30.912  27.302  1.00  0.00     0.338 C 
ATOM     32  O   UNL A   1      33.156  31.920  27.333  1.00  0.00    -0.246 OA
BRANCH  31  33
ATOM     33  C   UNL A   1      35.137  30.782  27.990  1.00  0.00     0.060 A 
ATOM     34  C   UNL A   1      36.069  31.822  27.915  1.00  0.00     0.016 A 
ATOM     35  C   UNL A   1      35.414  29.637  28.738  1.00  0.00     0.016 A 
ATOM     36  C   UNL A   1      37.281  31.722  28.610  1.00  0.00     0.010 A 
ATOM     37  C   UNL A   1      36.611  29.556  29.450  1.00  0.00     0.010 A 
ATOM     38  C   UNL A   1      37.565  30.586  29.382  1.00  0.00    -0.014 A 
BRANCH  38  39
ATOM     39  C   UNL A   1      38.891  30.391  30.029  1.00  0.00     0.031 A 
ATOM     40  C   UNL A   1      39.106  30.957  31.409  1.00  0.00     0.074 A 
ATOM     41  C   UNL A   1      39.920  29.800  29.385  1.00  0.00     0.049 A 
ATOM     42  N   UNL A   1      40.165  30.893  32.170  1.00  0.00    -0.248 NA
ATOM     43  C   UNL A   1      37.987  31.713  32.001  1.00  0.00     0.031 C 
ATOM     44  C   UNL A   1      39.879  29.259  28.030  1.00  0.00     0.029 A 
ATOM     45  N   UNL A   1      41.219  29.584  29.776  1.00  0.00    -0.354 N 
ATOM     46  C   UNL A   1      39.844  31.603  33.320  1.00  0.00     0.074 A 
ATOM     47  C   UNL A   1      38.526  32.160  33.124  1.00  0.00     0.031 C 
ATOM     48  C   UNL A   1      41.104  28.840  27.671  1.00  0.00     0.029 A 
ATOM     49  C   UNL A   1      42.008  29.013  28.801  1.00  0.00     0.049 A 
ATOM     50  H   UNL A   1      41.556  29.816  30.671  1.00  0.00     0.167 HD
ATOM     51  C   UNL A   1      40.550  31.725  34.468  1.00  0.00     0.034 A 
ATOM     52  C   UNL A   1      43.297  28.621  28.830  1.00  0.00     0.034 A 
ATOM     53  C   UNL A   1      41.827  31.111  34.684  1.00  0.00     0.049 A 
ATOM     54  C   UNL A   1      44.039  28.698  30.138  1.00  0.00     0.074 A 
ATOM     55  C   UNL A   1      42.582  31.073  35.841  1.00  0.00     0.029 A 
ATOM     56  N   UNL A   1      42.539  30.421  33.715  1.00  0.00    -0.354 N 
ATOM     57  N   UNL A   1      43.632  29.176  31.288  1.00  0.00    -0.248 NA
ATOM     58  C   UNL A   1      45.385  28.107  30.177  1.00  0.00     0.031 C 
ATOM     59  C   UNL A   1      43.754  30.358  35.570  1.00  0.00     0.029 A 
ATOM     60  C   UNL A   1      43.724  29.948  34.246  1.00  0.00     0.049 A 
ATOM     61  H   UNL A   1      42.244  30.286  32.786  1.00  0.00     0.167 HD
ATOM     62  C   UNL A   1      44.642  28.893  32.199  1.00  0.00     0.074 A 
ATOM     63  C   UNL A   1      45.679  28.193  31.468  1.00  0.00     0.031 C 
ATOM     64  C   UNL A   1      44.709  29.191  33.520  1.00  0.00     0.034 A 
BRANCH  51  65
ATOM     65  C   UNL A   1      39.897  32.474  35.595  1.00  0.00     0.023 A 
ATOM     66  C   UNL A   1      40.157  33.854  35.745  1.00  0.00     0.012 A 
ATOM     67  C   UNL A   1      39.038  31.830  36.504  1.00  0.00     0.148 A 
ATOM     68  C   UNL A   1      39.614  34.569  36.810  1.00  0.00     0.002 A 
ATOM     69  C   UNL A   1      38.465  32.562  37.539  1.00  0.00     0.091 A 
ATOM     70  F   UNL A   1      38.821  30.516  36.359  1.00  0.00    -0.205 F 
ATOM     71  C   UNL A   1      38.764  33.925  37.701  1.00  0.00     0.022 A 
BRANCH  69  72
ATOM     72  S   UNL A   1      37.306  31.841  38.706  1.00  0.00     0.127 S 
ATOM     73  O   UNL A   1      38.045  31.953  39.963  1.00  0.00    -0.237 OA
ATOM     74  O   UNL A   1      36.157  32.739  38.592  1.00  0.00    -0.237 OA
ATOM     75  O   UNL A   1      37.063  30.482  38.241  1.00  0.00    -0.744 OA
ENDBRANCH  69  72
ENDBRANCH  51  65
BRANCH  52  76
ATOM     76  C   UNL A   1      43.914  27.965  27.641  1.00  0.00     0.023 A 
ATOM     77  C   UNL A   1      44.667  28.748  26.742  1.00  0.00     0.012 A 
ATOM     78  C   UNL A   1      43.772  26.586  27.393  1.00  0.00     0.148 A 
ATOM     79  C   UNL A   1      45.229  28.182  25.597  1.00  0.00     0.002 A 
ATOM     80  C   UNL A   1      44.368  26.020  26.268  1.00  0.00     0.091 A 
ATOM     81  F   UNL A   1      43.050  25.856  28.255  1.00  0.00    -0.205 F 
ATOM     82  C   UNL A   1      45.084  26.819  25.363  1.00  0.00     0.022 A 
BRANCH  80  83
ATOM     83  S   UNL A   1      44.316  24.255  25.929  1.00  0.00     0.127 S 
ATOM     84  O   UNL A   1      45.415  24.101  24.979  1.00  0.00    -0.237 OA
ATOM     85  O   UNL A   1      44.565  23.683  27.254  1.00  0.00    -0.237 OA
ATOM     86  O   UNL A   1      42.983  23.997  25.406  1.00  0.00    -0.744 OA
ENDBRANCH  80  83
ENDBRANCH  52  76
BRANCH  64  87
ATOM     87  C   UNL A   1      45.923  28.737  34.282  1.00  0.00     0.023 A 
ATOM     88  C   UNL A   1      45.939  27.454  34.863  1.00  0.00     0.012 A 
ATOM     89  C   UNL A   1      47.082  29.535  34.323  1.00  0.00     0.148 A 
ATOM     90  C   UNL A   1      47.088  26.980  35.492  1.00  0.00     0.002 A 
ATOM     91  C   UNL A   1      48.239  29.036  34.910  1.00  0.00     0.091 A 
ATOM     92  F   UNL A   1      47.037  30.762  33.784  1.00  0.00    -0.205 F 
ATOM     93  C   UNL A   1      48.241  27.762  35.503  1.00  0.00     0.022 A 
BRANCH  91  94
ATOM     94  S   UNL A   1      49.795  29.932  34.872  1.00  0.00     0.127 S 
ATOM     95  O   UNL A   1      50.665  29.051  35.650  1.00  0.00    -0.237 OA
ATOM     96  O   UNL A   1      50.094  29.979  33.441  1.00  0.00    -0.237 OA
ATOM     97  O   UNL A   1      49.520  31.232  35.471  1.00  0.00    -0.744 OA
ENDBRANCH  91  94
ENDBRANCH  64  87
ENDBRANCH  38  39
ENDBRANCH  31  33
ENDBRANCH  30  31
ENDBRANCH  29  30
ENDBRANCH  28  29
ENDBRANCH   1  28
TORSDOF 22
ENDMDL
