MODEL 1
REMARK VINA RESULT:     -10.3      0.000      0.000
REMARK SMILES COc1cc(Br)c(N)c(C(=O)OCCOCCOC(=O)c2ccc(-c3c4nc(c(-c5cccc(S(=O)(=O)[O-])c5F)c5ccc([nH]5)c(-c5cccc(S(=O)(=O)[O-])c5F)c5nc(c(-c6cccc(S(=O)(=O)[O-])c6F)c6ccc3[nH]6)C=C5)C=C4)cc2)c1
REMARK SMILES IDX 16 1 15 2 14 3 13 4 12 5 10 6 11 7 9 8 3 9 4 10 84 11 5 12
REMARK SMILES IDX 6 13 7 14 2 15 1 16 8 17 17 20 18 21 19 22 20 23 21 24 22 25
REMARK SMILES IDX 83 26 23 27 82 28 24 29 25 30 26 31 76 32 27 33 81 34 75 35
REMARK SMILES IDX 77 36 28 37 80 38 74 39 73 40 29 42 61 43 41 44 60 45 42 46
REMARK SMILES IDX 45 47 59 48 78 49 43 50 44 51 58 53 79 54 46 55 30 56 31 57
REMARK SMILES IDX 39 58 32 59 34 60 40 61 33 62 35 63 36 64 37 65 38 66 62 67
REMARK SMILES IDX 63 68 71 69 64 70 66 71 72 72 65 73 67 74 68 75 69 76 70 77
REMARK SMILES IDX 47 78 48 79 56 80 49 81 51 82 57 83 50 84 52 85 53 86 54 87
REMARK SMILES IDX 55 88
REMARK H PARENT 8 18 8 19 77 41 45 52
REMARK Flexibility Score: inf
ROOT
ATOM      1  C   UNL A   1      35.344  20.727  25.369  1.00  0.00     0.202 C 
ENDROOT
BRANCH   1   2
ATOM      2  O   UNL A   1      34.510  20.970  24.236  1.00  0.00    -0.374 OA
BRANCH   2   3
ATOM      3  C   UNL A   1      33.943  22.277  24.116  1.00  0.00     0.202 C 
BRANCH   3   4
ATOM      4  C   UNL A   1      34.881  23.373  23.604  1.00  0.00     0.261 C 
BRANCH   4   5
ATOM      5  O   UNL A   1      34.400  24.676  23.978  1.00  0.00    -0.460 OA
BRANCH   5   6
ATOM      6  C   UNL A   1      33.763  25.365  22.999  1.00  0.00     0.340 C 
ATOM      7  O   UNL A   1      33.650  25.021  21.832  1.00  0.00    -0.246 OA
BRANCH   6   8
ATOM      8  C   UNL A   1      33.014  26.520  23.561  1.00  0.00     0.087 A 
ATOM      9  C   UNL A   1      32.799  27.968  25.503  1.00  0.00     0.121 A 
ATOM     10  C   UNL A   1      31.722  28.603  24.898  1.00  0.00     0.064 A 
ATOM     11  C   UNL A   1      33.421  26.911  24.852  1.00  0.00     0.064 A 
ATOM     12  C   UNL A   1      31.323  28.228  23.609  1.00  0.00     0.045 A 
ATOM     13  Br  UNL A   1      29.848  29.164  22.850  1.00  0.00    -0.048 Br
ATOM     14  C   UNL A   1      31.984  27.209  22.891  1.00  0.00     0.061 A 
BRANCH   9  15
ATOM     15  O   UNL A   1      33.126  28.376  26.766  1.00  0.00    -0.497 OA
ATOM     16  C   UNL A   1      34.417  28.975  26.863  1.00  0.00     0.278 C 
ENDBRANCH   9  15
BRANCH  14  17
ATOM     17  N   UNL A   1      31.533  26.829  21.629  1.00  0.00    -0.397 N 
ATOM     18  H   UNL A   1      30.575  26.895  21.410  1.00  0.00     0.156 HD
ATOM     19  H   UNL A   1      32.170  26.495  20.958  1.00  0.00     0.156 HD
ENDBRANCH  14  17
ENDBRANCH   6   8
ENDBRANCH   5   6
ENDBRANCH   4   5
ENDBRANCH   3   4
ENDBRANCH   2   3
ENDBRANCH   1   2
BRANCH   1  20
ATOM     20  C   UNL A   1      36.789  20.301  25.083  1.00  0.00     0.261 C 
BRANCH  20  21
ATOM     21  O   UNL A   1      37.711  21.401  25.168  1.00  0.00    -0.460 OA
BRANCH  21  22
ATOM     22  C   UNL A   1      38.817  21.164  25.912  1.00  0.00     0.338 C 
ATOM     23  O   UNL A   1      39.418  20.102  26.021  1.00  0.00    -0.246 OA
BRANCH  22  24
ATOM     24  C   UNL A   1      39.338  22.430  26.458  1.00  0.00     0.060 A 
ATOM     25  C   UNL A   1      38.685  23.613  26.089  1.00  0.00     0.016 A 
ATOM     26  C   UNL A   1      40.472  22.468  27.271  1.00  0.00     0.016 A 
ATOM     27  C   UNL A   1      39.188  24.846  26.501  1.00  0.00     0.010 A 
ATOM     28  C   UNL A   1      40.980  23.709  27.676  1.00  0.00     0.010 A 
ATOM     29  C   UNL A   1      40.359  24.902  27.269  1.00  0.00    -0.014 A 
BRANCH  29  30
ATOM     30  C   UNL A   1      40.985  26.214  27.564  1.00  0.00     0.031 A 
ATOM     31  C   UNL A   1      42.403  26.468  27.130  1.00  0.00     0.074 A 
ATOM     32  C   UNL A   1      40.298  27.165  28.222  1.00  0.00     0.049 A 
ATOM     33  N   UNL A   1      43.145  27.527  27.316  1.00  0.00    -0.248 NA
ATOM     34  C   UNL A   1      43.073  25.385  26.391  1.00  0.00     0.031 C 
ATOM     35  C   UNL A   1      38.919  27.037  28.692  1.00  0.00     0.029 A 
ATOM     36  N   UNL A   1      40.678  28.419  28.630  1.00  0.00    -0.354 N 
ATOM     37  C   UNL A   1      44.378  27.233  26.744  1.00  0.00     0.074 A 
ATOM     38  C   UNL A   1      44.285  25.890  26.211  1.00  0.00     0.031 C 
ATOM     39  C   UNL A   1      38.578  28.156  29.353  1.00  0.00     0.029 A 
ATOM     40  C   UNL A   1      39.721  29.068  29.373  1.00  0.00     0.049 A 
ATOM     41  H   UNL A   1      41.553  28.815  28.412  1.00  0.00     0.167 HD
ATOM     42  C   UNL A   1      45.481  28.013  26.659  1.00  0.00     0.034 A 
ATOM     43  C   UNL A   1      39.769  30.252  30.015  1.00  0.00     0.034 A 
ATOM     44  C   UNL A   1      45.564  29.354  27.171  1.00  0.00     0.049 A 
ATOM     45  C   UNL A   1      41.018  31.089  29.925  1.00  0.00     0.074 A 
ATOM     46  C   UNL A   1      46.620  30.244  27.083  1.00  0.00     0.029 A 
ATOM     47  N   UNL A   1      44.561  29.996  27.880  1.00  0.00    -0.354 N 
ATOM     48  N   UNL A   1      42.129  30.849  29.270  1.00  0.00    -0.248 NA
ATOM     49  C   UNL A   1      41.009  32.377  30.635  1.00  0.00     0.031 C 
ATOM     50  C   UNL A   1      46.266  31.414  27.762  1.00  0.00     0.029 A 
ATOM     51  C   UNL A   1      44.978  31.263  28.249  1.00  0.00     0.049 A 
ATOM     52  H   UNL A   1      43.681  29.607  28.090  1.00  0.00     0.167 HD
ATOM     53  C   UNL A   1      42.934  31.968  29.459  1.00  0.00     0.074 A 
ATOM     54  C   UNL A   1      42.175  32.895  30.273  1.00  0.00     0.031 C 
ATOM     55  C   UNL A   1      44.193  32.199  29.013  1.00  0.00     0.034 A 
BRANCH  42  56
ATOM     56  C   UNL A   1      46.688  27.447  25.960  1.00  0.00     0.023 A 
ATOM     57  C   UNL A   1      46.838  27.628  24.571  1.00  0.00     0.012 A 
ATOM     58  C   UNL A   1      47.708  26.802  26.687  1.00  0.00     0.148 A 
ATOM     59  C   UNL A   1      47.971  27.153  23.911  1.00  0.00     0.002 A 
ATOM     60  C   UNL A   1      48.853  26.368  26.030  1.00  0.00     0.091 A 
ATOM     61  F   UNL A   1      47.536  26.621  28.005  1.00  0.00    -0.205 F 
ATOM     62  C   UNL A   1      48.982  26.535  24.641  1.00  0.00     0.022 A 
BRANCH  60  63
ATOM     63  S   UNL A   1      50.244  25.628  26.893  1.00  0.00     0.127 S 
ATOM     64  O   UNL A   1      50.609  26.691  27.829  1.00  0.00    -0.237 OA
ATOM     65  O   UNL A   1      49.631  24.453  27.514  1.00  0.00    -0.237 OA
ATOM     66  O   UNL A   1      51.237  25.328  25.872  1.00  0.00    -0.744 OA
ENDBRANCH  60  63
ENDBRANCH  42  56
BRANCH  43  67
ATOM     67  C   UNL A   1      38.584  30.733  30.780  1.00  0.00     0.023 A 
ATOM     68  C   UNL A   1      38.521  30.521  32.171  1.00  0.00     0.012 A 
ATOM     69  C   UNL A   1      37.526  31.408  30.140  1.00  0.00     0.148 A 
ATOM     70  C   UNL A   1      37.413  30.946  32.905  1.00  0.00     0.002 A 
ATOM     71  C   UNL A   1      36.453  31.878  30.886  1.00  0.00     0.091 A 
ATOM     72  F   UNL A   1      37.596  31.583  28.813  1.00  0.00    -0.205 F 
ATOM     73  C   UNL A   1      36.385  31.632  32.266  1.00  0.00     0.022 A 
BRANCH  71  74
ATOM     74  S   UNL A   1      35.151  32.885  30.165  1.00  0.00     0.127 S 
ATOM     75  O   UNL A   1      35.910  34.001  29.609  1.00  0.00    -0.237 OA
ATOM     76  O   UNL A   1      34.578  31.974  29.174  1.00  0.00    -0.237 OA
ATOM     77  O   UNL A   1      34.257  33.211  31.267  1.00  0.00    -0.744 OA
ENDBRANCH  71  74
ENDBRANCH  43  67
BRANCH  55  78
ATOM     78  C   UNL A   1      44.826  33.523  29.359  1.00  0.00     0.023 A 
ATOM     79  C   UNL A   1      45.498  33.679  30.587  1.00  0.00     0.012 A 
ATOM     80  C   UNL A   1      44.821  34.587  28.434  1.00  0.00     0.148 A 
ATOM     81  C   UNL A   1      46.125  34.884  30.904  1.00  0.00     0.002 A 
ATOM     82  C   UNL A   1      45.489  35.768  28.737  1.00  0.00     0.091 A 
ATOM     83  F   UNL A   1      44.161  34.426  27.277  1.00  0.00    -0.205 F 
ATOM     84  C   UNL A   1      46.131  35.922  29.976  1.00  0.00     0.022 A 
BRANCH  82  85
ATOM     85  S   UNL A   1      45.630  37.121  27.563  1.00  0.00     0.127 S 
ATOM     86  O   UNL A   1      44.234  37.535  27.417  1.00  0.00    -0.237 OA
ATOM     87  O   UNL A   1      46.475  38.072  28.286  1.00  0.00    -0.237 OA
ATOM     88  O   UNL A   1      46.243  36.555  26.369  1.00  0.00    -0.744 OA
ENDBRANCH  82  85
ENDBRANCH  55  78
ENDBRANCH  29  30
ENDBRANCH  22  24
ENDBRANCH  21  22
ENDBRANCH  20  21
ENDBRANCH   1  20
TORSDOF 19
ENDMDL
MODEL 2
REMARK VINA RESULT:     -10.3      4.924     10.277
REMARK SMILES COc1cc(Br)c(N)c(C(=O)OCCOCCOC(=O)c2ccc(-c3c4nc(c(-c5cccc(S(=O)(=O)[O-])c5F)c5ccc([nH]5)c(-c5cccc(S(=O)(=O)[O-])c5F)c5nc(c(-c6cccc(S(=O)(=O)[O-])c6F)c6ccc3[nH]6)C=C5)C=C4)cc2)c1
REMARK SMILES IDX 16 1 15 2 14 3 13 4 12 5 10 6 11 7 9 8 3 9 4 10 84 11 5 12
REMARK SMILES IDX 6 13 7 14 2 15 1 16 8 17 17 20 18 21 19 22 20 23 21 24 22 25
REMARK SMILES IDX 83 26 23 27 82 28 24 29 25 30 26 31 76 32 27 33 81 34 75 35
REMARK SMILES IDX 77 36 28 37 80 38 74 39 73 40 29 42 61 43 41 44 60 45 42 46
REMARK SMILES IDX 45 47 59 48 78 49 43 50 44 51 58 53 79 54 46 55 30 56 31 57
REMARK SMILES IDX 39 58 32 59 34 60 40 61 33 62 35 63 36 64 37 65 38 66 62 67
REMARK SMILES IDX 63 68 71 69 64 70 66 71 72 72 65 73 67 74 68 75 69 76 70 77
REMARK SMILES IDX 47 78 48 79 56 80 49 81 51 82 57 83 50 84 52 85 53 86 54 87
REMARK SMILES IDX 55 88
REMARK H PARENT 8 18 8 19 77 41 45 52
REMARK Flexibility Score: inf
ROOT
ATOM      1  C   UNL A   1      32.201  29.637  25.150  1.00  0.00     0.202 C 
ENDROOT
BRANCH   1   2
ATOM      2  O   UNL A   1      31.278  28.549  25.102  1.00  0.00    -0.374 OA
BRANCH   2   3
ATOM      3  C   UNL A   1      31.380  27.567  26.137  1.00  0.00     0.202 C 
BRANCH   3   4
ATOM      4  C   UNL A   1      31.371  26.105  25.680  1.00  0.00     0.261 C 
BRANCH   4   5
ATOM      5  O   UNL A   1      32.424  25.363  26.318  1.00  0.00    -0.460 OA
BRANCH   5   6
ATOM      6  C   UNL A   1      32.096  24.108  26.712  1.00  0.00     0.340 C 
ATOM      7  O   UNL A   1      31.064  23.776  27.278  1.00  0.00    -0.246 OA
BRANCH   6   8
ATOM      8  C   UNL A   1      33.063  23.111  26.181  1.00  0.00     0.087 A 
ATOM      9  C   UNL A   1      35.407  22.731  25.655  1.00  0.00     0.121 A 
ATOM     10  C   UNL A   1      35.080  21.481  25.146  1.00  0.00     0.064 A 
ATOM     11  C   UNL A   1      34.400  23.555  26.141  1.00  0.00     0.064 A 
ATOM     12  C   UNL A   1      33.756  21.030  25.196  1.00  0.00     0.045 A 
ATOM     13  Br  UNL A   1      33.401  19.297  24.490  1.00  0.00    -0.048 Br
ATOM     14  C   UNL A   1      32.722  21.813  25.753  1.00  0.00     0.061 A 
BRANCH   9  15
ATOM     15  O   UNL A   1      36.717  23.113  25.561  1.00  0.00    -0.497 OA
ATOM     16  C   UNL A   1      37.629  22.022  25.448  1.00  0.00     0.278 C 
ENDBRANCH   9  15
BRANCH  14  17
ATOM     17  N   UNL A   1      31.407  21.353  25.746  1.00  0.00    -0.397 N 
ATOM     18  H   UNL A   1      31.225  20.387  25.682  1.00  0.00     0.156 HD
ATOM     19  H   UNL A   1      30.661  21.992  25.804  1.00  0.00     0.156 HD
ENDBRANCH  14  17
ENDBRANCH   6   8
ENDBRANCH   5   6
ENDBRANCH   4   5
ENDBRANCH   3   4
ENDBRANCH   2   3
ENDBRANCH   1   2
BRANCH   1  20
ATOM     20  C   UNL A   1      31.752  30.889  25.914  1.00  0.00     0.261 C 
BRANCH  20  21
ATOM     21  O   UNL A   1      32.348  30.978  27.219  1.00  0.00    -0.460 OA
BRANCH  21  22
ATOM     22  C   UNL A   1      33.181  32.029  27.397  1.00  0.00     0.338 C 
ATOM     23  O   UNL A   1      32.895  33.218  27.319  1.00  0.00    -0.246 OA
BRANCH  22  24
ATOM     24  C   UNL A   1      34.487  31.559  27.891  1.00  0.00     0.060 A 
ATOM     25  C   UNL A   1      34.641  30.184  28.110  1.00  0.00     0.016 A 
ATOM     26  C   UNL A   1      35.525  32.446  28.184  1.00  0.00     0.016 A 
ATOM     27  C   UNL A   1      35.823  29.693  28.663  1.00  0.00     0.010 A 
ATOM     28  C   UNL A   1      36.708  31.950  28.746  1.00  0.00     0.010 A 
ATOM     29  C   UNL A   1      36.851  30.578  29.015  1.00  0.00    -0.014 A 
BRANCH  29  30
ATOM     30  C   UNL A   1      38.035  30.077  29.755  1.00  0.00     0.031 A 
ATOM     31  C   UNL A   1      38.295  30.570  31.152  1.00  0.00     0.074 A 
ATOM     32  C   UNL A   1      38.875  29.197  29.180  1.00  0.00     0.049 A 
ATOM     33  N   UNL A   1      39.285  30.286  31.956  1.00  0.00    -0.248 NA
ATOM     34  C   UNL A   1      37.311  31.509  31.716  1.00  0.00     0.031 C 
ATOM     35  C   UNL A   1      38.728  28.646  27.834  1.00  0.00     0.029 A 
ATOM     36  N   UNL A   1      40.035  28.634  29.650  1.00  0.00    -0.354 N 
ATOM     37  C   UNL A   1      39.063  31.029  33.110  1.00  0.00     0.074 A 
ATOM     38  C   UNL A   1      37.846  31.784  32.898  1.00  0.00     0.031 C 
ATOM     39  C   UNL A   1      39.776  27.847  27.573  1.00  0.00     0.029 A 
ATOM     40  C   UNL A   1      40.678  27.848  28.723  1.00  0.00     0.049 A 
ATOM     41  H   UNL A   1      40.374  28.778  30.564  1.00  0.00     0.167 HD
ATOM     42  C   UNL A   1      39.797  31.068  34.247  1.00  0.00     0.034 A 
ATOM     43  C   UNL A   1      41.869  27.221  28.788  1.00  0.00     0.034 A 
ATOM     44  C   UNL A   1      40.993  30.302  34.464  1.00  0.00     0.049 A 
ATOM     45  C   UNL A   1      42.678  27.302  30.057  1.00  0.00     0.074 A 
ATOM     46  C   UNL A   1      41.775  30.232  35.604  1.00  0.00     0.029 A 
ATOM     47  N   UNL A   1      41.593  29.483  33.520  1.00  0.00    -0.354 N 
ATOM     48  N   UNL A   1      42.387  27.906  31.184  1.00  0.00    -0.248 NA
ATOM     49  C   UNL A   1      43.963  26.588  30.073  1.00  0.00     0.031 C 
ATOM     50  C   UNL A   1      42.862  29.393  35.340  1.00  0.00     0.029 A 
ATOM     51  C   UNL A   1      42.742  28.917  34.045  1.00  0.00     0.049 A 
ATOM     52  H   UNL A   1      41.252  29.328  32.609  1.00  0.00     0.167 HD
ATOM     53  C   UNL A   1      43.434  27.615  32.054  1.00  0.00     0.074 A 
ATOM     54  C   UNL A   1      44.355  26.764  31.328  1.00  0.00     0.031 C 
ATOM     55  C   UNL A   1      43.623  28.028  33.331  1.00  0.00     0.034 A 
BRANCH  42  56
ATOM     56  C   UNL A   1      39.312  31.953  35.364  1.00  0.00     0.023 A 
ATOM     57  C   UNL A   1      38.436  31.431  36.337  1.00  0.00     0.012 A 
ATOM     58  C   UNL A   1      39.778  33.276  35.492  1.00  0.00     0.148 A 
ATOM     59  C   UNL A   1      38.012  32.220  37.407  1.00  0.00     0.002 A 
ATOM     60  C   UNL A   1      39.384  34.043  36.583  1.00  0.00     0.091 A 
ATOM     61  F   UNL A   1      40.594  33.760  34.544  1.00  0.00    -0.205 F 
ATOM     62  C   UNL A   1      38.494  33.519  37.535  1.00  0.00     0.022 A 
BRANCH  60  63
ATOM     63  S   UNL A   1      40.009  35.701  36.878  1.00  0.00     0.127 S 
ATOM     64  O   UNL A   1      41.440  35.451  37.044  1.00  0.00    -0.237 OA
ATOM     65  O   UNL A   1      39.651  36.391  35.638  1.00  0.00    -0.237 OA
ATOM     66  O   UNL A   1      39.319  36.185  38.065  1.00  0.00    -0.744 OA
ENDBRANCH  60  63
ENDBRANCH  42  56
BRANCH  43  67
ATOM     67  C   UNL A   1      42.361  26.434  27.622  1.00  0.00     0.023 A 
ATOM     68  C   UNL A   1      43.149  27.065  26.639  1.00  0.00     0.012 A 
ATOM     69  C   UNL A   1      42.062  25.064  27.487  1.00  0.00     0.148 A 
ATOM     70  C   UNL A   1      43.604  26.352  25.529  1.00  0.00     0.002 A 
ATOM     71  C   UNL A   1      42.565  24.348  26.409  1.00  0.00     0.091 A 
ATOM     72  F   UNL A   1      41.294  24.487  28.422  1.00  0.00    -0.205 F 
ATOM     73  C   UNL A   1      43.322  24.994  25.418  1.00  0.00     0.022 A 
BRANCH  71  74
ATOM     74  S   UNL A   1      42.361  22.569  26.257  1.00  0.00     0.127 S 
ATOM     75  O   UNL A   1      43.033  22.088  27.461  1.00  0.00    -0.237 OA
ATOM     76  O   UNL A   1      40.904  22.431  26.266  1.00  0.00    -0.237 OA
ATOM     77  O   UNL A   1      42.988  22.212  24.993  1.00  0.00    -0.744 OA
ENDBRANCH  71  74
ENDBRANCH  43  67
BRANCH  55  78
ATOM     78  C   UNL A   1      44.854  27.539  34.050  1.00  0.00     0.023 A 
ATOM     79  C   UNL A   1      46.031  28.315  34.035  1.00  0.00     0.012 A 
ATOM     80  C   UNL A   1      44.822  26.349  34.805  1.00  0.00     0.148 A 
ATOM     81  C   UNL A   1      47.165  27.897  34.729  1.00  0.00     0.002 A 
ATOM     82  C   UNL A   1      45.941  25.964  35.534  1.00  0.00     0.091 A 
ATOM     83  F   UNL A   1      43.700  25.615  34.794  1.00  0.00    -0.205 F 
ATOM     84  C   UNL A   1      47.117  26.730  35.488  1.00  0.00     0.022 A 
BRANCH  82  85
ATOM     85  S   UNL A   1      45.938  24.527  36.614  1.00  0.00     0.127 S 
ATOM     86  O   UNL A   1      47.304  24.544  37.136  1.00  0.00    -0.237 OA
ATOM     87  O   UNL A   1      44.907  24.877  37.592  1.00  0.00    -0.237 OA
ATOM     88  O   UNL A   1      45.606  23.389  35.767  1.00  0.00    -0.744 OA
ENDBRANCH  82  85
ENDBRANCH  55  78
ENDBRANCH  29  30
ENDBRANCH  22  24
ENDBRANCH  21  22
ENDBRANCH  20  21
ENDBRANCH   1  20
TORSDOF 19
ENDMDL
MODEL 3
REMARK VINA RESULT:     -10.3      5.028      7.839
REMARK SMILES COc1cc(Br)c(N)c(C(=O)OCCOCCOC(=O)c2ccc(-c3c4nc(c(-c5cccc(S(=O)(=O)[O-])c5F)c5ccc([nH]5)c(-c5cccc(S(=O)(=O)[O-])c5F)c5nc(c(-c6cccc(S(=O)(=O)[O-])c6F)c6ccc3[nH]6)C=C5)C=C4)cc2)c1
REMARK SMILES IDX 16 1 15 2 14 3 13 4 12 5 10 6 11 7 9 8 3 9 4 10 84 11 5 12
REMARK SMILES IDX 6 13 7 14 2 15 1 16 8 17 17 20 18 21 19 22 20 23 21 24 22 25
REMARK SMILES IDX 83 26 23 27 82 28 24 29 25 30 26 31 76 32 27 33 81 34 75 35
REMARK SMILES IDX 77 36 28 37 80 38 74 39 73 40 29 42 61 43 41 44 60 45 42 46
REMARK SMILES IDX 45 47 59 48 78 49 43 50 44 51 58 53 79 54 46 55 30 56 31 57
REMARK SMILES IDX 39 58 32 59 34 60 40 61 33 62 35 63 36 64 37 65 38 66 62 67
REMARK SMILES IDX 63 68 71 69 64 70 66 71 72 72 65 73 67 74 68 75 69 76 70 77
REMARK SMILES IDX 47 78 48 79 56 80 49 81 51 82 57 83 50 84 52 85 53 86 54 87
REMARK SMILES IDX 55 88
REMARK H PARENT 8 18 8 19 77 41 45 52
REMARK Flexibility Score: inf
ROOT
ATOM      1  C   UNL A   1      32.161  29.322  24.962  1.00  0.00     0.202 C 
ENDROOT
BRANCH   1   2
ATOM      2  O   UNL A   1      33.136  28.520  25.630  1.00  0.00    -0.374 OA
BRANCH   2   3
ATOM      3  C   UNL A   1      32.681  27.294  26.208  1.00  0.00     0.202 C 
BRANCH   3   4
ATOM      4  C   UNL A   1      31.168  27.058  26.180  1.00  0.00     0.261 C 
BRANCH   4   5
ATOM      5  O   UNL A   1      30.828  26.028  25.235  1.00  0.00    -0.460 OA
BRANCH   5   6
ATOM      6  C   UNL A   1      30.834  24.764  25.726  1.00  0.00     0.340 C 
ATOM      7  O   UNL A   1      30.194  24.359  26.685  1.00  0.00    -0.246 OA
BRANCH   6   8
ATOM      8  C   UNL A   1      31.564  23.842  24.816  1.00  0.00     0.087 A 
ATOM      9  C   UNL A   1      32.803  23.712  22.727  1.00  0.00     0.121 A 
ATOM     10  C   UNL A   1      32.910  22.336  22.887  1.00  0.00     0.064 A 
ATOM     11  C   UNL A   1      32.106  24.457  23.669  1.00  0.00     0.064 A 
ATOM     12  C   UNL A   1      32.386  21.723  24.032  1.00  0.00     0.045 A 
ATOM     13  Br  UNL A   1      32.594  19.835  24.177  1.00  0.00    -0.048 Br
ATOM     14  C   UNL A   1      31.739  22.463  25.045  1.00  0.00     0.061 A 
BRANCH   9  15
ATOM     15  O   UNL A   1      33.326  24.242  21.580  1.00  0.00    -0.497 OA
ATOM     16  C   UNL A   1      32.837  25.548  21.274  1.00  0.00     0.278 C 
ENDBRANCH   9  15
BRANCH  14  17
ATOM     17  N   UNL A   1      31.189  21.815  26.148  1.00  0.00    -0.397 N 
ATOM     18  H   UNL A   1      31.272  20.838  26.237  1.00  0.00     0.156 HD
ATOM     19  H   UNL A   1      30.717  22.334  26.838  1.00  0.00     0.156 HD
ENDBRANCH  14  17
ENDBRANCH   6   8
ENDBRANCH   5   6
ENDBRANCH   4   5
ENDBRANCH   3   4
ENDBRANCH   2   3
ENDBRANCH   1   2
BRANCH   1  20
ATOM     20  C   UNL A   1      31.606  30.522  25.740  1.00  0.00     0.261 C 
BRANCH  20  21
ATOM     21  O   UNL A   1      32.200  30.651  27.043  1.00  0.00    -0.460 OA
BRANCH  21  22
ATOM     22  C   UNL A   1      32.922  31.779  27.233  1.00  0.00     0.338 C 
ATOM     23  O   UNL A   1      32.525  32.935  27.137  1.00  0.00    -0.246 OA
BRANCH  22  24
ATOM     24  C   UNL A   1      34.255  31.441  27.762  1.00  0.00     0.060 A 
ATOM     25  C   UNL A   1      34.500  30.103  28.097  1.00  0.00     0.016 A 
ATOM     26  C   UNL A   1      35.230  32.417  27.978  1.00  0.00     0.016 A 
ATOM     27  C   UNL A   1      35.709  29.740  28.687  1.00  0.00     0.010 A 
ATOM     28  C   UNL A   1      36.441  32.051  28.578  1.00  0.00     0.010 A 
ATOM     29  C   UNL A   1      36.675  30.719  28.962  1.00  0.00    -0.014 A 
BRANCH  29  30
ATOM     30  C   UNL A   1      37.886  30.362  29.739  1.00  0.00     0.031 A 
ATOM     31  C   UNL A   1      38.891  29.414  29.144  1.00  0.00     0.074 A 
ATOM     32  C   UNL A   1      38.082  30.872  30.968  1.00  0.00     0.049 A 
ATOM     33  N   UNL A   1      39.995  28.948  29.665  1.00  0.00    -0.248 NA
ATOM     34  C   UNL A   1      38.615  28.925  27.783  1.00  0.00     0.031 C 
ATOM     35  C   UNL A   1      37.181  31.800  31.650  1.00  0.00     0.029 A 
ATOM     36  N   UNL A   1      39.093  30.659  31.871  1.00  0.00    -0.354 N 
ATOM     37  C   UNL A   1      40.533  28.090  28.712  1.00  0.00     0.074 A 
ATOM     38  C   UNL A   1      39.628  28.094  27.582  1.00  0.00     0.031 C 
ATOM     39  C   UNL A   1      37.664  32.054  32.878  1.00  0.00     0.029 A 
ATOM     40  C   UNL A   1      38.893  31.288  33.077  1.00  0.00     0.049 A 
ATOM     41  H   UNL A   1      39.886  30.108  31.675  1.00  0.00     0.167 HD
ATOM     42  C   UNL A   1      41.682  27.376  28.768  1.00  0.00     0.034 A 
ATOM     43  C   UNL A   1      39.607  31.234  34.219  1.00  0.00     0.034 A 
ATOM     44  C   UNL A   1      42.590  27.389  29.882  1.00  0.00     0.049 A 
ATOM     45  C   UNL A   1      40.869  30.410  34.261  1.00  0.00     0.074 A 
ATOM     46  C   UNL A   1      43.807  26.742  30.007  1.00  0.00     0.029 A 
ATOM     47  N   UNL A   1      42.377  28.071  31.070  1.00  0.00    -0.354 N 
ATOM     48  N   UNL A   1      41.429  29.708  33.305  1.00  0.00    -0.248 NA
ATOM     49  C   UNL A   1      41.613  30.398  35.528  1.00  0.00     0.031 C 
ATOM     50  C   UNL A   1      44.317  27.010  31.282  1.00  0.00     0.029 A 
ATOM     51  C   UNL A   1      43.431  27.848  31.940  1.00  0.00     0.049 A 
ATOM     52  H   UNL A   1      41.591  28.631  31.266  1.00  0.00     0.167 HD
ATOM     53  C   UNL A   1      42.607  29.201  33.845  1.00  0.00     0.074 A 
ATOM     54  C   UNL A   1      42.690  29.695  35.204  1.00  0.00     0.031 C 
ATOM     55  C   UNL A   1      43.529  28.388  33.271  1.00  0.00     0.034 A 
BRANCH  42  56
ATOM     56  C   UNL A   1      42.042  26.533  27.573  1.00  0.00     0.023 A 
ATOM     57  C   UNL A   1      42.689  27.126  26.471  1.00  0.00     0.012 A 
ATOM     58  C   UNL A   1      41.806  25.144  27.571  1.00  0.00     0.148 A 
ATOM     59  C   UNL A   1      43.074  26.356  25.374  1.00  0.00     0.002 A 
ATOM     60  C   UNL A   1      42.229  24.376  26.492  1.00  0.00     0.091 A 
ATOM     61  F   UNL A   1      41.169  24.603  28.619  1.00  0.00    -0.205 F 
ATOM     62  C   UNL A   1      42.854  24.981  25.390  1.00  0.00     0.022 A 
BRANCH  60  63
ATOM     63  S   UNL A   1      42.060  22.588  26.452  1.00  0.00     0.127 S 
ATOM     64  O   UNL A   1      40.607  22.428  26.459  1.00  0.00    -0.237 OA
ATOM     65  O   UNL A   1      42.704  22.247  25.182  1.00  0.00    -0.237 OA
ATOM     66  O   UNL A   1      42.749  22.092  27.635  1.00  0.00    -0.744 OA
ENDBRANCH  60  63
ENDBRANCH  42  56
BRANCH  43  67
ATOM     67  C   UNL A   1      39.163  32.006  35.413  1.00  0.00     0.023 A 
ATOM     68  C   UNL A   1      38.259  31.422  36.322  1.00  0.00     0.012 A 
ATOM     69  C   UNL A   1      39.639  33.309  35.659  1.00  0.00     0.148 A 
ATOM     70  C   UNL A   1      37.815  32.134  37.438  1.00  0.00     0.002 A 
ATOM     71  C   UNL A   1      39.236  33.990  36.800  1.00  0.00     0.091 A 
ATOM     72  F   UNL A   1      40.483  33.854  34.771  1.00  0.00    -0.205 F 
ATOM     73  C   UNL A   1      38.309  33.411  37.682  1.00  0.00     0.022 A 
BRANCH  71  74
ATOM     74  S   UNL A   1      39.923  35.585  37.260  1.00  0.00     0.127 S 
ATOM     75  O   UNL A   1      39.174  35.895  38.474  1.00  0.00    -0.237 OA
ATOM     76  O   UNL A   1      41.333  35.255  37.472  1.00  0.00    -0.237 OA
ATOM     77  O   UNL A   1      39.678  36.457  36.120  1.00  0.00    -0.744 OA
ENDBRANCH  71  74
ENDBRANCH  43  67
BRANCH  55  78
ATOM     78  C   UNL A   1      44.733  28.006  34.093  1.00  0.00     0.023 A 
ATOM     79  C   UNL A   1      45.933  28.732  33.961  1.00  0.00     0.012 A 
ATOM     80  C   UNL A   1      44.652  26.975  35.052  1.00  0.00     0.148 A 
ATOM     81  C   UNL A   1      47.043  28.417  34.744  1.00  0.00     0.002 A 
ATOM     82  C   UNL A   1      45.747  26.699  35.863  1.00  0.00     0.091 A 
ATOM     83  F   UNL A   1      43.508  26.282  35.151  1.00  0.00    -0.205 F 
ATOM     84  C   UNL A   1      46.946  27.411  35.702  1.00  0.00     0.022 A 
BRANCH  82  85
ATOM     85  S   UNL A   1      45.682  25.485  37.186  1.00  0.00     0.127 S 
ATOM     86  O   UNL A   1      47.029  25.584  37.747  1.00  0.00    -0.237 OA
ATOM     87  O   UNL A   1      44.624  26.019  38.045  1.00  0.00    -0.237 OA
ATOM     88  O   UNL A   1      45.359  24.215  36.551  1.00  0.00    -0.744 OA
ENDBRANCH  82  85
ENDBRANCH  55  78
ENDBRANCH  29  30
ENDBRANCH  22  24
ENDBRANCH  21  22
ENDBRANCH  20  21
ENDBRANCH   1  20
TORSDOF 19
ENDMDL
