MODEL 1
REMARK VINA RESULT:     -13.5      0.000      0.000
REMARK SMILES Cc1cccc(N2CCN(c3ncc(NC(=O)c4ccccc4F)cc3C(=O)OCCOCCOC(=O)c3ccc(-c4c5nc(c(-c6cccc(S(=O)(=O)[O-])c6F)c6ccc([nH]6)c(-c6cccc(S(=O)(=O)[O-])c6F)c6nc(c(-c7cccc(S(=O)(=O)[O-])c7F)c7ccc4[nH]7)C=C6)C=C5)cc3)C[C@@H]2C)c1
REMARK SMILES IDX 33 1 32 2 31 3 30 4 29 5 27 6 28 7 26 8 11 9 12 10 13 11
REMARK SMILES IDX 25 12 14 13 10 14 7 15 8 16 102 17 9 18 101 19 103 20 6 21
REMARK SMILES IDX 1 22 2 23 3 24 104 25 4 26 5 27 15 28 16 29 17 31 18 32
REMARK SMILES IDX 19 33 23 34 20 35 22 36 24 37 21 38 34 39 35 40 36 41 37 42
REMARK SMILES IDX 38 43 39 44 100 45 40 46 99 47 41 48 42 49 43 50 93 51 44 52
REMARK SMILES IDX 98 53 92 54 94 55 45 56 97 57 91 58 90 59 46 61 78 62 58 63
REMARK SMILES IDX 77 64 59 65 62 66 76 67 95 68 60 69 61 70 75 72 96 73 63 74
REMARK SMILES IDX 47 75 48 76 56 77 49 78 51 79 57 80 50 81 52 82 53 83 54 84
REMARK SMILES IDX 55 85 79 86 80 87 88 88 81 89 83 90 89 91 82 92 84 93 85 94
REMARK SMILES IDX 86 95 87 96 64 97 65 98 73 99 66 100 68 101 74 102 67 103
REMARK SMILES IDX 69 104 70 105 71 106 72 107
REMARK H PARENT 15 30 94 60 62 71
REMARK Flexibility Score: inf
ROOT
ATOM      1  C   UNL A   1      32.090  30.216  26.824  1.00  0.00     0.202 C 
ENDROOT
BRANCH   1   2
ATOM      2  O   UNL A   1      32.736  29.018  27.174  1.00  0.00    -0.374 OA
BRANCH   2   3
ATOM      3  C   UNL A   1      31.916  27.861  27.226  1.00  0.00     0.202 C 
BRANCH   3   4
ATOM      4  C   UNL A   1      32.582  26.900  26.295  1.00  0.00     0.261 C 
BRANCH   4   5
ATOM      5  O   UNL A   1      32.203  25.547  26.630  1.00  0.00    -0.460 OA
BRANCH   5   6
ATOM      6  C   UNL A   1      31.037  25.024  26.125  1.00  0.00     0.342 C 
ATOM      7  O   UNL A   1      29.926  25.219  26.548  1.00  0.00    -0.246 OA
BRANCH   6   8
ATOM      8  C   UNL A   1      31.373  24.240  24.910  1.00  0.00     0.104 A 
ATOM      9  C   UNL A   1      31.315  24.750  23.599  1.00  0.00     0.143 A 
ATOM     10  N   UNL A   1      31.777  23.993  22.563  1.00  0.00    -0.236 NA
ATOM     11  C   UNL A   1      32.302  22.763  22.826  1.00  0.00     0.139 A 
ATOM     12  C   UNL A   1      31.825  22.927  25.120  1.00  0.00     0.047 A 
ATOM     13  C   UNL A   1      32.360  22.190  24.087  1.00  0.00     0.061 A 
BRANCH   9  14
ATOM     14  N   UNL A   1      30.761  25.977  23.285  1.00  0.00    -0.352 N 
ATOM     15  N   UNL A   1      29.507  28.519  22.615  1.00  0.00    -0.365 N 
ATOM     16  C   UNL A   1      28.970  27.630  23.684  1.00  0.00     0.138 C 
ATOM     17  C   UNL A   1      30.938  28.276  22.265  1.00  0.00     0.098 C 
ATOM     18  C   UNL A   1      29.307  26.141  23.429  1.00  0.00     0.139 C 
ATOM     19  C   UNL A   1      31.305  26.756  22.165  1.00  0.00     0.142 C 
ATOM     20  C   UNL A   1      31.826  28.939  23.296  1.00  0.00     0.033 C 
BRANCH  15  21
ATOM     21  C   UNL A   1      29.166  29.891  22.693  1.00  0.00     0.037 A 
ATOM     22  C   UNL A   1      27.827  32.673  20.403  1.00  0.00     0.044 C 
ATOM     23  C   UNL A   1      28.403  31.958  21.585  1.00  0.00    -0.049 A 
ATOM     24  C   UNL A   1      28.604  32.670  22.764  1.00  0.00     0.003 A 
ATOM     25  C   UNL A   1      28.688  30.577  21.559  1.00  0.00     0.029 A 
ATOM     26  C   UNL A   1      29.112  32.022  23.877  1.00  0.00     0.002 A 
ATOM     27  C   UNL A   1      29.369  30.650  23.854  1.00  0.00     0.026 A 
ENDBRANCH  15  21
ENDBRANCH   9  14
BRANCH  13  28
ATOM     28  N   UNL A   1      32.926  20.956  24.452  1.00  0.00    -0.320 N 
ATOM     29  C   UNL A   1      34.210  20.606  24.777  1.00  0.00     0.258 C 
ATOM     30  H   UNL A   1      32.284  20.209  24.479  1.00  0.00     0.170 HD
ATOM     31  O   UNL A   1      34.519  19.424  24.913  1.00  0.00    -0.269 OA
BRANCH  29  32
ATOM     32  C   UNL A   1      35.229  21.631  25.028  1.00  0.00     0.075 A 
ATOM     33  C   UNL A   1      36.089  21.974  23.982  1.00  0.00     0.017 A 
ATOM     34  C   UNL A   1      35.366  22.237  26.277  1.00  0.00     0.135 A 
ATOM     35  C   UNL A   1      37.026  22.990  24.171  1.00  0.00     0.001 A 
ATOM     36  C   UNL A   1      36.285  23.263  26.460  1.00  0.00     0.040 A 
ATOM     37  F   UNL A   1      34.613  21.858  27.319  1.00  0.00    -0.206 F 
ATOM     38  C   UNL A   1      37.108  23.648  25.401  1.00  0.00     0.003 A 
ENDBRANCH  29  32
ENDBRANCH  13  28
ENDBRANCH   6   8
ENDBRANCH   5   6
ENDBRANCH   4   5
ENDBRANCH   3   4
ENDBRANCH   2   3
ENDBRANCH   1   2
BRANCH   1  39
ATOM     39  C   UNL A   1      32.890  31.443  27.256  1.00  0.00     0.261 C 
BRANCH  39  40
ATOM     40  O   UNL A   1      34.299  31.154  27.115  1.00  0.00    -0.460 OA
BRANCH  40  41
ATOM     41  C   UNL A   1      35.075  31.418  28.213  1.00  0.00     0.338 C 
ATOM     42  O   UNL A   1      35.128  32.508  28.757  1.00  0.00    -0.246 OA
BRANCH  41  43
ATOM     43  C   UNL A   1      36.004  30.269  28.477  1.00  0.00     0.060 A 
ATOM     44  C   UNL A   1      36.146  29.703  29.755  1.00  0.00     0.016 A 
ATOM     45  C   UNL A   1      36.940  29.946  27.515  1.00  0.00     0.016 A 
ATOM     46  C   UNL A   1      37.323  28.994  30.116  1.00  0.00     0.010 A 
ATOM     47  C   UNL A   1      38.106  29.311  27.907  1.00  0.00     0.010 A 
ATOM     48  C   UNL A   1      38.366  28.883  29.211  1.00  0.00    -0.014 A 
BRANCH  48  49
ATOM     49  C   UNL A   1      39.774  28.451  29.407  1.00  0.00     0.031 A 
ATOM     50  C   UNL A   1      40.156  27.050  29.029  1.00  0.00     0.074 A 
ATOM     51  C   UNL A   1      40.781  29.369  29.471  1.00  0.00     0.049 A 
ATOM     52  N   UNL A   1      41.350  26.572  29.128  1.00  0.00    -0.248 NA
ATOM     53  C   UNL A   1      39.216  26.064  28.495  1.00  0.00     0.031 C 
ATOM     54  C   UNL A   1      42.134  29.240  28.904  1.00  0.00     0.029 A 
ATOM     55  N   UNL A   1      40.809  30.674  29.981  1.00  0.00    -0.354 N 
ATOM     56  C   UNL A   1      41.408  25.382  28.433  1.00  0.00     0.074 A 
ATOM     57  C   UNL A   1      40.038  25.079  28.110  1.00  0.00     0.031 C 
ATOM     58  C   UNL A   1      42.904  30.263  29.309  1.00  0.00     0.029 A 
ATOM     59  C   UNL A   1      42.137  31.013  30.281  1.00  0.00     0.049 A 
ATOM     60  H   UNL A   1      40.026  31.255  30.109  1.00  0.00     0.167 HD
ATOM     61  C   UNL A   1      42.631  24.864  28.116  1.00  0.00     0.034 A 
ATOM     62  C   UNL A   1      42.509  31.393  31.532  1.00  0.00     0.034 A 
ATOM     63  C   UNL A   1      43.703  25.722  28.650  1.00  0.00     0.049 A 
ATOM     64  C   UNL A   1      43.476  30.388  32.094  1.00  0.00     0.074 A 
ATOM     65  C   UNL A   1      44.529  26.683  28.089  1.00  0.00     0.029 A 
ATOM     66  N   UNL A   1      43.823  25.863  30.029  1.00  0.00    -0.354 N 
ATOM     67  N   UNL A   1      43.762  29.286  31.459  1.00  0.00    -0.248 NA
ATOM     68  C   UNL A   1      44.237  30.506  33.331  1.00  0.00     0.031 C 
ATOM     69  C   UNL A   1      45.100  27.442  29.148  1.00  0.00     0.029 A 
ATOM     70  C   UNL A   1      44.646  26.931  30.354  1.00  0.00     0.049 A 
ATOM     71  H   UNL A   1      43.383  25.280  30.689  1.00  0.00     0.167 HD
ATOM     72  C   UNL A   1      44.617  28.516  32.172  1.00  0.00     0.074 A 
ATOM     73  C   UNL A   1      44.926  29.346  33.326  1.00  0.00     0.031 C 
ATOM     74  C   UNL A   1      44.931  27.253  31.756  1.00  0.00     0.034 A 
BRANCH  61  75
ATOM     75  C   UNL A   1      42.910  23.732  27.130  1.00  0.00     0.023 A 
ATOM     76  C   UNL A   1      43.597  24.071  25.938  1.00  0.00     0.012 A 
ATOM     77  C   UNL A   1      42.537  22.373  27.252  1.00  0.00     0.148 A 
ATOM     78  C   UNL A   1      43.808  23.164  24.893  1.00  0.00     0.002 A 
ATOM     79  C   UNL A   1      42.695  21.473  26.181  1.00  0.00     0.091 A 
ATOM     80  F   UNL A   1      42.047  21.927  28.414  1.00  0.00    -0.205 F 
ATOM     81  C   UNL A   1      43.326  21.872  25.000  1.00  0.00     0.022 A 
BRANCH  79  82
ATOM     82  S   UNL A   1      42.028  19.792  26.179  1.00  0.00     0.127 S 
ATOM     83  O   UNL A   1      40.590  20.028  26.037  1.00  0.00    -0.237 OA
ATOM     84  O   UNL A   1      42.657  19.199  25.001  1.00  0.00    -0.237 OA
ATOM     85  O   UNL A   1      42.412  19.200  27.456  1.00  0.00    -0.744 OA
ENDBRANCH  79  82
ENDBRANCH  61  75
BRANCH  62  86
ATOM     86  C   UNL A   1      41.448  32.226  32.183  1.00  0.00     0.023 A 
ATOM     87  C   UNL A   1      41.106  33.418  31.484  1.00  0.00     0.012 A 
ATOM     88  C   UNL A   1      40.483  31.652  33.034  1.00  0.00     0.148 A 
ATOM     89  C   UNL A   1      39.802  33.922  31.502  1.00  0.00     0.002 A 
ATOM     90  C   UNL A   1      39.180  32.158  33.039  1.00  0.00     0.091 A 
ATOM     91  F   UNL A   1      40.826  30.570  33.746  1.00  0.00    -0.205 F 
ATOM     92  C   UNL A   1      38.829  33.262  32.240  1.00  0.00     0.022 A 
BRANCH  90  93
ATOM     93  S   UNL A   1      37.834  31.369  33.936  1.00  0.00     0.127 S 
ATOM     94  O   UNL A   1      37.862  30.018  33.383  1.00  0.00    -0.237 OA
ATOM     95  O   UNL A   1      38.287  31.464  35.326  1.00  0.00    -0.237 OA
ATOM     96  O   UNL A   1      36.645  32.153  33.635  1.00  0.00    -0.744 OA
ENDBRANCH  90  93
ENDBRANCH  62  86
BRANCH  74  97
ATOM     97  C   UNL A   1      45.524  26.197  32.654  1.00  0.00     0.023 A 
ATOM     98  C   UNL A   1      46.914  25.998  32.736  1.00  0.00     0.012 A 
ATOM     99  C   UNL A   1      44.718  25.500  33.586  1.00  0.00     0.148 A 
ATOM    100  C   UNL A   1      47.477  25.102  33.646  1.00  0.00     0.002 A 
ATOM    101  C   UNL A   1      45.295  24.722  34.580  1.00  0.00     0.091 A 
ATOM    102  F   UNL A   1      43.381  25.576  33.512  1.00  0.00    -0.205 F 
ATOM    103  C   UNL A   1      46.670  24.485  34.588  1.00  0.00     0.022 A 
BRANCH 101 104
ATOM    104  S   UNL A   1      44.333  24.161  35.991  1.00  0.00     0.127 S 
ATOM    105  O   UNL A   1      43.892  25.426  36.574  1.00  0.00    -0.237 OA
ATOM    106  O   UNL A   1      43.273  23.381  35.351  1.00  0.00    -0.237 OA
ATOM    107  O   UNL A   1      45.258  23.370  36.791  1.00  0.00    -0.744 OA
ENDBRANCH 101 104
ENDBRANCH  74  97
ENDBRANCH  48  49
ENDBRANCH  41  43
ENDBRANCH  40  41
ENDBRANCH  39  40
ENDBRANCH   1  39
TORSDOF 21
ENDMDL
MODEL 2
REMARK VINA RESULT:     -12.9      2.294      2.972
REMARK SMILES Cc1cccc(N2CCN(c3ncc(NC(=O)c4ccccc4F)cc3C(=O)OCCOCCOC(=O)c3ccc(-c4c5nc(c(-c6cccc(S(=O)(=O)[O-])c6F)c6ccc([nH]6)c(-c6cccc(S(=O)(=O)[O-])c6F)c6nc(c(-c7cccc(S(=O)(=O)[O-])c7F)c7ccc4[nH]7)C=C6)C=C5)cc3)C[C@@H]2C)c1
REMARK SMILES IDX 33 1 32 2 31 3 30 4 29 5 27 6 28 7 26 8 11 9 12 10 13 11
REMARK SMILES IDX 25 12 14 13 10 14 7 15 8 16 102 17 9 18 101 19 103 20 6 21
REMARK SMILES IDX 1 22 2 23 3 24 104 25 4 26 5 27 15 28 16 29 17 31 18 32
REMARK SMILES IDX 19 33 23 34 20 35 22 36 24 37 21 38 34 39 35 40 36 41 37 42
REMARK SMILES IDX 38 43 39 44 100 45 40 46 99 47 41 48 42 49 43 50 93 51 44 52
REMARK SMILES IDX 98 53 92 54 94 55 45 56 97 57 91 58 90 59 46 61 78 62 58 63
REMARK SMILES IDX 77 64 59 65 62 66 76 67 95 68 60 69 61 70 75 72 96 73 63 74
REMARK SMILES IDX 47 75 48 76 56 77 49 78 51 79 57 80 50 81 52 82 53 83 54 84
REMARK SMILES IDX 55 85 79 86 80 87 88 88 81 89 83 90 89 91 82 92 84 93 85 94
REMARK SMILES IDX 86 95 87 96 64 97 65 98 73 99 66 100 68 101 74 102 67 103
REMARK SMILES IDX 69 104 70 105 71 106 72 107
REMARK H PARENT 15 30 94 60 62 71
REMARK Flexibility Score: inf
ROOT
ATOM      1  C   UNL A   1      34.933  30.021  27.123  1.00  0.00     0.202 C 
ENDROOT
BRANCH   1   2
ATOM      2  O   UNL A   1      34.535  28.680  27.261  1.00  0.00    -0.374 OA
BRANCH   2   3
ATOM      3  C   UNL A   1      33.245  28.359  26.762  1.00  0.00     0.202 C 
BRANCH   3   4
ATOM      4  C   UNL A   1      33.467  27.131  25.941  1.00  0.00     0.261 C 
BRANCH   4   5
ATOM      5  O   UNL A   1      32.830  25.997  26.568  1.00  0.00    -0.460 OA
BRANCH   5   6
ATOM      6  C   UNL A   1      31.507  25.732  26.310  1.00  0.00     0.342 C 
ATOM      7  O   UNL A   1      30.559  26.292  26.799  1.00  0.00    -0.246 OA
BRANCH   6   8
ATOM      8  C   UNL A   1      31.445  24.687  25.257  1.00  0.00     0.104 A 
ATOM      9  C   UNL A   1      31.066  24.931  23.923  1.00  0.00     0.143 A 
ATOM     10  N   UNL A   1      31.176  23.933  23.000  1.00  0.00    -0.236 NA
ATOM     11  C   UNL A   1      31.668  22.723  23.392  1.00  0.00     0.139 A 
ATOM     12  C   UNL A   1      31.847  23.396  25.635  1.00  0.00     0.047 A 
ATOM     13  C   UNL A   1      32.029  22.408  24.693  1.00  0.00     0.061 A 
BRANCH   9  14
ATOM     14  N   UNL A   1      30.533  26.131  23.492  1.00  0.00    -0.352 N 
ATOM     15  N   UNL A   1      29.323  28.616  22.572  1.00  0.00    -0.365 N 
ATOM     16  C   UNL A   1      28.714  27.794  23.656  1.00  0.00     0.138 C 
ATOM     17  C   UNL A   1      30.776  28.361  22.341  1.00  0.00     0.098 C 
ATOM     18  C   UNL A   1      29.072  26.294  23.521  1.00  0.00     0.139 C 
ATOM     19  C   UNL A   1      31.154  26.840  22.366  1.00  0.00     0.142 C 
ATOM     20  C   UNL A   1      31.587  29.095  23.388  1.00  0.00     0.033 C 
BRANCH  15  21
ATOM     21  C   UNL A   1      28.974  29.988  22.537  1.00  0.00     0.037 A 
ATOM     22  C   UNL A   1      27.814  32.612  19.980  1.00  0.00     0.044 C 
ATOM     23  C   UNL A   1      28.296  31.976  21.246  1.00  0.00    -0.049 A 
ATOM     24  C   UNL A   1      28.401  32.762  22.391  1.00  0.00     0.003 A 
ATOM     25  C   UNL A   1      28.586  30.599  21.329  1.00  0.00     0.029 A 
ATOM     26  C   UNL A   1      28.821  32.187  23.578  1.00  0.00     0.002 A 
ATOM     27  C   UNL A   1      29.083  30.819  23.661  1.00  0.00     0.026 A 
ENDBRANCH  15  21
ENDBRANCH   9  14
BRANCH  13  28
ATOM     28  N   UNL A   1      32.587  21.209  25.170  1.00  0.00    -0.320 N 
ATOM     29  C   UNL A   1      33.889  20.817  25.337  1.00  0.00     0.258 C 
ATOM     30  H   UNL A   1      31.922  20.530  25.431  1.00  0.00     0.170 HD
ATOM     31  O   UNL A   1      34.157  19.652  25.625  1.00  0.00    -0.269 OA
BRANCH  29  32
ATOM     32  C   UNL A   1      34.986  21.785  25.235  1.00  0.00     0.075 A 
ATOM     33  C   UNL A   1      35.748  21.796  24.065  1.00  0.00     0.017 A 
ATOM     34  C   UNL A   1      35.290  22.660  26.278  1.00  0.00     0.135 A 
ATOM     35  C   UNL A   1      36.756  22.747  23.912  1.00  0.00     0.001 A 
ATOM     36  C   UNL A   1      36.281  23.621  26.120  1.00  0.00     0.040 A 
ATOM     37  F   UNL A   1      34.631  22.605  27.445  1.00  0.00    -0.206 F 
ATOM     38  C   UNL A   1      37.006  23.672  24.929  1.00  0.00     0.003 A 
ENDBRANCH  29  32
ENDBRANCH  13  28
ENDBRANCH   6   8
ENDBRANCH   5   6
ENDBRANCH   4   5
ENDBRANCH   3   4
ENDBRANCH   2   3
ENDBRANCH   1   2
BRANCH   1  39
ATOM     39  C   UNL A   1      33.739  30.971  27.100  1.00  0.00     0.261 C 
BRANCH  39  40
ATOM     40  O   UNL A   1      33.612  31.594  28.398  1.00  0.00    -0.460 OA
BRANCH  40  41
ATOM     41  C   UNL A   1      34.135  32.855  28.508  1.00  0.00     0.338 C 
ATOM     42  O   UNL A   1      33.704  33.821  27.901  1.00  0.00    -0.246 OA
BRANCH  41  43
ATOM     43  C   UNL A   1      35.429  32.814  29.268  1.00  0.00     0.060 A 
ATOM     44  C   UNL A   1      36.623  33.331  28.738  1.00  0.00     0.016 A 
ATOM     45  C   UNL A   1      35.510  32.005  30.385  1.00  0.00     0.016 A 
ATOM     46  C   UNL A   1      37.886  32.874  29.197  1.00  0.00     0.010 A 
ATOM     47  C   UNL A   1      36.749  31.524  30.770  1.00  0.00     0.010 A 
ATOM     48  C   UNL A   1      37.953  31.878  30.158  1.00  0.00    -0.014 A 
BRANCH  48  49
ATOM     49  C   UNL A   1      39.097  31.044  30.607  1.00  0.00     0.031 A 
ATOM     50  C   UNL A   1      39.374  29.756  29.888  1.00  0.00     0.074 A 
ATOM     51  C   UNL A   1      40.133  31.597  31.301  1.00  0.00     0.049 A 
ATOM     52  N   UNL A   1      40.353  28.964  30.169  1.00  0.00    -0.248 NA
ATOM     53  C   UNL A   1      38.568  29.253  28.775  1.00  0.00     0.031 C 
ATOM     54  C   UNL A   1      41.562  31.270  31.170  1.00  0.00     0.029 A 
ATOM     55  N   UNL A   1      40.164  32.647  32.228  1.00  0.00    -0.354 N 
ATOM     56  C   UNL A   1      40.487  28.047  29.147  1.00  0.00     0.074 A 
ATOM     57  C   UNL A   1      39.313  28.230  28.334  1.00  0.00     0.031 C 
ATOM     58  C   UNL A   1      42.268  31.889  32.130  1.00  0.00     0.029 A 
ATOM     59  C   UNL A   1      41.314  32.515  33.021  1.00  0.00     0.049 A 
ATOM     60  H   UNL A   1      39.490  33.360  32.310  1.00  0.00     0.167 HD
ATOM     61  C   UNL A   1      41.644  27.327  29.056  1.00  0.00     0.034 A 
ATOM     62  C   UNL A   1      41.237  32.414  34.374  1.00  0.00     0.034 A 
ATOM     63  C   UNL A   1      42.550  27.677  30.164  1.00  0.00     0.049 A 
ATOM     64  C   UNL A   1      41.752  31.068  34.805  1.00  0.00     0.074 A 
ATOM     65  C   UNL A   1      43.665  28.494  30.267  1.00  0.00     0.029 A 
ATOM     66  N   UNL A   1      42.159  27.387  31.467  1.00  0.00    -0.354 N 
ATOM     67  N   UNL A   1      42.085  30.154  33.938  1.00  0.00    -0.248 NA
ATOM     68  C   UNL A   1      41.995  30.623  36.171  1.00  0.00     0.031 C 
ATOM     69  C   UNL A   1      43.900  28.741  31.648  1.00  0.00     0.029 A 
ATOM     70  C   UNL A   1      42.949  28.056  32.389  1.00  0.00     0.049 A 
ATOM     71  H   UNL A   1      41.417  26.784  31.704  1.00  0.00     0.167 HD
ATOM     72  C   UNL A   1      42.476  29.013  34.552  1.00  0.00     0.074 A 
ATOM     73  C   UNL A   1      42.447  29.370  35.961  1.00  0.00     0.031 C 
ATOM     74  C   UNL A   1      42.727  27.881  33.827  1.00  0.00     0.034 A 
BRANCH  61  75
ATOM     75  C   UNL A   1      42.099  26.487  27.866  1.00  0.00     0.023 A 
ATOM     76  C   UNL A   1      42.535  27.185  26.713  1.00  0.00     0.012 A 
ATOM     77  C   UNL A   1      42.114  25.075  27.765  1.00  0.00     0.148 A 
ATOM     78  C   UNL A   1      42.860  26.547  25.510  1.00  0.00     0.002 A 
ATOM     79  C   UNL A   1      42.383  24.434  26.541  1.00  0.00     0.091 A 
ATOM     80  F   UNL A   1      41.891  24.335  28.856  1.00  0.00    -0.205 F 
ATOM     81  C   UNL A   1      42.750  25.172  25.413  1.00  0.00     0.022 A 
BRANCH  79  82
ATOM     82  S   UNL A   1      42.186  22.655  26.279  1.00  0.00     0.127 S 
ATOM     83  O   UNL A   1      40.733  22.490  26.340  1.00  0.00    -0.237 OA
ATOM     84  O   UNL A   1      42.754  22.463  24.947  1.00  0.00    -0.237 OA
ATOM     85  O   UNL A   1      42.907  22.001  27.365  1.00  0.00    -0.744 OA
ENDBRANCH  79  82
ENDBRANCH  61  75
BRANCH  62  86
ATOM     86  C   UNL A   1      40.150  33.285  34.922  1.00  0.00     0.023 A 
ATOM     87  C   UNL A   1      38.847  32.711  34.892  1.00  0.00     0.012 A 
ATOM     88  C   UNL A   1      40.419  34.278  35.884  1.00  0.00     0.148 A 
ATOM     89  C   UNL A   1      37.906  32.993  35.887  1.00  0.00     0.002 A 
ATOM     90  C   UNL A   1      39.474  34.548  36.880  1.00  0.00     0.091 A 
ATOM     91  F   UNL A   1      41.621  34.869  35.869  1.00  0.00    -0.205 F 
ATOM     92  C   UNL A   1      38.240  33.873  36.907  1.00  0.00     0.022 A 
BRANCH  90  93
ATOM     93  S   UNL A   1      39.808  35.649  38.263  1.00  0.00     0.127 S 
ATOM     94  O   UNL A   1      38.649  35.409  39.119  1.00  0.00    -0.237 OA
ATOM     95  O   UNL A   1      41.068  35.118  38.788  1.00  0.00    -0.237 OA
ATOM     96  O   UNL A   1      39.907  36.984  37.691  1.00  0.00    -0.744 OA
ENDBRANCH  90  93
ENDBRANCH  62  86
BRANCH  74  97
ATOM     97  C   UNL A   1      42.765  26.496  34.421  1.00  0.00     0.023 A 
ATOM     98  C   UNL A   1      41.667  25.968  35.126  1.00  0.00     0.012 A 
ATOM     99  C   UNL A   1      43.828  25.608  34.127  1.00  0.00     0.148 A 
ATOM    100  C   UNL A   1      41.650  24.650  35.581  1.00  0.00     0.002 A 
ATOM    101  C   UNL A   1      43.740  24.263  34.459  1.00  0.00     0.091 A 
ATOM    102  F   UNL A   1      44.942  26.062  33.534  1.00  0.00    -0.205 F 
ATOM    103  C   UNL A   1      42.674  23.788  35.223  1.00  0.00     0.022 A 
BRANCH 101 104
ATOM    104  S   UNL A   1      44.878  23.062  33.756  1.00  0.00     0.127 S 
ATOM    105  O   UNL A   1      44.617  23.205  32.326  1.00  0.00    -0.237 OA
ATOM    106  O   UNL A   1      46.177  23.574  34.195  1.00  0.00    -0.237 OA
ATOM    107  O   UNL A   1      44.503  21.789  34.355  1.00  0.00    -0.744 OA
ENDBRANCH 101 104
ENDBRANCH  74  97
ENDBRANCH  48  49
ENDBRANCH  41  43
ENDBRANCH  40  41
ENDBRANCH  39  40
ENDBRANCH   1  39
TORSDOF 21
ENDMDL
MODEL 3
REMARK VINA RESULT:     -11.6      2.238      2.677
REMARK SMILES Cc1cccc(N2CCN(c3ncc(NC(=O)c4ccccc4F)cc3C(=O)OCCOCCOC(=O)c3ccc(-c4c5nc(c(-c6cccc(S(=O)(=O)[O-])c6F)c6ccc([nH]6)c(-c6cccc(S(=O)(=O)[O-])c6F)c6nc(c(-c7cccc(S(=O)(=O)[O-])c7F)c7ccc4[nH]7)C=C6)C=C5)cc3)C[C@@H]2C)c1
REMARK SMILES IDX 33 1 32 2 31 3 30 4 29 5 27 6 28 7 26 8 11 9 12 10 13 11
REMARK SMILES IDX 25 12 14 13 10 14 7 15 8 16 102 17 9 18 101 19 103 20 6 21
REMARK SMILES IDX 1 22 2 23 3 24 104 25 4 26 5 27 15 28 16 29 17 31 18 32
REMARK SMILES IDX 19 33 23 34 20 35 22 36 24 37 21 38 34 39 35 40 36 41 37 42
REMARK SMILES IDX 38 43 39 44 100 45 40 46 99 47 41 48 42 49 43 50 93 51 44 52
REMARK SMILES IDX 98 53 92 54 94 55 45 56 97 57 91 58 90 59 46 61 78 62 58 63
REMARK SMILES IDX 77 64 59 65 62 66 76 67 95 68 60 69 61 70 75 72 96 73 63 74
REMARK SMILES IDX 47 75 48 76 56 77 49 78 51 79 57 80 50 81 52 82 53 83 54 84
REMARK SMILES IDX 55 85 79 86 80 87 88 88 81 89 83 90 89 91 82 92 84 93 85 94
REMARK SMILES IDX 86 95 87 96 64 97 65 98 73 99 66 100 68 101 74 102 67 103
REMARK SMILES IDX 69 104 70 105 71 106 72 107
REMARK H PARENT 15 30 94 60 62 71
REMARK Flexibility Score: inf
ROOT
ATOM      1  C   UNL A   1      32.652  30.460  26.331  1.00  0.00     0.202 C 
ENDROOT
BRANCH   1   2
ATOM      2  O   UNL A   1      31.796  29.375  26.580  1.00  0.00    -0.374 OA
BRANCH   2   3
ATOM      3  C   UNL A   1      32.284  28.388  27.476  1.00  0.00     0.202 C 
BRANCH   3   4
ATOM      4  C   UNL A   1      31.537  27.151  27.099  1.00  0.00     0.261 C 
BRANCH   4   5
ATOM      5  O   UNL A   1      31.799  26.817  25.719  1.00  0.00    -0.460 OA
BRANCH   5   6
ATOM      6  C   UNL A   1      32.762  25.885  25.417  1.00  0.00     0.342 C 
ATOM      7  O   UNL A   1      33.930  25.946  25.706  1.00  0.00    -0.246 OA
BRANCH   6   8
ATOM      8  C   UNL A   1      32.097  24.742  24.742  1.00  0.00     0.104 A 
ATOM      9  C   UNL A   1      31.146  24.875  23.713  1.00  0.00     0.143 A 
ATOM     10  N   UNL A   1      30.698  23.764  23.063  1.00  0.00    -0.236 NA
ATOM     11  C   UNL A   1      31.198  22.546  23.417  1.00  0.00     0.139 A 
ATOM     12  C   UNL A   1      32.504  23.459  25.143  1.00  0.00     0.047 A 
ATOM     13  C   UNL A   1      32.111  22.341  24.440  1.00  0.00     0.061 A 
BRANCH   9  14
ATOM     14  N   UNL A   1      30.590  26.087  23.346  1.00  0.00    -0.352 N 
ATOM     15  N   UNL A   1      29.330  28.597  22.572  1.00  0.00    -0.365 N 
ATOM     16  C   UNL A   1      28.866  27.808  23.749  1.00  0.00     0.138 C 
ATOM     17  C   UNL A   1      30.724  28.293  22.132  1.00  0.00     0.098 C 
ATOM     18  C   UNL A   1      29.155  26.297  23.589  1.00  0.00     0.139 C 
ATOM     19  C   UNL A   1      31.056  26.761  22.127  1.00  0.00     0.142 C 
ATOM     20  C   UNL A   1      31.704  29.014  23.033  1.00  0.00     0.033 C 
BRANCH  15  21
ATOM     21  C   UNL A   1      29.021  29.978  22.566  1.00  0.00     0.037 A 
ATOM     22  C   UNL A   1      27.836  32.665  20.085  1.00  0.00     0.044 C 
ATOM     23  C   UNL A   1      28.350  32.001  21.324  1.00  0.00    -0.049 A 
ATOM     24  C   UNL A   1      28.525  32.770  22.471  1.00  0.00     0.003 A 
ATOM     25  C   UNL A   1      28.602  30.615  21.381  1.00  0.00     0.029 A 
ATOM     26  C   UNL A   1      28.975  32.170  23.635  1.00  0.00     0.002 A 
ATOM     27  C   UNL A   1      29.200  30.793  23.693  1.00  0.00     0.026 A 
ENDBRANCH  15  21
ENDBRANCH   9  14
BRANCH  13  28
ATOM     28  N   UNL A   1      32.711  21.133  24.836  1.00  0.00    -0.320 N 
ATOM     29  C   UNL A   1      34.025  20.786  25.010  1.00  0.00     0.258 C 
ATOM     30  H   UNL A   1      32.072  20.406  25.022  1.00  0.00     0.170 HD
ATOM     31  O   UNL A   1      34.339  19.615  25.212  1.00  0.00    -0.269 OA
BRANCH  29  32
ATOM     32  C   UNL A   1      35.078  21.807  25.020  1.00  0.00     0.075 A 
ATOM     33  C   UNL A   1      35.748  22.074  23.824  1.00  0.00     0.017 A 
ATOM     34  C   UNL A   1      35.432  22.483  26.188  1.00  0.00     0.135 A 
ATOM     35  C   UNL A   1      36.709  23.083  23.788  1.00  0.00     0.001 A 
ATOM     36  C   UNL A   1      36.375  23.502  26.149  1.00  0.00     0.040 A 
ATOM     37  F   UNL A   1      34.867  22.178  27.366  1.00  0.00    -0.206 F 
ATOM     38  C   UNL A   1      37.006  23.811  24.943  1.00  0.00     0.003 A 
ENDBRANCH  29  32
ENDBRANCH  13  28
ENDBRANCH   6   8
ENDBRANCH   5   6
ENDBRANCH   4   5
ENDBRANCH   3   4
ENDBRANCH   2   3
ENDBRANCH   1   2
BRANCH   1  39
ATOM     39  C   UNL A   1      33.408  30.890  27.586  1.00  0.00     0.261 C 
BRANCH  39  40
ATOM     40  O   UNL A   1      34.566  31.661  27.192  1.00  0.00    -0.460 OA
BRANCH  40  41
ATOM     41  C   UNL A   1      35.459  31.947  28.190  1.00  0.00     0.338 C 
ATOM     42  O   UNL A   1      35.674  33.074  28.603  1.00  0.00    -0.246 OA
BRANCH  41  43
ATOM     43  C   UNL A   1      36.284  30.734  28.509  1.00  0.00     0.060 A 
ATOM     44  C   UNL A   1      36.108  30.002  29.695  1.00  0.00     0.016 A 
ATOM     45  C   UNL A   1      37.421  30.497  27.761  1.00  0.00     0.016 A 
ATOM     46  C   UNL A   1      37.155  29.202  30.224  1.00  0.00     0.010 A 
ATOM     47  C   UNL A   1      38.450  29.767  28.329  1.00  0.00     0.010 A 
ATOM     48  C   UNL A   1      38.384  29.163  29.586  1.00  0.00    -0.014 A 
BRANCH  48  49
ATOM     49  C   UNL A   1      39.698  28.649  30.050  1.00  0.00     0.031 A 
ATOM     50  C   UNL A   1      40.254  27.413  29.407  1.00  0.00     0.074 A 
ATOM     51  C   UNL A   1      40.588  29.474  30.673  1.00  0.00     0.049 A 
ATOM     52  N   UNL A   1      41.395  26.889  29.706  1.00  0.00    -0.248 NA
ATOM     53  C   UNL A   1      39.569  26.660  28.355  1.00  0.00     0.031 C 
ATOM     54  C   UNL A   1      42.052  29.477  30.516  1.00  0.00     0.029 A 
ATOM     55  N   UNL A   1      40.391  30.565  31.529  1.00  0.00    -0.354 N 
ATOM     56  C   UNL A   1      41.721  25.959  28.740  1.00  0.00     0.074 A 
ATOM     57  C   UNL A   1      40.523  25.810  27.956  1.00  0.00     0.031 C 
ATOM     58  C   UNL A   1      42.611  30.308  31.411  1.00  0.00     0.029 A 
ATOM     59  C   UNL A   1      41.553  30.757  32.291  1.00  0.00     0.049 A 
ATOM     60  H   UNL A   1      39.571  31.106  31.588  1.00  0.00     0.167 HD
ATOM     61  C   UNL A   1      43.012  25.521  28.657  1.00  0.00     0.034 A 
ATOM     62  C   UNL A   1      41.525  30.736  33.650  1.00  0.00     0.034 A 
ATOM     63  C   UNL A   1      43.832  26.147  29.710  1.00  0.00     0.049 A 
ATOM     64  C   UNL A   1      42.346  29.578  34.149  1.00  0.00     0.074 A 
ATOM     65  C   UNL A   1      44.727  27.205  29.724  1.00  0.00     0.029 A 
ATOM     66  N   UNL A   1      43.540  25.867  31.041  1.00  0.00    -0.354 N 
ATOM     67  N   UNL A   1      42.868  28.708  33.331  1.00  0.00    -0.248 NA
ATOM     68  C   UNL A   1      42.709  29.298  35.532  1.00  0.00     0.031 C 
ATOM     69  C   UNL A   1      44.922  27.596  31.078  1.00  0.00     0.029 A 
ATOM     70  C   UNL A   1      44.170  26.763  31.892  1.00  0.00     0.049 A 
ATOM     71  H   UNL A   1      42.964  25.127  31.341  1.00  0.00     0.167 HD
ATOM     72  C   UNL A   1      43.524  27.734  34.004  1.00  0.00     0.074 A 
ATOM     73  C   UNL A   1      43.437  28.172  35.388  1.00  0.00     0.031 C 
ATOM     74  C   UNL A   1      44.019  26.643  33.345  1.00  0.00     0.034 A 
BRANCH  61  75
ATOM     75  C   UNL A   1      43.630  24.728  27.509  1.00  0.00     0.023 A 
ATOM     76  C   UNL A   1      43.083  23.448  27.243  1.00  0.00     0.012 A 
ATOM     77  C   UNL A   1      44.714  25.110  26.684  1.00  0.00     0.148 A 
ATOM     78  C   UNL A   1      43.629  22.563  26.306  1.00  0.00     0.002 A 
ATOM     79  C   UNL A   1      45.302  24.202  25.783  1.00  0.00     0.091 A 
ATOM     80  F   UNL A   1      45.175  26.364  26.743  1.00  0.00    -0.205 F 
ATOM     81  C   UNL A   1      44.762  22.926  25.601  1.00  0.00     0.022 A 
BRANCH  79  82
ATOM     82  S   UNL A   1      46.830  24.539  24.876  1.00  0.00     0.127 S 
ATOM     83  O   UNL A   1      46.839  23.474  23.873  1.00  0.00    -0.237 OA
ATOM     84  O   UNL A   1      46.590  25.873  24.331  1.00  0.00    -0.237 OA
ATOM     85  O   UNL A   1      47.911  24.450  25.852  1.00  0.00    -0.744 OA
ENDBRANCH  79  82
ENDBRANCH  61  75
BRANCH  62  86
ATOM     86  C   UNL A   1      40.274  31.369  34.176  1.00  0.00     0.023 A 
ATOM     87  C   UNL A   1      39.335  30.462  34.744  1.00  0.00     0.012 A 
ATOM     88  C   UNL A   1      40.257  32.708  34.614  1.00  0.00     0.148 A 
ATOM     89  C   UNL A   1      38.527  30.833  35.822  1.00  0.00     0.002 A 
ATOM     90  C   UNL A   1      39.451  33.068  35.698  1.00  0.00     0.091 A 
ATOM     91  F   UNL A   1      41.092  33.578  34.032  1.00  0.00    -0.205 F 
ATOM     92  C   UNL A   1      38.623  32.122  36.330  1.00  0.00     0.022 A 
BRANCH  90  93
ATOM     93  S   UNL A   1      39.512  34.700  36.454  1.00  0.00     0.127 S 
ATOM     94  O   UNL A   1      38.948  35.536  35.398  1.00  0.00    -0.237 OA
ATOM     95  O   UNL A   1      38.645  34.535  37.623  1.00  0.00    -0.237 OA
ATOM     96  O   UNL A   1      40.913  34.937  36.770  1.00  0.00    -0.744 OA
ENDBRANCH  90  93
ENDBRANCH  62  86
BRANCH  74  97
ATOM     97  C   UNL A   1      44.388  25.349  34.025  1.00  0.00     0.023 A 
ATOM     98  C   UNL A   1      43.495  24.262  34.072  1.00  0.00     0.012 A 
ATOM     99  C   UNL A   1      45.712  25.114  34.470  1.00  0.00     0.148 A 
ATOM    100  C   UNL A   1      43.868  23.025  34.598  1.00  0.00     0.002 A 
ATOM    101  C   UNL A   1      46.113  23.843  34.859  1.00  0.00     0.091 A 
ATOM    102  F   UNL A   1      46.591  26.123  34.534  1.00  0.00    -0.205 F 
ATOM    103  C   UNL A   1      45.186  22.807  34.966  1.00  0.00     0.022 A 
BRANCH 101 104
ATOM    104  S   UNL A   1      47.856  23.441  35.044  1.00  0.00     0.127 S 
ATOM    105  O   UNL A   1      48.159  24.023  36.349  1.00  0.00    -0.237 OA
ATOM    106  O   UNL A   1      47.839  21.977  35.016  1.00  0.00    -0.237 OA
ATOM    107  O   UNL A   1      48.510  24.053  33.897  1.00  0.00    -0.744 OA
ENDBRANCH 101 104
ENDBRANCH  74  97
ENDBRANCH  48  49
ENDBRANCH  41  43
ENDBRANCH  40  41
ENDBRANCH  39  40
ENDBRANCH   1  39
TORSDOF 21
ENDMDL
