MODEL 1
REMARK VINA RESULT:     -11.3      0.000      0.000
REMARK SMILES COc1cc(C)cc2c1O[C@H](C(F)(F)F)C(C(=O)OCCOCCOC(=O)c1ccc(-c3c4nc(c(-c5cccc(S(=O)(=O)[O-])c5F)c5ccc([nH]5)c(-c5cccc(S(=O)(=O)[O-])c5F)c5nc(c(-c6cccc(S(=O)(=O)[O-])c6F)c6ccc3[nH]6)C=C5)C=C4)cc1)=C2
REMARK SMILES IDX 23 1 22 2 21 3 20 4 19 5 17 6 18 7 16 8 3 9 4 10 9 11 5 12
REMARK SMILES IDX 8 13 10 14 6 15 7 16 91 17 11 18 2 19 1 20 12 21 13 22 14 23
REMARK SMILES IDX 15 24 24 25 25 26 26 27 27 28 28 29 29 30 90 31 30 32 89 33
REMARK SMILES IDX 31 34 32 35 33 36 83 37 34 38 88 39 82 40 84 41 35 42 87 43
REMARK SMILES IDX 81 44 80 45 36 47 68 48 48 49 67 50 49 51 52 52 66 53 85 54
REMARK SMILES IDX 50 55 51 56 65 58 86 59 53 60 37 61 38 62 46 63 39 64 41 65
REMARK SMILES IDX 47 66 40 67 42 68 43 69 44 70 45 71 69 72 70 73 78 74 71 75
REMARK SMILES IDX 73 76 79 77 72 78 74 79 75 80 76 81 77 82 54 83 55 84 63 85
REMARK SMILES IDX 56 86 58 87 64 88 57 89 59 90 60 91 61 92 62 93
REMARK H PARENT 84 46 52 57
REMARK Flexibility Score: inf
ROOT
ATOM      1  C   UNL A   1      31.020  29.465  24.235  1.00  0.00     0.202 C 
ENDROOT
BRANCH   1   2
ATOM      2  O   UNL A   1      30.721  28.087  24.448  1.00  0.00    -0.374 OA
BRANCH   2   3
ATOM      3  C   UNL A   1      30.194  27.328  23.363  1.00  0.00     0.202 C 
BRANCH   3   4
ATOM      4  C   UNL A   1      31.093  27.097  22.144  1.00  0.00     0.261 C 
BRANCH   4   5
ATOM      5  O   UNL A   1      31.501  25.727  22.017  1.00  0.00    -0.460 OA
BRANCH   5   6
ATOM      6  C   UNL A   1      32.831  25.557  21.832  1.00  0.00     0.338 C 
ATOM      7  O   UNL A   1      33.573  26.253  21.158  1.00  0.00    -0.246 OA
BRANCH   6   8
ATOM      8  C   UNL A   1      33.322  24.466  22.695  1.00  0.00     0.087 C 
ATOM      9  C   UNL A   1      34.214  21.353  25.326  1.00  0.00     0.161 A 
ATOM     10  C   UNL A   1      33.588  20.113  25.143  1.00  0.00     0.054 A 
ATOM     11  C   UNL A   1      34.000  22.385  24.399  1.00  0.00     0.169 A 
ATOM     12  C   UNL A   1      32.786  19.877  24.019  1.00  0.00    -0.047 A 
ATOM     13  C   UNL A   1      33.183  22.158  23.290  1.00  0.00     0.021 A 
ATOM     14  O   UNL A   1      34.633  23.580  24.620  1.00  0.00    -0.471 OA
ATOM     15  C   UNL A   1      32.091  18.564  23.817  1.00  0.00     0.044 C 
ATOM     16  C   UNL A   1      32.602  20.902  23.087  1.00  0.00     0.015 A 
ATOM     17  C   UNL A   1      32.864  23.247  22.389  1.00  0.00     0.027 C 
ATOM     18  C   UNL A   1      34.239  24.751  23.852  1.00  0.00     0.316 C 
BRANCH   9  19
ATOM     19  O   UNL A   1      34.957  21.661  26.437  1.00  0.00    -0.493 OA
ATOM     20  C   UNL A   1      34.223  21.749  27.653  1.00  0.00     0.278 C 
ENDBRANCH   9  19
BRANCH  18  21
ATOM     21  C   UNL A   1      33.664  25.798  24.816  1.00  0.00     0.430 C 
ATOM     22  F   UNL A   1      32.361  25.557  25.091  1.00  0.00    -0.167 F 
ATOM     23  F   UNL A   1      34.318  25.798  26.000  1.00  0.00    -0.167 F 
ATOM     24  F   UNL A   1      33.750  27.050  24.309  1.00  0.00    -0.167 F 
ENDBRANCH  18  21
ENDBRANCH   6   8
ENDBRANCH   5   6
ENDBRANCH   4   5
ENDBRANCH   3   4
ENDBRANCH   2   3
ENDBRANCH   1   2
BRANCH   1  25
ATOM     25  C   UNL A   1      31.181  30.386  25.452  1.00  0.00     0.261 C 
BRANCH  25  26
ATOM     26  O   UNL A   1      32.512  30.389  25.990  1.00  0.00    -0.460 OA
BRANCH  26  27
ATOM     27  C   UNL A   1      32.797  31.440  26.801  1.00  0.00     0.338 C 
ATOM     28  O   UNL A   1      32.133  32.454  26.949  1.00  0.00    -0.246 OA
BRANCH  27  29
ATOM     29  C   UNL A   1      33.949  31.093  27.654  1.00  0.00     0.060 A 
ATOM     30  C   UNL A   1      34.377  29.771  27.778  1.00  0.00     0.016 A 
ATOM     31  C   UNL A   1      34.629  32.127  28.310  1.00  0.00     0.016 A 
ATOM     32  C   UNL A   1      35.509  29.491  28.548  1.00  0.00     0.010 A 
ATOM     33  C   UNL A   1      35.757  31.845  29.079  1.00  0.00     0.010 A 
ATOM     34  C   UNL A   1      36.217  30.526  29.189  1.00  0.00    -0.014 A 
BRANCH  34  35
ATOM     35  C   UNL A   1      37.512  30.236  29.853  1.00  0.00     0.031 A 
ATOM     36  C   UNL A   1      37.849  30.796  31.205  1.00  0.00     0.074 A 
ATOM     37  C   UNL A   1      38.402  29.462  29.202  1.00  0.00     0.049 A 
ATOM     38  N   UNL A   1      38.906  30.567  31.940  1.00  0.00    -0.248 NA
ATOM     39  C   UNL A   1      36.885  31.728  31.812  1.00  0.00     0.031 C 
ATOM     40  C   UNL A   1      38.213  28.912  27.857  1.00  0.00     0.029 A 
ATOM     41  N   UNL A   1      39.640  29.003  29.577  1.00  0.00    -0.354 N 
ATOM     42  C   UNL A   1      38.742  31.324  33.093  1.00  0.00     0.074 A 
ATOM     43  C   UNL A   1      37.491  32.038  32.953  1.00  0.00     0.031 C 
ATOM     44  C   UNL A   1      39.281  28.168  27.532  1.00  0.00     0.029 A 
ATOM     45  C   UNL A   1      40.241  28.206  28.631  1.00  0.00     0.049 A 
ATOM     46  H   UNL A   1      40.057  29.222  30.441  1.00  0.00     0.167 HD
ATOM     47  C   UNL A   1      39.551  31.393  34.175  1.00  0.00     0.034 A 
ATOM     48  C   UNL A   1      41.428  27.570  28.645  1.00  0.00     0.034 A 
ATOM     49  C   UNL A   1      40.784  30.666  34.318  1.00  0.00     0.049 A 
ATOM     50  C   UNL A   1      42.301  27.667  29.862  1.00  0.00     0.074 A 
ATOM     51  C   UNL A   1      41.635  30.634  35.411  1.00  0.00     0.029 A 
ATOM     52  N   UNL A   1      41.349  29.856  33.348  1.00  0.00    -0.354 N 
ATOM     53  N   UNL A   1      42.066  28.283  30.994  1.00  0.00    -0.248 NA
ATOM     54  C   UNL A   1      43.591  26.961  29.818  1.00  0.00     0.031 C 
ATOM     55  C   UNL A   1      42.725  29.820  35.093  1.00  0.00     0.029 A 
ATOM     56  C   UNL A   1      42.541  29.327  33.811  1.00  0.00     0.049 A 
ATOM     57  H   UNL A   1      40.961  29.683  32.459  1.00  0.00     0.167 HD
ATOM     58  C   UNL A   1      43.162  28.020  31.805  1.00  0.00     0.074 A 
ATOM     59  C   UNL A   1      44.059  27.177  31.042  1.00  0.00     0.031 C 
ATOM     60  C   UNL A   1      43.404  28.450  33.066  1.00  0.00     0.034 A 
BRANCH  47  61
ATOM     61  C   UNL A   1      39.117  32.227  35.348  1.00  0.00     0.023 A 
ATOM     62  C   UNL A   1      38.323  31.632  36.348  1.00  0.00     0.012 A 
ATOM     63  C   UNL A   1      39.628  33.524  35.544  1.00  0.00     0.148 A 
ATOM     64  C   UNL A   1      38.050  32.314  37.533  1.00  0.00     0.002 A 
ATOM     65  C   UNL A   1      39.373  34.188  36.739  1.00  0.00     0.091 A 
ATOM     66  F   UNL A   1      40.380  34.066  34.575  1.00  0.00    -0.205 F 
ATOM     67  C   UNL A   1      38.584  33.584  37.733  1.00  0.00     0.022 A 
BRANCH  65  68
ATOM     68  S   UNL A   1      40.055  35.804  37.123  1.00  0.00     0.127 S 
ATOM     69  O   UNL A   1      39.626  36.589  35.965  1.00  0.00    -0.237 OA
ATOM     70  O   UNL A   1      39.370  36.137  38.373  1.00  0.00    -0.237 OA
ATOM     71  O   UNL A   1      41.494  35.620  37.239  1.00  0.00    -0.744 OA
ENDBRANCH  65  68
ENDBRANCH  47  61
BRANCH  48  72
ATOM     72  C   UNL A   1      41.824  26.727  27.484  1.00  0.00     0.023 A 
ATOM     73  C   UNL A   1      42.476  27.326  26.390  1.00  0.00     0.012 A 
ATOM     74  C   UNL A   1      41.598  25.339  27.481  1.00  0.00     0.148 A 
ATOM     75  C   UNL A   1      42.884  26.555  25.301  1.00  0.00     0.002 A 
ATOM     76  C   UNL A   1      42.039  24.571  26.411  1.00  0.00     0.091 A 
ATOM     77  F   UNL A   1      40.974  24.795  28.536  1.00  0.00    -0.205 F 
ATOM     78  C   UNL A   1      42.674  25.179  25.316  1.00  0.00     0.022 A 
BRANCH  76  79
ATOM     79  S   UNL A   1      41.891  22.782  26.375  1.00  0.00     0.127 S 
ATOM     80  O   UNL A   1      42.542  22.455  25.108  1.00  0.00    -0.237 OA
ATOM     81  O   UNL A   1      42.640  22.396  27.571  1.00  0.00    -0.237 OA
ATOM     82  O   UNL A   1      40.464  22.501  26.436  1.00  0.00    -0.744 OA
ENDBRANCH  76  79
ENDBRANCH  48  72
BRANCH  60  83
ATOM     83  C   UNL A   1      44.677  28.015  33.735  1.00  0.00     0.023 A 
ATOM     84  C   UNL A   1      45.805  28.856  33.695  1.00  0.00     0.012 A 
ATOM     85  C   UNL A   1      44.710  26.842  34.516  1.00  0.00     0.148 A 
ATOM     86  C   UNL A   1      46.951  28.535  34.421  1.00  0.00     0.002 A 
ATOM     87  C   UNL A   1      45.843  26.547  35.264  1.00  0.00     0.091 A 
ATOM     88  F   UNL A   1      43.622  26.057  34.533  1.00  0.00    -0.205 F 
ATOM     89  C   UNL A   1      46.965  27.390  35.215  1.00  0.00     0.022 A 
BRANCH  87  90
ATOM     90  S   UNL A   1      45.935  25.133  36.369  1.00  0.00     0.127 S 
ATOM     91  O   UNL A   1      44.793  25.371  37.250  1.00  0.00    -0.237 OA
ATOM     92  O   UNL A   1      45.769  24.010  35.446  1.00  0.00    -0.237 OA
ATOM     93  O   UNL A   1      47.238  25.207  37.015  1.00  0.00    -0.744 OA
ENDBRANCH  87  90
ENDBRANCH  60  83
ENDBRANCH  34  35
ENDBRANCH  27  29
ENDBRANCH  26  27
ENDBRANCH  25  26
ENDBRANCH   1  25
TORSDOF 19
ENDMDL
MODEL 2
REMARK VINA RESULT:     -11.3      1.910      7.811
REMARK SMILES COc1cc(C)cc2c1O[C@H](C(F)(F)F)C(C(=O)OCCOCCOC(=O)c1ccc(-c3c4nc(c(-c5cccc(S(=O)(=O)[O-])c5F)c5ccc([nH]5)c(-c5cccc(S(=O)(=O)[O-])c5F)c5nc(c(-c6cccc(S(=O)(=O)[O-])c6F)c6ccc3[nH]6)C=C5)C=C4)cc1)=C2
REMARK SMILES IDX 23 1 22 2 21 3 20 4 19 5 17 6 18 7 16 8 3 9 4 10 9 11 5 12
REMARK SMILES IDX 8 13 10 14 6 15 7 16 91 17 11 18 2 19 1 20 12 21 13 22 14 23
REMARK SMILES IDX 15 24 24 25 25 26 26 27 27 28 28 29 29 30 90 31 30 32 89 33
REMARK SMILES IDX 31 34 32 35 33 36 83 37 34 38 88 39 82 40 84 41 35 42 87 43
REMARK SMILES IDX 81 44 80 45 36 47 68 48 48 49 67 50 49 51 52 52 66 53 85 54
REMARK SMILES IDX 50 55 51 56 65 58 86 59 53 60 37 61 38 62 46 63 39 64 41 65
REMARK SMILES IDX 47 66 40 67 42 68 43 69 44 70 45 71 69 72 70 73 78 74 71 75
REMARK SMILES IDX 73 76 79 77 72 78 74 79 75 80 76 81 77 82 54 83 55 84 63 85
REMARK SMILES IDX 56 86 58 87 64 88 57 89 59 90 60 91 61 92 62 93
REMARK H PARENT 84 46 52 57
REMARK Flexibility Score: inf
ROOT
ATOM      1  C   UNL A   1      31.390  31.639  26.493  1.00  0.00     0.202 C 
ENDROOT
BRANCH   1   2
ATOM      2  O   UNL A   1      32.311  30.590  26.783  1.00  0.00    -0.374 OA
BRANCH   2   3
ATOM      3  C   UNL A   1      31.864  29.241  26.674  1.00  0.00     0.202 C 
BRANCH   3   4
ATOM      4  C   UNL A   1      32.156  28.490  25.369  1.00  0.00     0.261 C 
BRANCH   4   5
ATOM      5  O   UNL A   1      32.473  27.109  25.592  1.00  0.00    -0.460 OA
BRANCH   5   6
ATOM      6  C   UNL A   1      33.180  26.532  24.594  1.00  0.00     0.338 C 
ATOM      7  O   UNL A   1      33.786  27.101  23.700  1.00  0.00    -0.246 OA
BRANCH   6   8
ATOM      8  C   UNL A   1      33.251  25.074  24.806  1.00  0.00     0.087 C 
ATOM      9  C   UNL A   1      33.666  20.925  24.918  1.00  0.00     0.161 A 
ATOM     10  C   UNL A   1      34.952  20.372  24.875  1.00  0.00     0.054 A 
ATOM     11  C   UNL A   1      33.508  22.318  24.975  1.00  0.00     0.169 A 
ATOM     12  C   UNL A   1      36.085  21.195  24.934  1.00  0.00    -0.047 A 
ATOM     13  C   UNL A   1      34.635  23.139  25.012  1.00  0.00     0.021 A 
ATOM     14  O   UNL A   1      32.229  22.811  25.016  1.00  0.00    -0.471 OA
ATOM     15  C   UNL A   1      37.470  20.623  24.867  1.00  0.00     0.044 C 
ATOM     16  C   UNL A   1      35.916  22.579  25.020  1.00  0.00     0.015 A 
ATOM     17  C   UNL A   1      34.485  24.580  24.956  1.00  0.00     0.027 C 
ATOM     18  C   UNL A   1      32.005  24.233  24.805  1.00  0.00     0.316 C 
BRANCH   9  19
ATOM     19  O   UNL A   1      32.523  20.174  24.799  1.00  0.00    -0.493 OA
ATOM     20  C   UNL A   1      32.670  18.792  25.103  1.00  0.00     0.278 C 
ENDBRANCH   9  19
BRANCH  18  21
ATOM     21  C   UNL A   1      31.173  24.414  23.527  1.00  0.00     0.430 C 
ATOM     22  F   UNL A   1      30.562  23.261  23.166  1.00  0.00    -0.167 F 
ATOM     23  F   UNL A   1      30.197  25.336  23.695  1.00  0.00    -0.167 F 
ATOM     24  F   UNL A   1      31.934  24.818  22.484  1.00  0.00    -0.167 F 
ENDBRANCH  18  21
ENDBRANCH   6   8
ENDBRANCH   5   6
ENDBRANCH   4   5
ENDBRANCH   3   4
ENDBRANCH   2   3
ENDBRANCH   1   2
BRANCH   1  25
ATOM     25  C   UNL A   1      31.819  33.092  26.739  1.00  0.00     0.261 C 
BRANCH  25  26
ATOM     26  O   UNL A   1      32.517  33.275  27.980  1.00  0.00    -0.460 OA
BRANCH  26  27
ATOM     27  C   UNL A   1      33.651  34.017  27.893  1.00  0.00     0.338 C 
ATOM     28  O   UNL A   1      33.731  35.206  27.626  1.00  0.00    -0.246 OA
BRANCH  27  29
ATOM     29  C   UNL A   1      34.791  33.214  28.372  1.00  0.00     0.060 A 
ATOM     30  C   UNL A   1      36.097  33.696  28.283  1.00  0.00     0.016 A 
ATOM     31  C   UNL A   1      34.530  31.967  28.954  1.00  0.00     0.016 A 
ATOM     32  C   UNL A   1      37.144  32.930  28.803  1.00  0.00     0.010 A 
ATOM     33  C   UNL A   1      35.576  31.203  29.471  1.00  0.00     0.010 A 
ATOM     34  C   UNL A   1      36.890  31.688  29.415  1.00  0.00    -0.014 A 
BRANCH  34  35
ATOM     35  C   UNL A   1      37.984  30.972  30.118  1.00  0.00     0.031 A 
ATOM     36  C   UNL A   1      38.821  29.936  29.426  1.00  0.00     0.074 A 
ATOM     37  C   UNL A   1      38.204  31.262  31.415  1.00  0.00     0.049 A 
ATOM     38  N   UNL A   1      39.857  29.286  29.887  1.00  0.00    -0.248 NA
ATOM     39  C   UNL A   1      38.455  29.580  28.045  1.00  0.00     0.031 C 
ATOM     40  C   UNL A   1      37.415  32.205  32.212  1.00  0.00     0.029 A 
ATOM     41  N   UNL A   1      39.151  30.798  32.293  1.00  0.00    -0.354 N 
ATOM     42  C   UNL A   1      40.269  28.443  28.863  1.00  0.00     0.074 A 
ATOM     43  C   UNL A   1      39.357  28.648  27.758  1.00  0.00     0.031 C 
ATOM     44  C   UNL A   1      37.927  32.271  33.450  1.00  0.00     0.029 A 
ATOM     45  C   UNL A   1      39.064  31.359  33.545  1.00  0.00     0.049 A 
ATOM     46  H   UNL A   1      39.830  30.127  32.049  1.00  0.00     0.167 HD
ATOM     47  C   UNL A   1      41.326  27.599  28.843  1.00  0.00     0.034 A 
ATOM     48  C   UNL A   1      39.816  31.170  34.647  1.00  0.00     0.034 A 
ATOM     49  C   UNL A   1      42.242  27.413  29.936  1.00  0.00     0.049 A 
ATOM     50  C   UNL A   1      40.982  30.226  34.589  1.00  0.00     0.074 A 
ATOM     51  C   UNL A   1      43.376  26.618  29.975  1.00  0.00     0.029 A 
ATOM     52  N   UNL A   1      42.131  28.013  31.179  1.00  0.00    -0.354 N 
ATOM     53  N   UNL A   1      41.431  29.538  33.569  1.00  0.00    -0.248 NA
ATOM     54  C   UNL A   1      41.761  30.050  35.824  1.00  0.00     0.031 C 
ATOM     55  C   UNL A   1      43.939  26.723  31.249  1.00  0.00     0.029 A 
ATOM     56  C   UNL A   1      43.170  27.600  31.996  1.00  0.00     0.049 A 
ATOM     57  H   UNL A   1      41.418  28.640  31.444  1.00  0.00     0.167 HD
ATOM     58  C   UNL A   1      42.557  28.869  34.029  1.00  0.00     0.074 A 
ATOM     59  C   UNL A   1      42.733  29.243  35.417  1.00  0.00     0.031 C 
ATOM     60  C   UNL A   1      43.365  28.014  33.359  1.00  0.00     0.034 A 
BRANCH  47  61
ATOM     61  C   UNL A   1      41.621  26.844  27.576  1.00  0.00     0.023 A 
ATOM     62  C   UNL A   1      42.208  27.533  26.496  1.00  0.00     0.012 A 
ATOM     63  C   UNL A   1      41.482  25.444  27.517  1.00  0.00     0.148 A 
ATOM     64  C   UNL A   1      42.660  26.837  25.376  1.00  0.00     0.002 A 
ATOM     65  C   UNL A   1      41.959  24.754  26.408  1.00  0.00     0.091 A 
ATOM     66  F   UNL A   1      40.921  24.815  28.559  1.00  0.00    -0.205 F 
ATOM     67  C   UNL A   1      42.547  25.449  25.337  1.00  0.00     0.022 A 
BRANCH  65  68
ATOM     68  S   UNL A   1      41.913  22.964  26.278  1.00  0.00     0.127 S 
ATOM     69  O   UNL A   1      42.676  22.562  27.459  1.00  0.00    -0.237 OA
ATOM     70  O   UNL A   1      40.478  22.688  26.355  1.00  0.00    -0.237 OA
ATOM     71  O   UNL A   1      42.536  22.634  25.004  1.00  0.00    -0.744 OA
ENDBRANCH  65  68
ENDBRANCH  47  61
BRANCH  48  72
ATOM     72  C   UNL A   1      39.521  31.950  35.879  1.00  0.00     0.023 A 
ATOM     73  C   UNL A   1      40.194  33.167  36.100  1.00  0.00     0.012 A 
ATOM     74  C   UNL A   1      38.553  31.514  36.803  1.00  0.00     0.148 A 
ATOM     75  C   UNL A   1      39.916  33.932  37.233  1.00  0.00     0.002 A 
ATOM     76  C   UNL A   1      38.255  32.299  37.910  1.00  0.00     0.091 A 
ATOM     77  F   UNL A   1      37.930  30.352  36.567  1.00  0.00    -0.205 F 
ATOM     78  C   UNL A   1      38.942  33.504  38.132  1.00  0.00     0.022 A 
BRANCH  76  79
ATOM     79  S   UNL A   1      36.960  31.875  39.078  1.00  0.00     0.127 S 
ATOM     80  O   UNL A   1      35.865  32.734  38.633  1.00  0.00    -0.237 OA
ATOM     81  O   UNL A   1      36.772  30.449  38.810  1.00  0.00    -0.237 OA
ATOM     82  O   UNL A   1      37.498  32.180  40.396  1.00  0.00    -0.744 OA
ENDBRANCH  76  79
ENDBRANCH  48  72
BRANCH  60  83
ATOM     83  C   UNL A   1      44.537  27.420  34.090  1.00  0.00     0.023 A 
ATOM     84  C   UNL A   1      45.778  28.084  34.067  1.00  0.00     0.012 A 
ATOM     85  C   UNL A   1      44.370  26.284  34.905  1.00  0.00     0.148 A 
ATOM     86  C   UNL A   1      46.839  27.624  34.846  1.00  0.00     0.002 A 
ATOM     87  C   UNL A   1      45.421  25.851  35.704  1.00  0.00     0.091 A 
ATOM     88  F   UNL A   1      43.178  25.668  34.904  1.00  0.00    -0.205 F 
ATOM     89  C   UNL A   1      46.656  26.517  35.674  1.00  0.00     0.022 A 
BRANCH  87  90
ATOM     90  S   UNL A   1      45.265  24.478  36.854  1.00  0.00     0.127 S 
ATOM     91  O   UNL A   1      44.925  23.377  35.954  1.00  0.00    -0.237 OA
ATOM     92  O   UNL A   1      46.608  24.404  37.428  1.00  0.00    -0.237 OA
ATOM     93  O   UNL A   1      44.217  24.852  37.793  1.00  0.00    -0.744 OA
ENDBRANCH  87  90
ENDBRANCH  60  83
ENDBRANCH  34  35
ENDBRANCH  27  29
ENDBRANCH  26  27
ENDBRANCH  25  26
ENDBRANCH   1  25
TORSDOF 19
ENDMDL
MODEL 3
REMARK VINA RESULT:     -11.2      4.931      9.929
REMARK SMILES COc1cc(C)cc2c1O[C@H](C(F)(F)F)C(C(=O)OCCOCCOC(=O)c1ccc(-c3c4nc(c(-c5cccc(S(=O)(=O)[O-])c5F)c5ccc([nH]5)c(-c5cccc(S(=O)(=O)[O-])c5F)c5nc(c(-c6cccc(S(=O)(=O)[O-])c6F)c6ccc3[nH]6)C=C5)C=C4)cc1)=C2
REMARK SMILES IDX 23 1 22 2 21 3 20 4 19 5 17 6 18 7 16 8 3 9 4 10 9 11 5 12
REMARK SMILES IDX 8 13 10 14 6 15 7 16 91 17 11 18 2 19 1 20 12 21 13 22 14 23
REMARK SMILES IDX 15 24 24 25 25 26 26 27 27 28 28 29 29 30 90 31 30 32 89 33
REMARK SMILES IDX 31 34 32 35 33 36 83 37 34 38 88 39 82 40 84 41 35 42 87 43
REMARK SMILES IDX 81 44 80 45 36 47 68 48 48 49 67 50 49 51 52 52 66 53 85 54
REMARK SMILES IDX 50 55 51 56 65 58 86 59 53 60 37 61 38 62 46 63 39 64 41 65
REMARK SMILES IDX 47 66 40 67 42 68 43 69 44 70 45 71 69 72 70 73 78 74 71 75
REMARK SMILES IDX 73 76 79 77 72 78 74 79 75 80 76 81 77 82 54 83 55 84 63 85
REMARK SMILES IDX 56 86 58 87 64 88 57 89 59 90 60 91 61 92 62 93
REMARK H PARENT 84 46 52 57
REMARK Flexibility Score: inf
ROOT
ATOM      1  C   UNL A   1      35.087  21.347  24.968  1.00  0.00     0.202 C 
ENDROOT
BRANCH   1   2
ATOM      2  O   UNL A   1      34.316  20.246  24.495  1.00  0.00    -0.374 OA
BRANCH   2   3
ATOM      3  C   UNL A   1      32.901  20.394  24.399  1.00  0.00     0.202 C 
BRANCH   3   4
ATOM      4  C   UNL A   1      32.317  21.806  24.524  1.00  0.00     0.261 C 
BRANCH   4   5
ATOM      5  O   UNL A   1      32.116  22.430  23.248  1.00  0.00    -0.460 OA
BRANCH   5   6
ATOM      6  C   UNL A   1      32.950  23.465  22.998  1.00  0.00     0.338 C 
ATOM      7  O   UNL A   1      33.943  23.453  22.287  1.00  0.00    -0.246 OA
BRANCH   6   8
ATOM      8  C   UNL A   1      32.412  24.700  23.599  1.00  0.00     0.087 C 
ATOM      9  C   UNL A   1      31.238  28.454  24.990  1.00  0.00     0.161 A 
ATOM     10  C   UNL A   1      30.659  29.358  24.091  1.00  0.00     0.054 A 
ATOM     11  C   UNL A   1      31.554  27.154  24.565  1.00  0.00     0.169 A 
ATOM     12  C   UNL A   1      30.351  28.965  22.782  1.00  0.00    -0.047 A 
ATOM     13  C   UNL A   1      31.268  26.768  23.256  1.00  0.00     0.021 A 
ATOM     14  O   UNL A   1      32.119  26.305  25.482  1.00  0.00    -0.471 OA
ATOM     15  C   UNL A   1      29.751  29.925  21.798  1.00  0.00     0.044 C 
ATOM     16  C   UNL A   1      30.644  27.659  22.377  1.00  0.00     0.015 A 
ATOM     17  C   UNL A   1      31.693  25.469  22.773  1.00  0.00     0.027 C 
ATOM     18  C   UNL A   1      32.707  25.054  25.029  1.00  0.00     0.316 C 
BRANCH   9  19
ATOM     19  O   UNL A   1      31.619  28.801  26.262  1.00  0.00    -0.493 OA
ATOM     20  C   UNL A   1      32.761  29.645  26.344  1.00  0.00     0.278 C 
ENDBRANCH   9  19
BRANCH  18  21
ATOM     21  C   UNL A   1      34.213  25.084  25.330  1.00  0.00     0.430 C 
ATOM     22  F   UNL A   1      34.586  26.263  25.879  1.00  0.00    -0.167 F 
ATOM     23  F   UNL A   1      34.563  24.117  26.210  1.00  0.00    -0.167 F 
ATOM     24  F   UNL A   1      34.953  24.899  24.213  1.00  0.00    -0.167 F 
ENDBRANCH  18  21
ENDBRANCH   6   8
ENDBRANCH   5   6
ENDBRANCH   4   5
ENDBRANCH   3   4
ENDBRANCH   2   3
ENDBRANCH   1   2
BRANCH   1  25
ATOM     25  C   UNL A   1      36.353  21.068  25.790  1.00  0.00     0.261 C 
BRANCH  25  26
ATOM     26  O   UNL A   1      37.567  21.317  25.065  1.00  0.00    -0.460 OA
BRANCH  26  27
ATOM     27  C   UNL A   1      38.706  21.011  25.737  1.00  0.00     0.338 C 
ATOM     28  O   UNL A   1      39.285  19.936  25.749  1.00  0.00    -0.246 OA
BRANCH  27  29
ATOM     29  C   UNL A   1      39.274  22.245  26.310  1.00  0.00     0.060 A 
ATOM     30  C   UNL A   1      40.339  22.195  27.210  1.00  0.00     0.016 A 
ATOM     31  C   UNL A   1      38.744  23.476  25.901  1.00  0.00     0.016 A 
ATOM     32  C   UNL A   1      40.889  23.389  27.683  1.00  0.00     0.010 A 
ATOM     33  C   UNL A   1      39.293  24.666  26.376  1.00  0.00     0.010 A 
ATOM     34  C   UNL A   1      40.382  24.632  27.257  1.00  0.00    -0.014 A 
BRANCH  34  35
ATOM     35  C   UNL A   1      41.086  25.885  27.628  1.00  0.00     0.031 A 
ATOM     36  C   UNL A   1      42.511  26.137  27.227  1.00  0.00     0.074 A 
ATOM     37  C   UNL A   1      40.418  26.799  28.358  1.00  0.00     0.049 A 
ATOM     38  N   UNL A   1      43.230  27.214  27.413  1.00  0.00    -0.248 NA
ATOM     39  C   UNL A   1      43.223  25.051  26.533  1.00  0.00     0.031 C 
ATOM     40  C   UNL A   1      39.051  26.638  28.859  1.00  0.00     0.029 A 
ATOM     41  N   UNL A   1      40.792  28.041  28.806  1.00  0.00    -0.354 N 
ATOM     42  C   UNL A   1      44.476  26.941  26.865  1.00  0.00     0.074 A 
ATOM     43  C   UNL A   1      44.426  25.587  26.356  1.00  0.00     0.031 C 
ATOM     44  C   UNL A   1      38.691  27.749  29.520  1.00  0.00     0.029 A 
ATOM     45  C   UNL A   1      39.807  28.691  29.512  1.00  0.00     0.049 A 
ATOM     46  H   UNL A   1      41.680  28.430  28.637  1.00  0.00     0.167 HD
ATOM     47  C   UNL A   1      45.552  27.758  26.774  1.00  0.00     0.034 A 
ATOM     48  C   UNL A   1      39.796  29.911  30.084  1.00  0.00     0.034 A 
ATOM     49  C   UNL A   1      45.591  29.110  27.263  1.00  0.00     0.049 A 
ATOM     50  C   UNL A   1      41.005  30.792  29.963  1.00  0.00     0.074 A 
ATOM     51  C   UNL A   1      46.625  30.026  27.158  1.00  0.00     0.029 A 
ATOM     52  N   UNL A   1      44.569  29.738  27.955  1.00  0.00    -0.354 N 
ATOM     53  N   UNL A   1      42.127  30.563  29.327  1.00  0.00    -0.248 NA
ATOM     54  C   UNL A   1      40.941  32.108  30.616  1.00  0.00     0.031 C 
ATOM     55  C   UNL A   1      46.234  31.202  27.803  1.00  0.00     0.029 A 
ATOM     56  C   UNL A   1      44.949  31.025  28.290  1.00  0.00     0.049 A 
ATOM     57  H   UNL A   1      43.701  29.328  28.176  1.00  0.00     0.167 HD
ATOM     58  C   UNL A   1      42.891  31.712  29.478  1.00  0.00     0.074 A 
ATOM     59  C   UNL A   1      42.102  32.644  30.257  1.00  0.00     0.031 C 
ATOM     60  C   UNL A   1      44.140  31.964  29.021  1.00  0.00     0.034 A 
BRANCH  47  61
ATOM     61  C   UNL A   1      46.776  27.260  26.056  1.00  0.00     0.023 A 
ATOM     62  C   UNL A   1      47.539  26.234  26.646  1.00  0.00     0.012 A 
ATOM     63  C   UNL A   1      47.066  27.677  24.742  1.00  0.00     0.148 A 
ATOM     64  C   UNL A   1      48.571  25.623  25.937  1.00  0.00     0.002 A 
ATOM     65  C   UNL A   1      48.080  27.045  24.031  1.00  0.00     0.091 A 
ATOM     66  F   UNL A   1      46.323  28.656  24.205  1.00  0.00    -0.205 F 
ATOM     67  C   UNL A   1      48.833  26.019  24.627  1.00  0.00     0.022 A 
BRANCH  65  68
ATOM     68  S   UNL A   1      48.466  27.440  22.322  1.00  0.00     0.127 S 
ATOM     69  O   UNL A   1      49.693  28.222  22.470  1.00  0.00    -0.237 OA
ATOM     70  O   UNL A   1      48.654  26.112  21.736  1.00  0.00    -0.237 OA
ATOM     71  O   UNL A   1      47.323  28.182  21.810  1.00  0.00    -0.744 OA
ENDBRANCH  65  68
ENDBRANCH  47  61
BRANCH  48  72
ATOM     72  C   UNL A   1      38.563  30.392  30.764  1.00  0.00     0.023 A 
ATOM     73  C   UNL A   1      38.386  30.126  32.136  1.00  0.00     0.012 A 
ATOM     74  C   UNL A   1      37.596  31.144  30.074  1.00  0.00     0.148 A 
ATOM     75  C   UNL A   1      37.255  30.590  32.806  1.00  0.00     0.002 A 
ATOM     76  C   UNL A   1      36.488  31.635  30.755  1.00  0.00     0.091 A 
ATOM     77  F   UNL A   1      37.789  31.381  28.769  1.00  0.00    -0.205 F 
ATOM     78  C   UNL A   1      36.311  31.350  32.119  1.00  0.00     0.022 A 
BRANCH  76  79
ATOM     79  S   UNL A   1      35.264  32.693  29.979  1.00  0.00     0.127 S 
ATOM     80  O   UNL A   1      34.398  33.024  31.109  1.00  0.00    -0.237 OA
ATOM     81  O   UNL A   1      36.090  33.798  29.492  1.00  0.00    -0.237 OA
ATOM     82  O   UNL A   1      34.649  31.888  28.934  1.00  0.00    -0.744 OA
ENDBRANCH  76  79
ENDBRANCH  48  72
BRANCH  60  83
ATOM     83  C   UNL A   1      44.752  33.304  29.319  1.00  0.00     0.023 A 
ATOM     84  C   UNL A   1      45.533  33.468  30.478  1.00  0.00     0.012 A 
ATOM     85  C   UNL A   1      44.665  34.353  28.383  1.00  0.00     0.148 A 
ATOM     86  C   UNL A   1      46.219  34.660  30.704  1.00  0.00     0.002 A 
ATOM     87  C   UNL A   1      45.379  35.526  28.598  1.00  0.00     0.091 A 
ATOM     88  F   UNL A   1      43.911  34.172  27.289  1.00  0.00    -0.205 F 
ATOM     89  C   UNL A   1      46.153  35.682  29.759  1.00  0.00     0.022 A 
BRANCH  87  90
ATOM     90  S   UNL A   1      45.413  36.874  27.410  1.00  0.00     0.127 S 
ATOM     91  O   UNL A   1      46.021  36.228  26.247  1.00  0.00    -0.237 OA
ATOM     92  O   UNL A   1      43.992  37.187  27.260  1.00  0.00    -0.237 OA
ATOM     93  O   UNL A   1      46.212  37.929  28.017  1.00  0.00    -0.744 OA
ENDBRANCH  87  90
ENDBRANCH  60  83
ENDBRANCH  34  35
ENDBRANCH  27  29
ENDBRANCH  26  27
ENDBRANCH  25  26
ENDBRANCH   1  25
TORSDOF 19
ENDMDL
