MODEL 1
REMARK VINA RESULT:     -12.0      0.000      0.000
REMARK SMILES CCOc1cc2c(cc1OCC)[C@@H](C(=O)OCCOCCOC(=O)c1ccc(-c3c4nc(c(-c5cccc(S(=O)(=O)[O-])c5F)c5ccc([nH]5)c(-c5cccc(S(=O)(=O)[O-])c5F)c5nc(c(-c6cccc(S(=O)(=O)[O-])c6F)c6ccc3[nH]6)C=C5)C=C4)cc1)[C@H](c1ccc(F)cc1Cl)N(C)C2=O
REMARK SMILES IDX 20 1 19 2 18 3 17 4 16 5 14 6 15 7 13 8 4 9 5 10 9 11 6 12
REMARK SMILES IDX 8 13 7 14 99 15 97 16 100 17 88 18 98 19 3 20 2 21 1 22
REMARK SMILES IDX 10 23 11 24 12 25 89 26 90 27 95 28 91 29 94 30 96 31 92 32
REMARK SMILES IDX 93 33 21 34 22 35 23 36 24 37 25 38 26 39 87 40 27 41 86 42
REMARK SMILES IDX 28 43 29 44 30 45 80 46 31 47 85 48 79 49 81 50 32 51 84 52
REMARK SMILES IDX 78 53 77 54 33 56 65 57 45 58 64 59 46 60 49 61 63 62 82 63
REMARK SMILES IDX 47 64 48 65 62 67 83 68 50 69 34 70 35 71 43 72 36 73 38 74
REMARK SMILES IDX 44 75 37 76 39 77 40 78 41 79 42 80 66 81 67 82 75 83 68 84
REMARK SMILES IDX 70 85 76 86 69 87 71 88 72 89 73 90 74 91 51 92 52 93 60 94
REMARK SMILES IDX 53 95 55 96 61 97 54 98 56 99 57 100 58 101 59 102
REMARK H PARENT 81 55 49 66
REMARK Flexibility Score: inf
ROOT
ATOM      1  C   UNL A   1      32.241  28.129  27.269  1.00  0.00     0.202 C 
ENDROOT
BRANCH   1   2
ATOM      2  O   UNL A   1      31.096  27.280  27.258  1.00  0.00    -0.374 OA
BRANCH   2   3
ATOM      3  C   UNL A   1      30.753  26.669  26.012  1.00  0.00     0.202 C 
BRANCH   3   4
ATOM      4  C   UNL A   1      30.010  25.336  26.108  1.00  0.00     0.261 C 
BRANCH   4   5
ATOM      5  O   UNL A   1      30.753  24.268  25.493  1.00  0.00    -0.463 OA
BRANCH   5   6
ATOM      6  C   UNL A   1      31.546  23.529  26.307  1.00  0.00     0.316 C 
ATOM      7  O   UNL A   1      31.212  23.091  27.405  1.00  0.00    -0.251 OA
BRANCH   6   8
ATOM      8  C   UNL A   1      32.943  23.319  25.749  1.00  0.00     0.157 C 
ATOM      9  C   UNL A   1      33.129  24.479  21.620  1.00  0.00     0.161 A 
ATOM     10  C   UNL A   1      32.930  23.138  21.980  1.00  0.00     0.064 A 
ATOM     11  C   UNL A   1      33.249  25.460  22.618  1.00  0.00     0.161 A 
ATOM     12  C   UNL A   1      32.828  22.769  23.316  1.00  0.00     0.048 A 
ATOM     13  C   UNL A   1      33.176  25.070  23.957  1.00  0.00     0.056 A 
ATOM     14  C   UNL A   1      32.989  23.732  24.308  1.00  0.00    -0.015 A 
ATOM     15  C   UNL A   1      32.544  21.353  23.681  1.00  0.00     0.254 C 
ATOM     16  N   UNL A   1      32.878  20.967  24.979  1.00  0.00    -0.333 N 
ATOM     17  O   UNL A   1      32.033  20.600  22.860  1.00  0.00    -0.269 OA
ATOM     18  C   UNL A   1      33.541  21.886  25.901  1.00  0.00     0.135 C 
ATOM     19  C   UNL A   1      32.572  19.608  25.391  1.00  0.00     0.147 C 
BRANCH   9  20
ATOM     20  O   UNL A   1      33.315  24.785  20.299  1.00  0.00    -0.490 OA
BRANCH  20  21
ATOM     21  C   UNL A   1      32.351  25.709  19.768  1.00  0.00     0.226 C 
ATOM     22  C   UNL A   1      31.846  25.280  18.398  1.00  0.00     0.049 C 
ENDBRANCH  20  21
ENDBRANCH   9  20
BRANCH  11  23
ATOM     23  O   UNL A   1      33.434  26.808  22.514  1.00  0.00    -0.490 OA
BRANCH  23  24
ATOM     24  C   UNL A   1      33.691  27.599  23.664  1.00  0.00     0.226 C 
ATOM     25  C   UNL A   1      33.154  29.004  23.464  1.00  0.00     0.049 C 
ENDBRANCH  23  24
ENDBRANCH  11  23
BRANCH  18  26
ATOM     26  C   UNL A   1      35.093  21.927  25.808  1.00  0.00    -0.005 A 
ATOM     27  C   UNL A   1      35.698  23.134  26.253  1.00  0.00     0.010 A 
ATOM     28  C   UNL A   1      35.969  20.941  25.293  1.00  0.00     0.049 A 
ATOM     29  C   UNL A   1      37.065  23.383  26.102  1.00  0.00     0.040 A 
ATOM     30  C   UNL A   1      37.343  21.196  25.155  1.00  0.00     0.060 A 
ATOM     31  Cl  UNL A   1      35.531  19.348  24.802  1.00  0.00    -0.084 Cl
ATOM     32  C   UNL A   1      37.873  22.414  25.541  1.00  0.00     0.124 A 
ATOM     33  F   UNL A   1      39.181  22.650  25.378  1.00  0.00    -0.207 F 
ENDBRANCH  18  26
ENDBRANCH   6   8
ENDBRANCH   5   6
ENDBRANCH   4   5
ENDBRANCH   3   4
ENDBRANCH   2   3
ENDBRANCH   1   2
BRANCH   1  34
ATOM     34  C   UNL A   1      31.976  29.629  27.127  1.00  0.00     0.261 C 
BRANCH  34  35
ATOM     35  O   UNL A   1      33.093  30.311  26.532  1.00  0.00    -0.460 OA
BRANCH  35  36
ATOM     36  C   UNL A   1      33.622  31.289  27.302  1.00  0.00     0.338 C 
ATOM     37  O   UNL A   1      33.015  32.233  27.802  1.00  0.00    -0.246 OA
BRANCH  36  38
ATOM     38  C   UNL A   1      35.032  31.006  27.625  1.00  0.00     0.060 A 
ATOM     39  C   UNL A   1      35.428  29.664  27.607  1.00  0.00     0.016 A 
ATOM     40  C   UNL A   1      35.929  32.003  28.019  1.00  0.00     0.016 A 
ATOM     41  C   UNL A   1      36.688  29.303  28.072  1.00  0.00     0.010 A 
ATOM     42  C   UNL A   1      37.203  31.639  28.471  1.00  0.00     0.010 A 
ATOM     43  C   UNL A   1      37.562  30.283  28.561  1.00  0.00    -0.014 A 
BRANCH  43  44
ATOM     44  C   UNL A   1      38.754  29.850  29.334  1.00  0.00     0.031 A 
ATOM     45  C   UNL A   1      38.866  30.252  30.783  1.00  0.00     0.074 A 
ATOM     46  C   UNL A   1      39.688  29.054  28.782  1.00  0.00     0.049 A 
ATOM     47  N   UNL A   1      39.771  29.923  31.667  1.00  0.00    -0.248 NA
ATOM     48  C   UNL A   1      37.817  31.144  31.307  1.00  0.00     0.031 C 
ATOM     49  C   UNL A   1      39.695  28.601  27.392  1.00  0.00     0.029 A 
ATOM     50  N   UNL A   1      40.814  28.491  29.327  1.00  0.00    -0.354 N 
ATOM     51  C   UNL A   1      39.419  30.584  32.838  1.00  0.00     0.074 A 
ATOM     52  C   UNL A   1      38.229  31.353  32.547  1.00  0.00     0.031 C 
ATOM     53  C   UNL A   1      40.781  27.833  27.192  1.00  0.00     0.029 A 
ATOM     54  C   UNL A   1      41.550  27.754  28.432  1.00  0.00     0.049 A 
ATOM     55  H   UNL A   1      41.070  28.605  30.271  1.00  0.00     0.167 HD
ATOM     56  C   UNL A   1      40.014  30.538  34.054  1.00  0.00     0.034 A 
ATOM     57  C   UNL A   1      42.715  27.094  28.594  1.00  0.00     0.034 A 
ATOM     58  C   UNL A   1      41.175  29.747  34.351  1.00  0.00     0.049 A 
ATOM     59  C   UNL A   1      43.357  27.057  29.957  1.00  0.00     0.074 A 
ATOM     60  C   UNL A   1      41.822  29.593  35.565  1.00  0.00     0.029 A 
ATOM     61  N   UNL A   1      41.868  28.982  33.427  1.00  0.00    -0.354 N 
ATOM     62  N   UNL A   1      42.938  27.583  31.083  1.00  0.00    -0.248 NA
ATOM     63  C   UNL A   1      44.611  26.298  30.082  1.00  0.00     0.031 C 
ATOM     64  C   UNL A   1      42.923  28.752  35.368  1.00  0.00     0.029 A 
ATOM     65  C   UNL A   1      42.942  28.359  34.039  1.00  0.00     0.049 A 
ATOM     66  H   UNL A   1      41.632  28.895  32.476  1.00  0.00     0.167 HD
ATOM     67  C   UNL A   1      43.853  27.188  32.054  1.00  0.00     0.074 A 
ATOM     68  C   UNL A   1      44.838  26.363  31.387  1.00  0.00     0.031 C 
ATOM     69  C   UNL A   1      43.881  27.491  33.376  1.00  0.00     0.034 A 
BRANCH  56  70
ATOM     70  C   UNL A   1      39.392  31.343  35.166  1.00  0.00     0.023 A 
ATOM     71  C   UNL A   1      38.434  30.744  36.008  1.00  0.00     0.012 A 
ATOM     72  C   UNL A   1      39.794  32.670  35.410  1.00  0.00     0.148 A 
ATOM     73  C   UNL A   1      37.861  31.463  37.056  1.00  0.00     0.002 A 
ATOM     74  C   UNL A   1      39.250  33.367  36.483  1.00  0.00     0.091 A 
ATOM     75  F   UNL A   1      40.688  33.230  34.583  1.00  0.00    -0.205 F 
ATOM     76  C   UNL A   1      38.276  32.769  37.299  1.00  0.00     0.022 A 
BRANCH  74  77
ATOM     77  S   UNL A   1      39.777  35.026  36.924  1.00  0.00     0.127 S 
ATOM     78  O   UNL A   1      39.028  35.255  38.159  1.00  0.00    -0.237 OA
ATOM     79  O   UNL A   1      41.219  34.855  37.109  1.00  0.00    -0.237 OA
ATOM     80  O   UNL A   1      39.407  35.877  35.802  1.00  0.00    -0.744 OA
ENDBRANCH  74  77
ENDBRANCH  56  70
BRANCH  57  81
ATOM     81  C   UNL A   1      43.322  26.365  27.443  1.00  0.00     0.023 A 
ATOM     82  C   UNL A   1      44.180  27.048  26.560  1.00  0.00     0.012 A 
ATOM     83  C   UNL A   1      43.067  24.996  27.230  1.00  0.00     0.148 A 
ATOM     84  C   UNL A   1      44.750  26.390  25.470  1.00  0.00     0.002 A 
ATOM     85  C   UNL A   1      43.681  24.333  26.174  1.00  0.00     0.091 A 
ATOM     86  F   UNL A   1      42.231  24.368  28.070  1.00  0.00    -0.205 F 
ATOM     87  C   UNL A   1      44.510  25.031  25.283  1.00  0.00     0.022 A 
BRANCH  85  88
ATOM     88  S   UNL A   1      43.529  22.559  25.929  1.00  0.00     0.127 S 
ATOM     89  O   UNL A   1      43.119  22.485  24.529  1.00  0.00    -0.237 OA
ATOM     90  O   UNL A   1      44.892  22.099  26.197  1.00  0.00    -0.237 OA
ATOM     91  O   UNL A   1      42.542  22.110  26.901  1.00  0.00    -0.744 OA
ENDBRANCH  85  88
ENDBRANCH  57  81
BRANCH  69  92
ATOM     92  C   UNL A   1      44.986  26.898  34.211  1.00  0.00     0.023 A 
ATOM     93  C   UNL A   1      46.167  27.631  34.436  1.00  0.00     0.012 A 
ATOM     94  C   UNL A   1      44.817  25.648  34.841  1.00  0.00     0.148 A 
ATOM     95  C   UNL A   1      47.176  27.116  35.250  1.00  0.00     0.002 A 
ATOM     96  C   UNL A   1      45.805  25.164  35.689  1.00  0.00     0.091 A 
ATOM     97  F   UNL A   1      43.693  24.957  34.602  1.00  0.00    -0.205 F 
ATOM     98  C   UNL A   1      46.990  25.890  35.885  1.00  0.00     0.022 A 
BRANCH  96  99
ATOM     99  S   UNL A   1      45.608  23.643  36.625  1.00  0.00     0.127 S 
ATOM    100  O   UNL A   1      46.987  23.163  36.710  1.00  0.00    -0.237 OA
ATOM    101  O   UNL A   1      45.051  24.123  37.889  1.00  0.00    -0.237 OA
ATOM    102  O   UNL A   1      44.702  22.808  35.846  1.00  0.00    -0.744 OA
ENDBRANCH  96  99
ENDBRANCH  69  92
ENDBRANCH  43  44
ENDBRANCH  36  38
ENDBRANCH  35  36
ENDBRANCH  34  35
ENDBRANCH   1  34
TORSDOF 22
ENDMDL
MODEL 2
REMARK VINA RESULT:     -12.0      4.657      9.992
REMARK SMILES CCOc1cc2c(cc1OCC)[C@@H](C(=O)OCCOCCOC(=O)c1ccc(-c3c4nc(c(-c5cccc(S(=O)(=O)[O-])c5F)c5ccc([nH]5)c(-c5cccc(S(=O)(=O)[O-])c5F)c5nc(c(-c6cccc(S(=O)(=O)[O-])c6F)c6ccc3[nH]6)C=C5)C=C4)cc1)[C@H](c1ccc(F)cc1Cl)N(C)C2=O
REMARK SMILES IDX 20 1 19 2 18 3 17 4 16 5 14 6 15 7 13 8 4 9 5 10 9 11 6 12
REMARK SMILES IDX 8 13 7 14 99 15 97 16 100 17 88 18 98 19 3 20 2 21 1 22
REMARK SMILES IDX 10 23 11 24 12 25 89 26 90 27 95 28 91 29 94 30 96 31 92 32
REMARK SMILES IDX 93 33 21 34 22 35 23 36 24 37 25 38 26 39 87 40 27 41 86 42
REMARK SMILES IDX 28 43 29 44 30 45 80 46 31 47 85 48 79 49 81 50 32 51 84 52
REMARK SMILES IDX 78 53 77 54 33 56 65 57 45 58 64 59 46 60 49 61 63 62 82 63
REMARK SMILES IDX 47 64 48 65 62 67 83 68 50 69 34 70 35 71 43 72 36 73 38 74
REMARK SMILES IDX 44 75 37 76 39 77 40 78 41 79 42 80 66 81 67 82 75 83 68 84
REMARK SMILES IDX 70 85 76 86 69 87 71 88 72 89 73 90 74 91 51 92 52 93 60 94
REMARK SMILES IDX 53 95 55 96 61 97 54 98 56 99 57 100 58 101 59 102
REMARK H PARENT 81 55 49 66
REMARK Flexibility Score: inf
ROOT
ATOM      1  C   UNL A   1      36.716  22.600  23.803  1.00  0.00     0.202 C 
ENDROOT
BRANCH   1   2
ATOM      2  O   UNL A   1      35.335  22.536  23.460  1.00  0.00    -0.374 OA
BRANCH   2   3
ATOM      3  C   UNL A   1      34.754  23.707  22.884  1.00  0.00     0.202 C 
BRANCH   3   4
ATOM      4  C   UNL A   1      33.413  23.506  22.178  1.00  0.00     0.261 C 
BRANCH   4   5
ATOM      5  O   UNL A   1      32.505  24.592  22.439  1.00  0.00    -0.463 OA
BRANCH   5   6
ATOM      6  C   UNL A   1      33.020  25.845  22.382  1.00  0.00     0.316 C 
ATOM      7  O   UNL A   1      33.627  26.311  21.422  1.00  0.00    -0.251 OA
BRANCH   6   8
ATOM      8  C   UNL A   1      32.815  26.633  23.664  1.00  0.00     0.157 C 
ATOM      9  C   UNL A   1      30.361  24.449  26.426  1.00  0.00     0.161 A 
ATOM     10  C   UNL A   1      29.802  25.421  25.585  1.00  0.00     0.064 A 
ATOM     11  C   UNL A   1      31.735  24.167  26.354  1.00  0.00     0.161 A 
ATOM     12  C   UNL A   1      30.589  26.098  24.661  1.00  0.00     0.048 A 
ATOM     13  C   UNL A   1      32.520  24.879  25.443  1.00  0.00     0.056 A 
ATOM     14  C   UNL A   1      31.958  25.854  24.617  1.00  0.00    -0.015 A 
ATOM     15  C   UNL A   1      29.969  27.076  23.724  1.00  0.00     0.254 C 
ATOM     16  N   UNL A   1      30.825  28.013  23.147  1.00  0.00    -0.333 N 
ATOM     17  O   UNL A   1      28.767  27.021  23.489  1.00  0.00    -0.269 OA
ATOM     18  C   UNL A   1      32.240  28.076  23.506  1.00  0.00     0.135 C 
ATOM     19  C   UNL A   1      30.269  28.954  22.189  1.00  0.00     0.147 C 
BRANCH   9  20
ATOM     20  O   UNL A   1      29.569  23.871  27.382  1.00  0.00    -0.490 OA
BRANCH  20  21
ATOM     21  C   UNL A   1      29.407  22.451  27.234  1.00  0.00     0.226 C 
ATOM     22  C   UNL A   1      27.999  21.998  27.589  1.00  0.00     0.049 C 
ENDBRANCH  20  21
ENDBRANCH   9  20
BRANCH  11  23
ATOM     23  O   UNL A   1      32.493  23.272  27.052  1.00  0.00    -0.490 OA
BRANCH  23  24
ATOM     24  C   UNL A   1      33.106  22.172  26.399  1.00  0.00     0.226 C 
ATOM     25  C   UNL A   1      34.412  21.819  27.086  1.00  0.00     0.049 C 
ENDBRANCH  23  24
ENDBRANCH  11  23
BRANCH  18  26
ATOM     26  C   UNL A   1      32.580  28.941  24.752  1.00  0.00    -0.005 A 
ATOM     27  C   UNL A   1      33.804  28.622  25.400  1.00  0.00     0.010 A 
ATOM     28  C   UNL A   1      31.805  29.964  25.349  1.00  0.00     0.049 A 
ATOM     29  C   UNL A   1      34.182  29.208  26.611  1.00  0.00     0.040 A 
ATOM     30  C   UNL A   1      32.198  30.556  26.561  1.00  0.00     0.060 A 
ATOM     31  Cl  UNL A   1      30.350  30.638  24.716  1.00  0.00    -0.084 Cl
ATOM     32  C   UNL A   1      33.366  30.162  27.187  1.00  0.00     0.124 A 
ATOM     33  F   UNL A   1      33.712  30.717  28.355  1.00  0.00    -0.207 F 
ENDBRANCH  18  26
ENDBRANCH   6   8
ENDBRANCH   5   6
ENDBRANCH   4   5
ENDBRANCH   3   4
ENDBRANCH   2   3
ENDBRANCH   1   2
BRANCH   1  34
ATOM     34  C   UNL A   1      37.320  21.340  24.427  1.00  0.00     0.261 C 
BRANCH  34  35
ATOM     35  O   UNL A   1      37.703  21.557  25.796  1.00  0.00    -0.460 OA
BRANCH  35  36
ATOM     36  C   UNL A   1      39.036  21.499  26.017  1.00  0.00     0.338 C 
ATOM     37  O   UNL A   1      39.821  20.686  25.535  1.00  0.00    -0.246 OA
BRANCH  36  38
ATOM     38  C   UNL A   1      39.494  22.658  26.804  1.00  0.00     0.060 A 
ATOM     39  C   UNL A   1      38.858  23.880  26.559  1.00  0.00     0.016 A 
ATOM     40  C   UNL A   1      40.569  22.586  27.694  1.00  0.00     0.016 A 
ATOM     41  C   UNL A   1      39.352  25.049  27.128  1.00  0.00     0.010 A 
ATOM     42  C   UNL A   1      41.055  23.761  28.279  1.00  0.00     0.010 A 
ATOM     43  C   UNL A   1      40.489  25.005  27.946  1.00  0.00    -0.014 A 
BRANCH  43  44
ATOM     44  C   UNL A   1      41.176  26.278  28.278  1.00  0.00     0.031 A 
ATOM     45  C   UNL A   1      42.571  26.510  27.755  1.00  0.00     0.074 A 
ATOM     46  C   UNL A   1      40.548  27.245  28.972  1.00  0.00     0.049 A 
ATOM     47  N   UNL A   1      43.327  27.572  27.851  1.00  0.00    -0.248 NA
ATOM     48  C   UNL A   1      43.200  25.394  27.025  1.00  0.00     0.031 C 
ATOM     49  C   UNL A   1      39.203  27.142  29.534  1.00  0.00     0.029 A 
ATOM     50  N   UNL A   1      40.966  28.504  29.324  1.00  0.00    -0.354 N 
ATOM     51  C   UNL A   1      44.523  27.248  27.221  1.00  0.00     0.074 A 
ATOM     52  C   UNL A   1      44.403  25.880  26.765  1.00  0.00     0.031 C 
ATOM     53  C   UNL A   1      38.908  28.290  30.170  1.00  0.00     0.029 A 
ATOM     54  C   UNL A   1      40.047  29.200  30.071  1.00  0.00     0.049 A 
ATOM     55  H   UNL A   1      41.841  28.873  29.065  1.00  0.00     0.167 HD
ATOM     56  C   UNL A   1      45.614  28.023  27.015  1.00  0.00     0.034 A 
ATOM     57  C   UNL A   1      40.119  30.432  30.617  1.00  0.00     0.034 A 
ATOM     58  C   UNL A   1      45.720  29.392  27.436  1.00  0.00     0.049 A 
ATOM     59  C   UNL A   1      41.344  31.275  30.372  1.00  0.00     0.074 A 
ATOM     60  C   UNL A   1      46.763  30.277  27.230  1.00  0.00     0.029 A 
ATOM     61  N   UNL A   1      44.751  30.075  28.155  1.00  0.00    -0.354 N 
ATOM     62  N   UNL A   1      42.412  30.996  29.663  1.00  0.00    -0.248 NA
ATOM     63  C   UNL A   1      41.356  32.620  30.967  1.00  0.00     0.031 C 
ATOM     64  C   UNL A   1      46.435  31.489  27.846  1.00  0.00     0.029 A 
ATOM     65  C   UNL A   1      45.175  31.367  28.409  1.00  0.00     0.049 A 
ATOM     66  H   UNL A   1      43.890  29.695  28.443  1.00  0.00     0.167 HD
ATOM     67  C   UNL A   1      43.203  32.141  29.695  1.00  0.00     0.074 A 
ATOM     68  C   UNL A   1      42.482  33.123  30.478  1.00  0.00     0.031 C 
ATOM     69  C   UNL A   1      44.421  32.355  29.138  1.00  0.00     0.034 A 
BRANCH  56  70
ATOM     70  C   UNL A   1      46.772  27.414  26.267  1.00  0.00     0.023 A 
ATOM     71  C   UNL A   1      46.837  27.536  24.864  1.00  0.00     0.012 A 
ATOM     72  C   UNL A   1      47.818  26.769  26.954  1.00  0.00     0.148 A 
ATOM     73  C   UNL A   1      47.909  26.998  24.153  1.00  0.00     0.002 A 
ATOM     74  C   UNL A   1      48.905  26.273  26.243  1.00  0.00     0.091 A 
ATOM     75  F   UNL A   1      47.726  26.641  28.285  1.00  0.00    -0.205 F 
ATOM     76  C   UNL A   1      48.946  26.376  24.843  1.00  0.00     0.022 A 
BRANCH  74  77
ATOM     77  S   UNL A   1      50.326  25.525  27.047  1.00  0.00     0.127 S 
ATOM     78  O   UNL A   1      50.711  26.568  27.997  1.00  0.00    -0.237 OA
ATOM     79  O   UNL A   1      49.743  24.330  27.658  1.00  0.00    -0.237 OA
ATOM     80  O   UNL A   1      51.290  25.256  25.989  1.00  0.00    -0.744 OA
ENDBRANCH  74  77
ENDBRANCH  56  70
BRANCH  57  81
ATOM     81  C   UNL A   1      38.969  30.964  31.402  1.00  0.00     0.023 A 
ATOM     82  C   UNL A   1      38.900  30.719  32.788  1.00  0.00     0.012 A 
ATOM     83  C   UNL A   1      37.955  31.725  30.789  1.00  0.00     0.148 A 
ATOM     84  C   UNL A   1      37.827  31.197  33.542  1.00  0.00     0.002 A 
ATOM     85  C   UNL A   1      36.919  32.245  31.555  1.00  0.00     0.091 A 
ATOM     86  F   UNL A   1      38.029  31.931  29.465  1.00  0.00    -0.205 F 
ATOM     87  C   UNL A   1      36.844  31.968  32.928  1.00  0.00     0.022 A 
BRANCH  85  88
ATOM     88  S   UNL A   1      35.676  33.350  30.875  1.00  0.00     0.127 S 
ATOM     89  O   UNL A   1      36.244  33.671  29.569  1.00  0.00    -0.237 OA
ATOM     90  O   UNL A   1      34.493  32.490  30.838  1.00  0.00    -0.237 OA
ATOM     91  O   UNL A   1      35.581  34.460  31.814  1.00  0.00    -0.744 OA
ENDBRANCH  85  88
ENDBRANCH  57  81
BRANCH  69  92
ATOM     92  C   UNL A   1      45.044  33.716  29.310  1.00  0.00     0.023 A 
ATOM     93  C   UNL A   1      45.773  34.012  30.477  1.00  0.00     0.012 A 
ATOM     94  C   UNL A   1      44.977  34.672  28.275  1.00  0.00     0.148 A 
ATOM     95  C   UNL A   1      46.401  35.249  30.626  1.00  0.00     0.002 A 
ATOM     96  C   UNL A   1      45.645  35.883  28.411  1.00  0.00     0.091 A 
ATOM     97  F   UNL A   1      44.264  34.378  27.178  1.00  0.00    -0.205 F 
ATOM     98  C   UNL A   1      46.346  36.178  29.590  1.00  0.00     0.022 A 
BRANCH  96  99
ATOM     99  S   UNL A   1      45.710  37.097  27.088  1.00  0.00     0.127 S 
ATOM    100  O   UNL A   1      44.305  37.480  26.963  1.00  0.00    -0.237 OA
ATOM    101  O   UNL A   1      46.575  38.132  27.656  1.00  0.00    -0.237 OA
ATOM    102  O   UNL A   1      46.276  36.405  25.937  1.00  0.00    -0.744 OA
ENDBRANCH  96  99
ENDBRANCH  69  92
ENDBRANCH  43  44
ENDBRANCH  36  38
ENDBRANCH  35  36
ENDBRANCH  34  35
ENDBRANCH   1  34
TORSDOF 22
ENDMDL
MODEL 3
REMARK VINA RESULT:     -11.6      1.830      2.298
REMARK SMILES CCOc1cc2c(cc1OCC)[C@@H](C(=O)OCCOCCOC(=O)c1ccc(-c3c4nc(c(-c5cccc(S(=O)(=O)[O-])c5F)c5ccc([nH]5)c(-c5cccc(S(=O)(=O)[O-])c5F)c5nc(c(-c6cccc(S(=O)(=O)[O-])c6F)c6ccc3[nH]6)C=C5)C=C4)cc1)[C@H](c1ccc(F)cc1Cl)N(C)C2=O
REMARK SMILES IDX 20 1 19 2 18 3 17 4 16 5 14 6 15 7 13 8 4 9 5 10 9 11 6 12
REMARK SMILES IDX 8 13 7 14 99 15 97 16 100 17 88 18 98 19 3 20 2 21 1 22
REMARK SMILES IDX 10 23 11 24 12 25 89 26 90 27 95 28 91 29 94 30 96 31 92 32
REMARK SMILES IDX 93 33 21 34 22 35 23 36 24 37 25 38 26 39 87 40 27 41 86 42
REMARK SMILES IDX 28 43 29 44 30 45 80 46 31 47 85 48 79 49 81 50 32 51 84 52
REMARK SMILES IDX 78 53 77 54 33 56 65 57 45 58 64 59 46 60 49 61 63 62 82 63
REMARK SMILES IDX 47 64 48 65 62 67 83 68 50 69 34 70 35 71 43 72 36 73 38 74
REMARK SMILES IDX 44 75 37 76 39 77 40 78 41 79 42 80 66 81 67 82 75 83 68 84
REMARK SMILES IDX 70 85 76 86 69 87 71 88 72 89 73 90 74 91 51 92 52 93 60 94
REMARK SMILES IDX 53 95 55 96 61 97 54 98 56 99 57 100 58 101 59 102
REMARK H PARENT 81 55 49 66
REMARK Flexibility Score: inf
ROOT
ATOM      1  C   UNL A   1      32.099  27.158  26.936  1.00  0.00     0.202 C 
ENDROOT
BRANCH   1   2
ATOM      2  O   UNL A   1      30.698  26.930  26.811  1.00  0.00    -0.374 OA
BRANCH   2   3
ATOM      3  C   UNL A   1      30.279  25.985  25.824  1.00  0.00     0.202 C 
BRANCH   3   4
ATOM      4  C   UNL A   1      29.960  24.582  26.340  1.00  0.00     0.261 C 
BRANCH   4   5
ATOM      5  O   UNL A   1      30.863  23.599  25.803  1.00  0.00    -0.463 OA
BRANCH   5   6
ATOM      6  C   UNL A   1      31.798  23.102  26.650  1.00  0.00     0.316 C 
ATOM      7  O   UNL A   1      31.603  22.834  27.832  1.00  0.00    -0.251 OA
BRANCH   6   8
ATOM      8  C   UNL A   1      33.164  22.942  26.004  1.00  0.00     0.157 C 
ATOM      9  C   UNL A   1      33.367  25.111  22.305  1.00  0.00     0.161 A 
ATOM     10  C   UNL A   1      33.068  23.741  22.317  1.00  0.00     0.064 A 
ATOM     11  C   UNL A   1      33.583  25.791  23.515  1.00  0.00     0.161 A 
ATOM     12  C   UNL A   1      32.961  23.048  23.517  1.00  0.00     0.048 A 
ATOM     13  C   UNL A   1      33.504  25.074  24.712  1.00  0.00     0.056 A 
ATOM     14  C   UNL A   1      33.216  23.709  24.716  1.00  0.00    -0.015 A 
ATOM     15  C   UNL A   1      32.570  21.611  23.519  1.00  0.00     0.254 C 
ATOM     16  N   UNL A   1      32.896  20.879  24.660  1.00  0.00    -0.333 N 
ATOM     17  O   UNL A   1      31.986  21.135  22.552  1.00  0.00    -0.269 OA
ATOM     18  C   UNL A   1      33.648  21.479  25.761  1.00  0.00     0.135 C 
ATOM     19  C   UNL A   1      32.489  19.486  24.722  1.00  0.00     0.147 C 
BRANCH   9  20
ATOM     20  O   UNL A   1      33.553  25.734  21.100  1.00  0.00    -0.490 OA
BRANCH  20  21
ATOM     21  C   UNL A   1      32.356  25.873  20.319  1.00  0.00     0.226 C 
ATOM     22  C   UNL A   1      32.538  25.355  18.900  1.00  0.00     0.049 C 
ENDBRANCH  20  21
ENDBRANCH   9  20
BRANCH  11  23
ATOM     23  O   UNL A   1      33.874  27.103  23.753  1.00  0.00    -0.490 OA
BRANCH  23  24
ATOM     24  C   UNL A   1      33.061  28.138  23.223  1.00  0.00     0.226 C 
ATOM     25  C   UNL A   1      31.601  27.729  23.264  1.00  0.00     0.049 C 
ENDBRANCH  23  24
ENDBRANCH  11  23
BRANCH  18  26
ATOM     26  C   UNL A   1      35.196  21.429  25.622  1.00  0.00    -0.005 A 
ATOM     27  C   UNL A   1      35.883  22.599  26.047  1.00  0.00     0.010 A 
ATOM     28  C   UNL A   1      35.997  20.394  25.083  1.00  0.00     0.049 A 
ATOM     29  C   UNL A   1      37.257  22.768  25.856  1.00  0.00     0.040 A 
ATOM     30  C   UNL A   1      37.379  20.569  24.905  1.00  0.00     0.060 A 
ATOM     31  Cl  UNL A   1      35.452  18.829  24.608  1.00  0.00    -0.084 Cl
ATOM     32  C   UNL A   1      37.991  21.753  25.273  1.00  0.00     0.124 A 
ATOM     33  F   UNL A   1      39.304  21.913  25.071  1.00  0.00    -0.207 F 
ENDBRANCH  18  26
ENDBRANCH   6   8
ENDBRANCH   5   6
ENDBRANCH   4   5
ENDBRANCH   3   4
ENDBRANCH   2   3
ENDBRANCH   1   2
BRANCH   1  34
ATOM     34  C   UNL A   1      32.546  28.620  27.001  1.00  0.00     0.261 C 
BRANCH  34  35
ATOM     35  O   UNL A   1      33.977  28.734  27.080  1.00  0.00    -0.460 OA
BRANCH  35  36
ATOM     36  C   UNL A   1      34.418  29.957  27.453  1.00  0.00     0.338 C 
ATOM     37  O   UNL A   1      33.793  31.012  27.379  1.00  0.00    -0.246 OA
BRANCH  36  38
ATOM     38  C   UNL A   1      35.722  29.865  28.134  1.00  0.00     0.060 A 
ATOM     39  C   UNL A   1      36.864  29.982  27.334  1.00  0.00     0.016 A 
ATOM     40  C   UNL A   1      35.840  29.588  29.499  1.00  0.00     0.016 A 
ATOM     41  C   UNL A   1      38.121  29.730  27.873  1.00  0.00     0.010 A 
ATOM     42  C   UNL A   1      37.108  29.350  30.044  1.00  0.00     0.010 A 
ATOM     43  C   UNL A   1      38.246  29.356  29.217  1.00  0.00    -0.014 A 
BRANCH  43  44
ATOM     44  C   UNL A   1      39.538  28.790  29.681  1.00  0.00     0.031 A 
ATOM     45  C   UNL A   1      40.196  29.385  30.900  1.00  0.00     0.074 A 
ATOM     46  C   UNL A   1      40.085  27.721  29.075  1.00  0.00     0.049 A 
ATOM     47  N   UNL A   1      41.278  29.003  31.527  1.00  0.00    -0.248 NA
ATOM     48  C   UNL A   1      39.549  30.569  31.493  1.00  0.00     0.031 C 
ATOM     49  C   UNL A   1      39.548  27.059  27.887  1.00  0.00     0.029 A 
ATOM     50  N   UNL A   1      41.218  27.008  29.376  1.00  0.00    -0.354 N 
ATOM     51  C   UNL A   1      41.456  29.909  32.567  1.00  0.00     0.074 A 
ATOM     52  C   UNL A   1      40.384  30.875  32.474  1.00  0.00     0.031 C 
ATOM     53  C   UNL A   1      40.359  26.038  27.555  1.00  0.00     0.029 A 
ATOM     54  C   UNL A   1      41.476  25.985  28.496  1.00  0.00     0.049 A 
ATOM     55  H   UNL A   1      41.792  27.211  30.150  1.00  0.00     0.167 HD
ATOM     56  C   UNL A   1      42.408  29.924  33.530  1.00  0.00     0.034 A 
ATOM     57  C   UNL A   1      42.500  25.109  28.453  1.00  0.00     0.034 A 
ATOM     58  C   UNL A   1      43.452  28.944  33.643  1.00  0.00     0.049 A 
ATOM     59  C   UNL A   1      43.547  25.145  29.536  1.00  0.00     0.074 A 
ATOM     60  C   UNL A   1      44.435  28.843  34.612  1.00  0.00     0.029 A 
ATOM     61  N   UNL A   1      43.657  27.900  32.756  1.00  0.00    -0.354 N 
ATOM     62  N   UNL A   1      43.625  25.929  30.584  1.00  0.00    -0.248 NA
ATOM     63  C   UNL A   1      44.624  24.148  29.454  1.00  0.00     0.031 C 
ATOM     64  C   UNL A   1      45.249  27.750  34.297  1.00  0.00     0.029 A 
ATOM     65  C   UNL A   1      44.754  27.153  33.148  1.00  0.00     0.049 A 
ATOM     66  H   UNL A   1      43.103  27.716  31.963  1.00  0.00     0.167 HD
ATOM     67  C   UNL A   1      44.734  25.497  31.305  1.00  0.00     0.074 A 
ATOM     68  C   UNL A   1      45.285  24.369  30.583  1.00  0.00     0.031 C 
ATOM     69  C   UNL A   1      45.256  25.995  32.454  1.00  0.00     0.034 A 
BRANCH  56  70
ATOM     70  C   UNL A   1      42.341  31.020  34.561  1.00  0.00     0.023 A 
ATOM     71  C   UNL A   1      41.658  30.795  35.774  1.00  0.00     0.012 A 
ATOM     72  C   UNL A   1      42.996  32.249  34.354  1.00  0.00     0.148 A 
ATOM     73  C   UNL A   1      41.601  31.788  36.751  1.00  0.00     0.002 A 
ATOM     74  C   UNL A   1      42.971  33.218  35.350  1.00  0.00     0.091 A 
ATOM     75  F   UNL A   1      43.619  32.453  33.185  1.00  0.00    -0.205 F 
ATOM     76  C   UNL A   1      42.265  32.994  36.544  1.00  0.00     0.022 A 
BRANCH  74  77
ATOM     77  S   UNL A   1      43.860  34.772  35.210  1.00  0.00     0.127 S 
ATOM     78  O   UNL A   1      43.506  35.430  36.467  1.00  0.00    -0.237 OA
ATOM     79  O   UNL A   1      45.251  34.327  35.126  1.00  0.00    -0.237 OA
ATOM     80  O   UNL A   1      43.355  35.415  34.004  1.00  0.00    -0.744 OA
ENDBRANCH  74  77
ENDBRANCH  56  70
BRANCH  57  81
ATOM     81  C   UNL A   1      42.553  24.082  27.372  1.00  0.00     0.023 A 
ATOM     82  C   UNL A   1      43.116  24.412  26.125  1.00  0.00     0.012 A 
ATOM     83  C   UNL A   1      42.065  22.777  27.580  1.00  0.00     0.148 A 
ATOM     84  C   UNL A   1      43.167  23.472  25.095  1.00  0.00     0.002 A 
ATOM     85  C   UNL A   1      42.168  21.829  26.569  1.00  0.00     0.091 A 
ATOM     86  F   UNL A   1      41.514  22.488  28.769  1.00  0.00    -0.205 F 
ATOM     87  C   UNL A   1      42.703  22.179  25.321  1.00  0.00     0.022 A 
BRANCH  85  88
ATOM     88  S   UNL A   1      41.711  20.108  26.809  1.00  0.00     0.127 S 
ATOM     89  O   UNL A   1      40.352  20.229  27.329  1.00  0.00    -0.237 OA
ATOM     90  O   UNL A   1      41.806  19.577  25.449  1.00  0.00    -0.237 OA
ATOM     91  O   UNL A   1      42.696  19.565  27.735  1.00  0.00    -0.744 OA
ENDBRANCH  85  88
ENDBRANCH  57  81
BRANCH  69  92
ATOM     92  C   UNL A   1      46.462  25.305  33.037  1.00  0.00     0.023 A 
ATOM     93  C   UNL A   1      47.754  25.781  32.741  1.00  0.00     0.012 A 
ATOM     94  C   UNL A   1      46.308  24.238  33.944  1.00  0.00     0.148 A 
ATOM     95  C   UNL A   1      48.877  25.185  33.317  1.00  0.00     0.002 A 
ATOM     96  C   UNL A   1      47.428  23.681  34.550  1.00  0.00     0.091 A 
ATOM     97  F   UNL A   1      45.071  23.787  34.200  1.00  0.00    -0.205 F 
ATOM     98  C   UNL A   1      48.713  24.144  34.229  1.00  0.00     0.022 A 
BRANCH  96  99
ATOM     99  S   UNL A   1      47.305  22.405  35.809  1.00  0.00     0.127 S 
ATOM    100  O   UNL A   1      46.487  23.065  36.825  1.00  0.00    -0.237 OA
ATOM    101  O   UNL A   1      46.631  21.322  35.092  1.00  0.00    -0.237 OA
ATOM    102  O   UNL A   1      48.674  22.102  36.207  1.00  0.00    -0.744 OA
ENDBRANCH  96  99
ENDBRANCH  69  92
ENDBRANCH  43  44
ENDBRANCH  36  38
ENDBRANCH  35  36
ENDBRANCH  34  35
ENDBRANCH   1  34
TORSDOF 22
ENDMDL
