MODEL 1
REMARK VINA RESULT:     -10.9      0.000      0.000
REMARK SMILES C[C@H](CN(Cc1ccccc1)C(=O)c1cc2ccccc2oc1=O)C(=O)OCCOCCOC(=O)c1ccc(-c2c3nc(c(-c4cccc(S(=O)(=O)[O-])c4F)c4ccc([nH]4)c(-c4cccc(S(=O)(=O)[O-])c4F)c4nc(c(-c5cccc(S(=O)(=O)[O-])c5F)c5ccc2[nH]5)C=C4)C=C3)cc1
REMARK SMILES IDX 29 1 28 2 27 3 25 4 26 5 2 6 1 7 3 8 4 9 5 10 6 11 7 12
REMARK SMILES IDX 11 13 8 14 10 15 9 16 12 17 13 18 14 19 15 20 23 21 16 22
REMARK SMILES IDX 22 23 24 24 17 25 21 26 18 27 20 28 19 29 30 30 31 31 32 32
REMARK SMILES IDX 33 33 34 34 35 35 36 36 37 37 98 38 38 39 97 40 39 41 40 42
REMARK SMILES IDX 41 43 91 44 42 45 96 46 90 47 92 48 43 49 95 50 89 51 88 52
REMARK SMILES IDX 44 54 76 55 56 56 75 57 57 58 60 59 74 60 93 61 58 62 59 63
REMARK SMILES IDX 73 65 94 66 61 67 45 68 46 69 54 70 47 71 49 72 55 73 48 74
REMARK SMILES IDX 50 75 51 76 52 77 53 78 77 79 78 80 86 81 79 82 81 83 87 84
REMARK SMILES IDX 80 85 82 86 83 87 84 88 85 89 62 90 63 91 71 92 64 93 66 94
REMARK SMILES IDX 72 95 65 96 67 97 68 98 69 99 70 100
REMARK H PARENT 92 53 60 64
REMARK Flexibility Score: inf
ROOT
ATOM      1  C   UNL A   1      31.788  29.673  26.867  1.00  0.00     0.202 C 
ENDROOT
BRANCH   1   2
ATOM      2  C   UNL A   1      32.253  29.064  25.533  1.00  0.00     0.261 C 
BRANCH   2   3
ATOM      3  O   UNL A   1      31.420  29.458  24.419  1.00  0.00    -0.463 OA
BRANCH   3   4
ATOM      4  C   UNL A   1      31.610  28.814  23.242  1.00  0.00     0.310 C 
ATOM      5  O   UNL A   1      30.807  28.802  22.314  1.00  0.00    -0.252 OA
BRANCH   4   6
ATOM      6  C   UNL A   1      32.929  28.056  23.179  1.00  0.00     0.115 C 
ATOM      7  C   UNL A   1      34.057  28.874  22.568  1.00  0.00     0.022 C 
BRANCH   6   8
ATOM      8  C   UNL A   1      32.810  26.632  22.604  1.00  0.00     0.135 C 
BRANCH   8   9
ATOM      9  N   UNL A   1      32.584  25.565  23.597  1.00  0.00    -0.333 N 
BRANCH   9  10
ATOM     10  C   UNL A   1      33.474  25.490  24.753  1.00  0.00     0.155 C 
BRANCH  10  11
ATOM     11  C   UNL A   1      34.637  24.519  24.570  1.00  0.00    -0.029 A 
ATOM     12  C   UNL A   1      34.844  23.777  23.393  1.00  0.00     0.005 A 
ATOM     13  C   UNL A   1      35.533  24.323  25.634  1.00  0.00     0.005 A 
ATOM     14  C   UNL A   1      35.923  22.893  23.274  1.00  0.00     0.000 A 
ATOM     15  C   UNL A   1      36.607  23.433  25.517  1.00  0.00     0.000 A 
ATOM     16  C   UNL A   1      36.805  22.722  24.338  1.00  0.00     0.000 A 
ENDBRANCH  10  11
ENDBRANCH   9  10
BRANCH   9  17
ATOM     17  C   UNL A   1      31.296  25.118  23.771  1.00  0.00     0.261 C 
ATOM     18  O   UNL A   1      30.504  25.245  22.836  1.00  0.00    -0.269 OA
BRANCH  17  19
ATOM     19  C   UNL A   1      30.872  24.346  24.981  1.00  0.00     0.126 A 
ATOM     20  C   UNL A   1      31.085  23.033  24.823  1.00  0.00     0.033 A 
ATOM     21  C   UNL A   1      30.902  24.899  26.344  1.00  0.00     0.349 A 
ATOM     22  C   UNL A   1      32.022  22.389  25.728  1.00  0.00     0.018 A 
ATOM     23  O   UNL A   1      31.498  24.103  27.335  1.00  0.00    -0.422 OA
ATOM     24  O   UNL A   1      30.395  25.981  26.615  1.00  0.00    -0.246 OA
ATOM     25  C   UNL A   1      32.906  21.390  25.296  1.00  0.00     0.012 A 
ATOM     26  C   UNL A   1      32.195  22.931  26.984  1.00  0.00     0.138 A 
ATOM     27  C   UNL A   1      33.879  20.875  26.149  1.00  0.00     0.001 A 
ATOM     28  C   UNL A   1      33.133  22.402  27.868  1.00  0.00     0.048 A 
ATOM     29  C   UNL A   1      33.969  21.362  27.449  1.00  0.00     0.004 A 
ENDBRANCH  17  19
ENDBRANCH   9  17
ENDBRANCH   8   9
ENDBRANCH   6   8
ENDBRANCH   4   6
ENDBRANCH   3   4
ENDBRANCH   2   3
ENDBRANCH   1   2
BRANCH   1  30
ATOM     30  O   UNL A   1      31.687  31.098  26.866  1.00  0.00    -0.374 OA
BRANCH  30  31
ATOM     31  C   UNL A   1      32.825  31.785  27.401  1.00  0.00     0.202 C 
BRANCH  31  32
ATOM     32  C   UNL A   1      32.778  33.334  27.297  1.00  0.00     0.261 C 
BRANCH  32  33
ATOM     33  O   UNL A   1      32.310  34.040  28.473  1.00  0.00    -0.460 OA
BRANCH  33  34
ATOM     34  C   UNL A   1      33.226  34.897  29.027  1.00  0.00     0.338 C 
ATOM     35  O   UNL A   1      33.109  36.095  29.134  1.00  0.00    -0.246 OA
BRANCH  34  36
ATOM     36  C   UNL A   1      34.390  34.151  29.592  1.00  0.00     0.060 A 
ATOM     37  C   UNL A   1      35.665  34.365  29.055  1.00  0.00     0.016 A 
ATOM     38  C   UNL A   1      34.246  33.262  30.663  1.00  0.00     0.016 A 
ATOM     39  C   UNL A   1      36.799  33.786  29.653  1.00  0.00     0.010 A 
ATOM     40  C   UNL A   1      35.383  32.649  31.237  1.00  0.00     0.010 A 
ATOM     41  C   UNL A   1      36.675  32.923  30.756  1.00  0.00    -0.014 A 
BRANCH  41  42
ATOM     42  C   UNL A   1      37.871  32.169  31.252  1.00  0.00     0.031 A 
ATOM     43  C   UNL A   1      38.521  32.651  32.523  1.00  0.00     0.074 A 
ATOM     44  C   UNL A   1      38.390  31.087  30.632  1.00  0.00     0.049 A 
ATOM     45  N   UNL A   1      39.502  32.122  33.208  1.00  0.00    -0.248 NA
ATOM     46  C   UNL A   1      37.972  33.885  33.108  1.00  0.00     0.031 C 
ATOM     47  C   UNL A   1      37.874  30.469  29.413  1.00  0.00     0.029 A 
ATOM     48  N   UNL A   1      39.489  30.314  30.948  1.00  0.00    -0.354 N 
ATOM     49  C   UNL A   1      39.674  32.945  34.312  1.00  0.00     0.074 A 
ATOM     50  C   UNL A   1      38.699  34.010  34.207  1.00  0.00     0.031 C 
ATOM     51  C   UNL A   1      38.669  29.438  29.067  1.00  0.00     0.029 A 
ATOM     52  C   UNL A   1      39.761  29.318  30.034  1.00  0.00     0.049 A 
ATOM     53  H   UNL A   1      40.031  30.460  31.757  1.00  0.00     0.167 HD
ATOM     54  C   UNL A   1      40.559  32.840  35.329  1.00  0.00     0.034 A 
ATOM     55  C   UNL A   1      40.773  28.423  29.976  1.00  0.00     0.034 A 
ATOM     56  C   UNL A   1      41.588  31.847  35.423  1.00  0.00     0.049 A 
ATOM     57  C   UNL A   1      41.820  28.400  31.069  1.00  0.00     0.074 A 
ATOM     58  C   UNL A   1      42.545  31.696  36.411  1.00  0.00     0.029 A 
ATOM     59  N   UNL A   1      41.830  30.868  34.475  1.00  0.00    -0.354 N 
ATOM     60  N   UNL A   1      41.864  29.082  32.188  1.00  0.00    -0.248 NA
ATOM     61  C   UNL A   1      42.947  27.465  30.902  1.00  0.00     0.031 C 
ATOM     62  C   UNL A   1      43.392  30.646  36.039  1.00  0.00     0.029 A 
ATOM     63  C   UNL A   1      42.942  30.130  34.835  1.00  0.00     0.049 A 
ATOM     64  H   UNL A   1      41.290  30.722  33.665  1.00  0.00     0.167 HD
ATOM     65  C   UNL A   1      42.996  28.637  32.865  1.00  0.00     0.074 A 
ATOM     66  C   UNL A   1      43.599  27.607  32.048  1.00  0.00     0.031 C 
ATOM     67  C   UNL A   1      43.504  29.061  34.050  1.00  0.00     0.034 A 
BRANCH  54  68
ATOM     68  C   UNL A   1      40.448  33.860  36.425  1.00  0.00     0.023 A 
ATOM     69  C   UNL A   1      41.010  35.137  36.235  1.00  0.00     0.012 A 
ATOM     70  C   UNL A   1      39.798  33.551  37.632  1.00  0.00     0.148 A 
ATOM     71  C   UNL A   1      40.948  36.091  37.249  1.00  0.00     0.002 A 
ATOM     72  C   UNL A   1      39.716  34.515  38.627  1.00  0.00     0.091 A 
ATOM     73  F   UNL A   1      39.299  32.317  37.792  1.00  0.00    -0.205 F 
ATOM     74  C   UNL A   1      40.297  35.783  38.441  1.00  0.00     0.022 A 
BRANCH  72  75
ATOM     75  S   UNL A   1      38.873  34.228  40.185  1.00  0.00     0.127 S 
ATOM     76  O   UNL A   1      38.790  35.584  40.728  1.00  0.00    -0.237 OA
ATOM     77  O   UNL A   1      37.596  33.668  39.743  1.00  0.00    -0.237 OA
ATOM     78  O   UNL A   1      39.717  33.310  40.937  1.00  0.00    -0.744 OA
ENDBRANCH  72  75
ENDBRANCH  54  68
BRANCH  55  79
ATOM     79  C   UNL A   1      40.878  27.442  28.848  1.00  0.00     0.023 A 
ATOM     80  C   UNL A   1      40.127  26.248  28.890  1.00  0.00     0.012 A 
ATOM     81  C   UNL A   1      41.773  27.643  27.780  1.00  0.00     0.148 A 
ATOM     82  C   UNL A   1      40.295  25.262  27.916  1.00  0.00     0.002 A 
ATOM     83  C   UNL A   1      41.900  26.677  26.786  1.00  0.00     0.091 A 
ATOM     84  F   UNL A   1      42.510  28.763  27.770  1.00  0.00    -0.205 F 
ATOM     85  C   UNL A   1      41.175  25.478  26.860  1.00  0.00     0.022 A 
BRANCH  83  86
ATOM     86  S   UNL A   1      42.945  26.921  25.345  1.00  0.00     0.127 S 
ATOM     87  O   UNL A   1      42.808  25.643  24.654  1.00  0.00    -0.237 OA
ATOM     88  O   UNL A   1      42.295  28.052  24.681  1.00  0.00    -0.237 OA
ATOM     89  O   UNL A   1      44.269  27.220  25.876  1.00  0.00    -0.744 OA
ENDBRANCH  83  86
ENDBRANCH  55  79
BRANCH  67  90
ATOM     90  C   UNL A   1      44.765  28.414  34.564  1.00  0.00     0.023 A 
ATOM     91  C   UNL A   1      46.007  29.045  34.355  1.00  0.00     0.012 A 
ATOM     92  C   UNL A   1      44.708  27.249  35.355  1.00  0.00     0.148 A 
ATOM     93  C   UNL A   1      47.174  28.519  34.910  1.00  0.00     0.002 A 
ATOM     94  C   UNL A   1      45.868  26.757  35.945  1.00  0.00     0.091 A 
ATOM     95  F   UNL A   1      43.521  26.650  35.527  1.00  0.00    -0.205 F 
ATOM     96  C   UNL A   1      47.102  27.385  35.716  1.00  0.00     0.022 A 
BRANCH  94  97
ATOM     97  S   UNL A   1      45.849  25.366  37.083  1.00  0.00     0.127 S 
ATOM     98  O   UNL A   1      47.075  25.588  37.847  1.00  0.00    -0.237 OA
ATOM     99  O   UNL A   1      44.613  25.592  37.833  1.00  0.00    -0.237 OA
ATOM    100  O   UNL A   1      45.836  24.171  36.250  1.00  0.00    -0.744 OA
ENDBRANCH  94  97
ENDBRANCH  67  90
ENDBRANCH  41  42
ENDBRANCH  34  36
ENDBRANCH  33  34
ENDBRANCH  32  33
ENDBRANCH  31  32
ENDBRANCH  30  31
ENDBRANCH   1  30
TORSDOF 23
ENDMDL
MODEL 2
REMARK VINA RESULT:     -10.7      3.169      4.518
REMARK SMILES C[C@H](CN(Cc1ccccc1)C(=O)c1cc2ccccc2oc1=O)C(=O)OCCOCCOC(=O)c1ccc(-c2c3nc(c(-c4cccc(S(=O)(=O)[O-])c4F)c4ccc([nH]4)c(-c4cccc(S(=O)(=O)[O-])c4F)c4nc(c(-c5cccc(S(=O)(=O)[O-])c5F)c5ccc2[nH]5)C=C4)C=C3)cc1
REMARK SMILES IDX 29 1 28 2 27 3 25 4 26 5 2 6 1 7 3 8 4 9 5 10 6 11 7 12
REMARK SMILES IDX 11 13 8 14 10 15 9 16 12 17 13 18 14 19 15 20 23 21 16 22
REMARK SMILES IDX 22 23 24 24 17 25 21 26 18 27 20 28 19 29 30 30 31 31 32 32
REMARK SMILES IDX 33 33 34 34 35 35 36 36 37 37 98 38 38 39 97 40 39 41 40 42
REMARK SMILES IDX 41 43 91 44 42 45 96 46 90 47 92 48 43 49 95 50 89 51 88 52
REMARK SMILES IDX 44 54 76 55 56 56 75 57 57 58 60 59 74 60 93 61 58 62 59 63
REMARK SMILES IDX 73 65 94 66 61 67 45 68 46 69 54 70 47 71 49 72 55 73 48 74
REMARK SMILES IDX 50 75 51 76 52 77 53 78 77 79 78 80 86 81 79 82 81 83 87 84
REMARK SMILES IDX 80 85 82 86 83 87 84 88 85 89 62 90 63 91 71 92 64 93 66 94
REMARK SMILES IDX 72 95 65 96 67 97 68 98 69 99 70 100
REMARK H PARENT 92 53 60 64
REMARK Flexibility Score: inf
ROOT
ATOM      1  C   UNL A   1      32.363  28.814  24.225  1.00  0.00     0.202 C 
ENDROOT
BRANCH   1   2
ATOM      2  C   UNL A   1      31.945  28.418  22.799  1.00  0.00     0.261 C 
BRANCH   2   3
ATOM      3  O   UNL A   1      31.111  27.238  22.769  1.00  0.00    -0.463 OA
BRANCH   3   4
ATOM      4  C   UNL A   1      31.519  26.208  21.988  1.00  0.00     0.310 C 
ATOM      5  O   UNL A   1      31.663  26.270  20.770  1.00  0.00    -0.252 OA
BRANCH   4   6
ATOM      6  C   UNL A   1      31.758  24.922  22.766  1.00  0.00     0.115 C 
ATOM      7  C   UNL A   1      30.593  24.546  23.668  1.00  0.00     0.022 C 
BRANCH   6   8
ATOM      8  C   UNL A   1      33.131  24.854  23.462  1.00  0.00     0.135 C 
BRANCH   8   9
ATOM      9  N   UNL A   1      33.507  23.530  23.993  1.00  0.00    -0.333 N 
BRANCH   9  10
ATOM     10  C   UNL A   1      34.612  22.815  23.359  1.00  0.00     0.155 C 
BRANCH  10  11
ATOM     11  C   UNL A   1      35.848  22.684  24.245  1.00  0.00    -0.029 A 
ATOM     12  C   UNL A   1      36.462  21.451  24.533  1.00  0.00     0.005 A 
ATOM     13  C   UNL A   1      36.389  23.838  24.833  1.00  0.00     0.005 A 
ATOM     14  C   UNL A   1      37.592  21.380  25.357  1.00  0.00     0.000 A 
ATOM     15  C   UNL A   1      37.513  23.765  25.662  1.00  0.00     0.000 A 
ATOM     16  C   UNL A   1      38.118  22.539  25.920  1.00  0.00     0.000 A 
ENDBRANCH  10  11
ENDBRANCH   9  10
BRANCH   9  17
ATOM     17  C   UNL A   1      33.300  23.297  25.332  1.00  0.00     0.261 C 
ATOM     18  O   UNL A   1      33.367  24.252  26.107  1.00  0.00    -0.269 OA
BRANCH  17  19
ATOM     19  C   UNL A   1      32.839  21.973  25.852  1.00  0.00     0.126 A 
ATOM     20  C   UNL A   1      31.964  21.395  25.017  1.00  0.00     0.033 A 
ATOM     21  C   UNL A   1      33.670  21.105  26.702  1.00  0.00     0.349 A 
ATOM     22  C   UNL A   1      32.343  20.127  24.418  1.00  0.00     0.018 A 
ATOM     23  O   UNL A   1      33.753  19.753  26.333  1.00  0.00    -0.422 OA
ATOM     24  O   UNL A   1      34.228  21.526  27.707  1.00  0.00    -0.246 OA
ATOM     25  C   UNL A   1      32.029  19.809  23.089  1.00  0.00     0.012 A 
ATOM     26  C   UNL A   1      33.222  19.315  25.104  1.00  0.00     0.138 A 
ATOM     27  C   UNL A   1      32.507  18.642  22.497  1.00  0.00     0.001 A 
ATOM     28  C   UNL A   1      33.678  18.123  24.548  1.00  0.00     0.048 A 
ATOM     29  C   UNL A   1      33.307  17.782  23.242  1.00  0.00     0.004 A 
ENDBRANCH  17  19
ENDBRANCH   9  17
ENDBRANCH   8   9
ENDBRANCH   6   8
ENDBRANCH   4   6
ENDBRANCH   3   4
ENDBRANCH   2   3
ENDBRANCH   1   2
BRANCH   1  30
ATOM     30  O   UNL A   1      32.250  27.767  25.189  1.00  0.00    -0.374 OA
BRANCH  30  31
ATOM     31  C   UNL A   1      32.951  27.999  26.418  1.00  0.00     0.202 C 
BRANCH  31  32
ATOM     32  C   UNL A   1      32.910  29.460  26.943  1.00  0.00     0.261 C 
BRANCH  32  33
ATOM     33  O   UNL A   1      34.071  30.278  26.654  1.00  0.00    -0.460 OA
BRANCH  33  34
ATOM     34  C   UNL A   1      34.595  30.932  27.739  1.00  0.00     0.338 C 
ATOM     35  O   UNL A   1      34.073  31.836  28.348  1.00  0.00    -0.246 OA
BRANCH  34  36
ATOM     36  C   UNL A   1      35.889  30.320  28.164  1.00  0.00     0.060 A 
ATOM     37  C   UNL A   1      35.973  29.698  29.415  1.00  0.00     0.016 A 
ATOM     38  C   UNL A   1      37.016  30.329  27.334  1.00  0.00     0.016 A 
ATOM     39  C   UNL A   1      37.133  28.992  29.786  1.00  0.00     0.010 A 
ATOM     40  C   UNL A   1      38.195  29.655  27.727  1.00  0.00     0.010 A 
ATOM     41  C   UNL A   1      38.259  28.957  28.945  1.00  0.00    -0.014 A 
BRANCH  41  42
ATOM     42  C   UNL A   1      39.543  28.367  29.442  1.00  0.00     0.031 A 
ATOM     43  C   UNL A   1      40.307  29.139  30.487  1.00  0.00     0.074 A 
ATOM     44  C   UNL A   1      40.046  27.188  29.015  1.00  0.00     0.049 A 
ATOM     45  N   UNL A   1      41.388  28.804  31.144  1.00  0.00    -0.248 NA
ATOM     46  C   UNL A   1      39.763  30.457  30.850  1.00  0.00     0.031 C 
ATOM     47  C   UNL A   1      39.429  26.298  28.035  1.00  0.00     0.029 A 
ATOM     48  N   UNL A   1      41.215  26.536  29.354  1.00  0.00    -0.354 N 
ATOM     49  C   UNL A   1      41.639  29.859  32.011  1.00  0.00     0.074 A 
ATOM     50  C   UNL A   1      40.603  30.845  31.797  1.00  0.00     0.031 C 
ATOM     51  C   UNL A   1      40.234  25.239  27.827  1.00  0.00     0.029 A 
ATOM     52  C   UNL A   1      41.434  25.369  28.654  1.00  0.00     0.049 A 
ATOM     53  H   UNL A   1      41.837  26.875  30.038  1.00  0.00     0.167 HD
ATOM     54  C   UNL A   1      42.640  30.008  32.909  1.00  0.00     0.034 A 
ATOM     55  C   UNL A   1      42.480  24.512  28.668  1.00  0.00     0.034 A 
ATOM     56  C   UNL A   1      43.726  29.090  33.089  1.00  0.00     0.049 A 
ATOM     57  C   UNL A   1      43.645  24.763  29.602  1.00  0.00     0.074 A 
ATOM     58  C   UNL A   1      44.796  29.191  33.960  1.00  0.00     0.029 A 
ATOM     59  N   UNL A   1      43.910  27.931  32.356  1.00  0.00    -0.354 N 
ATOM     60  N   UNL A   1      43.779  25.680  30.530  1.00  0.00    -0.248 NA
ATOM     61  C   UNL A   1      44.794  23.846  29.506  1.00  0.00     0.031 C 
ATOM     62  C   UNL A   1      45.651  28.108  33.725  1.00  0.00     0.029 A 
ATOM     63  C   UNL A   1      45.095  27.323  32.729  1.00  0.00     0.049 A 
ATOM     64  H   UNL A   1      43.290  27.592  31.671  1.00  0.00     0.167 HD
ATOM     65  C   UNL A   1      45.004  25.430  31.143  1.00  0.00     0.074 A 
ATOM     66  C   UNL A   1      45.565  24.259  30.503  1.00  0.00     0.031 C 
ATOM     67  C   UNL A   1      45.620  26.122  32.134  1.00  0.00     0.034 A 
BRANCH  54  68
ATOM     68  C   UNL A   1      42.599  31.244  33.759  1.00  0.00     0.023 A 
ATOM     69  C   UNL A   1      43.217  32.422  33.292  1.00  0.00     0.012 A 
ATOM     70  C   UNL A   1      41.962  31.236  35.012  1.00  0.00     0.148 A 
ATOM     71  C   UNL A   1      43.220  33.573  34.077  1.00  0.00     0.002 A 
ATOM     72  C   UNL A   1      41.945  32.394  35.776  1.00  0.00     0.091 A 
ATOM     73  F   UNL A   1      41.410  30.091  35.440  1.00  0.00    -0.205 F 
ATOM     74  C   UNL A   1      42.581  33.561  35.314  1.00  0.00     0.022 A 
BRANCH  72  75
ATOM     75  S   UNL A   1      41.124  32.491  37.368  1.00  0.00     0.127 S 
ATOM     76  O   UNL A   1      41.991  31.655  38.198  1.00  0.00    -0.237 OA
ATOM     77  O   UNL A   1      41.193  33.923  37.661  1.00  0.00    -0.237 OA
ATOM     78  O   UNL A   1      39.778  31.974  37.160  1.00  0.00    -0.744 OA
ENDBRANCH  72  75
ENDBRANCH  54  68
BRANCH  55  79
ATOM     79  C   UNL A   1      42.508  23.307  27.780  1.00  0.00     0.023 A 
ATOM     80  C   UNL A   1      41.685  22.200  28.078  1.00  0.00     0.012 A 
ATOM     81  C   UNL A   1      43.400  23.215  26.693  1.00  0.00     0.148 A 
ATOM     82  C   UNL A   1      41.778  21.018  27.339  1.00  0.00     0.002 A 
ATOM     83  C   UNL A   1      43.453  22.051  25.931  1.00  0.00     0.091 A 
ATOM     84  F   UNL A   1      44.204  24.258  26.442  1.00  0.00    -0.205 F 
ATOM     85  C   UNL A   1      42.656  20.946  26.262  1.00  0.00     0.022 A 
BRANCH  83  86
ATOM     86  S   UNL A   1      44.492  21.913  24.472  1.00  0.00     0.127 S 
ATOM     87  O   UNL A   1      44.390  20.489  24.165  1.00  0.00    -0.237 OA
ATOM     88  O   UNL A   1      43.810  22.796  23.523  1.00  0.00    -0.237 OA
ATOM     89  O   UNL A   1      45.806  22.384  24.889  1.00  0.00    -0.744 OA
ENDBRANCH  83  86
ENDBRANCH  55  79
BRANCH  67  90
ATOM     90  C   UNL A   1      46.965  25.642  32.617  1.00  0.00     0.023 A 
ATOM     91  C   UNL A   1      47.042  24.821  33.760  1.00  0.00     0.012 A 
ATOM     92  C   UNL A   1      48.135  25.901  31.874  1.00  0.00     0.148 A 
ATOM     93  C   UNL A   1      48.263  24.280  34.165  1.00  0.00     0.002 A 
ATOM     94  C   UNL A   1      49.339  25.320  32.256  1.00  0.00     0.091 A 
ATOM     95  F   UNL A   1      48.046  26.700  30.801  1.00  0.00    -0.205 F 
ATOM     96  C   UNL A   1      49.407  24.517  33.406  1.00  0.00     0.022 A 
BRANCH  94  97
ATOM     97  S   UNL A   1      50.837  25.484  31.277  1.00  0.00     0.127 S 
ATOM     98  O   UNL A   1      51.736  24.544  31.944  1.00  0.00    -0.237 OA
ATOM     99  O   UNL A   1      50.391  25.063  29.948  1.00  0.00    -0.237 OA
ATOM    100  O   UNL A   1      51.218  26.887  31.365  1.00  0.00    -0.744 OA
ENDBRANCH  94  97
ENDBRANCH  67  90
ENDBRANCH  41  42
ENDBRANCH  34  36
ENDBRANCH  33  34
ENDBRANCH  32  33
ENDBRANCH  31  32
ENDBRANCH  30  31
ENDBRANCH   1  30
TORSDOF 23
ENDMDL
MODEL 3
REMARK VINA RESULT:     -10.7      3.153      4.467
REMARK SMILES C[C@H](CN(Cc1ccccc1)C(=O)c1cc2ccccc2oc1=O)C(=O)OCCOCCOC(=O)c1ccc(-c2c3nc(c(-c4cccc(S(=O)(=O)[O-])c4F)c4ccc([nH]4)c(-c4cccc(S(=O)(=O)[O-])c4F)c4nc(c(-c5cccc(S(=O)(=O)[O-])c5F)c5ccc2[nH]5)C=C4)C=C3)cc1
REMARK SMILES IDX 29 1 28 2 27 3 25 4 26 5 2 6 1 7 3 8 4 9 5 10 6 11 7 12
REMARK SMILES IDX 11 13 8 14 10 15 9 16 12 17 13 18 14 19 15 20 23 21 16 22
REMARK SMILES IDX 22 23 24 24 17 25 21 26 18 27 20 28 19 29 30 30 31 31 32 32
REMARK SMILES IDX 33 33 34 34 35 35 36 36 37 37 98 38 38 39 97 40 39 41 40 42
REMARK SMILES IDX 41 43 91 44 42 45 96 46 90 47 92 48 43 49 95 50 89 51 88 52
REMARK SMILES IDX 44 54 76 55 56 56 75 57 57 58 60 59 74 60 93 61 58 62 59 63
REMARK SMILES IDX 73 65 94 66 61 67 45 68 46 69 54 70 47 71 49 72 55 73 48 74
REMARK SMILES IDX 50 75 51 76 52 77 53 78 77 79 78 80 86 81 79 82 81 83 87 84
REMARK SMILES IDX 80 85 82 86 83 87 84 88 85 89 62 90 63 91 71 92 64 93 66 94
REMARK SMILES IDX 72 95 65 96 67 97 68 98 69 99 70 100
REMARK H PARENT 92 53 60 64
REMARK Flexibility Score: inf
ROOT
ATOM      1  C   UNL A   1      30.843  28.950  23.706  1.00  0.00     0.202 C 
ENDROOT
BRANCH   1   2
ATOM      2  C   UNL A   1      31.044  27.631  22.940  1.00  0.00     0.261 C 
BRANCH   2   3
ATOM      3  O   UNL A   1      31.579  26.578  23.774  1.00  0.00    -0.463 OA
BRANCH   3   4
ATOM      4  C   UNL A   1      32.692  25.942  23.332  1.00  0.00     0.310 C 
ATOM      5  O   UNL A   1      33.213  26.125  22.236  1.00  0.00    -0.252 OA
BRANCH   4   6
ATOM      6  C   UNL A   1      33.237  24.927  24.328  1.00  0.00     0.115 C 
ATOM      7  C   UNL A   1      33.389  25.492  25.731  1.00  0.00     0.022 C 
BRANCH   6   8
ATOM      8  C   UNL A   1      34.476  24.160  23.828  1.00  0.00     0.135 C 
BRANCH   8   9
ATOM      9  N   UNL A   1      34.291  22.707  23.650  1.00  0.00    -0.333 N 
BRANCH   9  10
ATOM     10  C   UNL A   1      34.840  21.806  24.661  1.00  0.00     0.155 C 
BRANCH  10  11
ATOM     11  C   UNL A   1      36.195  22.247  25.206  1.00  0.00    -0.029 A 
ATOM     12  C   UNL A   1      36.405  23.488  25.837  1.00  0.00     0.005 A 
ATOM     13  C   UNL A   1      37.301  21.397  25.049  1.00  0.00     0.005 A 
ATOM     14  C   UNL A   1      37.670  23.851  26.316  1.00  0.00     0.000 A 
ATOM     15  C   UNL A   1      38.566  21.765  25.521  1.00  0.00     0.000 A 
ATOM     16  C   UNL A   1      38.750  22.988  26.158  1.00  0.00     0.000 A 
ENDBRANCH  10  11
ENDBRANCH   9  10
BRANCH   9  17
ATOM     17  C   UNL A   1      33.168  22.284  22.981  1.00  0.00     0.261 C 
ATOM     18  O   UNL A   1      33.018  22.639  21.811  1.00  0.00    -0.269 OA
BRANCH  17  19
ATOM     19  C   UNL A   1      32.215  21.288  23.563  1.00  0.00     0.126 A 
ATOM     20  C   UNL A   1      32.148  20.178  22.815  1.00  0.00     0.033 A 
ATOM     21  C   UNL A   1      31.946  21.175  25.005  1.00  0.00     0.349 A 
ATOM     22  C   UNL A   1      32.573  18.929  23.424  1.00  0.00     0.018 A 
ATOM     23  O   UNL A   1      31.993  19.885  25.557  1.00  0.00    -0.422 OA
ATOM     24  O   UNL A   1      31.651  22.149  25.687  1.00  0.00    -0.246 OA
ATOM     25  C   UNL A   1      33.285  17.957  22.709  1.00  0.00     0.012 A 
ATOM     26  C   UNL A   1      32.467  18.800  24.794  1.00  0.00     0.138 A 
ATOM     27  C   UNL A   1      33.790  16.824  23.343  1.00  0.00     0.001 A 
ATOM     28  C   UNL A   1      32.926  17.656  25.442  1.00  0.00     0.048 A 
ATOM     29  C   UNL A   1      33.579  16.660  24.708  1.00  0.00     0.004 A 
ENDBRANCH  17  19
ENDBRANCH   9  17
ENDBRANCH   8   9
ENDBRANCH   6   8
ENDBRANCH   4   6
ENDBRANCH   3   4
ENDBRANCH   2   3
ENDBRANCH   1   2
BRANCH   1  30
ATOM     30  O   UNL A   1      31.967  29.362  24.485  1.00  0.00    -0.374 OA
BRANCH  30  31
ATOM     31  C   UNL A   1      31.747  29.376  25.901  1.00  0.00     0.202 C 
BRANCH  31  32
ATOM     32  C   UNL A   1      32.613  30.387  26.700  1.00  0.00     0.261 C 
BRANCH  32  33
ATOM     33  O   UNL A   1      33.874  29.887  27.213  1.00  0.00    -0.460 OA
BRANCH  33  34
ATOM     34  C   UNL A   1      34.563  30.774  27.999  1.00  0.00     0.338 C 
ATOM     35  O   UNL A   1      34.159  31.842  28.393  1.00  0.00    -0.246 OA
BRANCH  34  36
ATOM     36  C   UNL A   1      35.886  30.214  28.410  1.00  0.00     0.060 A 
ATOM     37  C   UNL A   1      36.982  30.350  27.550  1.00  0.00     0.016 A 
ATOM     38  C   UNL A   1      36.066  29.580  29.645  1.00  0.00     0.016 A 
ATOM     39  C   UNL A   1      38.268  29.960  27.966  1.00  0.00     0.010 A 
ATOM     40  C   UNL A   1      37.353  29.152  30.043  1.00  0.00     0.010 A 
ATOM     41  C   UNL A   1      38.473  29.359  29.221  1.00  0.00    -0.014 A 
BRANCH  41  42
ATOM     42  C   UNL A   1      39.811  28.778  29.561  1.00  0.00     0.031 A 
ATOM     43  C   UNL A   1      40.634  29.486  30.606  1.00  0.00     0.074 A 
ATOM     44  C   UNL A   1      40.314  27.660  28.991  1.00  0.00     0.049 A 
ATOM     45  N   UNL A   1      41.775  29.138  31.143  1.00  0.00    -0.248 NA
ATOM     46  C   UNL A   1      40.080  30.746  31.127  1.00  0.00     0.031 C 
ATOM     47  C   UNL A   1      39.647  26.836  27.988  1.00  0.00     0.029 A 
ATOM     48  N   UNL A   1      41.527  27.027  29.178  1.00  0.00    -0.354 N 
ATOM     49  C   UNL A   1      42.064  30.122  32.078  1.00  0.00     0.074 A 
ATOM     50  C   UNL A   1      40.982  31.083  32.035  1.00  0.00     0.031 C 
ATOM     51  C   UNL A   1      40.465  25.830  27.624  1.00  0.00     0.029 A 
ATOM     52  C   UNL A   1      41.724  25.934  28.362  1.00  0.00     0.049 A 
ATOM     53  H   UNL A   1      42.192  27.330  29.838  1.00  0.00     0.167 HD
ATOM     54  C   UNL A   1      43.129  30.232  32.904  1.00  0.00     0.034 A 
ATOM     55  C   UNL A   1      42.795  25.120  28.217  1.00  0.00     0.034 A 
ATOM     56  C   UNL A   1      44.254  29.345  32.916  1.00  0.00     0.049 A 
ATOM     57  C   UNL A   1      44.024  25.334  29.075  1.00  0.00     0.074 A 
ATOM     58  C   UNL A   1      45.389  29.411  33.705  1.00  0.00     0.029 A 
ATOM     59  N   UNL A   1      44.414  28.261  32.071  1.00  0.00    -0.354 N 
ATOM     60  N   UNL A   1      44.205  26.172  30.067  1.00  0.00    -0.248 NA
ATOM     61  C   UNL A   1      45.189  24.473  28.807  1.00  0.00     0.031 C 
ATOM     62  C   UNL A   1      46.255  28.386  33.308  1.00  0.00     0.029 A 
ATOM     63  C   UNL A   1      45.644  27.669  32.293  1.00  0.00     0.049 A 
ATOM     64  H   UNL A   1      43.751  27.959  31.409  1.00  0.00     0.167 HD
ATOM     65  C   UNL A   1      45.484  25.917  30.557  1.00  0.00     0.074 A 
ATOM     66  C   UNL A   1      46.026  24.829  29.773  1.00  0.00     0.031 C 
ATOM     67  C   UNL A   1      46.157  26.545  31.553  1.00  0.00     0.034 A 
BRANCH  54  68
ATOM     68  C   UNL A   1      43.119  31.388  33.862  1.00  0.00     0.023 A 
ATOM     69  C   UNL A   1      43.700  32.611  33.471  1.00  0.00     0.012 A 
ATOM     70  C   UNL A   1      42.547  31.260  35.139  1.00  0.00     0.148 A 
ATOM     71  C   UNL A   1      43.732  33.689  34.353  1.00  0.00     0.002 A 
ATOM     72  C   UNL A   1      42.558  32.346  36.002  1.00  0.00     0.091 A 
ATOM     73  F   UNL A   1      42.029  30.074  35.491  1.00  0.00    -0.205 F 
ATOM     74  C   UNL A   1      43.157  33.558  35.615  1.00  0.00     0.022 A 
BRANCH  72  75
ATOM     75  S   UNL A   1      41.818  32.291  37.636  1.00  0.00     0.127 S 
ATOM     76  O   UNL A   1      42.028  33.662  38.100  1.00  0.00    -0.237 OA
ATOM     77  O   UNL A   1      40.427  31.956  37.330  1.00  0.00    -0.237 OA
ATOM     78  O   UNL A   1      42.545  31.268  38.375  1.00  0.00    -0.744 OA
ENDBRANCH  72  75
ENDBRANCH  54  68
BRANCH  55  79
ATOM     79  C   UNL A   1      42.788  23.998  27.225  1.00  0.00     0.023 A 
ATOM     80  C   UNL A   1      43.214  24.235  25.901  1.00  0.00     0.012 A 
ATOM     81  C   UNL A   1      42.288  22.724  27.559  1.00  0.00     0.148 A 
ATOM     82  C   UNL A   1      43.105  23.241  24.924  1.00  0.00     0.002 A 
ATOM     83  C   UNL A   1      42.227  21.724  26.593  1.00  0.00     0.091 A 
ATOM     84  F   UNL A   1      41.851  22.522  28.810  1.00  0.00    -0.205 F 
ATOM     85  C   UNL A   1      42.619  21.985  25.271  1.00  0.00     0.022 A 
BRANCH  83  86
ATOM     86  S   UNL A   1      41.699  20.051  26.983  1.00  0.00     0.127 S 
ATOM     87  O   UNL A   1      41.551  19.466  25.653  1.00  0.00    -0.237 OA
ATOM     88  O   UNL A   1      42.833  19.542  27.756  1.00  0.00    -0.237 OA
ATOM     89  O   UNL A   1      40.471  20.206  27.752  1.00  0.00    -0.744 OA
ENDBRANCH  83  86
ENDBRANCH  55  79
BRANCH  67  90
ATOM     90  C   UNL A   1      47.551  26.077  31.884  1.00  0.00     0.023 A 
ATOM     91  C   UNL A   1      48.652  26.628  31.200  1.00  0.00     0.012 A 
ATOM     92  C   UNL A   1      47.779  25.185  32.951  1.00  0.00     0.148 A 
ATOM     93  C   UNL A   1      49.956  26.288  31.560  1.00  0.00     0.002 A 
ATOM     94  C   UNL A   1      49.082  24.886  33.336  1.00  0.00     0.091 A 
ATOM     95  F   UNL A   1      46.720  24.654  33.579  1.00  0.00    -0.205 F 
ATOM     96  C   UNL A   1      50.171  25.429  32.636  1.00  0.00     0.022 A 
BRANCH  94  97
ATOM     97  S   UNL A   1      49.449  23.876  34.776  1.00  0.00     0.127 S 
ATOM     98  O   UNL A   1      49.158  22.532  34.281  1.00  0.00    -0.237 OA
ATOM     99  O   UNL A   1      50.870  24.150  34.997  1.00  0.00    -0.237 OA
ATOM    100  O   UNL A   1      48.573  24.359  35.835  1.00  0.00    -0.744 OA
ENDBRANCH  94  97
ENDBRANCH  67  90
ENDBRANCH  41  42
ENDBRANCH  34  36
ENDBRANCH  33  34
ENDBRANCH  32  33
ENDBRANCH  31  32
ENDBRANCH  30  31
ENDBRANCH   1  30
TORSDOF 23
ENDMDL
