MODEL 1
REMARK VINA RESULT:     -11.2      0.000      0.000
REMARK SMILES CCC[C@H]1CC[C@H](C(=O)OCCOCCOC(=O)c2ccc(-c3c4nc(c(-c5cccc(S(=O)(=O)[O-])c5F)c5ccc([nH]5)c(-c5cccc(S(=O)(=O)[O-])c5F)c5nc(c(-c6cccc(S(=O)(=O)[O-])c6F)c6ccc3[nH]6)C=C5)C=C4)cc2)[C@H](Sc2ccncc2)C1
REMARK SMILES IDX 14 1 13 2 12 3 11 4 10 5 8 6 9 7 7 8 4 9 5 10 90 11 6 12
REMARK SMILES IDX 82 13 3 14 2 15 1 16 83 17 84 18 85 19 89 20 86 21 88 22
REMARK SMILES IDX 87 23 15 24 16 25 17 26 18 27 19 28 20 29 81 30 21 31 80 32
REMARK SMILES IDX 22 33 23 34 24 35 74 36 25 37 79 38 73 39 75 40 26 41 78 42
REMARK SMILES IDX 72 43 71 44 27 46 59 47 39 48 58 49 40 50 43 51 57 52 76 53
REMARK SMILES IDX 41 54 42 55 56 57 77 58 44 59 28 60 29 61 37 62 30 63 32 64
REMARK SMILES IDX 38 65 31 66 33 67 34 68 35 69 36 70 60 71 61 72 69 73 62 74
REMARK SMILES IDX 64 75 70 76 63 77 65 78 66 79 67 80 68 81 45 82 46 83 54 84
REMARK SMILES IDX 47 85 49 86 55 87 48 88 50 89 51 90 52 91 53 92
REMARK H PARENT 75 45 43 56
REMARK Flexibility Score: inf
ROOT
ATOM      1  C   UNL A   1      32.272  29.666  25.527  1.00  0.00     0.202 C 
ENDROOT
BRANCH   1   2
ATOM      2  O   UNL A   1      31.317  28.608  25.509  1.00  0.00    -0.374 OA
BRANCH   2   3
ATOM      3  C   UNL A   1      31.662  27.371  26.113  1.00  0.00     0.202 C 
BRANCH   3   4
ATOM      4  C   UNL A   1      31.085  26.067  25.548  1.00  0.00     0.261 C 
BRANCH   4   5
ATOM      5  O   UNL A   1      31.876  25.337  24.608  1.00  0.00    -0.463 OA
BRANCH   5   6
ATOM      6  C   UNL A   1      31.695  23.991  24.610  1.00  0.00     0.310 C 
ATOM      7  O   UNL A   1      30.771  23.406  25.165  1.00  0.00    -0.252 OA
BRANCH   6   8
ATOM      8  C   UNL A   1      32.762  23.257  23.827  1.00  0.00     0.112 C 
ATOM      9  C   UNL A   1      35.592  23.420  24.865  1.00  0.00    -0.010 C 
ATOM     10  C   UNL A   1      34.935  24.622  24.162  1.00  0.00     0.004 C 
ATOM     11  C   UNL A   1      34.508  22.585  25.578  1.00  0.00     0.019 C 
ATOM     12  C   UNL A   1      33.798  24.221  23.215  1.00  0.00     0.017 C 
ATOM     13  C   UNL A   1      33.430  22.107  24.600  1.00  0.00     0.066 C 
BRANCH   9  14
ATOM     14  C   UNL A   1      36.477  22.654  23.849  1.00  0.00     0.003 C 
BRANCH  14  15
ATOM     15  C   UNL A   1      37.144  21.371  24.352  1.00  0.00    -0.003 C 
ATOM     16  C   UNL A   1      38.165  21.601  25.458  1.00  0.00     0.004 C 
ENDBRANCH  14  15
ENDBRANCH   9  14
BRANCH  13  17
ATOM     17  S   UNL A   1      32.335  20.757  25.248  1.00  0.00    -0.122 SA
BRANCH  17  18
ATOM     18  C   UNL A   1      32.750  19.302  24.308  1.00  0.00     0.011 A 
ATOM     19  C   UNL A   1      32.287  19.186  22.997  1.00  0.00     0.035 A 
ATOM     20  C   UNL A   1      33.627  18.336  24.792  1.00  0.00     0.035 A 
ATOM     21  C   UNL A   1      32.642  18.070  22.259  1.00  0.00     0.112 A 
ATOM     22  C   UNL A   1      33.950  17.267  23.968  1.00  0.00     0.112 A 
ATOM     23  N   UNL A   1      33.460  17.102  22.719  1.00  0.00    -0.265 NA
ENDBRANCH  17  18
ENDBRANCH  13  17
ENDBRANCH   6   8
ENDBRANCH   5   6
ENDBRANCH   4   5
ENDBRANCH   3   4
ENDBRANCH   2   3
ENDBRANCH   1   2
BRANCH   1  24
ATOM     24  C   UNL A   1      31.943  30.908  26.355  1.00  0.00     0.261 C 
BRANCH  24  25
ATOM     25  O   UNL A   1      32.707  30.955  27.576  1.00  0.00    -0.460 OA
BRANCH  25  26
ATOM     26  C   UNL A   1      33.524  32.027  27.678  1.00  0.00     0.338 C 
ATOM     27  O   UNL A   1      33.188  33.199  27.793  1.00  0.00    -0.246 OA
BRANCH  26  28
ATOM     28  C   UNL A   1      34.930  31.610  27.812  1.00  0.00     0.060 A 
ATOM     29  C   UNL A   1      35.183  30.234  27.878  1.00  0.00     0.016 A 
ATOM     30  C   UNL A   1      35.949  32.537  28.035  1.00  0.00     0.016 A 
ATOM     31  C   UNL A   1      36.436  29.779  28.273  1.00  0.00     0.010 A 
ATOM     32  C   UNL A   1      37.208  32.077  28.436  1.00  0.00     0.010 A 
ATOM     33  C   UNL A   1      37.432  30.701  28.621  1.00  0.00    -0.014 A 
BRANCH  33  34
ATOM     34  C   UNL A   1      38.613  30.213  29.372  1.00  0.00     0.031 A 
ATOM     35  C   UNL A   1      38.769  30.615  30.815  1.00  0.00     0.074 A 
ATOM     36  C   UNL A   1      39.495  29.377  28.800  1.00  0.00     0.049 A 
ATOM     37  N   UNL A   1      39.677  30.250  31.682  1.00  0.00    -0.248 NA
ATOM     38  C   UNL A   1      37.768  31.552  31.356  1.00  0.00     0.031 C 
ATOM     39  C   UNL A   1      39.444  28.917  27.414  1.00  0.00     0.029 A 
ATOM     40  N   UNL A   1      40.612  28.773  29.318  1.00  0.00    -0.354 N 
ATOM     41  C   UNL A   1      39.370  30.923  32.860  1.00  0.00     0.074 A 
ATOM     42  C   UNL A   1      38.203  31.736  32.592  1.00  0.00     0.031 C 
ATOM     43  C   UNL A   1      40.496  28.114  27.185  1.00  0.00     0.029 A 
ATOM     44  C   UNL A   1      41.296  28.010  28.403  1.00  0.00     0.049 A 
ATOM     45  H   UNL A   1      40.895  28.876  30.255  1.00  0.00     0.167 HD
ATOM     46  C   UNL A   1      39.987  30.854  34.063  1.00  0.00     0.034 A 
ATOM     47  C   UNL A   1      42.442  27.311  28.538  1.00  0.00     0.034 A 
ATOM     48  C   UNL A   1      41.128  30.025  34.334  1.00  0.00     0.049 A 
ATOM     49  C   UNL A   1      43.108  27.250  29.887  1.00  0.00     0.074 A 
ATOM     50  C   UNL A   1      41.802  29.851  35.530  1.00  0.00     0.029 A 
ATOM     51  N   UNL A   1      41.769  29.233  33.394  1.00  0.00    -0.354 N 
ATOM     52  N   UNL A   1      42.732  27.791  31.021  1.00  0.00    -0.248 NA
ATOM     53  C   UNL A   1      44.334  26.444  29.986  1.00  0.00     0.031 C 
ATOM     54  C   UNL A   1      42.862  28.965  35.309  1.00  0.00     0.029 A 
ATOM     55  C   UNL A   1      42.836  28.573  33.980  1.00  0.00     0.049 A 
ATOM     56  H   UNL A   1      41.505  29.152  32.450  1.00  0.00     0.167 HD
ATOM     57  C   UNL A   1      43.653  27.367  31.973  1.00  0.00     0.074 A 
ATOM     58  C   UNL A   1      44.593  26.503  31.285  1.00  0.00     0.031 C 
ATOM     59  C   UNL A   1      43.727  27.675  33.291  1.00  0.00     0.034 A 
BRANCH  46  60
ATOM     60  C   UNL A   1      39.413  31.674  35.188  1.00  0.00     0.023 A 
ATOM     61  C   UNL A   1      38.481  31.088  36.069  1.00  0.00     0.012 A 
ATOM     62  C   UNL A   1      39.828  33.002  35.403  1.00  0.00     0.148 A 
ATOM     63  C   UNL A   1      37.948  31.821  37.130  1.00  0.00     0.002 A 
ATOM     64  C   UNL A   1      39.322  33.714  36.485  1.00  0.00     0.091 A 
ATOM     65  F   UNL A   1      40.693  33.551  34.539  1.00  0.00    -0.205 F 
ATOM     66  C   UNL A   1      38.376  33.129  37.343  1.00  0.00     0.022 A 
BRANCH  64  67
ATOM     67  S   UNL A   1      39.863  35.381  36.882  1.00  0.00     0.127 S 
ATOM     68  O   UNL A   1      39.155  35.629  38.136  1.00  0.00    -0.237 OA
ATOM     69  O   UNL A   1      41.309  35.212  37.021  1.00  0.00    -0.237 OA
ATOM     70  O   UNL A   1      39.456  36.211  35.756  1.00  0.00    -0.744 OA
ENDBRANCH  64  67
ENDBRANCH  46  60
BRANCH  47  71
ATOM     71  C   UNL A   1      42.995  26.568  27.372  1.00  0.00     0.023 A 
ATOM     72  C   UNL A   1      43.915  27.200  26.514  1.00  0.00     0.012 A 
ATOM     73  C   UNL A   1      42.633  25.229  27.126  1.00  0.00     0.148 A 
ATOM     74  C   UNL A   1      44.446  26.521  25.417  1.00  0.00     0.002 A 
ATOM     75  C   UNL A   1      43.208  24.541  26.064  1.00  0.00     0.091 A 
ATOM     76  F   UNL A   1      41.740  24.651  27.941  1.00  0.00    -0.205 F 
ATOM     77  C   UNL A   1      44.102  25.189  25.198  1.00  0.00     0.022 A 
BRANCH  75  78
ATOM     78  S   UNL A   1      42.925  22.787  25.795  1.00  0.00     0.127 S 
ATOM     79  O   UNL A   1      41.483  22.681  25.997  1.00  0.00    -0.237 OA
ATOM     80  O   UNL A   1      43.370  22.615  24.412  1.00  0.00    -0.237 OA
ATOM     81  O   UNL A   1      43.757  22.104  26.777  1.00  0.00    -0.744 OA
ENDBRANCH  75  78
ENDBRANCH  47  71
BRANCH  59  82
ATOM     82  C   UNL A   1      44.846  27.056  34.090  1.00  0.00     0.023 A 
ATOM     83  C   UNL A   1      46.104  27.686  34.129  1.00  0.00     0.012 A 
ATOM     84  C   UNL A   1      44.630  25.893  34.855  1.00  0.00     0.148 A 
ATOM     85  C   UNL A   1      47.142  27.148  34.889  1.00  0.00     0.002 A 
ATOM     86  C   UNL A   1      45.655  25.389  35.646  1.00  0.00     0.091 A 
ATOM     87  F   UNL A   1      43.430  25.295  34.791  1.00  0.00    -0.205 F 
ATOM     88  C   UNL A   1      46.915  26.007  35.656  1.00  0.00     0.022 A 
BRANCH  86  89
ATOM     89  S   UNL A   1      45.413  23.980  36.735  1.00  0.00     0.127 S 
ATOM     90  O   UNL A   1      46.772  23.735  37.214  1.00  0.00    -0.237 OA
ATOM     91  O   UNL A   1      44.498  24.515  37.744  1.00  0.00    -0.237 OA
ATOM     92  O   UNL A   1      44.837  22.933  35.902  1.00  0.00    -0.744 OA
ENDBRANCH  86  89
ENDBRANCH  59  82
ENDBRANCH  33  34
ENDBRANCH  26  28
ENDBRANCH  25  26
ENDBRANCH  24  25
ENDBRANCH   1  24
TORSDOF 21
ENDMDL
MODEL 2
REMARK VINA RESULT:     -11.1      1.342      2.444
REMARK SMILES CCC[C@H]1CC[C@H](C(=O)OCCOCCOC(=O)c2ccc(-c3c4nc(c(-c5cccc(S(=O)(=O)[O-])c5F)c5ccc([nH]5)c(-c5cccc(S(=O)(=O)[O-])c5F)c5nc(c(-c6cccc(S(=O)(=O)[O-])c6F)c6ccc3[nH]6)C=C5)C=C4)cc2)[C@H](Sc2ccncc2)C1
REMARK SMILES IDX 14 1 13 2 12 3 11 4 10 5 8 6 9 7 7 8 4 9 5 10 90 11 6 12
REMARK SMILES IDX 82 13 3 14 2 15 1 16 83 17 84 18 85 19 89 20 86 21 88 22
REMARK SMILES IDX 87 23 15 24 16 25 17 26 18 27 19 28 20 29 81 30 21 31 80 32
REMARK SMILES IDX 22 33 23 34 24 35 74 36 25 37 79 38 73 39 75 40 26 41 78 42
REMARK SMILES IDX 72 43 71 44 27 46 59 47 39 48 58 49 40 50 43 51 57 52 76 53
REMARK SMILES IDX 41 54 42 55 56 57 77 58 44 59 28 60 29 61 37 62 30 63 32 64
REMARK SMILES IDX 38 65 31 66 33 67 34 68 35 69 36 70 60 71 61 72 69 73 62 74
REMARK SMILES IDX 64 75 70 76 63 77 65 78 66 79 67 80 68 81 45 82 46 83 54 84
REMARK SMILES IDX 47 85 49 86 55 87 48 88 50 89 51 90 52 91 53 92
REMARK H PARENT 75 45 43 56
REMARK Flexibility Score: inf
ROOT
ATOM      1  C   UNL A   1      31.976  30.086  25.401  1.00  0.00     0.202 C 
ENDROOT
BRANCH   1   2
ATOM      2  O   UNL A   1      31.057  30.038  24.312  1.00  0.00    -0.374 OA
BRANCH   2   3
ATOM      3  C   UNL A   1      30.622  28.770  23.846  1.00  0.00     0.202 C 
BRANCH   3   4
ATOM      4  C   UNL A   1      31.374  28.089  22.696  1.00  0.00     0.261 C 
BRANCH   4   5
ATOM      5  O   UNL A   1      32.166  26.939  23.002  1.00  0.00    -0.463 OA
BRANCH   5   6
ATOM      6  C   UNL A   1      33.303  27.180  23.703  1.00  0.00     0.310 C 
ATOM      7  O   UNL A   1      34.106  28.072  23.456  1.00  0.00    -0.252 OA
BRANCH   6   8
ATOM      8  C   UNL A   1      33.488  26.226  24.863  1.00  0.00     0.112 C 
ATOM      9  C   UNL A   1      31.086  24.606  25.713  1.00  0.00    -0.010 C 
ATOM     10  C   UNL A   1      31.186  26.107  26.041  1.00  0.00     0.004 C 
ATOM     11  C   UNL A   1      31.845  24.314  24.401  1.00  0.00     0.019 C 
ATOM     12  C   UNL A   1      32.630  26.622  26.082  1.00  0.00     0.017 C 
ATOM     13  C   UNL A   1      33.312  24.743  24.493  1.00  0.00     0.066 C 
BRANCH   9  14
ATOM     14  C   UNL A   1      31.526  23.781  26.948  1.00  0.00     0.003 C 
BRANCH  14  15
ATOM     15  C   UNL A   1      30.718  22.516  27.252  1.00  0.00    -0.003 C 
ATOM     16  C   UNL A   1      29.211  22.731  27.235  1.00  0.00     0.004 C 
ENDBRANCH  14  15
ENDBRANCH   9  14
BRANCH  13  17
ATOM     17  S   UNL A   1      34.408  24.055  23.162  1.00  0.00    -0.122 SA
BRANCH  17  18
ATOM     18  C   UNL A   1      35.330  22.737  23.926  1.00  0.00     0.011 A 
ATOM     19  C   UNL A   1      34.640  21.663  24.488  1.00  0.00     0.035 A 
ATOM     20  C   UNL A   1      36.720  22.679  23.869  1.00  0.00     0.035 A 
ATOM     21  C   UNL A   1      35.362  20.623  25.049  1.00  0.00     0.112 A 
ATOM     22  C   UNL A   1      37.356  21.582  24.432  1.00  0.00     0.112 A 
ATOM     23  N   UNL A   1      36.709  20.562  25.039  1.00  0.00    -0.265 NA
ENDBRANCH  17  18
ENDBRANCH  13  17
ENDBRANCH   6   8
ENDBRANCH   5   6
ENDBRANCH   4   5
ENDBRANCH   3   4
ENDBRANCH   2   3
ENDBRANCH   1   2
BRANCH   1  24
ATOM     24  C   UNL A   1      31.643  31.010  26.572  1.00  0.00     0.261 C 
BRANCH  24  25
ATOM     25  O   UNL A   1      32.634  30.930  27.615  1.00  0.00    -0.460 OA
BRANCH  25  26
ATOM     26  C   UNL A   1      33.446  32.009  27.692  1.00  0.00     0.338 C 
ATOM     27  O   UNL A   1      33.103  33.181  27.783  1.00  0.00    -0.246 OA
BRANCH  26  28
ATOM     28  C   UNL A   1      34.854  31.603  27.831  1.00  0.00     0.060 A 
ATOM     29  C   UNL A   1      35.121  30.228  27.865  1.00  0.00     0.016 A 
ATOM     30  C   UNL A   1      35.861  32.534  28.091  1.00  0.00     0.016 A 
ATOM     31  C   UNL A   1      36.373  29.775  28.263  1.00  0.00     0.010 A 
ATOM     32  C   UNL A   1      37.120  32.076  28.494  1.00  0.00     0.010 A 
ATOM     33  C   UNL A   1      37.356  30.697  28.646  1.00  0.00    -0.014 A 
BRANCH  33  34
ATOM     34  C   UNL A   1      38.533  30.201  29.398  1.00  0.00     0.031 A 
ATOM     35  C   UNL A   1      38.713  30.637  30.829  1.00  0.00     0.074 A 
ATOM     36  C   UNL A   1      39.389  29.331  28.840  1.00  0.00     0.049 A 
ATOM     37  N   UNL A   1      39.622  30.274  31.696  1.00  0.00    -0.248 NA
ATOM     38  C   UNL A   1      37.740  31.611  31.354  1.00  0.00     0.031 C 
ATOM     39  C   UNL A   1      39.313  28.836  27.466  1.00  0.00     0.029 A 
ATOM     40  N   UNL A   1      40.497  28.714  29.362  1.00  0.00    -0.354 N 
ATOM     41  C   UNL A   1      39.343  30.985  32.858  1.00  0.00     0.074 A 
ATOM     42  C   UNL A   1      38.193  31.817  32.581  1.00  0.00     0.031 C 
ATOM     43  C   UNL A   1      40.344  28.002  27.248  1.00  0.00     0.029 A 
ATOM     44  C   UNL A   1      41.154  27.911  28.461  1.00  0.00     0.049 A 
ATOM     45  H   UNL A   1      40.793  28.835  30.293  1.00  0.00     0.167 HD
ATOM     46  C   UNL A   1      39.970  30.933  34.057  1.00  0.00     0.034 A 
ATOM     47  C   UNL A   1      42.284  27.190  28.603  1.00  0.00     0.034 A 
ATOM     48  C   UNL A   1      41.095  30.084  34.339  1.00  0.00     0.049 A 
ATOM     49  C   UNL A   1      42.964  27.148  29.946  1.00  0.00     0.074 A 
ATOM     50  C   UNL A   1      41.777  29.926  35.532  1.00  0.00     0.029 A 
ATOM     51  N   UNL A   1      41.708  29.253  33.413  1.00  0.00    -0.354 N 
ATOM     52  N   UNL A   1      42.612  27.727  31.069  1.00  0.00    -0.248 NA
ATOM     53  C   UNL A   1      44.171  26.317  30.054  1.00  0.00     0.031 C 
ATOM     54  C   UNL A   1      42.814  29.009  35.323  1.00  0.00     0.029 A 
ATOM     55  C   UNL A   1      42.765  28.583  34.005  1.00  0.00     0.049 A 
ATOM     56  H   UNL A   1      41.431  29.153  32.474  1.00  0.00     0.167 HD
ATOM     57  C   UNL A   1      43.532  27.306  32.023  1.00  0.00     0.074 A 
ATOM     58  C   UNL A   1      44.445  26.404  31.349  1.00  0.00     0.031 C 
ATOM     59  C   UNL A   1      43.628  27.647  33.332  1.00  0.00     0.034 A 
BRANCH  46  60
ATOM     60  C   UNL A   1      39.428  31.794  35.166  1.00  0.00     0.023 A 
ATOM     61  C   UNL A   1      38.454  31.270  36.040  1.00  0.00     0.012 A 
ATOM     62  C   UNL A   1      39.911  33.101  35.372  1.00  0.00     0.148 A 
ATOM     63  C   UNL A   1      37.948  32.042  37.085  1.00  0.00     0.002 A 
ATOM     64  C   UNL A   1      39.431  33.851  36.440  1.00  0.00     0.091 A 
ATOM     65  F   UNL A   1      40.816  33.592  34.514  1.00  0.00    -0.205 F 
ATOM     66  C   UNL A   1      38.444  33.327  37.291  1.00  0.00     0.022 A 
BRANCH  64  67
ATOM     67  S   UNL A   1      40.056  35.490  36.827  1.00  0.00     0.127 S 
ATOM     68  O   UNL A   1      39.392  35.767  38.099  1.00  0.00    -0.237 OA
ATOM     69  O   UNL A   1      41.497  35.255  36.930  1.00  0.00    -0.237 OA
ATOM     70  O   UNL A   1      39.661  36.341  35.713  1.00  0.00    -0.744 OA
ENDBRANCH  64  67
ENDBRANCH  46  60
BRANCH  47  71
ATOM     71  C   UNL A   1      42.808  26.404  27.451  1.00  0.00     0.023 A 
ATOM     72  C   UNL A   1      43.743  26.987  26.575  1.00  0.00     0.012 A 
ATOM     73  C   UNL A   1      42.403  25.072  27.237  1.00  0.00     0.148 A 
ATOM     74  C   UNL A   1      44.248  26.267  25.492  1.00  0.00     0.002 A 
ATOM     75  C   UNL A   1      42.950  24.343  26.188  1.00  0.00     0.091 A 
ATOM     76  F   UNL A   1      41.496  24.541  28.068  1.00  0.00    -0.205 F 
ATOM     77  C   UNL A   1      43.860  24.942  25.304  1.00  0.00     0.022 A 
BRANCH  75  78
ATOM     78  S   UNL A   1      42.610  22.593  25.960  1.00  0.00     0.127 S 
ATOM     79  O   UNL A   1      43.281  22.319  24.692  1.00  0.00    -0.237 OA
ATOM     80  O   UNL A   1      43.248  22.002  27.137  1.00  0.00    -0.237 OA
ATOM     81  O   UNL A   1      41.158  22.477  25.949  1.00  0.00    -0.744 OA
ENDBRANCH  75  78
ENDBRANCH  47  71
BRANCH  59  82
ATOM     82  C   UNL A   1      44.740  27.023  34.136  1.00  0.00     0.023 A 
ATOM     83  C   UNL A   1      46.004  27.642  34.173  1.00  0.00     0.012 A 
ATOM     84  C   UNL A   1      44.513  25.866  34.907  1.00  0.00     0.148 A 
ATOM     85  C   UNL A   1      47.036  27.100  34.937  1.00  0.00     0.002 A 
ATOM     86  C   UNL A   1      45.533  25.358  35.702  1.00  0.00     0.091 A 
ATOM     87  F   UNL A   1      43.309  25.279  34.844  1.00  0.00    -0.205 F 
ATOM     88  C   UNL A   1      46.798  25.966  35.710  1.00  0.00     0.022 A 
BRANCH  86  89
ATOM     89  S   UNL A   1      45.277  23.957  36.798  1.00  0.00     0.127 S 
ATOM     90  O   UNL A   1      44.451  24.547  37.850  1.00  0.00    -0.237 OA
ATOM     91  O   UNL A   1      44.576  23.005  35.935  1.00  0.00    -0.237 OA
ATOM     92  O   UNL A   1      46.608  23.527  37.205  1.00  0.00    -0.744 OA
ENDBRANCH  86  89
ENDBRANCH  59  82
ENDBRANCH  33  34
ENDBRANCH  26  28
ENDBRANCH  25  26
ENDBRANCH  24  25
ENDBRANCH   1  24
TORSDOF 21
ENDMDL
MODEL 3
REMARK VINA RESULT:     -10.8      1.891      3.042
REMARK SMILES CCC[C@H]1CC[C@H](C(=O)OCCOCCOC(=O)c2ccc(-c3c4nc(c(-c5cccc(S(=O)(=O)[O-])c5F)c5ccc([nH]5)c(-c5cccc(S(=O)(=O)[O-])c5F)c5nc(c(-c6cccc(S(=O)(=O)[O-])c6F)c6ccc3[nH]6)C=C5)C=C4)cc2)[C@H](Sc2ccncc2)C1
REMARK SMILES IDX 14 1 13 2 12 3 11 4 10 5 8 6 9 7 7 8 4 9 5 10 90 11 6 12
REMARK SMILES IDX 82 13 3 14 2 15 1 16 83 17 84 18 85 19 89 20 86 21 88 22
REMARK SMILES IDX 87 23 15 24 16 25 17 26 18 27 19 28 20 29 81 30 21 31 80 32
REMARK SMILES IDX 22 33 23 34 24 35 74 36 25 37 79 38 73 39 75 40 26 41 78 42
REMARK SMILES IDX 72 43 71 44 27 46 59 47 39 48 58 49 40 50 43 51 57 52 76 53
REMARK SMILES IDX 41 54 42 55 56 57 77 58 44 59 28 60 29 61 37 62 30 63 32 64
REMARK SMILES IDX 38 65 31 66 33 67 34 68 35 69 36 70 60 71 61 72 69 73 62 74
REMARK SMILES IDX 64 75 70 76 63 77 65 78 66 79 67 80 68 81 45 82 46 83 54 84
REMARK SMILES IDX 47 85 49 86 55 87 48 88 50 89 51 90 52 91 53 92
REMARK H PARENT 75 45 43 56
REMARK Flexibility Score: inf
ROOT
ATOM      1  C   UNL A   1      32.315  29.675  25.401  1.00  0.00     0.202 C 
ENDROOT
BRANCH   1   2
ATOM      2  O   UNL A   1      32.229  28.304  25.782  1.00  0.00    -0.374 OA
BRANCH   2   3
ATOM      3  C   UNL A   1      33.432  27.588  26.017  1.00  0.00     0.202 C 
BRANCH   3   4
ATOM      4  C   UNL A   1      33.675  26.259  25.290  1.00  0.00     0.261 C 
BRANCH   4   5
ATOM      5  O   UNL A   1      34.198  25.167  26.049  1.00  0.00    -0.463 OA
BRANCH   5   6
ATOM      6  C   UNL A   1      33.348  24.126  26.242  1.00  0.00     0.310 C 
ATOM      7  O   UNL A   1      32.129  24.221  26.331  1.00  0.00    -0.252 OA
BRANCH   6   8
ATOM      8  C   UNL A   1      34.063  22.795  26.324  1.00  0.00     0.112 C 
ATOM      9  C   UNL A   1      33.204  20.643  24.388  1.00  0.00    -0.010 C 
ATOM     10  C   UNL A   1      32.324  21.023  25.594  1.00  0.00     0.004 C 
ATOM     11  C   UNL A   1      34.010  21.877  23.932  1.00  0.00     0.019 C 
ATOM     12  C   UNL A   1      33.116  21.653  26.746  1.00  0.00     0.017 C 
ATOM     13  C   UNL A   1      34.873  22.437  25.067  1.00  0.00     0.066 C 
BRANCH   9  14
ATOM     14  C   UNL A   1      34.034  19.382  24.736  1.00  0.00     0.003 C 
BRANCH  14  15
ATOM     15  C   UNL A   1      33.415  18.031  24.365  1.00  0.00    -0.003 C 
ATOM     16  C   UNL A   1      32.652  17.371  25.504  1.00  0.00     0.004 C 
ENDBRANCH  14  15
ENDBRANCH   9  14
BRANCH  13  17
ATOM     17  S   UNL A   1      36.192  23.626  24.527  1.00  0.00    -0.122 SA
BRANCH  17  18
ATOM     18  C   UNL A   1      37.653  23.181  25.444  1.00  0.00     0.011 A 
ATOM     19  C   UNL A   1      38.228  24.119  26.301  1.00  0.00     0.035 A 
ATOM     20  C   UNL A   1      38.165  21.887  25.431  1.00  0.00     0.035 A 
ATOM     21  C   UNL A   1      39.342  23.756  27.038  1.00  0.00     0.112 A 
ATOM     22  C   UNL A   1      39.268  21.609  26.227  1.00  0.00     0.112 A 
ATOM     23  N   UNL A   1      39.880  22.520  27.015  1.00  0.00    -0.265 NA
ENDBRANCH  17  18
ENDBRANCH  13  17
ENDBRANCH   6   8
ENDBRANCH   5   6
ENDBRANCH   4   5
ENDBRANCH   3   4
ENDBRANCH   2   3
ENDBRANCH   1   2
BRANCH   1  24
ATOM     24  C   UNL A   1      32.000  30.729  26.462  1.00  0.00     0.261 C 
BRANCH  24  25
ATOM     25  O   UNL A   1      32.897  30.643  27.585  1.00  0.00    -0.460 OA
BRANCH  25  26
ATOM     26  C   UNL A   1      33.694  31.725  27.743  1.00  0.00     0.338 C 
ATOM     27  O   UNL A   1      33.336  32.891  27.845  1.00  0.00    -0.246 OA
BRANCH  26  28
ATOM     28  C   UNL A   1      35.094  31.324  27.957  1.00  0.00     0.060 A 
ATOM     29  C   UNL A   1      35.340  29.966  28.195  1.00  0.00     0.016 A 
ATOM     30  C   UNL A   1      36.113  32.269  28.088  1.00  0.00     0.016 A 
ATOM     31  C   UNL A   1      36.581  29.560  28.671  1.00  0.00     0.010 A 
ATOM     32  C   UNL A   1      37.361  31.859  28.570  1.00  0.00     0.010 A 
ATOM     33  C   UNL A   1      37.574  30.514  28.925  1.00  0.00    -0.014 A 
BRANCH  33  34
ATOM     34  C   UNL A   1      38.736  30.119  29.756  1.00  0.00     0.031 A 
ATOM     35  C   UNL A   1      38.855  30.683  31.148  1.00  0.00     0.074 A 
ATOM     36  C   UNL A   1      39.632  29.227  29.304  1.00  0.00     0.049 A 
ATOM     37  N   UNL A   1      39.742  30.422  32.073  1.00  0.00    -0.248 NA
ATOM     38  C   UNL A   1      37.841  31.671  31.553  1.00  0.00     0.031 C 
ATOM     39  C   UNL A   1      39.616  28.612  27.978  1.00  0.00     0.029 A 
ATOM     40  N   UNL A   1      40.736  28.689  29.915  1.00  0.00    -0.354 N 
ATOM     41  C   UNL A   1      39.405  31.223  33.158  1.00  0.00     0.074 A 
ATOM     42  C   UNL A   1      38.245  31.996  32.771  1.00  0.00     0.031 C 
ATOM     43  C   UNL A   1      40.675  27.791  27.868  1.00  0.00     0.029 A 
ATOM     44  C   UNL A   1      41.444  27.829  29.110  1.00  0.00     0.049 A 
ATOM     45  H   UNL A   1      40.996  28.898  30.841  1.00  0.00     0.167 HD
ATOM     46  C   UNL A   1      39.992  31.293  34.376  1.00  0.00     0.034 A 
ATOM     47  C   UNL A   1      42.586  27.154  29.352  1.00  0.00     0.034 A 
ATOM     48  C   UNL A   1      41.127  30.503  34.768  1.00  0.00     0.049 A 
ATOM     49  C   UNL A   1      43.219  27.248  30.715  1.00  0.00     0.074 A 
ATOM     50  C   UNL A   1      41.771  30.469  35.992  1.00  0.00     0.029 A 
ATOM     51  N   UNL A   1      41.791  29.612  33.940  1.00  0.00    -0.354 N 
ATOM     52  N   UNL A   1      42.814  27.914  31.770  1.00  0.00    -0.248 NA
ATOM     53  C   UNL A   1      44.442  26.463  30.935  1.00  0.00     0.031 C 
ATOM     54  C   UNL A   1      42.836  29.566  35.899  1.00  0.00     0.029 A 
ATOM     55  C   UNL A   1      42.844  29.026  34.623  1.00  0.00     0.049 A 
ATOM     56  H   UNL A   1      41.550  29.423  33.005  1.00  0.00     0.167 HD
ATOM     57  C   UNL A   1      43.711  27.603  32.787  1.00  0.00     0.074 A 
ATOM     58  C   UNL A   1      44.668  26.671  32.225  1.00  0.00     0.031 C 
ATOM     59  C   UNL A   1      43.752  28.059  34.063  1.00  0.00     0.034 A 
BRANCH  46  60
ATOM     60  C   UNL A   1      39.390  32.232  35.387  1.00  0.00     0.023 A 
ATOM     61  C   UNL A   1      38.313  31.797  36.185  1.00  0.00     0.012 A 
ATOM     62  C   UNL A   1      39.915  33.525  35.579  1.00  0.00     0.148 A 
ATOM     63  C   UNL A   1      37.749  32.643  37.141  1.00  0.00     0.002 A 
ATOM     64  C   UNL A   1      39.374  34.349  36.560  1.00  0.00     0.091 A 
ATOM     65  F   UNL A   1      40.921  33.931  34.791  1.00  0.00    -0.205 F 
ATOM     66  C   UNL A   1      38.286  33.913  37.335  1.00  0.00     0.022 A 
BRANCH  64  67
ATOM     67  S   UNL A   1      40.040  35.975  36.930  1.00  0.00     0.127 S 
ATOM     68  O   UNL A   1      41.449  35.670  37.169  1.00  0.00    -0.237 OA
ATOM     69  O   UNL A   1      39.777  36.708  35.691  1.00  0.00    -0.237 OA
ATOM     70  O   UNL A   1      39.298  36.457  38.087  1.00  0.00    -0.744 OA
ENDBRANCH  64  67
ENDBRANCH  46  60
BRANCH  47  71
ATOM     71  C   UNL A   1      43.168  26.285  28.291  1.00  0.00     0.023 A 
ATOM     72  C   UNL A   1      42.612  25.016  28.045  1.00  0.00     0.012 A 
ATOM     73  C   UNL A   1      44.254  26.724  27.507  1.00  0.00     0.148 A 
ATOM     74  C   UNL A   1      43.142  24.187  27.055  1.00  0.00     0.002 A 
ATOM     75  C   UNL A   1      44.741  25.917  26.487  1.00  0.00     0.091 A 
ATOM     76  F   UNL A   1      44.783  27.927  27.771  1.00  0.00    -0.205 F 
ATOM     77  C   UNL A   1      44.199  24.642  26.269  1.00  0.00     0.022 A 
BRANCH  75  78
ATOM     78  S   UNL A   1      46.005  26.482  25.341  1.00  0.00     0.127 S 
ATOM     79  O   UNL A   1      46.194  25.305  24.498  1.00  0.00    -0.237 OA
ATOM     80  O   UNL A   1      45.342  27.610  24.688  1.00  0.00    -0.237 OA
ATOM     81  O   UNL A   1      47.141  26.859  26.171  1.00  0.00    -0.744 OA
ENDBRANCH  75  78
ENDBRANCH  47  71
BRANCH  59  82
ATOM     82  C   UNL A   1      44.851  27.539  34.955  1.00  0.00     0.023 A 
ATOM     83  C   UNL A   1      46.046  28.271  35.086  1.00  0.00     0.012 A 
ATOM     84  C   UNL A   1      44.671  26.364  35.712  1.00  0.00     0.148 A 
ATOM     85  C   UNL A   1      47.061  27.824  35.932  1.00  0.00     0.002 A 
ATOM     86  C   UNL A   1      45.668  25.951  36.587  1.00  0.00     0.091 A 
ATOM     87  F   UNL A   1      43.535  25.669  35.559  1.00  0.00    -0.205 F 
ATOM     88  C   UNL A   1      46.868  26.672  36.690  1.00  0.00     0.022 A 
BRANCH  86  89
ATOM     89  S   UNL A   1      45.458  24.530  37.667  1.00  0.00     0.127 S 
ATOM     90  O   UNL A   1      44.346  24.960  38.513  1.00  0.00    -0.237 OA
ATOM     91  O   UNL A   1      45.127  23.461  36.723  1.00  0.00    -0.237 OA
ATOM     92  O   UNL A   1      46.736  24.356  38.343  1.00  0.00    -0.744 OA
ENDBRANCH  86  89
ENDBRANCH  59  82
ENDBRANCH  33  34
ENDBRANCH  26  28
ENDBRANCH  25  26
ENDBRANCH  24  25
ENDBRANCH   1  24
TORSDOF 21
ENDMDL
