MODEL 1
REMARK VINA RESULT:     -10.6      0.000      0.000
REMARK SMILES CC(=O)Oc1ccc(Br)cc1C(=O)NCC(=O)OCCOCCOC(=O)c1ccc(-c2c3nc(c(-c4cccc(S(=O)(=O)[O-])c4F)c4ccc([nH]4)c(-c4cccc(S(=O)(=O)[O-])c4F)c4nc(c(-c5cccc(S(=O)(=O)[O-])c5F)c5ccc2[nH]5)C=C4)C=C3)cc1
REMARK SMILES IDX 20 1 19 2 18 3 16 4 17 5 15 6 14 7 12 8 13 9 11 11 5 12 6 13
REMARK SMILES IDX 7 14 10 15 8 16 9 17 4 18 2 19 1 20 3 21 21 22 22 23 23 24
REMARK SMILES IDX 24 25 25 26 26 27 27 28 28 29 89 30 29 31 88 32 30 33 31 34
REMARK SMILES IDX 32 35 82 36 33 37 87 38 81 39 83 40 34 41 86 42 80 43 79 44
REMARK SMILES IDX 35 46 67 47 47 48 66 49 48 50 51 51 65 52 84 53 49 54 50 55
REMARK SMILES IDX 64 57 85 58 52 59 36 60 37 61 45 62 38 63 40 64 46 65 39 66
REMARK SMILES IDX 41 67 42 68 43 69 44 70 68 71 69 72 77 73 70 74 72 75 78 76
REMARK SMILES IDX 71 77 73 78 74 79 75 80 76 81 53 82 54 83 62 84 55 85 57 86
REMARK SMILES IDX 63 87 56 88 58 89 59 90 60 91 61 92
REMARK H PARENT 14 10 83 45 51 56
REMARK Flexibility Score: inf
ROOT
ATOM      1  C   UNL A   1      34.011  20.903  25.949  1.00  0.00     0.202 C 
ENDROOT
BRANCH   1   2
ATOM      2  C   UNL A   1      33.073  20.719  24.756  1.00  0.00     0.261 C 
BRANCH   2   3
ATOM      3  O   UNL A   1      33.255  21.764  23.787  1.00  0.00    -0.462 OA
BRANCH   3   4
ATOM      4  C   UNL A   1      32.274  21.939  22.859  1.00  0.00     0.325 C 
ATOM      5  O   UNL A   1      31.840  21.066  22.117  1.00  0.00    -0.250 OA
BRANCH   4   6
ATOM      6  C   UNL A   1      31.743  23.376  22.847  1.00  0.00     0.239 C 
BRANCH   6   7
ATOM      7  N   UNL A   1      32.377  24.232  21.864  1.00  0.00    -0.341 N 
ATOM      8  C   UNL A   1      32.602  25.571  21.766  1.00  0.00     0.255 C 
ATOM      9  O   UNL A   1      33.218  25.915  20.752  1.00  0.00    -0.269 OA
ATOM     10  H   UNL A   1      32.726  23.731  21.092  1.00  0.00     0.164 HD
BRANCH   8  11
ATOM     11  C   UNL A   1      32.251  26.617  22.774  1.00  0.00     0.083 A 
ATOM     12  C   UNL A   1      32.887  26.934  23.983  1.00  0.00     0.143 A 
ATOM     13  C   UNL A   1      32.378  27.952  24.813  1.00  0.00     0.049 A 
ATOM     14  C   UNL A   1      31.202  28.622  24.487  1.00  0.00     0.019 A 
ATOM     15  C   UNL A   1      31.062  27.318  22.463  1.00  0.00     0.033 A 
ATOM     16  C   UNL A   1      30.546  28.299  23.310  1.00  0.00     0.019 A 
ATOM     17  Br  UNL A   1      28.952  29.201  22.847  1.00  0.00    -0.051 Br
BRANCH  12  18
ATOM     18  O   UNL A   1      34.095  26.344  24.388  1.00  0.00    -0.426 OA
BRANCH  18  19
ATOM     19  C   UNL A   1      34.021  25.220  25.214  1.00  0.00     0.308 C 
ATOM     20  C   UNL A   1      35.345  24.514  25.239  1.00  0.00     0.139 C 
ATOM     21  O   UNL A   1      33.041  24.848  25.841  1.00  0.00    -0.252 OA
ENDBRANCH  18  19
ENDBRANCH  12  18
ENDBRANCH   8  11
ENDBRANCH   6   7
ENDBRANCH   4   6
ENDBRANCH   3   4
ENDBRANCH   2   3
ENDBRANCH   1   2
BRANCH   1  22
ATOM     22  O   UNL A   1      35.403  21.004  25.638  1.00  0.00    -0.374 OA
BRANCH  22  23
ATOM     23  C   UNL A   1      36.005  19.905  24.956  1.00  0.00     0.202 C 
BRANCH  23  24
ATOM     24  C   UNL A   1      37.534  19.878  24.873  1.00  0.00     0.261 C 
BRANCH  24  25
ATOM     25  O   UNL A   1      38.137  21.099  25.327  1.00  0.00    -0.460 OA
BRANCH  25  26
ATOM     26  C   UNL A   1      39.284  20.921  26.024  1.00  0.00     0.338 C 
ATOM     27  O   UNL A   1      39.975  19.909  26.048  1.00  0.00    -0.246 OA
BRANCH  26  28
ATOM     28  C   UNL A   1      39.717  22.179  26.658  1.00  0.00     0.060 A 
ATOM     29  C   UNL A   1      39.148  23.364  26.173  1.00  0.00     0.016 A 
ATOM     30  C   UNL A   1      40.716  22.218  27.633  1.00  0.00     0.016 A 
ATOM     31  C   UNL A   1      39.631  24.596  26.602  1.00  0.00     0.010 A 
ATOM     32  C   UNL A   1      41.204  23.459  28.059  1.00  0.00     0.010 A 
ATOM     33  C   UNL A   1      40.698  24.650  27.507  1.00  0.00    -0.014 A 
BRANCH  33  34
ATOM     34  C   UNL A   1      41.384  25.942  27.739  1.00  0.00     0.031 A 
ATOM     35  C   UNL A   1      40.667  27.016  28.514  1.00  0.00     0.074 A 
ATOM     36  C   UNL A   1      42.635  26.149  27.292  1.00  0.00     0.049 A 
ATOM     37  N   UNL A   1      41.075  28.214  28.842  1.00  0.00    -0.248 NA
ATOM     38  C   UNL A   1      39.308  26.696  28.983  1.00  0.00     0.031 C 
ATOM     39  C   UNL A   1      43.430  25.183  26.537  1.00  0.00     0.029 A 
ATOM     40  N   UNL A   1      43.447  27.250  27.395  1.00  0.00    -0.354 N 
ATOM     41  C   UNL A   1      40.018  28.799  29.529  1.00  0.00     0.074 A 
ATOM     42  C   UNL A   1      38.945  27.831  29.561  1.00  0.00     0.031 C 
ATOM     43  C   UNL A   1      44.610  25.744  26.219  1.00  0.00     0.029 A 
ATOM     44  C   UNL A   1      44.643  27.113  26.731  1.00  0.00     0.049 A 
ATOM     45  H   UNL A   1      43.197  28.060  27.895  1.00  0.00     0.167 HD
ATOM     46  C   UNL A   1      39.952  30.027  30.097  1.00  0.00     0.034 A 
ATOM     47  C   UNL A   1      45.640  27.999  26.544  1.00  0.00     0.034 A 
ATOM     48  C   UNL A   1      41.030  30.979  30.082  1.00  0.00     0.049 A 
ATOM     49  C   UNL A   1      45.536  29.366  27.171  1.00  0.00     0.074 A 
ATOM     50  C   UNL A   1      41.082  32.229  30.672  1.00  0.00     0.029 A 
ATOM     51  N   UNL A   1      42.242  30.791  29.435  1.00  0.00    -0.354 N 
ATOM     52  N   UNL A   1      44.581  29.859  27.924  1.00  0.00    -0.248 NA
ATOM     53  C   UNL A   1      46.661  30.286  26.951  1.00  0.00     0.031 C 
ATOM     54  C   UNL A   1      42.317  32.807  30.360  1.00  0.00     0.029 A 
ATOM     55  C   UNL A   1      43.044  31.906  29.599  1.00  0.00     0.049 A 
ATOM     56  H   UNL A   1      42.494  29.982  28.933  1.00  0.00     0.167 HD
ATOM     57  C   UNL A   1      45.005  31.131  28.294  1.00  0.00     0.074 A 
ATOM     58  C   UNL A   1      46.312  31.324  27.700  1.00  0.00     0.031 C 
ATOM     59  C   UNL A   1      44.366  32.061  29.046  1.00  0.00     0.034 A 
BRANCH  46  60
ATOM     60  C   UNL A   1      38.680  30.401  30.809  1.00  0.00     0.023 A 
ATOM     61  C   UNL A   1      38.524  30.080  32.172  1.00  0.00     0.012 A 
ATOM     62  C   UNL A   1      37.663  31.118  30.147  1.00  0.00     0.148 A 
ATOM     63  C   UNL A   1      37.364  30.439  32.859  1.00  0.00     0.002 A 
ATOM     64  C   UNL A   1      36.528  31.508  30.848  1.00  0.00     0.091 A 
ATOM     65  F   UNL A   1      37.819  31.393  28.845  1.00  0.00    -0.205 F 
ATOM     66  C   UNL A   1      36.372  31.161  32.200  1.00  0.00     0.022 A 
BRANCH  64  67
ATOM     67  S   UNL A   1      35.229  32.504  30.110  1.00  0.00     0.127 S 
ATOM     68  O   UNL A   1      34.779  31.642  29.018  1.00  0.00    -0.237 OA
ATOM     69  O   UNL A   1      34.276  32.637  31.213  1.00  0.00    -0.237 OA
ATOM     70  O   UNL A   1      35.861  33.751  29.702  1.00  0.00    -0.744 OA
ENDBRANCH  64  67
ENDBRANCH  46  60
BRANCH  47  71
ATOM     71  C   UNL A   1      46.846  27.607  25.760  1.00  0.00     0.023 A 
ATOM     72  C   UNL A   1      46.864  27.807  24.367  1.00  0.00     0.012 A 
ATOM     73  C   UNL A   1      47.980  27.056  26.390  1.00  0.00     0.148 A 
ATOM     74  C   UNL A   1      47.979  27.442  23.611  1.00  0.00     0.002 A 
ATOM     75  C   UNL A   1      49.106  26.743  25.639  1.00  0.00     0.091 A 
ATOM     76  F   UNL A   1      47.935  26.854  27.715  1.00  0.00    -0.205 F 
ATOM     77  C   UNL A   1      49.102  26.920  24.247  1.00  0.00     0.022 A 
BRANCH  75  78
ATOM     78  S   UNL A   1      50.638  26.181  26.388  1.00  0.00     0.127 S 
ATOM     79  O   UNL A   1      51.390  25.723  25.223  1.00  0.00    -0.237 OA
ATOM     80  O   UNL A   1      51.144  27.409  27.003  1.00  0.00    -0.237 OA
ATOM     81  O   UNL A   1      50.254  25.148  27.340  1.00  0.00    -0.744 OA
ENDBRANCH  75  78
ENDBRANCH  47  71
BRANCH  59  82
ATOM     82  C   UNL A   1      45.076  33.365  29.302  1.00  0.00     0.023 A 
ATOM     83  C   UNL A   1      45.854  33.522  30.465  1.00  0.00     0.012 A 
ATOM     84  C   UNL A   1      45.040  34.403  28.349  1.00  0.00     0.148 A 
ATOM     85  C   UNL A   1      46.559  34.704  30.694  1.00  0.00     0.002 A 
ATOM     86  C   UNL A   1      45.783  35.559  28.560  1.00  0.00     0.091 A 
ATOM     87  F   UNL A   1      44.281  34.242  27.255  1.00  0.00    -0.205 F 
ATOM     88  C   UNL A   1      46.533  35.715  29.737  1.00  0.00     0.022 A 
BRANCH  86  89
ATOM     89  S   UNL A   1      45.887  36.872  27.339  1.00  0.00     0.127 S 
ATOM     90  O   UNL A   1      46.021  36.113  26.096  1.00  0.00    -0.237 OA
ATOM     91  O   UNL A   1      44.602  37.553  27.501  1.00  0.00    -0.237 OA
ATOM     92  O   UNL A   1      47.045  37.675  27.711  1.00  0.00    -0.744 OA
ENDBRANCH  86  89
ENDBRANCH  59  82
ENDBRANCH  33  34
ENDBRANCH  26  28
ENDBRANCH  25  26
ENDBRANCH  24  25
ENDBRANCH  23  24
ENDBRANCH  22  23
ENDBRANCH   1  22
TORSDOF 21
ENDMDL
MODEL 2
REMARK VINA RESULT:     -10.5      1.623      7.889
REMARK SMILES CC(=O)Oc1ccc(Br)cc1C(=O)NCC(=O)OCCOCCOC(=O)c1ccc(-c2c3nc(c(-c4cccc(S(=O)(=O)[O-])c4F)c4ccc([nH]4)c(-c4cccc(S(=O)(=O)[O-])c4F)c4nc(c(-c5cccc(S(=O)(=O)[O-])c5F)c5ccc2[nH]5)C=C4)C=C3)cc1
REMARK SMILES IDX 20 1 19 2 18 3 16 4 17 5 15 6 14 7 12 8 13 9 11 11 5 12 6 13
REMARK SMILES IDX 7 14 10 15 8 16 9 17 4 18 2 19 1 20 3 21 21 22 22 23 23 24
REMARK SMILES IDX 24 25 25 26 26 27 27 28 28 29 89 30 29 31 88 32 30 33 31 34
REMARK SMILES IDX 32 35 82 36 33 37 87 38 81 39 83 40 34 41 86 42 80 43 79 44
REMARK SMILES IDX 35 46 67 47 47 48 66 49 48 50 51 51 65 52 84 53 49 54 50 55
REMARK SMILES IDX 64 57 85 58 52 59 36 60 37 61 45 62 38 63 40 64 46 65 39 66
REMARK SMILES IDX 41 67 42 68 43 69 44 70 68 71 69 72 77 73 70 74 72 75 78 76
REMARK SMILES IDX 71 77 73 78 74 79 75 80 76 81 53 82 54 83 62 84 55 85 57 86
REMARK SMILES IDX 63 87 56 88 58 89 59 90 60 91 61 92
REMARK H PARENT 14 10 83 45 51 56
REMARK Flexibility Score: inf
ROOT
ATOM      1  C   UNL A   1      34.335  21.263  26.109  1.00  0.00     0.202 C 
ENDROOT
BRANCH   1   2
ATOM      2  C   UNL A   1      33.402  21.029  24.921  1.00  0.00     0.261 C 
BRANCH   2   3
ATOM      3  O   UNL A   1      32.459  22.104  24.782  1.00  0.00    -0.462 OA
BRANCH   3   4
ATOM      4  C   UNL A   1      32.176  22.531  23.520  1.00  0.00     0.325 C 
ATOM      5  O   UNL A   1      32.173  21.826  22.519  1.00  0.00    -0.250 OA
BRANCH   4   6
ATOM      6  C   UNL A   1      31.836  24.024  23.482  1.00  0.00     0.239 C 
BRANCH   6   7
ATOM      7  N   UNL A   1      32.787  24.828  22.740  1.00  0.00    -0.341 N 
ATOM      8  C   UNL A   1      33.162  26.137  22.771  1.00  0.00     0.255 C 
ATOM      9  O   UNL A   1      34.052  26.433  21.968  1.00  0.00    -0.269 OA
ATOM     10  H   UNL A   1      33.273  24.310  22.058  1.00  0.00     0.164 HD
BRANCH   8  11
ATOM     11  C   UNL A   1      32.668  27.191  23.707  1.00  0.00     0.083 A 
ATOM     12  C   UNL A   1      31.448  27.882  23.703  1.00  0.00     0.143 A 
ATOM     13  C   UNL A   1      31.182  28.870  24.672  1.00  0.00     0.049 A 
ATOM     14  C   UNL A   1      32.143  29.228  25.613  1.00  0.00     0.019 A 
ATOM     15  C   UNL A   1      33.625  27.570  24.679  1.00  0.00     0.033 A 
ATOM     16  C   UNL A   1      33.365  28.575  25.611  1.00  0.00     0.019 A 
ATOM     17  Br  UNL A   1      34.681  29.043  26.884  1.00  0.00    -0.051 Br
BRANCH  12  18
ATOM     18  O   UNL A   1      30.400  27.575  22.820  1.00  0.00    -0.426 OA
BRANCH  18  19
ATOM     19  C   UNL A   1      29.582  28.625  22.398  1.00  0.00     0.308 C 
ATOM     20  C   UNL A   1      28.242  28.532  23.067  1.00  0.00     0.139 C 
ATOM     21  O   UNL A   1      29.887  29.506  21.609  1.00  0.00    -0.252 OA
ENDBRANCH  18  19
ENDBRANCH  12  18
ENDBRANCH   8  11
ENDBRANCH   6   7
ENDBRANCH   4   6
ENDBRANCH   3   4
ENDBRANCH   2   3
ENDBRANCH   1   2
BRANCH   1  22
ATOM     22  O   UNL A   1      35.725  21.377  25.798  1.00  0.00    -0.374 OA
BRANCH  22  23
ATOM     23  C   UNL A   1      36.303  20.354  24.989  1.00  0.00     0.202 C 
BRANCH  23  24
ATOM     24  C   UNL A   1      37.823  20.176  25.055  1.00  0.00     0.261 C 
BRANCH  24  25
ATOM     25  O   UNL A   1      38.512  21.397  25.365  1.00  0.00    -0.460 OA
BRANCH  25  26
ATOM     26  C   UNL A   1      39.589  21.232  26.168  1.00  0.00     0.338 C 
ATOM     27  O   UNL A   1      40.310  20.243  26.231  1.00  0.00    -0.246 OA
BRANCH  26  28
ATOM     28  C   UNL A   1      39.913  22.482  26.879  1.00  0.00     0.060 A 
ATOM     29  C   UNL A   1      39.165  23.618  26.541  1.00  0.00     0.016 A 
ATOM     30  C   UNL A   1      40.974  22.574  27.783  1.00  0.00     0.016 A 
ATOM     31  C   UNL A   1      39.525  24.865  27.043  1.00  0.00     0.010 A 
ATOM     32  C   UNL A   1      41.338  23.829  28.282  1.00  0.00     0.010 A 
ATOM     33  C   UNL A   1      40.646  24.985  27.873  1.00  0.00    -0.014 A 
BRANCH  33  34
ATOM     34  C   UNL A   1      41.183  26.333  28.171  1.00  0.00     0.031 A 
ATOM     35  C   UNL A   1      42.612  26.642  27.810  1.00  0.00     0.074 A 
ATOM     36  C   UNL A   1      40.405  27.276  28.728  1.00  0.00     0.049 A 
ATOM     37  N   UNL A   1      43.286  27.751  27.969  1.00  0.00    -0.248 NA
ATOM     38  C   UNL A   1      43.385  25.555  27.185  1.00  0.00     0.031 C 
ATOM     39  C   UNL A   1      39.006  27.096  29.114  1.00  0.00     0.029 A 
ATOM     40  N   UNL A   1      40.690  28.571  29.082  1.00  0.00    -0.354 N 
ATOM     41  C   UNL A   1      44.564  27.489  27.492  1.00  0.00     0.074 A 
ATOM     42  C   UNL A   1      44.579  26.113  27.048  1.00  0.00     0.031 C 
ATOM     43  C   UNL A   1      38.561  28.232  29.678  1.00  0.00     0.029 A 
ATOM     44  C   UNL A   1      39.647  29.210  29.710  1.00  0.00     0.049 A 
ATOM     45  H   UNL A   1      41.556  29.001  28.903  1.00  0.00     0.167 HD
ATOM     46  C   UNL A   1      45.628  28.324  27.415  1.00  0.00     0.034 A 
ATOM     47  C   UNL A   1      39.585  30.437  30.263  1.00  0.00     0.034 A 
ATOM     48  C   UNL A   1      45.603  29.699  27.836  1.00  0.00     0.049 A 
ATOM     49  C   UNL A   1      40.788  31.341  30.181  1.00  0.00     0.074 A 
ATOM     50  C   UNL A   1      46.612  30.642  27.753  1.00  0.00     0.029 A 
ATOM     51  N   UNL A   1      44.518  30.324  28.431  1.00  0.00    -0.354 N 
ATOM     52  N   UNL A   1      41.951  31.121  29.613  1.00  0.00    -0.248 NA
ATOM     53  C   UNL A   1      40.660  32.676  30.784  1.00  0.00     0.031 C 
ATOM     54  C   UNL A   1      46.144  31.832  28.322  1.00  0.00     0.029 A 
ATOM     55  C   UNL A   1      44.835  31.637  28.734  1.00  0.00     0.049 A 
ATOM     56  H   UNL A   1      43.650  29.896  28.612  1.00  0.00     0.167 HD
ATOM     57  C   UNL A   1      42.678  32.297  29.761  1.00  0.00     0.074 A 
ATOM     58  C   UNL A   1      41.817  33.234  30.453  1.00  0.00     0.031 C 
ATOM     59  C   UNL A   1      43.948  32.574  29.373  1.00  0.00     0.034 A 
BRANCH  46  60
ATOM     60  C   UNL A   1      46.902  27.781  26.825  1.00  0.00     0.023 A 
ATOM     61  C   UNL A   1      47.873  27.210  27.671  1.00  0.00     0.012 A 
ATOM     62  C   UNL A   1      47.115  27.786  25.432  1.00  0.00     0.148 A 
ATOM     63  C   UNL A   1      49.051  26.678  27.143  1.00  0.00     0.002 A 
ATOM     64  C   UNL A   1      48.272  27.217  24.911  1.00  0.00     0.091 A 
ATOM     65  F   UNL A   1      46.191  28.356  24.646  1.00  0.00    -0.205 F 
ATOM     66  C   UNL A   1      49.244  26.673  25.765  1.00  0.00     0.022 A 
BRANCH  64  67
ATOM     67  S   UNL A   1      48.579  27.095  23.146  1.00  0.00     0.127 S 
ATOM     68  O   UNL A   1      47.680  28.120  22.617  1.00  0.00    -0.237 OA
ATOM     69  O   UNL A   1      50.001  27.428  23.056  1.00  0.00    -0.237 OA
ATOM     70  O   UNL A   1      48.253  25.725  22.775  1.00  0.00    -0.744 OA
ENDBRANCH  64  67
ENDBRANCH  46  60
BRANCH  47  71
ATOM     71  C   UNL A   1      38.324  30.898  30.910  1.00  0.00     0.023 A 
ATOM     72  C   UNL A   1      38.128  30.677  32.286  1.00  0.00     0.012 A 
ATOM     73  C   UNL A   1      37.330  31.572  30.172  1.00  0.00     0.148 A 
ATOM     74  C   UNL A   1      36.952  31.094  32.912  1.00  0.00     0.002 A 
ATOM     75  C   UNL A   1      36.185  32.031  30.813  1.00  0.00     0.091 A 
ATOM     76  F   UNL A   1      37.527  31.754  28.859  1.00  0.00    -0.205 F 
ATOM     77  C   UNL A   1      35.986  31.779  32.179  1.00  0.00     0.022 A 
BRANCH  75  78
ATOM     78  S   UNL A   1      34.947  33.027  29.976  1.00  0.00     0.127 S 
ATOM     79  O   UNL A   1      34.093  33.438  31.087  1.00  0.00    -0.237 OA
ATOM     80  O   UNL A   1      35.759  34.097  29.396  1.00  0.00    -0.237 OA
ATOM     81  O   UNL A   1      34.330  32.144  28.996  1.00  0.00    -0.744 OA
ENDBRANCH  75  78
ENDBRANCH  47  71
BRANCH  59  82
ATOM     82  C   UNL A   1      44.482  33.954  29.655  1.00  0.00     0.023 A 
ATOM     83  C   UNL A   1      45.184  34.202  30.850  1.00  0.00     0.012 A 
ATOM     84  C   UNL A   1      44.359  34.983  28.699  1.00  0.00     0.148 A 
ATOM     85  C   UNL A   1      45.728  35.461  31.106  1.00  0.00     0.002 A 
ATOM     86  C   UNL A   1      44.945  36.220  28.939  1.00  0.00     0.091 A 
ATOM     87  F   UNL A   1      43.673  34.733  27.574  1.00  0.00    -0.205 F 
ATOM     88  C   UNL A   1      45.619  36.464  30.145  1.00  0.00     0.022 A 
BRANCH  86  89
ATOM     89  S   UNL A   1      44.938  37.540  27.719  1.00  0.00     0.127 S 
ATOM     90  O   UNL A   1      45.186  38.716  28.551  1.00  0.00    -0.237 OA
ATOM     91  O   UNL A   1      46.051  37.165  26.846  1.00  0.00    -0.237 OA
ATOM     92  O   UNL A   1      43.629  37.489  27.081  1.00  0.00    -0.744 OA
ENDBRANCH  86  89
ENDBRANCH  59  82
ENDBRANCH  33  34
ENDBRANCH  26  28
ENDBRANCH  25  26
ENDBRANCH  24  25
ENDBRANCH  23  24
ENDBRANCH  22  23
ENDBRANCH   1  22
TORSDOF 21
ENDMDL
MODEL 3
REMARK VINA RESULT:     -10.4      1.209      7.921
REMARK SMILES CC(=O)Oc1ccc(Br)cc1C(=O)NCC(=O)OCCOCCOC(=O)c1ccc(-c2c3nc(c(-c4cccc(S(=O)(=O)[O-])c4F)c4ccc([nH]4)c(-c4cccc(S(=O)(=O)[O-])c4F)c4nc(c(-c5cccc(S(=O)(=O)[O-])c5F)c5ccc2[nH]5)C=C4)C=C3)cc1
REMARK SMILES IDX 20 1 19 2 18 3 16 4 17 5 15 6 14 7 12 8 13 9 11 11 5 12 6 13
REMARK SMILES IDX 7 14 10 15 8 16 9 17 4 18 2 19 1 20 3 21 21 22 22 23 23 24
REMARK SMILES IDX 24 25 25 26 26 27 27 28 28 29 89 30 29 31 88 32 30 33 31 34
REMARK SMILES IDX 32 35 82 36 33 37 87 38 81 39 83 40 34 41 86 42 80 43 79 44
REMARK SMILES IDX 35 46 67 47 47 48 66 49 48 50 51 51 65 52 84 53 49 54 50 55
REMARK SMILES IDX 64 57 85 58 52 59 36 60 37 61 45 62 38 63 40 64 46 65 39 66
REMARK SMILES IDX 41 67 42 68 43 69 44 70 68 71 69 72 77 73 70 74 72 75 78 76
REMARK SMILES IDX 71 77 73 78 74 79 75 80 76 81 53 82 54 83 62 84 55 85 57 86
REMARK SMILES IDX 63 87 56 88 58 89 59 90 60 91 61 92
REMARK H PARENT 14 10 83 45 51 56
REMARK Flexibility Score: inf
ROOT
ATOM      1  C   UNL A   1      34.684  22.124  26.214  1.00  0.00     0.202 C 
ENDROOT
BRANCH   1   2
ATOM      2  C   UNL A   1      34.005  23.276  25.472  1.00  0.00     0.261 C 
BRANCH   2   3
ATOM      3  O   UNL A   1      32.880  23.777  26.211  1.00  0.00    -0.462 OA
BRANCH   3   4
ATOM      4  C   UNL A   1      31.638  23.409  25.791  1.00  0.00     0.325 C 
ATOM      5  O   UNL A   1      31.361  22.346  25.249  1.00  0.00    -0.250 OA
BRANCH   4   6
ATOM      6  C   UNL A   1      30.588  24.485  26.085  1.00  0.00     0.239 C 
BRANCH   6   7
ATOM      7  N   UNL A   1      30.104  25.177  24.907  1.00  0.00    -0.341 N 
ATOM      8  C   UNL A   1      30.492  26.290  24.225  1.00  0.00     0.255 C 
ATOM      9  O   UNL A   1      29.811  26.540  23.225  1.00  0.00    -0.269 OA
ATOM     10  H   UNL A   1      29.316  24.742  24.508  1.00  0.00     0.164 HD
BRANCH   8  11
ATOM     11  C   UNL A   1      31.669  27.161  24.521  1.00  0.00     0.083 A 
ATOM     12  C   UNL A   1      33.031  26.924  24.286  1.00  0.00     0.143 A 
ATOM     13  C   UNL A   1      33.999  27.874  24.667  1.00  0.00     0.049 A 
ATOM     14  C   UNL A   1      33.634  29.038  25.340  1.00  0.00     0.019 A 
ATOM     15  C   UNL A   1      31.326  28.354  25.200  1.00  0.00     0.033 A 
ATOM     16  C   UNL A   1      32.295  29.272  25.605  1.00  0.00     0.019 A 
ATOM     17  Br  UNL A   1      31.780  30.848  26.512  1.00  0.00    -0.051 Br
BRANCH  12  18
ATOM     18  O   UNL A   1      33.501  25.800  23.587  1.00  0.00    -0.426 OA
BRANCH  18  19
ATOM     19  C   UNL A   1      33.259  25.746  22.213  1.00  0.00     0.308 C 
ATOM     20  C   UNL A   1      32.393  24.563  21.891  1.00  0.00     0.139 C 
ATOM     21  O   UNL A   1      33.669  26.535  21.375  1.00  0.00    -0.252 OA
ENDBRANCH  18  19
ENDBRANCH  12  18
ENDBRANCH   8  11
ENDBRANCH   6   7
ENDBRANCH   4   6
ENDBRANCH   3   4
ENDBRANCH   2   3
ENDBRANCH   1   2
BRANCH   1  22
ATOM     22  O   UNL A   1      35.982  21.758  25.742  1.00  0.00    -0.374 OA
BRANCH  22  23
ATOM     23  C   UNL A   1      36.125  20.470  25.145  1.00  0.00     0.202 C 
BRANCH  23  24
ATOM     24  C   UNL A   1      37.544  19.910  25.004  1.00  0.00     0.261 C 
BRANCH  24  25
ATOM     25  O   UNL A   1      38.549  20.935  25.010  1.00  0.00    -0.460 OA
BRANCH  25  26
ATOM     26  C   UNL A   1      39.518  20.750  25.938  1.00  0.00     0.338 C 
ATOM     27  O   UNL A   1      40.158  19.723  26.131  1.00  0.00    -0.246 OA
BRANCH  26  28
ATOM     28  C   UNL A   1      39.846  22.016  26.617  1.00  0.00     0.060 A 
ATOM     29  C   UNL A   1      39.157  23.161  26.197  1.00  0.00     0.016 A 
ATOM     30  C   UNL A   1      40.861  22.109  27.572  1.00  0.00     0.016 A 
ATOM     31  C   UNL A   1      39.532  24.415  26.669  1.00  0.00     0.010 A 
ATOM     32  C   UNL A   1      41.241  23.371  28.043  1.00  0.00     0.010 A 
ATOM     33  C   UNL A   1      40.612  24.531  27.554  1.00  0.00    -0.014 A 
BRANCH  33  34
ATOM     34  C   UNL A   1      41.178  25.872  27.829  1.00  0.00     0.031 A 
ATOM     35  C   UNL A   1      42.573  26.183  27.353  1.00  0.00     0.074 A 
ATOM     36  C   UNL A   1      40.454  26.808  28.467  1.00  0.00     0.049 A 
ATOM     37  N   UNL A   1      43.263  27.287  27.475  1.00  0.00    -0.248 NA
ATOM     38  C   UNL A   1      43.285  25.105  26.646  1.00  0.00     0.031 C 
ATOM     39  C   UNL A   1      39.093  26.625  28.967  1.00  0.00     0.029 A 
ATOM     40  N   UNL A   1      40.774  28.095  28.818  1.00  0.00    -0.354 N 
ATOM     41  C   UNL A   1      44.496  27.030  26.886  1.00  0.00     0.074 A 
ATOM     42  C   UNL A   1      44.466  25.662  26.418  1.00  0.00     0.031 C 
ATOM     43  C   UNL A   1      38.702  27.752  29.587  1.00  0.00     0.029 A 
ATOM     44  C   UNL A   1      39.792  28.726  29.544  1.00  0.00     0.049 A 
ATOM     45  H   UNL A   1      41.625  28.525  28.575  1.00  0.00     0.167 HD
ATOM     46  C   UNL A   1      45.553  27.863  26.734  1.00  0.00     0.034 A 
ATOM     47  C   UNL A   1      39.783  29.942  30.122  1.00  0.00     0.034 A 
ATOM     48  C   UNL A   1      45.570  29.230  27.181  1.00  0.00     0.049 A 
ATOM     49  C   UNL A   1      40.979  30.844  29.954  1.00  0.00     0.074 A 
ATOM     50  C   UNL A   1      46.572  30.171  27.029  1.00  0.00     0.029 A 
ATOM     51  N   UNL A   1      44.542  29.847  27.877  1.00  0.00    -0.354 N 
ATOM     52  N   UNL A   1      42.088  30.631  29.286  1.00  0.00    -0.248 NA
ATOM     53  C   UNL A   1      40.909  32.168  30.589  1.00  0.00     0.031 C 
ATOM     54  C   UNL A   1      46.160  31.351  27.656  1.00  0.00     0.029 A 
ATOM     55  C   UNL A   1      44.890  31.153  28.174  1.00  0.00     0.049 A 
ATOM     56  H   UNL A   1      43.691  29.419  28.123  1.00  0.00     0.167 HD
ATOM     57  C   UNL A   1      42.831  31.802  29.393  1.00  0.00     0.074 A 
ATOM     58  C   UNL A   1      42.036  32.729  30.172  1.00  0.00     0.031 C 
ATOM     59  C   UNL A   1      44.064  32.081  28.903  1.00  0.00     0.034 A 
BRANCH  46  60
ATOM     60  C   UNL A   1      46.770  27.326  26.029  1.00  0.00     0.023 A 
ATOM     61  C   UNL A   1      46.891  27.481  24.633  1.00  0.00     0.012 A 
ATOM     62  C   UNL A   1      47.817  26.720  26.750  1.00  0.00     0.148 A 
ATOM     63  C   UNL A   1      48.021  27.014  23.962  1.00  0.00     0.002 A 
ATOM     64  C   UNL A   1      48.958  26.295  26.080  1.00  0.00     0.091 A 
ATOM     65  F   UNL A   1      47.673  26.560  28.073  1.00  0.00    -0.205 F 
ATOM     66  C   UNL A   1      49.057  26.431  24.686  1.00  0.00     0.022 A 
BRANCH  64  67
ATOM     67  S   UNL A   1      50.378  25.600  26.932  1.00  0.00     0.127 S 
ATOM     68  O   UNL A   1      49.784  24.448  27.607  1.00  0.00    -0.237 OA
ATOM     69  O   UNL A   1      51.270  25.262  25.822  1.00  0.00    -0.237 OA
ATOM     70  O   UNL A   1      50.874  26.651  27.809  1.00  0.00    -0.744 OA
ENDBRANCH  64  67
ENDBRANCH  46  60
BRANCH  47  71
ATOM     71  C   UNL A   1      38.583  30.396  30.882  1.00  0.00     0.023 A 
ATOM     72  C   UNL A   1      38.494  30.132  32.261  1.00  0.00     0.012 A 
ATOM     73  C   UNL A   1      37.543  31.104  30.247  1.00  0.00     0.148 A 
ATOM     74  C   UNL A   1      37.377  30.541  32.992  1.00  0.00     0.002 A 
ATOM     75  C   UNL A   1      36.459  31.554  30.991  1.00  0.00     0.091 A 
ATOM     76  F   UNL A   1      37.637  31.328  28.929  1.00  0.00    -0.205 F 
ATOM     77  C   UNL A   1      36.366  31.260  32.361  1.00  0.00     0.022 A 
BRANCH  75  78
ATOM     78  S   UNL A   1      35.172  32.591  30.288  1.00  0.00     0.127 S 
ATOM     79  O   UNL A   1      34.647  31.736  29.226  1.00  0.00    -0.237 OA
ATOM     80  O   UNL A   1      34.274  32.776  31.428  1.00  0.00    -0.237 OA
ATOM     81  O   UNL A   1      35.843  33.806  29.849  1.00  0.00    -0.744 OA
ENDBRANCH  75  78
ENDBRANCH  47  71
BRANCH  59  82
ATOM     82  C   UNL A   1      44.627  33.455  29.163  1.00  0.00     0.023 A 
ATOM     83  C   UNL A   1      45.518  33.654  30.235  1.00  0.00     0.012 A 
ATOM     84  C   UNL A   1      44.336  34.528  28.297  1.00  0.00     0.148 A 
ATOM     85  C   UNL A   1      46.088  34.908  30.461  1.00  0.00     0.002 A 
ATOM     86  C   UNL A   1      44.944  35.761  28.499  1.00  0.00     0.091 A 
ATOM     87  F   UNL A   1      43.472  34.323  27.292  1.00  0.00    -0.205 F 
ATOM     88  C   UNL A   1      45.810  35.956  29.587  1.00  0.00     0.022 A 
BRANCH  86  89
ATOM     89  S   UNL A   1      44.721  37.140  27.369  1.00  0.00     0.127 S 
ATOM     90  O   UNL A   1      43.661  36.640  26.494  1.00  0.00    -0.237 OA
ATOM     91  O   UNL A   1      44.310  38.219  28.268  1.00  0.00    -0.237 OA
ATOM     92  O   UNL A   1      46.014  37.348  26.731  1.00  0.00    -0.744 OA
ENDBRANCH  86  89
ENDBRANCH  59  82
ENDBRANCH  33  34
ENDBRANCH  26  28
ENDBRANCH  25  26
ENDBRANCH  24  25
ENDBRANCH  23  24
ENDBRANCH  22  23
ENDBRANCH   1  22
TORSDOF 21
ENDMDL
