MODEL 1
REMARK VINA RESULT:     -11.9      0.000      0.000
REMARK SMILES CC1(C)C(NC(=O)N[C@H]2CCCC[C@H]2C(=O)OCCOCCOC(=O)c2ccc(-c3c4nc(c(-c5cccc(S(=O)(=O)[O-])c5F)c5ccc([nH]5)c(-c5cccc(S(=O)(=O)[O-])c5F)c5nc(c(-c6cccc(S(=O)(=O)[O-])c6F)c6ccc3[nH]6)C=C5)C=C4)cc2)C1(C)C
REMARK SMILES IDX 21 1 20 2 19 3 18 4 17 5 15 6 16 7 14 8 9 9 10 10 11 11
REMARK SMILES IDX 13 12 12 13 8 14 5 15 6 16 7 18 4 20 1 21 2 22 3 23 89 24
REMARK SMILES IDX 90 25 91 26 22 27 23 28 24 29 25 30 26 31 27 32 88 33 28 34
REMARK SMILES IDX 87 35 29 36 30 37 31 38 81 39 32 40 86 41 80 42 82 43 33 44
REMARK SMILES IDX 85 45 79 46 78 47 34 49 66 50 46 51 65 52 47 53 50 54 64 55
REMARK SMILES IDX 83 56 48 57 49 58 63 60 84 61 51 62 35 63 36 64 44 65 37 66
REMARK SMILES IDX 39 67 45 68 38 69 40 70 41 71 42 72 43 73 67 74 68 75 76 76
REMARK SMILES IDX 69 77 71 78 77 79 70 80 72 81 73 82 74 83 75 84 52 85 53 86
REMARK SMILES IDX 61 87 54 88 56 89 62 90 55 91 57 92 58 93 59 94 60 95
REMARK H PARENT 5 17 8 19 82 48 50 59
REMARK Flexibility Score: inf
ROOT
ATOM      1  C   UNL A   1      31.739  29.698  25.195  1.00  0.00     0.202 C 
ENDROOT
BRANCH   1   2
ATOM      2  O   UNL A   1      32.189  28.460  25.739  1.00  0.00    -0.374 OA
BRANCH   2   3
ATOM      3  C   UNL A   1      31.441  27.280  25.423  1.00  0.00     0.202 C 
BRANCH   3   4
ATOM      4  C   UNL A   1      31.954  26.424  24.257  1.00  0.00     0.261 C 
BRANCH   4   5
ATOM      5  O   UNL A   1      33.386  26.338  24.332  1.00  0.00    -0.463 OA
BRANCH   5   6
ATOM      6  C   UNL A   1      33.902  25.320  25.072  1.00  0.00     0.311 C 
ATOM      7  O   UNL A   1      34.850  25.422  25.840  1.00  0.00    -0.252 OA
BRANCH   6   8
ATOM      8  C   UNL A   1      32.963  24.127  25.061  1.00  0.00     0.121 C 
ATOM      9  C   UNL A   1      33.444  22.862  24.357  1.00  0.00     0.098 C 
ATOM     10  C   UNL A   1      32.267  21.957  24.013  1.00  0.00     0.026 C 
ATOM     11  C   UNL A   1      31.512  21.594  25.271  1.00  0.00     0.002 C 
ATOM     12  C   UNL A   1      32.385  23.758  26.399  1.00  0.00     0.017 C 
ATOM     13  C   UNL A   1      31.207  22.813  26.148  1.00  0.00     0.001 C 
BRANCH   9  14
ATOM     14  N   UNL A   1      34.542  22.143  24.995  1.00  0.00    -0.335 N 
ATOM     15  N   UNL A   1      35.028  19.748  24.838  1.00  0.00    -0.334 N 
ATOM     16  C   UNL A   1      35.184  21.017  25.129  1.00  0.00     0.315 C 
ATOM     17  H   UNL A   1      35.953  19.444  24.979  1.00  0.00     0.165 HD
ATOM     18  O   UNL A   1      36.282  21.203  25.697  1.00  0.00    -0.249 OA
ATOM     19  H   UNL A   1      34.996  22.791  25.580  1.00  0.00     0.165 HD
BRANCH  15  20
ATOM     20  C   UNL A   1      34.442  18.507  24.459  1.00  0.00     0.096 C 
ATOM     21  C   UNL A   1      32.470  17.522  26.022  1.00  0.00     0.014 C 
ATOM     22  C   UNL A   1      33.142  17.787  24.695  1.00  0.00    -0.007 C 
ATOM     23  C   UNL A   1      32.067  18.081  23.663  1.00  0.00     0.014 C 
ATOM     24  C   UNL A   1      34.486  17.010  24.315  1.00  0.00    -0.007 C 
ATOM     25  C   UNL A   1      35.047  15.970  25.254  1.00  0.00     0.014 C 
ATOM     26  C   UNL A   1      34.715  16.529  22.877  1.00  0.00     0.014 C 
ENDBRANCH  15  20
ENDBRANCH   9  14
ENDBRANCH   6   8
ENDBRANCH   5   6
ENDBRANCH   4   5
ENDBRANCH   3   4
ENDBRANCH   2   3
ENDBRANCH   1   2
BRANCH   1  27
ATOM     27  C   UNL A   1      31.639  30.904  26.137  1.00  0.00     0.261 C 
BRANCH  27  28
ATOM     28  O   UNL A   1      32.538  30.794  27.254  1.00  0.00    -0.460 OA
BRANCH  28  29
ATOM     29  C   UNL A   1      33.253  31.921  27.497  1.00  0.00     0.338 C 
ATOM     30  O   UNL A   1      32.810  33.042  27.678  1.00  0.00    -0.246 OA
BRANCH  29  31
ATOM     31  C   UNL A   1      34.670  31.597  27.739  1.00  0.00     0.060 A 
ATOM     32  C   UNL A   1      34.966  30.246  27.956  1.00  0.00     0.016 A 
ATOM     33  C   UNL A   1      35.659  32.574  27.874  1.00  0.00     0.016 A 
ATOM     34  C   UNL A   1      36.227  29.874  28.396  1.00  0.00     0.010 A 
ATOM     35  C   UNL A   1      36.931  32.195  28.325  1.00  0.00     0.010 A 
ATOM     36  C   UNL A   1      37.200  30.852  28.645  1.00  0.00    -0.014 A 
BRANCH  36  37
ATOM     37  C   UNL A   1      38.407  30.435  29.402  1.00  0.00     0.031 A 
ATOM     38  C   UNL A   1      38.553  30.854  30.842  1.00  0.00     0.074 A 
ATOM     39  C   UNL A   1      39.298  29.591  28.850  1.00  0.00     0.049 A 
ATOM     40  N   UNL A   1      39.436  30.467  31.728  1.00  0.00    -0.248 NA
ATOM     41  C   UNL A   1      37.578  31.829  31.358  1.00  0.00     0.031 C 
ATOM     42  C   UNL A   1      39.266  29.116  27.467  1.00  0.00     0.029 A 
ATOM     43  N   UNL A   1      40.400  28.978  29.391  1.00  0.00    -0.354 N 
ATOM     44  C   UNL A   1      39.142  31.169  32.891  1.00  0.00     0.074 A 
ATOM     45  C   UNL A   1      38.003  32.012  32.601  1.00  0.00     0.031 C 
ATOM     46  C   UNL A   1      40.308  28.292  27.264  1.00  0.00     0.029 A 
ATOM     47  C   UNL A   1      41.086  28.189  28.498  1.00  0.00     0.049 A 
ATOM     48  H   UNL A   1      40.674  29.093  30.330  1.00  0.00     0.167 HD
ATOM     49  C   UNL A   1      39.755  31.107  34.096  1.00  0.00     0.034 A 
ATOM     50  C   UNL A   1      42.215  27.472  28.657  1.00  0.00     0.034 A 
ATOM     51  C   UNL A   1      40.862  30.240  34.396  1.00  0.00     0.049 A 
ATOM     52  C   UNL A   1      42.861  27.411  30.017  1.00  0.00     0.074 A 
ATOM     53  C   UNL A   1      41.499  30.051  35.611  1.00  0.00     0.029 A 
ATOM     54  N   UNL A   1      41.510  29.433  33.476  1.00  0.00    -0.354 N 
ATOM     55  N   UNL A   1      42.472  27.956  31.144  1.00  0.00    -0.248 NA
ATOM     56  C   UNL A   1      44.078  26.595  30.137  1.00  0.00     0.031 C 
ATOM     57  C   UNL A   1      42.558  29.158  35.416  1.00  0.00     0.029 A 
ATOM     58  C   UNL A   1      42.555  28.762  34.089  1.00  0.00     0.049 A 
ATOM     59  H   UNL A   1      41.264  29.349  32.526  1.00  0.00     0.167 HD
ATOM     60  C   UNL A   1      43.378  27.527  32.108  1.00  0.00     0.074 A 
ATOM     61  C   UNL A   1      44.310  26.644  31.440  1.00  0.00     0.031 C 
ATOM     62  C   UNL A   1      43.448  27.850  33.424  1.00  0.00     0.034 A 
BRANCH  49  63
ATOM     63  C   UNL A   1      39.243  31.990  35.203  1.00  0.00     0.023 A 
ATOM     64  C   UNL A   1      38.322  31.482  36.141  1.00  0.00     0.012 A 
ATOM     65  C   UNL A   1      39.760  33.290  35.372  1.00  0.00     0.148 A 
ATOM     66  C   UNL A   1      37.914  32.260  37.225  1.00  0.00     0.002 A 
ATOM     67  C   UNL A   1      39.383  34.042  36.477  1.00  0.00     0.091 A 
ATOM     68  F   UNL A   1      40.617  33.759  34.454  1.00  0.00    -0.205 F 
ATOM     69  C   UNL A   1      38.455  33.532  37.400  1.00  0.00     0.022 A 
BRANCH  67  70
ATOM     70  S   UNL A   1      40.085  35.656  36.838  1.00  0.00     0.127 S 
ATOM     71  O   UNL A   1      39.605  36.446  35.706  1.00  0.00    -0.237 OA
ATOM     72  O   UNL A   1      39.456  35.982  38.119  1.00  0.00    -0.237 OA
ATOM     73  O   UNL A   1      41.527  35.466  36.896  1.00  0.00    -0.744 OA
ENDBRANCH  67  70
ENDBRANCH  49  63
BRANCH  50  74
ATOM     74  C   UNL A   1      42.805  26.734  27.504  1.00  0.00     0.023 A 
ATOM     75  C   UNL A   1      43.698  27.385  26.631  1.00  0.00     0.012 A 
ATOM     76  C   UNL A   1      42.464  25.390  27.258  1.00  0.00     0.148 A 
ATOM     77  C   UNL A   1      44.202  26.726  25.508  1.00  0.00     0.002 A 
ATOM     78  C   UNL A   1      43.017  24.721  26.174  1.00  0.00     0.091 A 
ATOM     79  F   UNL A   1      41.595  24.793  28.086  1.00  0.00    -0.205 F 
ATOM     80  C   UNL A   1      43.869  25.393  25.284  1.00  0.00     0.022 A 
BRANCH  78  81
ATOM     81  S   UNL A   1      42.743  22.969  25.897  1.00  0.00     0.127 S 
ATOM     82  O   UNL A   1      43.573  22.368  26.936  1.00  0.00    -0.237 OA
ATOM     83  O   UNL A   1      41.300  22.849  26.114  1.00  0.00    -0.237 OA
ATOM     84  O   UNL A   1      43.160  22.724  24.523  1.00  0.00    -0.744 OA
ENDBRANCH  78  81
ENDBRANCH  50  74
BRANCH  62  85
ATOM     85  C   UNL A   1      44.553  27.222  34.234  1.00  0.00     0.023 A 
ATOM     86  C   UNL A   1      45.821  27.836  34.289  1.00  0.00     0.012 A 
ATOM     87  C   UNL A   1      44.328  26.041  34.970  1.00  0.00     0.148 A 
ATOM     88  C   UNL A   1      46.861  27.257  35.015  1.00  0.00     0.002 A 
ATOM     89  C   UNL A   1      45.353  25.499  35.736  1.00  0.00     0.091 A 
ATOM     90  F   UNL A   1      43.122  25.459  34.897  1.00  0.00    -0.205 F 
ATOM     91  C   UNL A   1      46.625  26.095  35.746  1.00  0.00     0.022 A 
BRANCH  89  92
ATOM     92  S   UNL A   1      45.107  24.062  36.785  1.00  0.00     0.127 S 
ATOM     93  O   UNL A   1      46.472  23.766  37.213  1.00  0.00    -0.237 OA
ATOM     94  O   UNL A   1      44.237  24.587  37.839  1.00  0.00    -0.237 OA
ATOM     95  O   UNL A   1      44.480  23.055  35.938  1.00  0.00    -0.744 OA
ENDBRANCH  89  92
ENDBRANCH  62  85
ENDBRANCH  36  37
ENDBRANCH  29  31
ENDBRANCH  28  29
ENDBRANCH  27  28
ENDBRANCH   1  27
TORSDOF 19
ENDMDL
MODEL 2
REMARK VINA RESULT:     -11.5      5.160      8.733
REMARK SMILES CC1(C)C(NC(=O)N[C@H]2CCCC[C@H]2C(=O)OCCOCCOC(=O)c2ccc(-c3c4nc(c(-c5cccc(S(=O)(=O)[O-])c5F)c5ccc([nH]5)c(-c5cccc(S(=O)(=O)[O-])c5F)c5nc(c(-c6cccc(S(=O)(=O)[O-])c6F)c6ccc3[nH]6)C=C5)C=C4)cc2)C1(C)C
REMARK SMILES IDX 21 1 20 2 19 3 18 4 17 5 15 6 16 7 14 8 9 9 10 10 11 11
REMARK SMILES IDX 13 12 12 13 8 14 5 15 6 16 7 18 4 20 1 21 2 22 3 23 89 24
REMARK SMILES IDX 90 25 91 26 22 27 23 28 24 29 25 30 26 31 27 32 88 33 28 34
REMARK SMILES IDX 87 35 29 36 30 37 31 38 81 39 32 40 86 41 80 42 82 43 33 44
REMARK SMILES IDX 85 45 79 46 78 47 34 49 66 50 46 51 65 52 47 53 50 54 64 55
REMARK SMILES IDX 83 56 48 57 49 58 63 60 84 61 51 62 35 63 36 64 44 65 37 66
REMARK SMILES IDX 39 67 45 68 38 69 40 70 41 71 42 72 43 73 67 74 68 75 76 76
REMARK SMILES IDX 69 77 71 78 77 79 70 80 72 81 73 82 74 83 75 84 52 85 53 86
REMARK SMILES IDX 61 87 54 88 56 89 62 90 55 91 57 92 58 93 59 94 60 95
REMARK H PARENT 5 17 8 19 82 48 50 59
REMARK Flexibility Score: inf
ROOT
ATOM      1  C   UNL A   1      38.318  19.801  24.994  1.00  0.00     0.202 C 
ENDROOT
BRANCH   1   2
ATOM      2  O   UNL A   1      37.848  21.123  25.251  1.00  0.00    -0.374 OA
BRANCH   2   3
ATOM      3  C   UNL A   1      36.484  21.420  24.931  1.00  0.00     0.202 C 
BRANCH   3   4
ATOM      4  C   UNL A   1      35.499  20.243  24.921  1.00  0.00     0.261 C 
BRANCH   4   5
ATOM      5  O   UNL A   1      34.264  20.660  25.526  1.00  0.00    -0.463 OA
BRANCH   5   6
ATOM      6  C   UNL A   1      33.169  20.699  24.719  1.00  0.00     0.311 C 
ATOM      7  O   UNL A   1      32.804  19.786  23.989  1.00  0.00    -0.252 OA
BRANCH   6   8
ATOM      8  C   UNL A   1      32.292  21.887  25.071  1.00  0.00     0.121 C 
ATOM      9  C   UNL A   1      32.779  22.814  26.179  1.00  0.00     0.098 C 
ATOM     10  C   UNL A   1      31.626  23.640  26.737  1.00  0.00     0.026 C 
ATOM     11  C   UNL A   1      30.987  24.446  25.630  1.00  0.00     0.002 C 
ATOM     12  C   UNL A   1      31.836  22.712  23.900  1.00  0.00     0.017 C 
ATOM     13  C   UNL A   1      30.690  23.604  24.384  1.00  0.00     0.001 C 
BRANCH   9  14
ATOM     14  N   UNL A   1      33.956  23.622  25.877  1.00  0.00    -0.335 N 
ATOM     15  N   UNL A   1      34.024  25.727  24.626  1.00  0.00    -0.334 N 
ATOM     16  C   UNL A   1      34.429  24.728  25.372  1.00  0.00     0.315 C 
ATOM     17  H   UNL A   1      34.761  26.355  24.798  1.00  0.00     0.165 HD
ATOM     18  O   UNL A   1      35.622  24.888  25.706  1.00  0.00    -0.249 OA
ATOM     19  H   UNL A   1      34.735  23.109  26.191  1.00  0.00     0.165 HD
BRANCH  15  20
ATOM     20  C   UNL A   1      33.251  26.529  23.739  1.00  0.00     0.096 C 
ATOM     21  C   UNL A   1      33.089  29.175  24.259  1.00  0.00     0.014 C 
ATOM     22  C   UNL A   1      33.184  27.979  23.343  1.00  0.00    -0.007 C 
ATOM     23  C   UNL A   1      34.070  28.347  22.164  1.00  0.00     0.014 C 
ATOM     24  C   UNL A   1      31.934  26.997  23.182  1.00  0.00    -0.007 C 
ATOM     25  C   UNL A   1      30.641  27.300  23.900  1.00  0.00     0.014 C 
ATOM     26  C   UNL A   1      31.591  26.406  21.810  1.00  0.00     0.014 C 
ENDBRANCH  15  20
ENDBRANCH   9  14
ENDBRANCH   6   8
ENDBRANCH   5   6
ENDBRANCH   4   5
ENDBRANCH   3   4
ENDBRANCH   2   3
ENDBRANCH   1   2
BRANCH   1  27
ATOM     27  C   UNL A   1      39.332  19.195  25.973  1.00  0.00     0.261 C 
BRANCH  27  28
ATOM     28  O   UNL A   1      40.672  19.228  25.452  1.00  0.00    -0.460 OA
BRANCH  28  29
ATOM     29  C   UNL A   1      41.621  19.464  26.391  1.00  0.00     0.338 C 
ATOM     30  O   UNL A   1      42.500  18.700  26.750  1.00  0.00    -0.246 OA
BRANCH  29  31
ATOM     31  C   UNL A   1      41.606  20.879  26.802  1.00  0.00     0.060 A 
ATOM     32  C   UNL A   1      41.284  21.808  25.805  1.00  0.00     0.016 A 
ATOM     33  C   UNL A   1      42.008  21.305  28.070  1.00  0.00     0.016 A 
ATOM     34  C   UNL A   1      41.448  23.164  26.042  1.00  0.00     0.010 A 
ATOM     35  C   UNL A   1      42.179  22.677  28.303  1.00  0.00     0.010 A 
ATOM     36  C   UNL A   1      41.957  23.606  27.270  1.00  0.00    -0.014 A 
BRANCH  36  37
ATOM     37  C   UNL A   1      42.403  25.019  27.355  1.00  0.00     0.031 A 
ATOM     38  C   UNL A   1      41.508  26.034  28.017  1.00  0.00     0.074 A 
ATOM     39  C   UNL A   1      43.641  25.366  26.959  1.00  0.00     0.049 A 
ATOM     40  N   UNL A   1      41.769  27.275  28.344  1.00  0.00    -0.248 NA
ATOM     41  C   UNL A   1      40.145  25.600  28.365  1.00  0.00     0.031 C 
ATOM     42  C   UNL A   1      44.598  24.476  26.303  1.00  0.00     0.029 A 
ATOM     43  N   UNL A   1      44.308  26.561  27.058  1.00  0.00    -0.354 N 
ATOM     44  C   UNL A   1      40.600  27.775  28.906  1.00  0.00     0.074 A 
ATOM     45  C   UNL A   1      39.624  26.709  28.873  1.00  0.00     0.031 C 
ATOM     46  C   UNL A   1      45.728  25.159  26.050  1.00  0.00     0.029 A 
ATOM     47  C   UNL A   1      45.570  26.536  26.514  1.00  0.00     0.049 A 
ATOM     48  H   UNL A   1      43.918  27.362  27.479  1.00  0.00     0.167 HD
ATOM     49  C   UNL A   1      40.365  29.006  29.417  1.00  0.00     0.034 A 
ATOM     50  C   UNL A   1      46.489  27.514  26.399  1.00  0.00     0.034 A 
ATOM     51  C   UNL A   1      41.347  30.054  29.487  1.00  0.00     0.049 A 
ATOM     52  C   UNL A   1      46.202  28.867  26.996  1.00  0.00     0.074 A 
ATOM     53  C   UNL A   1      41.224  31.309  30.059  1.00  0.00     0.029 A 
ATOM     54  N   UNL A   1      42.624  29.981  28.954  1.00  0.00    -0.354 N 
ATOM     55  N   UNL A   1      45.149  29.269  27.667  1.00  0.00    -0.248 NA
ATOM     56  C   UNL A   1      47.250  29.888  26.860  1.00  0.00     0.031 C 
ATOM     57  C   UNL A   1      42.414  32.009  29.838  1.00  0.00     0.029 A 
ATOM     58  C   UNL A   1      43.291  31.177  29.163  1.00  0.00     0.049 A 
ATOM     59  H   UNL A   1      43.000  29.196  28.496  1.00  0.00     0.167 HD
ATOM     60  C   UNL A   1      45.422  30.577  28.055  1.00  0.00     0.074 A 
ATOM     61  C   UNL A   1      46.755  30.883  27.581  1.00  0.00     0.031 C 
ATOM     62  C   UNL A   1      44.634  31.455  28.726  1.00  0.00     0.034 A 
BRANCH  49  63
ATOM     63  C   UNL A   1      38.993  29.302  29.963  1.00  0.00     0.023 A 
ATOM     64  C   UNL A   1      38.683  28.987  31.300  1.00  0.00     0.012 A 
ATOM     65  C   UNL A   1      38.048  29.990  29.175  1.00  0.00     0.148 A 
ATOM     66  C   UNL A   1      37.448  29.342  31.843  1.00  0.00     0.002 A 
ATOM     67  C   UNL A   1      36.839  30.379  29.735  1.00  0.00     0.091 A 
ATOM     68  F   UNL A   1      38.358  30.259  27.899  1.00  0.00    -0.205 F 
ATOM     69  C   UNL A   1      36.534  30.050  31.067  1.00  0.00     0.022 A 
BRANCH  67  70
ATOM     70  S   UNL A   1      35.630  31.367  28.846  1.00  0.00     0.127 S 
ATOM     71  O   UNL A   1      36.488  32.307  28.128  1.00  0.00    -0.237 OA
ATOM     72  O   UNL A   1      34.981  30.365  27.999  1.00  0.00    -0.237 OA
ATOM     73  O   UNL A   1      34.769  31.961  29.858  1.00  0.00    -0.744 OA
ENDBRANCH  67  70
ENDBRANCH  49  63
BRANCH  50  74
ATOM     74  C   UNL A   1      47.783  27.251  25.706  1.00  0.00     0.023 A 
ATOM     75  C   UNL A   1      48.906  26.828  26.442  1.00  0.00     0.012 A 
ATOM     76  C   UNL A   1      47.908  27.443  24.317  1.00  0.00     0.148 A 
ATOM     77  C   UNL A   1      50.141  26.648  25.816  1.00  0.00     0.002 A 
ATOM     78  C   UNL A   1      49.123  27.202  23.688  1.00  0.00     0.091 A 
ATOM     79  F   UNL A   1      46.834  27.869  23.635  1.00  0.00    -0.205 F 
ATOM     80  C   UNL A   1      50.247  26.826  24.439  1.00  0.00     0.022 A 
BRANCH  78  81
ATOM     81  S   UNL A   1      49.303  27.279  21.904  1.00  0.00     0.127 S 
ATOM     82  O   UNL A   1      48.507  26.134  21.473  1.00  0.00    -0.237 OA
ATOM     83  O   UNL A   1      48.720  28.586  21.596  1.00  0.00    -0.237 OA
ATOM     84  O   UNL A   1      50.736  27.193  21.656  1.00  0.00    -0.744 OA
ENDBRANCH  78  81
ENDBRANCH  50  74
BRANCH  62  85
ATOM     85  C   UNL A   1      45.205  32.821  29.011  1.00  0.00     0.023 A 
ATOM     86  C   UNL A   1      45.957  33.037  30.185  1.00  0.00     0.012 A 
ATOM     87  C   UNL A   1      45.028  33.882  28.102  1.00  0.00     0.148 A 
ATOM     88  C   UNL A   1      46.473  34.299  30.475  1.00  0.00     0.002 A 
ATOM     89  C   UNL A   1      45.592  35.123  28.371  1.00  0.00     0.091 A 
ATOM     90  F   UNL A   1      44.298  33.667  26.997  1.00  0.00    -0.205 F 
ATOM     91  C   UNL A   1      46.299  35.339  29.565  1.00  0.00     0.022 A 
BRANCH  89  92
ATOM     92  S   UNL A   1      45.501  36.488  27.207  1.00  0.00     0.127 S 
ATOM     93  O   UNL A   1      46.066  35.889  25.999  1.00  0.00    -0.237 OA
ATOM     94  O   UNL A   1      44.062  36.750  27.141  1.00  0.00    -0.237 OA
ATOM     95  O   UNL A   1      46.280  37.568  27.799  1.00  0.00    -0.744 OA
ENDBRANCH  89  92
ENDBRANCH  62  85
ENDBRANCH  36  37
ENDBRANCH  29  31
ENDBRANCH  28  29
ENDBRANCH  27  28
ENDBRANCH   1  27
TORSDOF 19
ENDMDL
MODEL 3
REMARK VINA RESULT:     -11.4      4.564     10.272
REMARK SMILES CC1(C)C(NC(=O)N[C@H]2CCCC[C@H]2C(=O)OCCOCCOC(=O)c2ccc(-c3c4nc(c(-c5cccc(S(=O)(=O)[O-])c5F)c5ccc([nH]5)c(-c5cccc(S(=O)(=O)[O-])c5F)c5nc(c(-c6cccc(S(=O)(=O)[O-])c6F)c6ccc3[nH]6)C=C5)C=C4)cc2)C1(C)C
REMARK SMILES IDX 21 1 20 2 19 3 18 4 17 5 15 6 16 7 14 8 9 9 10 10 11 11
REMARK SMILES IDX 13 12 12 13 8 14 5 15 6 16 7 18 4 20 1 21 2 22 3 23 89 24
REMARK SMILES IDX 90 25 91 26 22 27 23 28 24 29 25 30 26 31 27 32 88 33 28 34
REMARK SMILES IDX 87 35 29 36 30 37 31 38 81 39 32 40 86 41 80 42 82 43 33 44
REMARK SMILES IDX 85 45 79 46 78 47 34 49 66 50 46 51 65 52 47 53 50 54 64 55
REMARK SMILES IDX 83 56 48 57 49 58 63 60 84 61 51 62 35 63 36 64 44 65 37 66
REMARK SMILES IDX 39 67 45 68 38 69 40 70 41 71 42 72 43 73 67 74 68 75 76 76
REMARK SMILES IDX 69 77 71 78 77 79 70 80 72 81 73 82 74 83 75 84 52 85 53 86
REMARK SMILES IDX 61 87 54 88 56 89 62 90 55 91 57 92 58 93 59 94 60 95
REMARK H PARENT 5 17 8 19 82 48 50 59
REMARK Flexibility Score: inf
ROOT
ATOM      1  C   UNL A   1      36.186  20.074  24.587  1.00  0.00     0.202 C 
ENDROOT
BRANCH   1   2
ATOM      2  O   UNL A   1      35.432  18.940  25.008  1.00  0.00    -0.374 OA
BRANCH   2   3
ATOM      3  C   UNL A   1      34.118  18.771  24.464  1.00  0.00     0.202 C 
BRANCH   3   4
ATOM      4  C   UNL A   1      32.937  19.062  25.398  1.00  0.00     0.261 C 
BRANCH   4   5
ATOM      5  O   UNL A   1      32.558  20.442  25.261  1.00  0.00    -0.463 OA
BRANCH   5   6
ATOM      6  C   UNL A   1      33.164  21.330  26.093  1.00  0.00     0.311 C 
ATOM      7  O   UNL A   1      33.590  21.065  27.211  1.00  0.00    -0.252 OA
BRANCH   6   8
ATOM      8  C   UNL A   1      33.523  22.601  25.345  1.00  0.00     0.121 C 
ATOM      9  C   UNL A   1      32.380  23.390  24.715  1.00  0.00     0.098 C 
ATOM     10  C   UNL A   1      32.904  24.327  23.633  1.00  0.00     0.026 C 
ATOM     11  C   UNL A   1      33.925  25.274  24.221  1.00  0.00     0.002 C 
ATOM     12  C   UNL A   1      34.425  23.546  26.088  1.00  0.00     0.017 C 
ATOM     13  C   UNL A   1      34.974  24.552  25.073  1.00  0.00     0.001 C 
BRANCH   9  14
ATOM     14  N   UNL A   1      31.464  24.052  25.639  1.00  0.00    -0.335 N 
ATOM     15  N   UNL A   1      30.689  26.373  25.543  1.00  0.00    -0.334 N 
ATOM     16  C   UNL A   1      30.774  25.121  25.923  1.00  0.00     0.315 C 
ATOM     17  H   UNL A   1      29.826  26.601  25.958  1.00  0.00     0.165 HD
ATOM     18  O   UNL A   1      29.937  24.878  26.818  1.00  0.00    -0.249 OA
ATOM     19  H   UNL A   1      31.290  23.411  26.365  1.00  0.00     0.165 HD
BRANCH  15  20
ATOM     20  C   UNL A   1      30.985  27.631  24.944  1.00  0.00     0.096 C 
ATOM     21  C   UNL A   1      31.373  27.685  22.270  1.00  0.00     0.014 C 
ATOM     22  C   UNL A   1      30.873  28.252  23.578  1.00  0.00    -0.007 C 
ATOM     23  C   UNL A   1      29.554  28.961  23.320  1.00  0.00     0.014 C 
ATOM     24  C   UNL A   1      31.915  28.780  24.668  1.00  0.00    -0.007 C 
ATOM     25  C   UNL A   1      33.394  28.768  24.364  1.00  0.00     0.014 C 
ATOM     26  C   UNL A   1      31.604  30.043  25.480  1.00  0.00     0.014 C 
ENDBRANCH  15  20
ENDBRANCH   9  14
ENDBRANCH   6   8
ENDBRANCH   5   6
ENDBRANCH   4   5
ENDBRANCH   3   4
ENDBRANCH   2   3
ENDBRANCH   1   2
BRANCH   1  27
ATOM     27  C   UNL A   1      37.709  20.033  24.765  1.00  0.00     0.261 C 
BRANCH  27  28
ATOM     28  O   UNL A   1      38.200  21.175  25.488  1.00  0.00    -0.460 OA
BRANCH  28  29
ATOM     29  C   UNL A   1      39.385  20.962  26.112  1.00  0.00     0.338 C 
ATOM     30  O   UNL A   1      40.139  20.018  25.946  1.00  0.00    -0.246 OA
BRANCH  29  31
ATOM     31  C   UNL A   1      39.785  22.148  26.889  1.00  0.00     0.060 A 
ATOM     32  C   UNL A   1      39.178  23.356  26.529  1.00  0.00     0.016 A 
ATOM     33  C   UNL A   1      40.801  22.119  27.848  1.00  0.00     0.016 A 
ATOM     34  C   UNL A   1      39.641  24.552  27.058  1.00  0.00     0.010 A 
ATOM     35  C   UNL A   1      41.271  23.330  28.377  1.00  0.00     0.010 A 
ATOM     36  C   UNL A   1      40.732  24.553  27.937  1.00  0.00    -0.014 A 
BRANCH  36  37
ATOM     37  C   UNL A   1      41.377  25.860  28.221  1.00  0.00     0.031 A 
ATOM     38  C   UNL A   1      42.740  26.147  27.648  1.00  0.00     0.074 A 
ATOM     39  C   UNL A   1      40.702  26.823  28.875  1.00  0.00     0.049 A 
ATOM     40  N   UNL A   1      43.407  27.274  27.631  1.00  0.00    -0.248 NA
ATOM     41  C   UNL A   1      43.445  25.027  27.001  1.00  0.00     0.031 C 
ATOM     42  C   UNL A   1      39.379  26.665  29.478  1.00  0.00     0.029 A 
ATOM     43  N   UNL A   1      41.037  28.127  29.135  1.00  0.00    -0.354 N 
ATOM     44  C   UNL A   1      44.616  26.993  27.004  1.00  0.00     0.074 A 
ATOM     45  C   UNL A   1      44.596  25.589  26.657  1.00  0.00     0.031 C 
ATOM     46  C   UNL A   1      39.018  27.828  30.047  1.00  0.00     0.029 A 
ATOM     47  C   UNL A   1      40.087  28.807  29.859  1.00  0.00     0.049 A 
ATOM     48  H   UNL A   1      41.879  28.538  28.833  1.00  0.00     0.167 HD
ATOM     49  C   UNL A   1      45.642  27.831  26.728  1.00  0.00     0.034 A 
ATOM     50  C   UNL A   1      40.083  30.072  30.322  1.00  0.00     0.034 A 
ATOM     51  C   UNL A   1      45.645  29.235  27.037  1.00  0.00     0.049 A 
ATOM     52  C   UNL A   1      41.234  30.983  29.981  1.00  0.00     0.074 A 
ATOM     53  C   UNL A   1      46.608  30.180  26.726  1.00  0.00     0.029 A 
ATOM     54  N   UNL A   1      44.652  29.894  27.743  1.00  0.00    -0.354 N 
ATOM     55  N   UNL A   1      42.293  30.739  29.246  1.00  0.00    -0.248 NA
ATOM     56  C   UNL A   1      41.166  32.359  30.493  1.00  0.00     0.031 C 
ATOM     57  C   UNL A   1      46.215  31.403  27.277  1.00  0.00     0.029 A 
ATOM     58  C   UNL A   1      44.990  31.229  27.898  1.00  0.00     0.049 A 
ATOM     59  H   UNL A   1      43.829  29.476  28.084  1.00  0.00     0.167 HD
ATOM     60  C   UNL A   1      42.999  31.936  29.188  1.00  0.00     0.074 A 
ATOM     61  C   UNL A   1      42.225  32.913  29.925  1.00  0.00     0.031 C 
ATOM     62  C   UNL A   1      44.191  32.201  28.595  1.00  0.00     0.034 A 
BRANCH  49  63
ATOM     63  C   UNL A   1      46.858  27.267  26.041  1.00  0.00     0.023 A 
ATOM     64  C   UNL A   1      47.034  27.453  24.656  1.00  0.00     0.012 A 
ATOM     65  C   UNL A   1      47.875  26.646  26.794  1.00  0.00     0.148 A 
ATOM     66  C   UNL A   1      48.201  27.018  24.027  1.00  0.00     0.002 A 
ATOM     67  C   UNL A   1      49.052  26.256  26.168  1.00  0.00     0.091 A 
ATOM     68  F   UNL A   1      47.674  26.461  28.106  1.00  0.00    -0.205 F 
ATOM     69  C   UNL A   1      49.214  26.434  24.784  1.00  0.00     0.022 A 
BRANCH  67  70
ATOM     70  S   UNL A   1      50.449  25.573  27.068  1.00  0.00     0.127 S 
ATOM     71  O   UNL A   1      51.422  25.375  25.995  1.00  0.00    -0.237 OA
ATOM     72  O   UNL A   1      50.776  26.658  27.994  1.00  0.00    -0.237 OA
ATOM     73  O   UNL A   1      49.966  24.354  27.700  1.00  0.00    -0.744 OA
ENDBRANCH  67  70
ENDBRANCH  49  63
BRANCH  50  74
ATOM     74  C   UNL A   1      38.944  30.568  31.146  1.00  0.00     0.023 A 
ATOM     75  C   UNL A   1      38.950  30.387  32.542  1.00  0.00     0.012 A 
ATOM     76  C   UNL A   1      37.840  31.200  30.543  1.00  0.00     0.148 A 
ATOM     77  C   UNL A   1      37.857  30.783  33.316  1.00  0.00     0.002 A 
ATOM     78  C   UNL A   1      36.782  31.648  31.325  1.00  0.00     0.091 A 
ATOM     79  F   UNL A   1      37.839  31.343  29.209  1.00  0.00    -0.205 F 
ATOM     80  C   UNL A   1      36.779  31.421  32.709  1.00  0.00     0.022 A 
BRANCH  78  81
ATOM     81  S   UNL A   1      35.423  32.595  30.635  1.00  0.00     0.127 S 
ATOM     82  O   UNL A   1      34.994  31.743  29.530  1.00  0.00    -0.237 OA
ATOM     83  O   UNL A   1      34.492  32.657  31.763  1.00  0.00    -0.237 OA
ATOM     84  O   UNL A   1      35.997  33.882  30.265  1.00  0.00    -0.744 OA
ENDBRANCH  78  81
ENDBRANCH  50  74
BRANCH  62  85
ATOM     85  C   UNL A   1      44.716  33.611  28.696  1.00  0.00     0.023 A 
ATOM     86  C   UNL A   1      44.388  34.556  27.702  1.00  0.00     0.012 A 
ATOM     87  C   UNL A   1      45.507  34.010  29.791  1.00  0.00     0.148 A 
ATOM     88  C   UNL A   1      44.884  35.858  27.768  1.00  0.00     0.002 A 
ATOM     89  C   UNL A   1      45.952  35.324  29.879  1.00  0.00     0.091 A 
ATOM     90  F   UNL A   1      45.824  33.097  30.722  1.00  0.00    -0.205 F 
ATOM     91  C   UNL A   1      45.657  36.244  28.860  1.00  0.00     0.022 A 
BRANCH  89  92
ATOM     92  S   UNL A   1      46.868  35.931  31.300  1.00  0.00     0.127 S 
ATOM     93  O   UNL A   1      45.959  35.615  32.399  1.00  0.00    -0.237 OA
ATOM     94  O   UNL A   1      48.084  35.116  31.262  1.00  0.00    -0.237 OA
ATOM     95  O   UNL A   1      47.091  37.349  31.053  1.00  0.00    -0.744 OA
ENDBRANCH  89  92
ENDBRANCH  62  85
ENDBRANCH  36  37
ENDBRANCH  29  31
ENDBRANCH  28  29
ENDBRANCH  27  28
ENDBRANCH   1  27
TORSDOF 19
ENDMDL
