MODEL 1
REMARK VINA RESULT:     -12.2      0.000      0.000
REMARK SMILES O=C(OCCOCCOC(=O)c1ccc2nc(-c3c[nH]nc3-c3ccc(F)cc3F)[nH]c2c1)c1ccc(-c2c3nc(c(-c4cccc(S(=O)(=O)[O-])c4F)c4ccc([nH]4)c(-c4cccc(S(=O)(=O)[O-])c4F)c4nc(c(-c5cccc(S(=O)(=O)[O-])c5F)c5ccc2[nH]5)C=C4)C=C3)cc1
REMARK SMILES IDX 5 1 4 2 3 3 2 4 1 5 34 6 35 7 96 8 36 9 95 10 37 11 38 12
REMARK SMILES IDX 39 13 89 14 40 15 94 16 88 17 90 18 41 19 93 20 87 21 86 22
REMARK SMILES IDX 42 24 74 25 54 26 73 27 55 28 58 29 72 30 91 31 56 32 57 33
REMARK SMILES IDX 71 35 92 36 59 37 43 38 44 39 52 40 45 41 47 42 53 43 46 44
REMARK SMILES IDX 48 45 49 46 50 47 51 48 75 49 76 50 84 51 77 52 79 53 85 54
REMARK SMILES IDX 78 55 80 56 81 57 82 58 83 59 60 60 61 61 69 62 62 63 64 64
REMARK SMILES IDX 70 65 63 66 65 67 66 68 67 69 68 70 6 71 7 72 8 73 9 74
REMARK SMILES IDX 10 75 11 76 12 77 13 78 33 79 14 80 32 81 15 82 31 83 16 84
REMARK SMILES IDX 17 85 18 87 19 88 22 89 20 90 21 91 23 93 24 94 29 95 25 96
REMARK SMILES IDX 28 97 30 98 26 99 27 100
REMARK H PARENT 90 23 58 34 31 86 20 92
REMARK Flexibility Score: inf
ROOT
ATOM      1  C   UNL A   1      43.264  19.700  25.651  1.00  0.00     0.202 C 
ENDROOT
BRANCH   1   2
ATOM      2  C   UNL A   1      44.058  20.984  25.411  1.00  0.00     0.261 C 
BRANCH   2   3
ATOM      3  O   UNL A   1      43.160  22.092  25.271  1.00  0.00    -0.460 OA
BRANCH   3   4
ATOM      4  C   UNL A   1      43.453  23.412  25.264  1.00  0.00     0.338 C 
ATOM      5  O   UNL A   1      44.098  23.859  24.316  1.00  0.00    -0.246 OA
BRANCH   4   6
ATOM      6  C   UNL A   1      43.019  24.364  26.331  1.00  0.00     0.060 A 
ATOM      7  C   UNL A   1      42.341  24.010  27.502  1.00  0.00     0.016 A 
ATOM      8  C   UNL A   1      43.414  25.702  26.177  1.00  0.00     0.016 A 
ATOM      9  C   UNL A   1      42.020  24.946  28.473  1.00  0.00     0.010 A 
ATOM     10  C   UNL A   1      43.118  26.649  27.159  1.00  0.00     0.010 A 
ATOM     11  C   UNL A   1      42.406  26.268  28.301  1.00  0.00    -0.014 A 
BRANCH  11  12
ATOM     12  C   UNL A   1      41.959  27.260  29.284  1.00  0.00     0.031 A 
ATOM     13  C   UNL A   1      42.777  27.437  30.519  1.00  0.00     0.074 A 
ATOM     14  C   UNL A   1      40.867  27.999  29.030  1.00  0.00     0.049 A 
ATOM     15  N   UNL A   1      42.525  28.145  31.580  1.00  0.00    -0.248 NA
ATOM     16  C   UNL A   1      44.062  26.715  30.559  1.00  0.00     0.031 C 
ATOM     17  C   UNL A   1      40.078  27.938  27.798  1.00  0.00     0.029 A 
ATOM     18  N   UNL A   1      40.221  28.927  29.801  1.00  0.00    -0.354 N 
ATOM     19  C   UNL A   1      43.582  27.904  32.446  1.00  0.00     0.074 A 
ATOM     20  C   UNL A   1      44.498  27.011  31.773  1.00  0.00     0.031 C 
ATOM     21  C   UNL A   1      39.028  28.767  27.912  1.00  0.00     0.029 A 
ATOM     22  C   UNL A   1      39.043  29.362  29.244  1.00  0.00     0.049 A 
ATOM     23  H   UNL A   1      40.566  29.249  30.665  1.00  0.00     0.167 HD
ATOM     24  C   UNL A   1      43.754  28.378  33.699  1.00  0.00     0.034 A 
ATOM     25  C   UNL A   1      38.062  30.109  29.784  1.00  0.00     0.034 A 
ATOM     26  C   UNL A   1      42.813  29.262  34.329  1.00  0.00     0.049 A 
ATOM     27  C   UNL A   1      38.254  30.602  31.192  1.00  0.00     0.074 A 
ATOM     28  C   UNL A   1      42.850  29.801  35.598  1.00  0.00     0.029 A 
ATOM     29  N   UNL A   1      41.650  29.721  33.724  1.00  0.00    -0.354 N 
ATOM     30  N   UNL A   1      39.267  30.397  32.002  1.00  0.00    -0.248 NA
ATOM     31  C   UNL A   1      37.190  31.437  31.762  1.00  0.00     0.031 C 
ATOM     32  C   UNL A   1      41.691  30.567  35.771  1.00  0.00     0.029 A 
ATOM     33  C   UNL A   1      40.951  30.533  34.596  1.00  0.00     0.049 A 
ATOM     34  H   UNL A   1      41.364  29.500  32.808  1.00  0.00     0.167 HD
ATOM     35  C   UNL A   1      38.981  31.097  33.165  1.00  0.00     0.074 A 
ATOM     36  C   UNL A   1      37.698  31.742  32.950  1.00  0.00     0.031 C 
ATOM     37  C   UNL A   1      39.701  31.195  34.310  1.00  0.00     0.034 A 
BRANCH  24  38
ATOM     38  C   UNL A   1      44.961  27.896  34.451  1.00  0.00     0.023 A 
ATOM     39  C   UNL A   1      46.178  28.605  34.373  1.00  0.00     0.012 A 
ATOM     40  C   UNL A   1      44.907  26.700  35.194  1.00  0.00     0.148 A 
ATOM     41  C   UNL A   1      47.331  28.106  34.979  1.00  0.00     0.002 A 
ATOM     42  C   UNL A   1      46.049  26.231  35.829  1.00  0.00     0.091 A 
ATOM     43  F   UNL A   1      43.752  26.020  35.228  1.00  0.00    -0.205 F 
ATOM     44  C   UNL A   1      47.265  26.922  35.711  1.00  0.00     0.022 A 
BRANCH  42  45
ATOM     45  S   UNL A   1      46.045  24.745  36.837  1.00  0.00     0.127 S 
ATOM     46  O   UNL A   1      45.741  23.716  35.844  1.00  0.00    -0.237 OA
ATOM     47  O   UNL A   1      47.416  24.712  37.346  1.00  0.00    -0.237 OA
ATOM     48  O   UNL A   1      45.027  24.959  37.856  1.00  0.00    -0.744 OA
ENDBRANCH  42  45
ENDBRANCH  24  38
BRANCH  25  49
ATOM     49  C   UNL A   1      36.840  30.408  28.986  1.00  0.00     0.023 A 
ATOM     50  C   UNL A   1      36.082  29.355  28.443  1.00  0.00     0.012 A 
ATOM     51  C   UNL A   1      36.376  31.732  28.843  1.00  0.00     0.148 A 
ATOM     52  C   UNL A   1      34.889  29.614  27.765  1.00  0.00     0.002 A 
ATOM     53  C   UNL A   1      35.159  31.980  28.216  1.00  0.00     0.091 A 
ATOM     54  F   UNL A   1      37.118  32.724  29.356  1.00  0.00    -0.205 F 
ATOM     55  C   UNL A   1      34.421  30.923  27.664  1.00  0.00     0.022 A 
BRANCH  53  56
ATOM     56  S   UNL A   1      34.413  33.614  28.163  1.00  0.00     0.127 S 
ATOM     57  O   UNL A   1      33.076  33.315  27.656  1.00  0.00    -0.237 OA
ATOM     58  O   UNL A   1      34.464  34.014  29.569  1.00  0.00    -0.237 OA
ATOM     59  O   UNL A   1      35.258  34.407  27.281  1.00  0.00    -0.744 OA
ENDBRANCH  53  56
ENDBRANCH  25  49
BRANCH  37  60
ATOM     60  C   UNL A   1      39.150  32.065  35.404  1.00  0.00     0.023 A 
ATOM     61  C   UNL A   1      38.274  31.518  36.360  1.00  0.00     0.012 A 
ATOM     62  C   UNL A   1      39.630  33.379  35.562  1.00  0.00     0.148 A 
ATOM     63  C   UNL A   1      37.875  32.275  37.460  1.00  0.00     0.002 A 
ATOM     64  C   UNL A   1      39.269  34.109  36.686  1.00  0.00     0.091 A 
ATOM     65  F   UNL A   1      40.450  33.876  34.625  1.00  0.00    -0.205 F 
ATOM     66  C   UNL A   1      38.385  33.562  37.631  1.00  0.00     0.022 A 
BRANCH  64  67
ATOM     67  S   UNL A   1      39.966  35.723  37.045  1.00  0.00     0.127 S 
ATOM     68  O   UNL A   1      39.559  36.492  35.871  1.00  0.00    -0.237 OA
ATOM     69  O   UNL A   1      39.278  36.087  38.284  1.00  0.00    -0.237 OA
ATOM     70  O   UNL A   1      41.402  35.520  37.189  1.00  0.00    -0.744 OA
ENDBRANCH  64  67
ENDBRANCH  37  60
ENDBRANCH  11  12
ENDBRANCH   4   6
ENDBRANCH   3   4
ENDBRANCH   2   3
ENDBRANCH   1   2
BRANCH   1  71
ATOM     71  O   UNL A   1      41.912  19.740  25.202  1.00  0.00    -0.374 OA
BRANCH  71  72
ATOM     72  C   UNL A   1      40.906  19.489  26.190  1.00  0.00     0.202 C 
BRANCH  72  73
ATOM     73  C   UNL A   1      40.354  20.825  26.695  1.00  0.00     0.261 C 
BRANCH  73  74
ATOM     74  O   UNL A   1      39.141  21.112  25.982  1.00  0.00    -0.460 OA
BRANCH  74  75
ATOM     75  C   UNL A   1      38.767  22.418  25.987  1.00  0.00     0.338 C 
ATOM     76  O   UNL A   1      39.469  23.405  26.059  1.00  0.00    -0.246 OA
BRANCH  75  77
ATOM     77  C   UNL A   1      37.332  22.452  25.634  1.00  0.00     0.062 A 
ATOM     78  C   UNL A   1      36.870  21.827  24.470  1.00  0.00     0.018 A 
ATOM     79  C   UNL A   1      36.480  23.207  26.460  1.00  0.00     0.044 A 
ATOM     80  C   UNL A   1      35.522  21.916  24.111  1.00  0.00     0.031 A 
ATOM     81  C   UNL A   1      35.164  23.350  26.023  1.00  0.00     0.067 A 
ATOM     82  C   UNL A   1      34.663  22.683  24.911  1.00  0.00     0.089 A 
ATOM     83  N   UNL A   1      34.100  24.088  26.483  1.00  0.00    -0.338 N 
ATOM     84  N   UNL A   1      33.316  22.874  24.800  1.00  0.00    -0.228 NA
ATOM     85  C   UNL A   1      32.998  23.714  25.761  1.00  0.00     0.142 A 
ATOM     86  H   UNL A   1      34.125  24.762  27.200  1.00  0.00     0.168 HD
BRANCH  85  87
ATOM     87  C   UNL A   1      31.604  24.050  26.105  1.00  0.00     0.063 A 
ATOM     88  C   UNL A   1      30.668  23.247  26.701  1.00  0.00     0.117 A 
ATOM     89  C   UNL A   1      30.960  25.290  25.853  1.00  0.00     0.106 A 
ATOM     90  N   UNL A   1      29.579  24.052  26.882  1.00  0.00    -0.284 N 
ATOM     91  N   UNL A   1      29.702  25.269  26.321  1.00  0.00    -0.175 NA
ATOM     92  H   UNL A   1      28.778  23.768  27.378  1.00  0.00     0.189 HD
BRANCH  89  93
ATOM     93  C   UNL A   1      31.474  26.385  25.041  1.00  0.00     0.039 A 
ATOM     94  C   UNL A   1      30.983  26.552  23.733  1.00  0.00     0.016 A 
ATOM     95  C   UNL A   1      32.463  27.250  25.510  1.00  0.00     0.135 A 
ATOM     96  C   UNL A   1      31.481  27.567  22.915  1.00  0.00     0.040 A 
ATOM     97  C   UNL A   1      32.960  28.268  24.698  1.00  0.00     0.079 A 
ATOM     98  F   UNL A   1      32.973  27.112  26.742  1.00  0.00    -0.206 F 
ATOM     99  C   UNL A   1      32.465  28.415  23.407  1.00  0.00     0.126 A 
ATOM    100  F   UNL A   1      32.941  29.391  22.624  1.00  0.00    -0.207 F 
ENDBRANCH  89  93
ENDBRANCH  85  87
ENDBRANCH  75  77
ENDBRANCH  74  75
ENDBRANCH  73  74
ENDBRANCH  72  73
ENDBRANCH  71  72
ENDBRANCH   1  71
TORSDOF 19
ENDMDL
MODEL 2
REMARK VINA RESULT:     -12.1      1.917      3.097
REMARK SMILES O=C(OCCOCCOC(=O)c1ccc2nc(-c3c[nH]nc3-c3ccc(F)cc3F)[nH]c2c1)c1ccc(-c2c3nc(c(-c4cccc(S(=O)(=O)[O-])c4F)c4ccc([nH]4)c(-c4cccc(S(=O)(=O)[O-])c4F)c4nc(c(-c5cccc(S(=O)(=O)[O-])c5F)c5ccc2[nH]5)C=C4)C=C3)cc1
REMARK SMILES IDX 5 1 4 2 3 3 2 4 1 5 34 6 35 7 96 8 36 9 95 10 37 11 38 12
REMARK SMILES IDX 39 13 89 14 40 15 94 16 88 17 90 18 41 19 93 20 87 21 86 22
REMARK SMILES IDX 42 24 74 25 54 26 73 27 55 28 58 29 72 30 91 31 56 32 57 33
REMARK SMILES IDX 71 35 92 36 59 37 43 38 44 39 52 40 45 41 47 42 53 43 46 44
REMARK SMILES IDX 48 45 49 46 50 47 51 48 75 49 76 50 84 51 77 52 79 53 85 54
REMARK SMILES IDX 78 55 80 56 81 57 82 58 83 59 60 60 61 61 69 62 62 63 64 64
REMARK SMILES IDX 70 65 63 66 65 67 66 68 67 69 68 70 6 71 7 72 8 73 9 74
REMARK SMILES IDX 10 75 11 76 12 77 13 78 33 79 14 80 32 81 15 82 31 83 16 84
REMARK SMILES IDX 17 85 18 87 19 88 22 89 20 90 21 91 23 93 24 94 29 95 25 96
REMARK SMILES IDX 28 97 30 98 26 99 27 100
REMARK H PARENT 90 23 58 34 31 86 20 92
REMARK Flexibility Score: inf
ROOT
ATOM      1  C   UNL A   1      44.817  19.959  24.940  1.00  0.00     0.202 C 
ENDROOT
BRANCH   1   2
ATOM      2  C   UNL A   1      45.285  21.413  24.874  1.00  0.00     0.261 C 
BRANCH   2   3
ATOM      3  O   UNL A   1      44.507  22.216  25.771  1.00  0.00    -0.460 OA
BRANCH   3   4
ATOM      4  C   UNL A   1      43.567  23.140  25.468  1.00  0.00     0.338 C 
ATOM      5  O   UNL A   1      43.028  23.079  24.364  1.00  0.00    -0.246 OA
BRANCH   4   6
ATOM      6  C   UNL A   1      43.132  24.218  26.407  1.00  0.00     0.060 A 
ATOM      7  C   UNL A   1      43.422  25.579  26.265  1.00  0.00     0.016 A 
ATOM      8  C   UNL A   1      42.286  23.831  27.458  1.00  0.00     0.016 A 
ATOM      9  C   UNL A   1      42.935  26.526  27.152  1.00  0.00     0.010 A 
ATOM     10  C   UNL A   1      41.770  24.778  28.342  1.00  0.00     0.010 A 
ATOM     11  C   UNL A   1      42.110  26.127  28.193  1.00  0.00    -0.014 A 
BRANCH  11  12
ATOM     12  C   UNL A   1      41.698  27.128  29.183  1.00  0.00     0.031 A 
ATOM     13  C   UNL A   1      42.533  27.280  30.410  1.00  0.00     0.074 A 
ATOM     14  C   UNL A   1      40.624  27.896  28.942  1.00  0.00     0.049 A 
ATOM     15  N   UNL A   1      42.308  27.992  31.476  1.00  0.00    -0.248 NA
ATOM     16  C   UNL A   1      43.799  26.525  30.437  1.00  0.00     0.031 C 
ATOM     17  C   UNL A   1      39.823  27.859  27.717  1.00  0.00     0.029 A 
ATOM     18  N   UNL A   1      40.010  28.838  29.720  1.00  0.00    -0.354 N 
ATOM     19  C   UNL A   1      43.367  27.721  32.331  1.00  0.00     0.074 A 
ATOM     20  C   UNL A   1      44.253  26.806  31.648  1.00  0.00     0.031 C 
ATOM     21  C   UNL A   1      38.795  28.714  27.842  1.00  0.00     0.029 A 
ATOM     22  C   UNL A   1      38.838  29.305  29.175  1.00  0.00     0.049 A 
ATOM     23  H   UNL A   1      40.370  29.149  30.582  1.00  0.00     0.167 HD
ATOM     24  C   UNL A   1      43.563  28.188  33.584  1.00  0.00     0.034 A 
ATOM     25  C   UNL A   1      37.882  30.076  29.726  1.00  0.00     0.034 A 
ATOM     26  C   UNL A   1      42.652  29.093  34.225  1.00  0.00     0.049 A 
ATOM     27  C   UNL A   1      38.100  30.560  31.134  1.00  0.00     0.074 A 
ATOM     28  C   UNL A   1      42.714  29.629  35.495  1.00  0.00     0.029 A 
ATOM     29  N   UNL A   1      41.494  29.585  33.632  1.00  0.00    -0.354 N 
ATOM     30  N   UNL A   1      39.115  30.326  31.933  1.00  0.00    -0.248 NA
ATOM     31  C   UNL A   1      37.063  31.420  31.715  1.00  0.00     0.031 C 
ATOM     32  C   UNL A   1      41.577  30.423  35.680  1.00  0.00     0.029 A 
ATOM     33  C   UNL A   1      40.825  30.412  34.512  1.00  0.00     0.049 A 
ATOM     34  H   UNL A   1      41.195  29.374  32.718  1.00  0.00     0.167 HD
ATOM     35  C   UNL A   1      38.857  31.031  33.101  1.00  0.00     0.074 A 
ATOM     36  C   UNL A   1      37.589  31.709  32.899  1.00  0.00     0.031 C 
ATOM     37  C   UNL A   1      39.590  31.107  34.239  1.00  0.00     0.034 A 
BRANCH  24  38
ATOM     38  C   UNL A   1      44.764  27.672  34.324  1.00  0.00     0.023 A 
ATOM     39  C   UNL A   1      45.999  28.348  34.233  1.00  0.00     0.012 A 
ATOM     40  C   UNL A   1      44.685  26.478  35.067  1.00  0.00     0.148 A 
ATOM     41  C   UNL A   1      47.144  27.818  34.827  1.00  0.00     0.002 A 
ATOM     42  C   UNL A   1      45.821  25.978  35.691  1.00  0.00     0.091 A 
ATOM     43  F   UNL A   1      43.512  25.830  35.113  1.00  0.00    -0.205 F 
ATOM     44  C   UNL A   1      47.054  26.636  35.560  1.00  0.00     0.022 A 
BRANCH  42  45
ATOM     45  S   UNL A   1      45.785  24.492  36.698  1.00  0.00     0.127 S 
ATOM     46  O   UNL A   1      47.169  24.420  37.165  1.00  0.00    -0.237 OA
ATOM     47  O   UNL A   1      44.811  24.843  37.732  1.00  0.00    -0.237 OA
ATOM     48  O   UNL A   1      45.362  23.419  35.809  1.00  0.00    -0.744 OA
ENDBRANCH  42  45
ENDBRANCH  24  38
BRANCH  25  49
ATOM     49  C   UNL A   1      36.661  30.408  28.941  1.00  0.00     0.023 A 
ATOM     50  C   UNL A   1      35.876  29.377  28.393  1.00  0.00     0.012 A 
ATOM     51  C   UNL A   1      36.224  31.744  28.813  1.00  0.00     0.148 A 
ATOM     52  C   UNL A   1      34.684  29.668  27.727  1.00  0.00     0.002 A 
ATOM     53  C   UNL A   1      35.009  32.023  28.198  1.00  0.00     0.091 A 
ATOM     54  F   UNL A   1      36.991  32.714  29.330  1.00  0.00    -0.205 F 
ATOM     55  C   UNL A   1      34.243  30.988  27.641  1.00  0.00     0.022 A 
BRANCH  53  56
ATOM     56  S   UNL A   1      34.297  33.673  28.166  1.00  0.00     0.127 S 
ATOM     57  O   UNL A   1      32.958  33.411  27.643  1.00  0.00    -0.237 OA
ATOM     58  O   UNL A   1      34.344  34.049  29.579  1.00  0.00    -0.237 OA
ATOM     59  O   UNL A   1      35.166  34.463  27.305  1.00  0.00    -0.744 OA
ENDBRANCH  53  56
ENDBRANCH  25  49
BRANCH  37  60
ATOM     60  C   UNL A   1      39.072  31.988  35.341  1.00  0.00     0.023 A 
ATOM     61  C   UNL A   1      38.216  31.454  36.322  1.00  0.00     0.012 A 
ATOM     62  C   UNL A   1      39.564  33.300  35.477  1.00  0.00     0.148 A 
ATOM     63  C   UNL A   1      37.851  32.221  37.426  1.00  0.00     0.002 A 
ATOM     64  C   UNL A   1      39.236  34.040  36.604  1.00  0.00     0.091 A 
ATOM     65  F   UNL A   1      40.364  33.785  34.517  1.00  0.00    -0.205 F 
ATOM     66  C   UNL A   1      38.373  33.505  37.576  1.00  0.00     0.022 A 
BRANCH  64  67
ATOM     67  S   UNL A   1      39.952  35.652  36.935  1.00  0.00     0.127 S 
ATOM     68  O   UNL A   1      39.215  36.067  38.127  1.00  0.00    -0.237 OA
ATOM     69  O   UNL A   1      41.358  35.322  37.171  1.00  0.00    -0.237 OA
ATOM     70  O   UNL A   1      39.710  36.454  35.743  1.00  0.00    -0.744 OA
ENDBRANCH  64  67
ENDBRANCH  37  60
ENDBRANCH  11  12
ENDBRANCH   4   6
ENDBRANCH   3   4
ENDBRANCH   2   3
ENDBRANCH   1   2
BRANCH   1  71
ATOM     71  O   UNL A   1      43.404  19.783  24.904  1.00  0.00    -0.374 OA
BRANCH  71  72
ATOM     72  C   UNL A   1      42.828  19.030  25.978  1.00  0.00     0.202 C 
BRANCH  72  73
ATOM     73  C   UNL A   1      42.095  19.985  26.925  1.00  0.00     0.261 C 
BRANCH  73  74
ATOM     74  O   UNL A   1      41.155  20.751  26.155  1.00  0.00    -0.460 OA
BRANCH  74  75
ATOM     75  C   UNL A   1      40.045  20.073  25.763  1.00  0.00     0.338 C 
ATOM     76  O   UNL A   1      39.870  18.873  25.717  1.00  0.00    -0.246 OA
BRANCH  75  77
ATOM     77  C   UNL A   1      38.962  21.069  25.627  1.00  0.00     0.062 A 
ATOM     78  C   UNL A   1      39.095  22.346  26.183  1.00  0.00     0.018 A 
ATOM     79  C   UNL A   1      37.774  20.652  25.000  1.00  0.00     0.044 A 
ATOM     80  C   UNL A   1      38.042  23.262  26.102  1.00  0.00     0.031 A 
ATOM     81  C   UNL A   1      36.714  21.557  25.019  1.00  0.00     0.067 A 
ATOM     82  C   UNL A   1      36.843  22.855  25.502  1.00  0.00     0.089 A 
ATOM     83  N   UNL A   1      35.400  21.469  24.627  1.00  0.00    -0.338 N 
ATOM     84  N   UNL A   1      35.707  23.573  25.258  1.00  0.00    -0.228 NA
ATOM     85  C   UNL A   1      34.859  22.723  24.723  1.00  0.00     0.142 A 
ATOM     86  H   UNL A   1      34.934  20.654  24.332  1.00  0.00     0.168 HD
BRANCH  85  87
ATOM     87  C   UNL A   1      33.565  23.135  24.148  1.00  0.00     0.063 A 
ATOM     88  C   UNL A   1      33.102  24.409  23.946  1.00  0.00     0.117 A 
ATOM     89  C   UNL A   1      32.532  22.263  23.712  1.00  0.00     0.106 A 
ATOM     90  N   UNL A   1      31.905  24.249  23.308  1.00  0.00    -0.284 N 
ATOM     91  N   UNL A   1      31.504  22.968  23.213  1.00  0.00    -0.175 NA
ATOM     92  H   UNL A   1      31.383  25.003  22.950  1.00  0.00     0.189 HD
BRANCH  89  93
ATOM     93  C   UNL A   1      32.464  20.825  23.927  1.00  0.00     0.039 A 
ATOM     94  C   UNL A   1      32.613  20.323  25.234  1.00  0.00     0.016 A 
ATOM     95  C   UNL A   1      32.290  19.928  22.872  1.00  0.00     0.135 A 
ATOM     96  C   UNL A   1      32.591  18.948  25.470  1.00  0.00     0.040 A 
ATOM     97  C   UNL A   1      32.263  18.554  23.104  1.00  0.00     0.079 A 
ATOM     98  F   UNL A   1      32.165  20.364  21.610  1.00  0.00    -0.206 F 
ATOM     99  C   UNL A   1      32.415  18.078  24.401  1.00  0.00     0.126 A 
ATOM    100  F   UNL A   1      32.390  16.758  24.628  1.00  0.00    -0.207 F 
ENDBRANCH  89  93
ENDBRANCH  85  87
ENDBRANCH  75  77
ENDBRANCH  74  75
ENDBRANCH  73  74
ENDBRANCH  72  73
ENDBRANCH  71  72
ENDBRANCH   1  71
TORSDOF 19
ENDMDL
MODEL 3
REMARK VINA RESULT:     -11.7      1.532      1.941
REMARK SMILES O=C(OCCOCCOC(=O)c1ccc2nc(-c3c[nH]nc3-c3ccc(F)cc3F)[nH]c2c1)c1ccc(-c2c3nc(c(-c4cccc(S(=O)(=O)[O-])c4F)c4ccc([nH]4)c(-c4cccc(S(=O)(=O)[O-])c4F)c4nc(c(-c5cccc(S(=O)(=O)[O-])c5F)c5ccc2[nH]5)C=C4)C=C3)cc1
REMARK SMILES IDX 5 1 4 2 3 3 2 4 1 5 34 6 35 7 96 8 36 9 95 10 37 11 38 12
REMARK SMILES IDX 39 13 89 14 40 15 94 16 88 17 90 18 41 19 93 20 87 21 86 22
REMARK SMILES IDX 42 24 74 25 54 26 73 27 55 28 58 29 72 30 91 31 56 32 57 33
REMARK SMILES IDX 71 35 92 36 59 37 43 38 44 39 52 40 45 41 47 42 53 43 46 44
REMARK SMILES IDX 48 45 49 46 50 47 51 48 75 49 76 50 84 51 77 52 79 53 85 54
REMARK SMILES IDX 78 55 80 56 81 57 82 58 83 59 60 60 61 61 69 62 62 63 64 64
REMARK SMILES IDX 70 65 63 66 65 67 66 68 67 69 68 70 6 71 7 72 8 73 9 74
REMARK SMILES IDX 10 75 11 76 12 77 13 78 33 79 14 80 32 81 15 82 31 83 16 84
REMARK SMILES IDX 17 85 18 87 19 88 22 89 20 90 21 91 23 93 24 94 29 95 25 96
REMARK SMILES IDX 28 97 30 98 26 99 27 100
REMARK H PARENT 90 23 58 34 31 86 20 92
REMARK Flexibility Score: inf
ROOT
ATOM      1  C   UNL A   1      44.029  20.343  25.590  1.00  0.00     0.202 C 
ENDROOT
BRANCH   1   2
ATOM      2  C   UNL A   1      44.952  21.476  25.142  1.00  0.00     0.261 C 
BRANCH   2   3
ATOM      3  O   UNL A   1      44.665  22.663  25.892  1.00  0.00    -0.460 OA
BRANCH   3   4
ATOM      4  C   UNL A   1      43.857  23.693  25.553  1.00  0.00     0.338 C 
ATOM      5  O   UNL A   1      43.487  23.780  24.384  1.00  0.00    -0.246 OA
BRANCH   4   6
ATOM      6  C   UNL A   1      43.372  24.719  26.525  1.00  0.00     0.060 A 
ATOM      7  C   UNL A   1      43.674  26.084  26.478  1.00  0.00     0.016 A 
ATOM      8  C   UNL A   1      42.465  24.279  27.501  1.00  0.00     0.016 A 
ATOM      9  C   UNL A   1      43.139  26.983  27.387  1.00  0.00     0.010 A 
ATOM     10  C   UNL A   1      41.900  25.179  28.407  1.00  0.00     0.010 A 
ATOM     11  C   UNL A   1      42.254  26.531  28.354  1.00  0.00    -0.014 A 
BRANCH  11  12
ATOM     12  C   UNL A   1      41.788  27.478  29.373  1.00  0.00     0.031 A 
ATOM     13  C   UNL A   1      42.586  27.602  30.628  1.00  0.00     0.074 A 
ATOM     14  C   UNL A   1      40.698  28.225  29.136  1.00  0.00     0.049 A 
ATOM     15  N   UNL A   1      42.315  28.261  31.715  1.00  0.00    -0.248 NA
ATOM     16  C   UNL A   1      43.873  26.882  30.656  1.00  0.00     0.031 C 
ATOM     17  C   UNL A   1      39.929  28.217  27.890  1.00  0.00     0.029 A 
ATOM     18  N   UNL A   1      40.037  29.116  29.936  1.00  0.00    -0.354 N 
ATOM     19  C   UNL A   1      43.359  27.984  32.586  1.00  0.00     0.074 A 
ATOM     20  C   UNL A   1      44.288  27.124  31.889  1.00  0.00     0.031 C 
ATOM     21  C   UNL A   1      38.874  29.036  28.023  1.00  0.00     0.029 A 
ATOM     22  C   UNL A   1      38.866  29.572  29.380  1.00  0.00     0.049 A 
ATOM     23  H   UNL A   1      40.367  29.399  30.819  1.00  0.00     0.167 HD
ATOM     24  C   UNL A   1      43.509  28.403  33.862  1.00  0.00     0.034 A 
ATOM     25  C   UNL A   1      37.875  30.292  29.938  1.00  0.00     0.034 A 
ATOM     26  C   UNL A   1      42.556  29.255  34.516  1.00  0.00     0.049 A 
ATOM     27  C   UNL A   1      38.043  30.722  31.369  1.00  0.00     0.074 A 
ATOM     28  C   UNL A   1      42.571  29.737  35.808  1.00  0.00     0.029 A 
ATOM     29  N   UNL A   1      41.400  29.738  33.913  1.00  0.00    -0.354 N 
ATOM     30  N   UNL A   1      39.043  30.483  32.185  1.00  0.00    -0.248 NA
ATOM     31  C   UNL A   1      36.967  31.528  31.958  1.00  0.00     0.031 C 
ATOM     32  C   UNL A   1      41.407  30.491  35.996  1.00  0.00     0.029 A 
ATOM     33  C   UNL A   1      40.686  30.508  34.809  1.00  0.00     0.049 A 
ATOM     34  H   UNL A   1      41.130  29.557  32.983  1.00  0.00     0.167 HD
ATOM     35  C   UNL A   1      38.737  31.131  33.374  1.00  0.00     0.074 A 
ATOM     36  C   UNL A   1      37.455  31.781  33.167  1.00  0.00     0.031 C 
ATOM     37  C   UNL A   1      39.438  31.179  34.533  1.00  0.00     0.034 A 
BRANCH  24  38
ATOM     38  C   UNL A   1      44.706  27.890  34.611  1.00  0.00     0.023 A 
ATOM     39  C   UNL A   1      45.927  28.594  34.566  1.00  0.00     0.012 A 
ATOM     40  C   UNL A   1      44.637  26.673  35.317  1.00  0.00     0.148 A 
ATOM     41  C   UNL A   1      47.071  28.070  35.168  1.00  0.00     0.002 A 
ATOM     42  C   UNL A   1      45.771  26.178  35.949  1.00  0.00     0.091 A 
ATOM     43  F   UNL A   1      43.478  26.000  35.319  1.00  0.00    -0.205 F 
ATOM     44  C   UNL A   1      46.992  26.865  35.864  1.00  0.00     0.022 A 
BRANCH  42  45
ATOM     45  S   UNL A   1      45.747  24.662  36.911  1.00  0.00     0.127 S 
ATOM     46  O   UNL A   1      44.720  24.961  37.907  1.00  0.00    -0.237 OA
ATOM     47  O   UNL A   1      45.354  23.668  35.912  1.00  0.00    -0.237 OA
ATOM     48  O   UNL A   1      47.098  24.498  37.427  1.00  0.00    -0.744 OA
ENDBRANCH  42  45
ENDBRANCH  24  38
BRANCH  25  49
ATOM     49  C   UNL A   1      36.665  30.623  29.135  1.00  0.00     0.023 A 
ATOM     50  C   UNL A   1      35.855  29.590  28.626  1.00  0.00     0.012 A 
ATOM     51  C   UNL A   1      36.261  31.962  28.952  1.00  0.00     0.148 A 
ATOM     52  C   UNL A   1      34.673  29.884  27.944  1.00  0.00     0.002 A 
ATOM     53  C   UNL A   1      35.056  32.247  28.320  1.00  0.00     0.091 A 
ATOM     54  F   UNL A   1      37.051  32.933  29.431  1.00  0.00    -0.205 F 
ATOM     55  C   UNL A   1      34.266  31.210  27.803  1.00  0.00     0.022 A 
BRANCH  53  56
ATOM     56  S   UNL A   1      34.385  33.911  28.219  1.00  0.00     0.127 S 
ATOM     57  O   UNL A   1      35.201  34.498  27.159  1.00  0.00    -0.237 OA
ATOM     58  O   UNL A   1      32.992  33.653  27.854  1.00  0.00    -0.237 OA
ATOM     59  O   UNL A   1      34.561  34.490  29.544  1.00  0.00    -0.744 OA
ENDBRANCH  53  56
ENDBRANCH  25  49
BRANCH  37  60
ATOM     60  C   UNL A   1      38.867  31.998  35.656  1.00  0.00     0.023 A 
ATOM     61  C   UNL A   1      38.786  33.397  35.531  1.00  0.00     0.012 A 
ATOM     62  C   UNL A   1      38.277  31.356  36.761  1.00  0.00     0.148 A 
ATOM     63  C   UNL A   1      38.126  34.150  36.500  1.00  0.00     0.002 A 
ATOM     64  C   UNL A   1      37.579  32.108  37.696  1.00  0.00     0.091 A 
ATOM     65  F   UNL A   1      38.387  30.024  36.860  1.00  0.00    -0.205 F 
ATOM     66  C   UNL A   1      37.509  33.505  37.571  1.00  0.00     0.022 A 
BRANCH  64  67
ATOM     67  S   UNL A   1      36.658  31.352  39.039  1.00  0.00     0.127 S 
ATOM     68  O   UNL A   1      36.336  30.041  38.478  1.00  0.00    -0.237 OA
ATOM     69  O   UNL A   1      37.648  31.329  40.116  1.00  0.00    -0.237 OA
ATOM     70  O   UNL A   1      35.516  32.221  39.285  1.00  0.00    -0.744 OA
ENDBRANCH  64  67
ENDBRANCH  37  60
ENDBRANCH  11  12
ENDBRANCH   4   6
ENDBRANCH   3   4
ENDBRANCH   2   3
ENDBRANCH   1   2
BRANCH   1  71
ATOM     71  O   UNL A   1      42.650  20.540  25.290  1.00  0.00    -0.374 OA
BRANCH  71  72
ATOM     72  C   UNL A   1      41.725  19.655  25.933  1.00  0.00     0.202 C 
BRANCH  72  73
ATOM     73  C   UNL A   1      40.755  20.477  26.787  1.00  0.00     0.261 C 
BRANCH  73  74
ATOM     74  O   UNL A   1      39.932  21.261  25.908  1.00  0.00    -0.460 OA
BRANCH  74  75
ATOM     75  C   UNL A   1      38.767  20.672  25.533  1.00  0.00     0.338 C 
ATOM     76  O   UNL A   1      38.545  19.496  25.336  1.00  0.00    -0.246 OA
BRANCH  75  77
ATOM     77  C   UNL A   1      37.714  21.703  25.642  1.00  0.00     0.062 A 
ATOM     78  C   UNL A   1      38.048  23.061  25.690  1.00  0.00     0.018 A 
ATOM     79  C   UNL A   1      36.387  21.259  25.785  1.00  0.00     0.044 A 
ATOM     80  C   UNL A   1      37.051  24.026  25.855  1.00  0.00     0.031 A 
ATOM     81  C   UNL A   1      35.431  22.241  26.039  1.00  0.00     0.067 A 
ATOM     82  C   UNL A   1      35.725  23.600  26.021  1.00  0.00     0.089 A 
ATOM     83  N   UNL A   1      34.092  22.188  26.344  1.00  0.00    -0.338 N 
ATOM     84  N   UNL A   1      34.585  24.341  26.143  1.00  0.00    -0.228 NA
ATOM     85  C   UNL A   1      33.616  23.472  26.326  1.00  0.00     0.142 A 
ATOM     86  H   UNL A   1      33.572  21.377  26.541  1.00  0.00     0.168 HD
BRANCH  85  87
ATOM     87  C   UNL A   1      32.190  23.848  26.328  1.00  0.00     0.063 A 
ATOM     88  C   UNL A   1      31.125  23.101  26.758  1.00  0.00     0.117 A 
ATOM     89  C   UNL A   1      31.651  25.072  25.852  1.00  0.00     0.106 A 
ATOM     90  N   UNL A   1      30.045  23.930  26.636  1.00  0.00    -0.284 N 
ATOM     91  N   UNL A   1      30.320  25.099  26.031  1.00  0.00    -0.175 NA
ATOM     92  H   UNL A   1      29.147  23.692  26.962  1.00  0.00     0.189 HD
BRANCH  89  93
ATOM     93  C   UNL A   1      32.359  26.097  25.098  1.00  0.00     0.039 A 
ATOM     94  C   UNL A   1      32.553  25.914  23.715  1.00  0.00     0.016 A 
ATOM     95  C   UNL A   1      32.881  27.236  25.710  1.00  0.00     0.135 A 
ATOM     96  C   UNL A   1      33.261  26.857  22.970  1.00  0.00     0.040 A 
ATOM     97  C   UNL A   1      33.584  28.183  24.969  1.00  0.00     0.079 A 
ATOM     98  F   UNL A   1      32.736  27.438  27.028  1.00  0.00    -0.206 F 
ATOM     99  C   UNL A   1      33.769  27.983  23.606  1.00  0.00     0.126 A 
ATOM    100  F   UNL A   1      34.445  28.891  22.890  1.00  0.00    -0.207 F 
ENDBRANCH  89  93
ENDBRANCH  85  87
ENDBRANCH  75  77
ENDBRANCH  74  75
ENDBRANCH  73  74
ENDBRANCH  72  73
ENDBRANCH  71  72
ENDBRANCH   1  71
TORSDOF 19
ENDMDL
