MODEL 1
REMARK VINA RESULT:     -11.7      0.000      0.000
REMARK SMILES O=C(OCCOCCOC(=O)[C@H]1CCCCN1C(=O)c1cn2ccccc2n1)c1ccc(-c2c3nc(c(-c4cccc(S(=O)(=O)[O-])c4F)c4ccc([nH]4)c(-c4cccc(S(=O)(=O)[O-])c4F)c4nc(c(-c5cccc(S(=O)(=O)[O-])c5F)c5ccc2[nH]5)C=C4)C=C3)cc1
REMARK SMILES IDX 5 1 4 2 3 3 2 4 1 5 29 6 30 7 91 8 31 9 90 10 32 11 33 12
REMARK SMILES IDX 34 13 84 14 35 15 89 16 83 17 85 18 36 19 88 20 82 21 81 22
REMARK SMILES IDX 37 24 69 25 49 26 68 27 50 28 53 29 67 30 86 31 51 32 52 33
REMARK SMILES IDX 66 35 87 36 54 37 38 38 39 39 47 40 40 41 42 42 48 43 41 44
REMARK SMILES IDX 43 45 44 46 45 47 46 48 70 49 71 50 79 51 72 52 74 53 80 54
REMARK SMILES IDX 73 55 75 56 76 57 77 58 78 59 55 60 56 61 64 62 57 63 59 64
REMARK SMILES IDX 65 65 58 66 60 67 61 68 62 69 63 70 6 71 7 72 8 73 9 74
REMARK SMILES IDX 10 75 11 76 12 77 13 78 17 79 14 80 16 81 15 82 18 83 19 84
REMARK SMILES IDX 20 85 21 86 28 87 22 88 27 89 23 90 26 91 24 92 25 93
REMARK H PARENT 85 23 53 34
REMARK Flexibility Score: inf
ROOT
ATOM      1  C   UNL A   1      31.985  28.734  27.032  1.00  0.00     0.202 C 
ENDROOT
BRANCH   1   2
ATOM      2  C   UNL A   1      31.673  30.222  26.867  1.00  0.00     0.261 C 
BRANCH   2   3
ATOM      3  O   UNL A   1      32.865  30.969  26.585  1.00  0.00    -0.460 OA
BRANCH   3   4
ATOM      4  C   UNL A   1      33.605  31.708  27.448  1.00  0.00     0.338 C 
ATOM      5  O   UNL A   1      33.138  32.781  27.830  1.00  0.00    -0.246 OA
BRANCH   4   6
ATOM      6  C   UNL A   1      34.950  31.299  27.968  1.00  0.00     0.060 A 
ATOM      7  C   UNL A   1      35.327  29.995  28.287  1.00  0.00     0.016 A 
ATOM      8  C   UNL A   1      35.928  32.303  28.098  1.00  0.00     0.016 A 
ATOM      9  C   UNL A   1      36.596  29.678  28.716  1.00  0.00     0.010 A 
ATOM     10  C   UNL A   1      37.219  32.000  28.547  1.00  0.00     0.010 A 
ATOM     11  C   UNL A   1      37.539  30.681  28.868  1.00  0.00    -0.014 A 
BRANCH  11  12
ATOM     12  C   UNL A   1      38.761  30.262  29.561  1.00  0.00     0.031 A 
ATOM     13  C   UNL A   1      38.884  30.629  31.006  1.00  0.00     0.074 A 
ATOM     14  C   UNL A   1      39.548  29.342  28.977  1.00  0.00     0.049 A 
ATOM     15  N   UNL A   1      39.764  30.237  31.882  1.00  0.00    -0.248 NA
ATOM     16  C   UNL A   1      37.841  31.519  31.551  1.00  0.00     0.031 C 
ATOM     17  C   UNL A   1      39.357  28.813  27.623  1.00  0.00     0.029 A 
ATOM     18  N   UNL A   1      40.615  28.642  29.464  1.00  0.00    -0.354 N 
ATOM     19  C   UNL A   1      39.413  30.870  33.066  1.00  0.00     0.074 A 
ATOM     20  C   UNL A   1      38.218  31.639  32.814  1.00  0.00     0.031 C 
ATOM     21  C   UNL A   1      40.268  27.854  27.397  1.00  0.00     0.029 A 
ATOM     22  C   UNL A   1      41.131  27.738  28.566  1.00  0.00     0.049 A 
ATOM     23  H   UNL A   1      40.979  28.772  30.370  1.00  0.00     0.167 HD
ATOM     24  C   UNL A   1      40.051  30.817  34.255  1.00  0.00     0.034 A 
ATOM     25  C   UNL A   1      42.196  26.924  28.688  1.00  0.00     0.034 A 
ATOM     26  C   UNL A   1      41.234  30.037  34.467  1.00  0.00     0.049 A 
ATOM     27  C   UNL A   1      42.929  26.940  30.002  1.00  0.00     0.074 A 
ATOM     28  C   UNL A   1      42.038  29.970  35.587  1.00  0.00     0.029 A 
ATOM     29  N   UNL A   1      41.785  29.185  33.518  1.00  0.00    -0.354 N 
ATOM     30  N   UNL A   1      42.616  27.569  31.112  1.00  0.00    -0.248 NA
ATOM     31  C   UNL A   1      44.152  26.135  30.091  1.00  0.00     0.031 C 
ATOM     32  C   UNL A   1      43.090  29.089  35.306  1.00  0.00     0.029 A 
ATOM     33  C   UNL A   1      42.924  28.589  34.021  1.00  0.00     0.049 A 
ATOM     34  H   UNL A   1      41.416  29.028  32.618  1.00  0.00     0.167 HD
ATOM     35  C   UNL A   1      43.591  27.224  32.037  1.00  0.00     0.074 A 
ATOM     36  C   UNL A   1      44.490  26.305  31.363  1.00  0.00     0.031 C 
ATOM     37  C   UNL A   1      43.753  27.641  33.318  1.00  0.00     0.034 A 
BRANCH  24  38
ATOM     38  C   UNL A   1      39.509  31.684  35.355  1.00  0.00     0.023 A 
ATOM     39  C   UNL A   1      38.509  31.195  36.220  1.00  0.00     0.012 A 
ATOM     40  C   UNL A   1      39.958  33.011  35.492  1.00  0.00     0.148 A 
ATOM     41  C   UNL A   1      37.944  32.027  37.188  1.00  0.00     0.002 A 
ATOM     42  C   UNL A   1      39.414  33.823  36.479  1.00  0.00     0.091 A 
ATOM     43  F   UNL A   1      40.878  33.466  34.630  1.00  0.00    -0.205 F 
ATOM     44  C   UNL A   1      38.400  33.337  37.320  1.00  0.00     0.022 A 
BRANCH  42  45
ATOM     45  S   UNL A   1      39.962  35.512  36.747  1.00  0.00     0.127 S 
ATOM     46  O   UNL A   1      39.481  36.174  35.535  1.00  0.00    -0.237 OA
ATOM     47  O   UNL A   1      39.245  35.877  37.968  1.00  0.00    -0.237 OA
ATOM     48  O   UNL A   1      41.409  35.446  36.890  1.00  0.00    -0.744 OA
ENDBRANCH  42  45
ENDBRANCH  24  38
BRANCH  25  49
ATOM     49  C   UNL A   1      42.618  26.052  27.554  1.00  0.00     0.023 A 
ATOM     50  C   UNL A   1      43.534  26.532  26.598  1.00  0.00     0.012 A 
ATOM     51  C   UNL A   1      42.132  24.735  27.430  1.00  0.00     0.148 A 
ATOM     52  C   UNL A   1      43.939  25.723  25.532  1.00  0.00     0.002 A 
ATOM     53  C   UNL A   1      42.585  23.916  26.400  1.00  0.00     0.091 A 
ATOM     54  F   UNL A   1      41.235  24.298  28.325  1.00  0.00    -0.205 F 
ATOM     55  C   UNL A   1      43.476  24.414  25.440  1.00  0.00     0.022 A 
BRANCH  53  56
ATOM     56  S   UNL A   1      42.134  22.179  26.301  1.00  0.00     0.127 S 
ATOM     57  O   UNL A   1      40.691  22.254  26.090  1.00  0.00    -0.237 OA
ATOM     58  O   UNL A   1      42.903  21.726  25.139  1.00  0.00    -0.237 OA
ATOM     59  O   UNL A   1      42.568  21.595  27.562  1.00  0.00    -0.744 OA
ENDBRANCH  53  56
ENDBRANCH  25  49
BRANCH  37  60
ATOM     60  C   UNL A   1      44.928  27.090  34.071  1.00  0.00     0.023 A 
ATOM     61  C   UNL A   1      46.167  27.756  34.011  1.00  0.00     0.012 A 
ATOM     62  C   UNL A   1      44.775  25.970  34.909  1.00  0.00     0.148 A 
ATOM     63  C   UNL A   1      47.248  27.298  34.760  1.00  0.00     0.002 A 
ATOM     64  C   UNL A   1      45.843  25.550  35.689  1.00  0.00     0.091 A 
ATOM     65  F   UNL A   1      43.592  25.339  34.929  1.00  0.00    -0.205 F 
ATOM     66  C   UNL A   1      47.082  26.205  35.610  1.00  0.00     0.022 A 
BRANCH  64  67
ATOM     67  S   UNL A   1      45.672  24.221  36.884  1.00  0.00     0.127 S 
ATOM     68  O   UNL A   1      45.423  23.070  36.018  1.00  0.00    -0.237 OA
ATOM     69  O   UNL A   1      46.979  24.219  37.543  1.00  0.00    -0.237 OA
ATOM     70  O   UNL A   1      44.567  24.611  37.751  1.00  0.00    -0.744 OA
ENDBRANCH  64  67
ENDBRANCH  37  60
ENDBRANCH  11  12
ENDBRANCH   4   6
ENDBRANCH   3   4
ENDBRANCH   2   3
ENDBRANCH   1   2
BRANCH   1  71
ATOM     71  O   UNL A   1      32.488  28.068  25.876  1.00  0.00    -0.374 OA
BRANCH  71  72
ATOM     72  C   UNL A   1      31.597  27.976  24.764  1.00  0.00     0.202 C 
BRANCH  72  73
ATOM     73  C   UNL A   1      30.447  27.007  25.054  1.00  0.00     0.261 C 
BRANCH  73  74
ATOM     74  O   UNL A   1      30.796  25.660  24.678  1.00  0.00    -0.462 OA
BRANCH  74  75
ATOM     75  C   UNL A   1      31.561  24.945  25.554  1.00  0.00     0.328 C 
ATOM     76  O   UNL A   1      31.404  24.928  26.767  1.00  0.00    -0.250 OA
BRANCH  75  77
ATOM     77  C   UNL A   1      32.518  23.985  24.813  1.00  0.00     0.195 C 
ATOM     78  C   UNL A   1      33.797  24.675  24.327  1.00  0.00     0.037 C 
ATOM     79  N   UNL A   1      32.827  22.794  25.608  1.00  0.00    -0.323 N 
ATOM     80  C   UNL A   1      34.805  24.910  25.452  1.00  0.00     0.005 C 
ATOM     81  C   UNL A   1      33.901  22.856  26.607  1.00  0.00     0.121 C 
ATOM     82  C   UNL A   1      35.146  23.596  26.131  1.00  0.00     0.022 C 
BRANCH  79  83
ATOM     83  C   UNL A   1      31.872  21.771  25.540  1.00  0.00     0.274 C 
ATOM     84  O   UNL A   1      30.722  21.908  25.931  1.00  0.00    -0.267 OA
BRANCH  83  85
ATOM     85  C   UNL A   1      32.339  20.495  25.028  1.00  0.00     0.147 A 
ATOM     86  C   UNL A   1      32.964  19.511  25.769  1.00  0.00     0.127 A 
ATOM     87  N   UNL A   1      32.235  20.127  23.702  1.00  0.00    -0.223 NA
ATOM     88  N   UNL A   1      33.251  18.517  24.877  1.00  0.00    -0.306 N 
ATOM     89  C   UNL A   1      32.774  18.931  23.638  1.00  0.00     0.137 A 
ATOM     90  C   UNL A   1      33.904  17.306  25.084  1.00  0.00     0.093 A 
ATOM     91  C   UNL A   1      32.949  18.043  22.542  1.00  0.00     0.048 A 
ATOM     92  C   UNL A   1      34.084  16.477  24.042  1.00  0.00     0.018 A 
ATOM     93  C   UNL A   1      33.578  16.868  22.732  1.00  0.00     0.005 A 
ENDBRANCH  83  85
ENDBRANCH  79  83
ENDBRANCH  75  77
ENDBRANCH  74  75
ENDBRANCH  73  74
ENDBRANCH  72  73
ENDBRANCH  71  72
ENDBRANCH   1  71
TORSDOF 19
ENDMDL
MODEL 2
REMARK VINA RESULT:     -11.5      2.431      4.147
REMARK SMILES O=C(OCCOCCOC(=O)[C@H]1CCCCN1C(=O)c1cn2ccccc2n1)c1ccc(-c2c3nc(c(-c4cccc(S(=O)(=O)[O-])c4F)c4ccc([nH]4)c(-c4cccc(S(=O)(=O)[O-])c4F)c4nc(c(-c5cccc(S(=O)(=O)[O-])c5F)c5ccc2[nH]5)C=C4)C=C3)cc1
REMARK SMILES IDX 5 1 4 2 3 3 2 4 1 5 29 6 30 7 91 8 31 9 90 10 32 11 33 12
REMARK SMILES IDX 34 13 84 14 35 15 89 16 83 17 85 18 36 19 88 20 82 21 81 22
REMARK SMILES IDX 37 24 69 25 49 26 68 27 50 28 53 29 67 30 86 31 51 32 52 33
REMARK SMILES IDX 66 35 87 36 54 37 38 38 39 39 47 40 40 41 42 42 48 43 41 44
REMARK SMILES IDX 43 45 44 46 45 47 46 48 70 49 71 50 79 51 72 52 74 53 80 54
REMARK SMILES IDX 73 55 75 56 76 57 77 58 78 59 55 60 56 61 64 62 57 63 59 64
REMARK SMILES IDX 65 65 58 66 60 67 61 68 62 69 63 70 6 71 7 72 8 73 9 74
REMARK SMILES IDX 10 75 11 76 12 77 13 78 17 79 14 80 16 81 15 82 18 83 19 84
REMARK SMILES IDX 20 85 21 86 28 87 22 88 27 89 23 90 26 91 24 92 25 93
REMARK H PARENT 85 23 53 34
REMARK Flexibility Score: inf
ROOT
ATOM      1  C   UNL A   1      32.547  30.696  26.422  1.00  0.00     0.202 C 
ENDROOT
BRANCH   1   2
ATOM      2  C   UNL A   1      31.738  31.850  27.019  1.00  0.00     0.261 C 
BRANCH   2   3
ATOM      3  O   UNL A   1      32.512  33.057  27.053  1.00  0.00    -0.460 OA
BRANCH   3   4
ATOM      4  C   UNL A   1      33.266  33.530  28.076  1.00  0.00     0.338 C 
ATOM      5  O   UNL A   1      32.869  34.538  28.662  1.00  0.00    -0.246 OA
BRANCH   4   6
ATOM      6  C   UNL A   1      34.546  32.903  28.538  1.00  0.00     0.060 A 
ATOM      7  C   UNL A   1      34.644  31.726  29.281  1.00  0.00     0.016 A 
ATOM      8  C   UNL A   1      35.749  33.521  28.149  1.00  0.00     0.016 A 
ATOM      9  C   UNL A   1      35.855  31.175  29.634  1.00  0.00     0.010 A 
ATOM     10  C   UNL A   1      36.989  32.982  28.512  1.00  0.00     0.010 A 
ATOM     11  C   UNL A   1      37.030  31.811  29.271  1.00  0.00    -0.014 A 
BRANCH  11  12
ATOM     12  C   UNL A   1      38.233  31.271  29.910  1.00  0.00     0.031 A 
ATOM     13  C   UNL A   1      38.407  31.541  31.371  1.00  0.00     0.074 A 
ATOM     14  C   UNL A   1      38.945  30.337  29.255  1.00  0.00     0.049 A 
ATOM     15  N   UNL A   1      39.275  31.039  32.202  1.00  0.00    -0.248 NA
ATOM     16  C   UNL A   1      37.438  32.465  31.990  1.00  0.00     0.031 C 
ATOM     17  C   UNL A   1      38.693  29.905  27.877  1.00  0.00     0.029 A 
ATOM     18  N   UNL A   1      39.971  29.539  29.676  1.00  0.00    -0.354 N 
ATOM     19  C   UNL A   1      38.990  31.622  33.429  1.00  0.00     0.074 A 
ATOM     20  C   UNL A   1      37.845  32.484  33.249  1.00  0.00     0.031 C 
ATOM     21  C   UNL A   1      39.533  28.902  27.575  1.00  0.00     0.029 A 
ATOM     22  C   UNL A   1      40.408  28.659  28.715  1.00  0.00     0.049 A 
ATOM     23  H   UNL A   1      40.359  29.591  30.580  1.00  0.00     0.167 HD
ATOM     24  C   UNL A   1      39.644  31.456  34.598  1.00  0.00     0.034 A 
ATOM     25  C   UNL A   1      41.417  27.769  28.765  1.00  0.00     0.034 A 
ATOM     26  C   UNL A   1      40.775  30.587  34.738  1.00  0.00     0.049 A 
ATOM     27  C   UNL A   1      42.173  27.657  30.062  1.00  0.00     0.074 A 
ATOM     28  C   UNL A   1      41.594  30.399  35.833  1.00  0.00     0.029 A 
ATOM     29  N   UNL A   1      41.250  29.758  33.728  1.00  0.00    -0.354 N 
ATOM     30  N   UNL A   1      41.924  28.238  31.213  1.00  0.00    -0.248 NA
ATOM     31  C   UNL A   1      43.340  26.768  30.075  1.00  0.00     0.031 C 
ATOM     32  C   UNL A   1      42.578  29.468  35.477  1.00  0.00     0.029 A 
ATOM     33  C   UNL A   1      42.354  29.058  34.169  1.00  0.00     0.049 A 
ATOM     34  H   UNL A   1      40.854  29.681  32.829  1.00  0.00     0.167 HD
ATOM     35  C   UNL A   1      42.890  27.774  32.094  1.00  0.00     0.074 A 
ATOM     36  C   UNL A   1      43.712  26.839  31.347  1.00  0.00     0.031 C 
ATOM     37  C   UNL A   1      43.104  28.101  33.393  1.00  0.00     0.034 A 
BRANCH  24  38
ATOM     38  C   UNL A   1      39.183  32.289  35.759  1.00  0.00     0.023 A 
ATOM     39  C   UNL A   1      39.621  33.621  35.899  1.00  0.00     0.012 A 
ATOM     40  C   UNL A   1      38.353  31.724  36.746  1.00  0.00     0.148 A 
ATOM     41  C   UNL A   1      39.262  34.369  37.021  1.00  0.00     0.002 A 
ATOM     42  C   UNL A   1      37.974  32.484  37.844  1.00  0.00     0.091 A 
ATOM     43  F   UNL A   1      37.986  30.442  36.613  1.00  0.00    -0.205 F 
ATOM     44  C   UNL A   1      38.435  33.803  37.989  1.00  0.00     0.022 A 
BRANCH  42  45
ATOM     45  S   UNL A   1      36.884  31.852  39.123  1.00  0.00     0.127 S 
ATOM     46  O   UNL A   1      37.608  32.223  40.338  1.00  0.00    -0.237 OA
ATOM     47  O   UNL A   1      35.659  32.615  38.887  1.00  0.00    -0.237 OA
ATOM     48  O   UNL A   1      36.765  30.422  38.878  1.00  0.00    -0.744 OA
ENDBRANCH  42  45
ENDBRANCH  24  38
BRANCH  25  49
ATOM     49  C   UNL A   1      41.757  26.941  27.573  1.00  0.00     0.023 A 
ATOM     50  C   UNL A   1      42.379  27.533  26.457  1.00  0.00     0.012 A 
ATOM     51  C   UNL A   1      41.489  25.557  27.547  1.00  0.00     0.148 A 
ATOM     52  C   UNL A   1      42.706  26.767  25.334  1.00  0.00     0.002 A 
ATOM     53  C   UNL A   1      41.870  24.790  26.451  1.00  0.00     0.091 A 
ATOM     54  F   UNL A   1      40.865  25.009  28.600  1.00  0.00    -0.205 F 
ATOM     55  C   UNL A   1      42.464  25.396  25.336  1.00  0.00     0.022 A 
BRANCH  53  56
ATOM     56  S   UNL A   1      41.711  23.000  26.445  1.00  0.00     0.127 S 
ATOM     57  O   UNL A   1      40.262  22.826  26.485  1.00  0.00    -0.237 OA
ATOM     58  O   UNL A   1      42.339  22.639  25.171  1.00  0.00    -0.237 OA
ATOM     59  O   UNL A   1      42.444  22.543  27.617  1.00  0.00    -0.744 OA
ENDBRANCH  53  56
ENDBRANCH  25  49
BRANCH  37  60
ATOM     60  C   UNL A   1      44.253  27.428  34.086  1.00  0.00     0.023 A 
ATOM     61  C   UNL A   1      45.523  28.035  34.075  1.00  0.00     0.012 A 
ATOM     62  C   UNL A   1      44.046  26.249  34.824  1.00  0.00     0.148 A 
ATOM     63  C   UNL A   1      46.582  27.460  34.773  1.00  0.00     0.002 A 
ATOM     64  C   UNL A   1      45.094  25.709  35.557  1.00  0.00     0.091 A 
ATOM     65  F   UNL A   1      42.833  25.677  34.798  1.00  0.00    -0.205 F 
ATOM     66  C   UNL A   1      46.365  26.307  35.525  1.00  0.00     0.022 A 
BRANCH  64  67
ATOM     67  S   UNL A   1      44.861  24.290  36.632  1.00  0.00     0.127 S 
ATOM     68  O   UNL A   1      46.222  24.045  37.103  1.00  0.00    -0.237 OA
ATOM     69  O   UNL A   1      43.948  24.813  37.650  1.00  0.00    -0.237 OA
ATOM     70  O   UNL A   1      44.284  23.250  35.791  1.00  0.00    -0.744 OA
ENDBRANCH  64  67
ENDBRANCH  37  60
ENDBRANCH  11  12
ENDBRANCH   4   6
ENDBRANCH   3   4
ENDBRANCH   2   3
ENDBRANCH   1   2
BRANCH   1  71
ATOM     71  O   UNL A   1      31.793  29.593  25.927  1.00  0.00    -0.374 OA
BRANCH  71  72
ATOM     72  C   UNL A   1      31.781  28.422  26.744  1.00  0.00     0.202 C 
BRANCH  72  73
ATOM     73  C   UNL A   1      33.170  27.780  26.813  1.00  0.00     0.261 C 
BRANCH  73  74
ATOM     74  O   UNL A   1      33.648  27.430  25.499  1.00  0.00    -0.462 OA
BRANCH  74  75
ATOM     75  C   UNL A   1      33.653  26.106  25.168  1.00  0.00     0.328 C 
ATOM     76  O   UNL A   1      34.136  25.216  25.855  1.00  0.00    -0.250 OA
BRANCH  75  77
ATOM     77  C   UNL A   1      32.785  25.834  23.921  1.00  0.00     0.195 C 
ATOM     78  C   UNL A   1      33.597  25.320  22.728  1.00  0.00     0.037 C 
ATOM     79  N   UNL A   1      31.660  24.944  24.218  1.00  0.00    -0.323 N 
ATOM     80  C   UNL A   1      33.976  23.845  22.863  1.00  0.00     0.005 C 
ATOM     81  C   UNL A   1      31.869  23.490  24.206  1.00  0.00     0.121 C 
ATOM     82  C   UNL A   1      32.729  23.000  23.047  1.00  0.00     0.022 C 
BRANCH  79  83
ATOM     83  C   UNL A   1      30.535  25.573  24.769  1.00  0.00     0.274 C 
ATOM     84  O   UNL A   1      29.966  25.160  25.769  1.00  0.00    -0.267 OA
BRANCH  83  85
ATOM     85  C   UNL A   1      30.031  26.727  24.046  1.00  0.00     0.147 A 
ATOM     86  C   UNL A   1      28.701  27.079  23.919  1.00  0.00     0.127 A 
ATOM     87  N   UNL A   1      30.844  27.607  23.362  1.00  0.00    -0.223 NA
ATOM     88  N   UNL A   1      28.698  28.199  23.137  1.00  0.00    -0.306 N 
ATOM     89  C   UNL A   1      30.025  28.490  22.838  1.00  0.00     0.137 A 
ATOM     90  C   UNL A   1      27.622  28.951  22.674  1.00  0.00     0.093 A 
ATOM     91  C   UNL A   1      30.276  29.636  22.036  1.00  0.00     0.048 A 
ATOM     92  C   UNL A   1      27.863  30.024  21.902  1.00  0.00     0.018 A 
ATOM     93  C   UNL A   1      29.242  30.372  21.585  1.00  0.00     0.005 A 
ENDBRANCH  83  85
ENDBRANCH  79  83
ENDBRANCH  75  77
ENDBRANCH  74  75
ENDBRANCH  73  74
ENDBRANCH  72  73
ENDBRANCH  71  72
ENDBRANCH   1  71
TORSDOF 19
ENDMDL
MODEL 3
REMARK VINA RESULT:     -11.5      5.070     10.182
REMARK SMILES O=C(OCCOCCOC(=O)[C@H]1CCCCN1C(=O)c1cn2ccccc2n1)c1ccc(-c2c3nc(c(-c4cccc(S(=O)(=O)[O-])c4F)c4ccc([nH]4)c(-c4cccc(S(=O)(=O)[O-])c4F)c4nc(c(-c5cccc(S(=O)(=O)[O-])c5F)c5ccc2[nH]5)C=C4)C=C3)cc1
REMARK SMILES IDX 5 1 4 2 3 3 2 4 1 5 29 6 30 7 91 8 31 9 90 10 32 11 33 12
REMARK SMILES IDX 34 13 84 14 35 15 89 16 83 17 85 18 36 19 88 20 82 21 81 22
REMARK SMILES IDX 37 24 69 25 49 26 68 27 50 28 53 29 67 30 86 31 51 32 52 33
REMARK SMILES IDX 66 35 87 36 54 37 38 38 39 39 47 40 40 41 42 42 48 43 41 44
REMARK SMILES IDX 43 45 44 46 45 47 46 48 70 49 71 50 79 51 72 52 74 53 80 54
REMARK SMILES IDX 73 55 75 56 76 57 77 58 78 59 55 60 56 61 64 62 57 63 59 64
REMARK SMILES IDX 65 65 58 66 60 67 61 68 62 69 63 70 6 71 7 72 8 73 9 74
REMARK SMILES IDX 10 75 11 76 12 77 13 78 17 79 14 80 16 81 15 82 18 83 19 84
REMARK SMILES IDX 20 85 21 86 28 87 22 88 27 89 23 90 26 91 24 92 25 93
REMARK H PARENT 85 23 53 34
REMARK Flexibility Score: inf
ROOT
ATOM      1  C   UNL A   1      36.795  22.331  23.888  1.00  0.00     0.202 C 
ENDROOT
BRANCH   1   2
ATOM      2  C   UNL A   1      37.295  21.020  24.496  1.00  0.00     0.261 C 
BRANCH   2   3
ATOM      3  O   UNL A   1      37.844  21.236  25.804  1.00  0.00    -0.460 OA
BRANCH   3   4
ATOM      4  C   UNL A   1      39.147  21.399  26.140  1.00  0.00     0.338 C 
ATOM      5  O   UNL A   1      39.910  20.451  25.952  1.00  0.00    -0.246 OA
BRANCH   4   6
ATOM      6  C   UNL A   1      39.716  22.659  26.720  1.00  0.00     0.060 A 
ATOM      7  C   UNL A   1      39.290  23.951  26.412  1.00  0.00     0.016 A 
ATOM      8  C   UNL A   1      40.725  22.527  27.691  1.00  0.00     0.016 A 
ATOM      9  C   UNL A   1      39.822  25.067  27.016  1.00  0.00     0.010 A 
ATOM     10  C   UNL A   1      41.288  23.653  28.305  1.00  0.00     0.010 A 
ATOM     11  C   UNL A   1      40.837  24.924  27.948  1.00  0.00    -0.014 A 
BRANCH  11  12
ATOM     12  C   UNL A   1      41.488  26.180  28.332  1.00  0.00     0.031 A 
ATOM     13  C   UNL A   1      42.830  26.461  27.736  1.00  0.00     0.074 A 
ATOM     14  C   UNL A   1      40.749  27.127  28.936  1.00  0.00     0.049 A 
ATOM     15  N   UNL A   1      43.531  27.558  27.770  1.00  0.00    -0.248 NA
ATOM     16  C   UNL A   1      43.445  25.372  26.952  1.00  0.00     0.031 C 
ATOM     17  C   UNL A   1      39.360  26.956  29.373  1.00  0.00     0.029 A 
ATOM     18  N   UNL A   1      41.034  28.432  29.223  1.00  0.00    -0.354 N 
ATOM     19  C   UNL A   1      44.689  27.278  27.057  1.00  0.00     0.074 A 
ATOM     20  C   UNL A   1      44.583  25.924  26.566  1.00  0.00     0.031 C 
ATOM     21  C   UNL A   1      38.908  28.125  29.855  1.00  0.00     0.029 A 
ATOM     22  C   UNL A   1      39.986  29.104  29.805  1.00  0.00     0.049 A 
ATOM     23  H   UNL A   1      41.905  28.850  29.031  1.00  0.00     0.167 HD
ATOM     24  C   UNL A   1      45.751  28.086  26.849  1.00  0.00     0.034 A 
ATOM     25  C   UNL A   1      39.927  30.372  30.257  1.00  0.00     0.034 A 
ATOM     26  C   UNL A   1      45.816  29.427  27.350  1.00  0.00     0.049 A 
ATOM     27  C   UNL A   1      41.152  31.226  30.073  1.00  0.00     0.074 A 
ATOM     28  C   UNL A   1      46.866  30.320  27.301  1.00  0.00     0.029 A 
ATOM     29  N   UNL A   1      44.769  30.065  28.006  1.00  0.00    -0.354 N 
ATOM     30  N   UNL A   1      42.263  30.946  29.429  1.00  0.00    -0.248 NA
ATOM     31  C   UNL A   1      41.121  32.568  30.666  1.00  0.00     0.031 C 
ATOM     32  C   UNL A   1      46.460  31.494  27.946  1.00  0.00     0.029 A 
ATOM     33  C   UNL A   1      45.148  31.340  28.373  1.00  0.00     0.049 A 
ATOM     34  H   UNL A   1      43.886  29.664  28.181  1.00  0.00     0.167 HD
ATOM     35  C   UNL A   1      43.056  32.080  29.522  1.00  0.00     0.074 A 
ATOM     36  C   UNL A   1      42.284  33.063  30.262  1.00  0.00     0.031 C 
ATOM     37  C   UNL A   1      44.316  32.293  29.066  1.00  0.00     0.034 A 
BRANCH  24  38
ATOM     38  C   UNL A   1      46.922  27.493  26.120  1.00  0.00     0.023 A 
ATOM     39  C   UNL A   1      47.846  26.676  26.802  1.00  0.00     0.012 A 
ATOM     40  C   UNL A   1      47.134  27.798  24.762  1.00  0.00     0.148 A 
ATOM     41  C   UNL A   1      48.980  26.194  26.147  1.00  0.00     0.002 A 
ATOM     42  C   UNL A   1      48.249  27.289  24.109  1.00  0.00     0.091 A 
ATOM     43  F   UNL A   1      46.265  28.613  24.148  1.00  0.00    -0.205 F 
ATOM     44  C   UNL A   1      49.179  26.496  24.802  1.00  0.00     0.022 A 
BRANCH  42  45
ATOM     45  S   UNL A   1      48.568  27.595  22.369  1.00  0.00     0.127 S 
ATOM     46  O   UNL A   1      48.715  26.235  21.852  1.00  0.00    -0.237 OA
ATOM     47  O   UNL A   1      47.346  28.278  21.948  1.00  0.00    -0.237 OA
ATOM     48  O   UNL A   1      49.770  28.415  22.320  1.00  0.00    -0.744 OA
ENDBRANCH  42  45
ENDBRANCH  24  38
BRANCH  25  49
ATOM     49  C   UNL A   1      38.691  30.886  30.913  1.00  0.00     0.023 A 
ATOM     50  C   UNL A   1      38.556  30.825  32.313  1.00  0.00     0.012 A 
ATOM     51  C   UNL A   1      37.651  31.461  30.155  1.00  0.00     0.148 A 
ATOM     52  C   UNL A   1      37.404  31.306  32.940  1.00  0.00     0.002 A 
ATOM     53  C   UNL A   1      36.532  31.992  30.789  1.00  0.00     0.091 A 
ATOM     54  F   UNL A   1      37.772  31.484  28.820  1.00  0.00    -0.205 F 
ATOM     55  C   UNL A   1      36.399  31.901  32.181  1.00  0.00     0.022 A 
BRANCH  53  56
ATOM     56  S   UNL A   1      35.266  32.892  29.886  1.00  0.00     0.127 S 
ATOM     57  O   UNL A   1      36.011  34.044  29.389  1.00  0.00    -0.237 OA
ATOM     58  O   UNL A   1      34.872  31.924  28.859  1.00  0.00    -0.237 OA
ATOM     59  O   UNL A   1      34.223  33.175  30.862  1.00  0.00    -0.744 OA
ENDBRANCH  53  56
ENDBRANCH  25  49
BRANCH  37  60
ATOM     60  C   UNL A   1      44.921  33.640  29.335  1.00  0.00     0.023 A 
ATOM     61  C   UNL A   1      45.652  33.849  30.520  1.00  0.00     0.012 A 
ATOM     62  C   UNL A   1      44.842  34.661  28.372  1.00  0.00     0.148 A 
ATOM     63  C   UNL A   1      46.280  35.071  30.752  1.00  0.00     0.002 A 
ATOM     64  C   UNL A   1      45.511  35.858  28.587  1.00  0.00     0.091 A 
ATOM     65  F   UNL A   1      44.119  34.444  27.263  1.00  0.00    -0.205 F 
ATOM     66  C   UNL A   1      46.222  36.068  29.780  1.00  0.00     0.022 A 
BRANCH  64  67
ATOM     67  S   UNL A   1      45.571  37.144  27.336  1.00  0.00     0.127 S 
ATOM     68  O   UNL A   1      46.354  38.178  28.008  1.00  0.00    -0.237 OA
ATOM     69  O   UNL A   1      46.260  36.477  26.231  1.00  0.00    -0.237 OA
ATOM     70  O   UNL A   1      44.182  37.484  27.056  1.00  0.00    -0.744 OA
ENDBRANCH  64  67
ENDBRANCH  37  60
ENDBRANCH  11  12
ENDBRANCH   4   6
ENDBRANCH   3   4
ENDBRANCH   2   3
ENDBRANCH   1   2
BRANCH   1  71
ATOM     71  O   UNL A   1      35.870  23.075  24.677  1.00  0.00    -0.374 OA
BRANCH  71  72
ATOM     72  C   UNL A   1      35.376  24.283  24.098  1.00  0.00     0.202 C 
BRANCH  72  73
ATOM     73  C   UNL A   1      33.867  24.205  23.854  1.00  0.00     0.261 C 
BRANCH  73  74
ATOM     74  O   UNL A   1      33.396  22.845  23.932  1.00  0.00    -0.462 OA
BRANCH  74  75
ATOM     75  C   UNL A   1      32.046  22.653  23.996  1.00  0.00     0.328 C 
ATOM     76  O   UNL A   1      31.263  22.891  23.087  1.00  0.00    -0.250 OA
BRANCH  75  77
ATOM     77  C   UNL A   1      31.645  21.893  25.279  1.00  0.00     0.195 C 
ATOM     78  C   UNL A   1      32.392  20.566  25.445  1.00  0.00     0.037 C 
ATOM     79  N   UNL A   1      31.776  22.728  26.476  1.00  0.00    -0.323 N 
ATOM     80  C   UNL A   1      33.830  20.753  25.931  1.00  0.00     0.005 C 
ATOM     81  C   UNL A   1      33.085  22.845  27.132  1.00  0.00     0.121 C 
ATOM     82  C   UNL A   1      33.843  21.526  27.237  1.00  0.00     0.022 C 
BRANCH  79  83
ATOM     83  C   UNL A   1      30.690  23.576  26.730  1.00  0.00     0.274 C 
ATOM     84  O   UNL A   1      29.673  23.202  27.295  1.00  0.00    -0.267 OA
BRANCH  83  85
ATOM     85  C   UNL A   1      30.808  24.933  26.227  1.00  0.00     0.147 A 
ATOM     86  C   UNL A   1      30.203  25.423  25.086  1.00  0.00     0.127 A 
ATOM     87  N   UNL A   1      31.583  25.901  26.832  1.00  0.00    -0.223 NA
ATOM     88  N   UNL A   1      30.618  26.721  24.988  1.00  0.00    -0.306 N 
ATOM     89  C   UNL A   1      31.441  26.969  26.081  1.00  0.00     0.137 A 
ATOM     90  C   UNL A   1      30.332  27.669  24.010  1.00  0.00     0.093 A 
ATOM     91  C   UNL A   1      31.988  28.275  26.202  1.00  0.00     0.048 A 
ATOM     92  C   UNL A   1      30.866  28.897  24.118  1.00  0.00     0.018 A 
ATOM     93  C   UNL A   1      31.716  29.200  25.262  1.00  0.00     0.005 A 
ENDBRANCH  83  85
ENDBRANCH  79  83
ENDBRANCH  75  77
ENDBRANCH  74  75
ENDBRANCH  73  74
ENDBRANCH  72  73
ENDBRANCH  71  72
ENDBRANCH   1  71
TORSDOF 19
ENDMDL
