MODEL 1
REMARK VINA RESULT:     -11.0      0.000      0.000
REMARK SMILES CC[C@H](C)[C@@H](NC(=O)c1csc(NC(C)=O)n1)C(=O)OCCOCCOC(=O)c1ccc(-c2c3nc(c(-c4cccc(S(=O)(=O)[O-])c4F)c4ccc([nH]4)c(-c4cccc(S(=O)(=O)[O-])c4F)c4nc(c(-c5cccc(S(=O)(=O)[O-])c5F)c5ccc2[nH]5)C=C4)C=C3)cc1
REMARK SMILES IDX 23 1 22 2 21 3 20 4 18 5 19 6 5 7 3 8 4 9 2 10 1 11 6 12
REMARK SMILES IDX 7 13 8 15 9 16 10 17 17 18 11 19 12 20 13 21 14 22 15 24
REMARK SMILES IDX 16 25 24 26 25 27 26 28 27 29 28 30 29 31 30 32 91 33 31 34
REMARK SMILES IDX 90 35 32 36 33 37 34 38 84 39 35 40 89 41 83 42 85 43 36 44
REMARK SMILES IDX 88 45 82 46 81 47 37 49 69 50 49 51 68 52 50 53 53 54 67 55
REMARK SMILES IDX 86 56 51 57 52 58 66 60 87 61 54 62 38 63 39 64 47 65 40 66
REMARK SMILES IDX 42 67 48 68 41 69 43 70 44 71 45 72 46 73 70 74 71 75 79 76
REMARK SMILES IDX 72 77 74 78 80 79 73 80 75 81 76 82 77 83 78 84 55 85 56 86
REMARK SMILES IDX 64 87 57 88 59 89 65 90 58 91 60 92 61 93 62 94 63 95
REMARK H PARENT 6 14 13 23 85 48 53 59
REMARK Flexibility Score: inf
ROOT
ATOM      1  O   UNL A   1      36.451  22.212  23.617  1.00  0.00    -0.374 OA
ENDROOT
BRANCH   1   2
ATOM      2  C   UNL A   1      35.332  23.024  23.312  1.00  0.00     0.202 C 
BRANCH   2   3
ATOM      3  C   UNL A   1      34.826  24.118  24.271  1.00  0.00     0.261 C 
BRANCH   3   4
ATOM      4  O   UNL A   1      33.929  25.142  23.840  1.00  0.00    -0.462 OA
BRANCH   4   5
ATOM      5  C   UNL A   1      32.650  24.766  23.579  1.00  0.00     0.329 C 
ATOM      6  O   UNL A   1      32.295  24.103  22.608  1.00  0.00    -0.250 OA
BRANCH   5   7
ATOM      7  C   UNL A   1      31.668  25.281  24.647  1.00  0.00     0.195 C 
BRANCH   7   8
ATOM      8  C   UNL A   1      30.860  26.547  24.144  1.00  0.00     0.019 C 
ATOM      9  C   UNL A   1      29.348  26.269  24.090  1.00  0.00     0.010 C 
BRANCH   8  10
ATOM     10  C   UNL A   1      31.153  27.818  24.979  1.00  0.00     0.002 C 
ATOM     11  C   UNL A   1      32.136  28.819  24.387  1.00  0.00     0.004 C 
ENDBRANCH   8  10
ENDBRANCH   7   8
BRANCH   7  12
ATOM     12  N   UNL A   1      30.720  24.280  25.195  1.00  0.00    -0.337 N 
ATOM     13  C   UNL A   1      30.798  23.256  26.107  1.00  0.00     0.271 C 
ATOM     14  H   UNL A   1      29.818  24.372  24.812  1.00  0.00     0.164 HD
ATOM     15  O   UNL A   1      29.744  22.920  26.649  1.00  0.00    -0.267 OA
BRANCH  13  16
ATOM     16  C   UNL A   1      32.022  22.483  26.296  1.00  0.00     0.141 A 
ATOM     17  C   UNL A   1      32.796  22.597  27.440  1.00  0.00     0.102 A 
ATOM     18  N   UNL A   1      32.544  21.608  25.357  1.00  0.00    -0.215 NA
ATOM     19  S   UNL A   1      34.111  21.500  27.379  1.00  0.00    -0.104 S 
ATOM     20  C   UNL A   1      33.549  20.937  25.876  1.00  0.00     0.190 A 
BRANCH  20  21
ATOM     21  N   UNL A   1      34.004  19.788  25.274  1.00  0.00    -0.302 N 
ATOM     22  C   UNL A   1      33.297  18.622  25.083  1.00  0.00     0.223 C 
ATOM     23  H   UNL A   1      34.932  19.800  24.946  1.00  0.00     0.172 HD
ATOM     24  C   UNL A   1      34.017  17.628  24.199  1.00  0.00     0.114 C 
ATOM     25  O   UNL A   1      32.174  18.357  25.497  1.00  0.00    -0.275 OA
ENDBRANCH  20  21
ENDBRANCH  13  16
ENDBRANCH   7  12
ENDBRANCH   5   7
ENDBRANCH   4   5
ENDBRANCH   3   4
ENDBRANCH   2   3
ENDBRANCH   1   2
BRANCH   1  26
ATOM     26  C   UNL A   1      36.923  22.205  24.960  1.00  0.00     0.202 C 
BRANCH  26  27
ATOM     27  C   UNL A   1      37.921  21.118  25.373  1.00  0.00     0.261 C 
BRANCH  27  28
ATOM     28  O   UNL A   1      39.284  21.590  25.359  1.00  0.00    -0.460 OA
BRANCH  28  29
ATOM     29  C   UNL A   1      39.974  21.338  26.497  1.00  0.00     0.338 C 
ATOM     30  O   UNL A   1      40.501  20.275  26.814  1.00  0.00    -0.246 OA
BRANCH  29  31
ATOM     31  C   UNL A   1      40.221  22.579  27.248  1.00  0.00     0.060 A 
ATOM     32  C   UNL A   1      39.369  23.668  27.003  1.00  0.00     0.016 A 
ATOM     33  C   UNL A   1      41.334  22.722  28.076  1.00  0.00     0.016 A 
ATOM     34  C   UNL A   1      39.666  24.922  27.528  1.00  0.00     0.010 A 
ATOM     35  C   UNL A   1      41.643  23.990  28.586  1.00  0.00     0.010 A 
ATOM     36  C   UNL A   1      40.842  25.103  28.267  1.00  0.00    -0.014 A 
BRANCH  36  37
ATOM     37  C   UNL A   1      41.345  26.481  28.488  1.00  0.00     0.031 A 
ATOM     38  C   UNL A   1      42.737  26.816  28.022  1.00  0.00     0.074 A 
ATOM     39  C   UNL A   1      40.579  27.427  29.060  1.00  0.00     0.049 A 
ATOM     40  N   UNL A   1      43.393  27.944  28.108  1.00  0.00    -0.248 NA
ATOM     41  C   UNL A   1      43.492  25.733  27.368  1.00  0.00     0.031 C 
ATOM     42  C   UNL A   1      39.209  27.238  29.529  1.00  0.00     0.029 A 
ATOM     43  N   UNL A   1      40.862  28.738  29.356  1.00  0.00    -0.354 N 
ATOM     44  C   UNL A   1      44.642  27.700  27.551  1.00  0.00     0.074 A 
ATOM     45  C   UNL A   1      44.659  26.314  27.135  1.00  0.00     0.031 C 
ATOM     46  C   UNL A   1      38.777  28.385  30.083  1.00  0.00     0.029 A 
ATOM     47  C   UNL A   1      39.847  29.381  30.023  1.00  0.00     0.049 A 
ATOM     48  H   UNL A   1      41.711  29.174  29.114  1.00  0.00     0.167 HD
ATOM     49  C   UNL A   1      45.680  28.553  27.382  1.00  0.00     0.034 A 
ATOM     50  C   UNL A   1      39.797  30.626  30.541  1.00  0.00     0.034 A 
ATOM     51  C   UNL A   1      45.657  29.937  27.767  1.00  0.00     0.049 A 
ATOM     52  C   UNL A   1      40.978  31.548  30.369  1.00  0.00     0.074 A 
ATOM     53  C   UNL A   1      46.639  30.894  27.591  1.00  0.00     0.029 A 
ATOM     54  N   UNL A   1      44.601  30.559  28.414  1.00  0.00    -0.354 N 
ATOM     55  N   UNL A   1      42.106  31.338  29.734  1.00  0.00    -0.248 NA
ATOM     56  C   UNL A   1      40.865  32.891  30.957  1.00  0.00     0.031 C 
ATOM     57  C   UNL A   1      46.189  32.092  28.157  1.00  0.00     0.029 A 
ATOM     58  C   UNL A   1      44.914  31.885  28.661  1.00  0.00     0.049 A 
ATOM     59  H   UNL A   1      43.754  30.124  28.662  1.00  0.00     0.167 HD
ATOM     60  C   UNL A   1      42.819  32.530  29.813  1.00  0.00     0.074 A 
ATOM     61  C   UNL A   1      41.987  33.464  30.543  1.00  0.00     0.031 C 
ATOM     62  C   UNL A   1      44.055  32.822  29.337  1.00  0.00     0.034 A 
BRANCH  49  63
ATOM     63  C   UNL A   1      46.926  28.016  26.732  1.00  0.00     0.023 A 
ATOM     64  C   UNL A   1      47.924  27.417  27.526  1.00  0.00     0.012 A 
ATOM     65  C   UNL A   1      47.085  28.057  25.333  1.00  0.00     0.148 A 
ATOM     66  C   UNL A   1      49.076  26.891  26.940  1.00  0.00     0.002 A 
ATOM     67  C   UNL A   1      48.216  27.496  24.753  1.00  0.00     0.091 A 
ATOM     68  F   UNL A   1      46.136  28.657  24.600  1.00  0.00    -0.205 F 
ATOM     69  C   UNL A   1      49.217  26.922  25.555  1.00  0.00     0.022 A 
BRANCH  67  70
ATOM     70  S   UNL A   1      48.452  27.421  22.975  1.00  0.00     0.127 S 
ATOM     71  O   UNL A   1      47.318  28.210  22.494  1.00  0.00    -0.237 OA
ATOM     72  O   UNL A   1      49.757  28.064  22.808  1.00  0.00    -0.237 OA
ATOM     73  O   UNL A   1      48.425  26.007  22.626  1.00  0.00    -0.744 OA
ENDBRANCH  67  70
ENDBRANCH  49  63
BRANCH  50  74
ATOM     74  C   UNL A   1      38.569  31.090  31.246  1.00  0.00     0.023 A 
ATOM     75  C   UNL A   1      38.492  30.986  32.649  1.00  0.00     0.012 A 
ATOM     76  C   UNL A   1      37.483  31.639  30.537  1.00  0.00     0.148 A 
ATOM     77  C   UNL A   1      37.345  31.396  33.329  1.00  0.00     0.002 A 
ATOM     78  C   UNL A   1      36.366  32.095  31.226  1.00  0.00     0.091 A 
ATOM     79  F   UNL A   1      37.567  31.708  29.200  1.00  0.00    -0.205 F 
ATOM     80  C   UNL A   1      36.287  31.959  32.621  1.00  0.00     0.022 A 
BRANCH  78  81
ATOM     81  S   UNL A   1      35.012  32.944  30.405  1.00  0.00     0.127 S 
ATOM     82  O   UNL A   1      34.093  33.185  31.515  1.00  0.00    -0.237 OA
ATOM     83  O   UNL A   1      35.677  34.139  29.883  1.00  0.00    -0.237 OA
ATOM     84  O   UNL A   1      34.539  32.026  29.379  1.00  0.00    -0.744 OA
ENDBRANCH  78  81
ENDBRANCH  50  74
BRANCH  62  85
ATOM     85  C   UNL A   1      44.583  34.217  29.553  1.00  0.00     0.023 A 
ATOM     86  C   UNL A   1      45.308  34.517  30.723  1.00  0.00     0.012 A 
ATOM     87  C   UNL A   1      44.436  35.205  28.558  1.00  0.00     0.148 A 
ATOM     88  C   UNL A   1      45.851  35.788  30.914  1.00  0.00     0.002 A 
ATOM     89  C   UNL A   1      45.022  36.453  28.733  1.00  0.00     0.091 A 
ATOM     90  F   UNL A   1      43.729  34.905  27.459  1.00  0.00    -0.205 F 
ATOM     91  C   UNL A   1      45.720  36.751  29.915  1.00  0.00     0.022 A 
BRANCH  89  92
ATOM     92  S   UNL A   1      44.986  37.719  27.459  1.00  0.00     0.127 S 
ATOM     93  O   UNL A   1      45.921  37.178  26.473  1.00  0.00    -0.237 OA
ATOM     94  O   UNL A   1      43.583  37.701  27.041  1.00  0.00    -0.237 OA
ATOM     95  O   UNL A   1      45.404  38.953  28.109  1.00  0.00    -0.744 OA
ENDBRANCH  89  92
ENDBRANCH  62  85
ENDBRANCH  36  37
ENDBRANCH  29  31
ENDBRANCH  28  29
ENDBRANCH  27  28
ENDBRANCH  26  27
ENDBRANCH   1  26
TORSDOF 22
ENDMDL
MODEL 2
REMARK VINA RESULT:     -10.8      1.774      8.204
REMARK SMILES CC[C@H](C)[C@@H](NC(=O)c1csc(NC(C)=O)n1)C(=O)OCCOCCOC(=O)c1ccc(-c2c3nc(c(-c4cccc(S(=O)(=O)[O-])c4F)c4ccc([nH]4)c(-c4cccc(S(=O)(=O)[O-])c4F)c4nc(c(-c5cccc(S(=O)(=O)[O-])c5F)c5ccc2[nH]5)C=C4)C=C3)cc1
REMARK SMILES IDX 23 1 22 2 21 3 20 4 18 5 19 6 5 7 3 8 4 9 2 10 1 11 6 12
REMARK SMILES IDX 7 13 8 15 9 16 10 17 17 18 11 19 12 20 13 21 14 22 15 24
REMARK SMILES IDX 16 25 24 26 25 27 26 28 27 29 28 30 29 31 30 32 91 33 31 34
REMARK SMILES IDX 90 35 32 36 33 37 34 38 84 39 35 40 89 41 83 42 85 43 36 44
REMARK SMILES IDX 88 45 82 46 81 47 37 49 69 50 49 51 68 52 50 53 53 54 67 55
REMARK SMILES IDX 86 56 51 57 52 58 66 60 87 61 54 62 38 63 39 64 47 65 40 66
REMARK SMILES IDX 42 67 48 68 41 69 43 70 44 71 45 72 46 73 70 74 71 75 79 76
REMARK SMILES IDX 72 77 74 78 80 79 73 80 75 81 76 82 77 83 78 84 55 85 56 86
REMARK SMILES IDX 64 87 57 88 59 89 65 90 58 91 60 92 61 93 62 94 63 95
REMARK H PARENT 6 14 13 23 85 48 53 59
REMARK Flexibility Score: inf
ROOT
ATOM      1  O   UNL A   1      34.927  20.475  25.414  1.00  0.00    -0.374 OA
ENDROOT
BRANCH   1   2
ATOM      2  C   UNL A   1      33.968  19.664  24.760  1.00  0.00     0.202 C 
BRANCH   2   3
ATOM      3  C   UNL A   1      32.506  20.111  24.572  1.00  0.00     0.261 C 
BRANCH   3   4
ATOM      4  O   UNL A   1      32.099  21.464  24.780  1.00  0.00    -0.462 OA
BRANCH   4   5
ATOM      5  C   UNL A   1      32.060  22.267  23.685  1.00  0.00     0.329 C 
ATOM      6  O   UNL A   1      31.610  21.944  22.590  1.00  0.00    -0.250 OA
BRANCH   5   7
ATOM      7  C   UNL A   1      32.666  23.654  23.967  1.00  0.00     0.195 C 
BRANCH   7   8
ATOM      8  C   UNL A   1      33.911  23.566  24.942  1.00  0.00     0.019 C 
ATOM      9  C   UNL A   1      35.164  24.206  24.320  1.00  0.00     0.010 C 
BRANCH   8  10
ATOM     10  C   UNL A   1      33.624  24.170  26.339  1.00  0.00     0.002 C 
ATOM     11  C   UNL A   1      32.402  25.069  26.463  1.00  0.00     0.004 C 
ENDBRANCH   8  10
ENDBRANCH   7   8
BRANCH   7  12
ATOM     12  N   UNL A   1      33.034  24.457  22.775  1.00  0.00    -0.337 N 
ATOM     13  C   UNL A   1      33.221  25.793  22.516  1.00  0.00     0.271 C 
ATOM     14  H   UNL A   1      33.177  23.898  21.977  1.00  0.00     0.164 HD
ATOM     15  O   UNL A   1      33.941  26.072  21.556  1.00  0.00    -0.267 OA
BRANCH  13  16
ATOM     16  C   UNL A   1      32.470  26.828  23.220  1.00  0.00     0.141 A 
ATOM     17  C   UNL A   1      33.086  27.743  24.059  1.00  0.00     0.102 A 
ATOM     18  N   UNL A   1      31.094  26.973  23.155  1.00  0.00    -0.215 NA
ATOM     19  S   UNL A   1      31.938  28.864  24.660  1.00  0.00    -0.104 S 
ATOM     20  C   UNL A   1      30.729  28.087  23.751  1.00  0.00     0.190 A 
BRANCH  20  21
ATOM     21  N   UNL A   1      29.482  28.620  23.527  1.00  0.00    -0.302 N 
ATOM     22  C   UNL A   1      29.076  29.331  22.421  1.00  0.00     0.223 C 
ATOM     23  H   UNL A   1      28.809  28.480  24.231  1.00  0.00     0.172 HD
ATOM     24  C   UNL A   1      27.586  29.589  22.392  1.00  0.00     0.114 C 
ATOM     25  O   UNL A   1      29.770  29.705  21.480  1.00  0.00    -0.275 OA
ENDBRANCH  20  21
ENDBRANCH  13  16
ENDBRANCH   7  12
ENDBRANCH   5   7
ENDBRANCH   4   5
ENDBRANCH   3   4
ENDBRANCH   2   3
ENDBRANCH   1   2
BRANCH   1  26
ATOM     26  C   UNL A   1      36.286  20.361  25.006  1.00  0.00     0.202 C 
BRANCH  26  27
ATOM     27  C   UNL A   1      37.338  21.195  25.746  1.00  0.00     0.261 C 
BRANCH  27  28
ATOM     28  O   UNL A   1      38.654  21.051  25.173  1.00  0.00    -0.460 OA
BRANCH  28  29
ATOM     29  C   UNL A   1      39.645  20.890  26.082  1.00  0.00     0.338 C 
ATOM     30  O   UNL A   1      40.351  19.896  26.228  1.00  0.00    -0.246 OA
BRANCH  29  31
ATOM     31  C   UNL A   1      39.944  22.160  26.763  1.00  0.00     0.060 A 
ATOM     32  C   UNL A   1      39.425  23.337  26.202  1.00  0.00     0.016 A 
ATOM     33  C   UNL A   1      40.815  22.217  27.851  1.00  0.00     0.016 A 
ATOM     34  C   UNL A   1      39.831  24.580  26.680  1.00  0.00     0.010 A 
ATOM     35  C   UNL A   1      41.239  23.469  28.316  1.00  0.00     0.010 A 
ATOM     36  C   UNL A   1      40.792  24.651  27.696  1.00  0.00    -0.014 A 
BRANCH  36  37
ATOM     37  C   UNL A   1      41.496  25.936  27.929  1.00  0.00     0.031 A 
ATOM     38  C   UNL A   1      40.766  27.025  28.670  1.00  0.00     0.074 A 
ATOM     39  C   UNL A   1      42.763  26.129  27.523  1.00  0.00     0.049 A 
ATOM     40  N   UNL A   1      41.170  28.228  28.988  1.00  0.00    -0.248 NA
ATOM     41  C   UNL A   1      39.397  26.716  29.117  1.00  0.00     0.031 C 
ATOM     42  C   UNL A   1      43.586  25.147  26.821  1.00  0.00     0.029 A 
ATOM     43  N   UNL A   1      43.572  27.232  27.633  1.00  0.00    -0.354 N 
ATOM     44  C   UNL A   1      40.099  28.827  29.640  1.00  0.00     0.074 A 
ATOM     45  C   UNL A   1      39.023  27.861  29.668  1.00  0.00     0.031 C 
ATOM     46  C   UNL A   1      44.777  25.703  26.536  1.00  0.00     0.029 A 
ATOM     47  C   UNL A   1      44.792  27.084  27.019  1.00  0.00     0.049 A 
ATOM     48  H   UNL A   1      43.302  28.052  28.108  1.00  0.00     0.167 HD
ATOM     49  C   UNL A   1      40.019  30.065  30.184  1.00  0.00     0.034 A 
ATOM     50  C   UNL A   1      45.797  27.968  26.851  1.00  0.00     0.034 A 
ATOM     51  C   UNL A   1      41.095  31.017  30.184  1.00  0.00     0.049 A 
ATOM     52  C   UNL A   1      45.672  29.351  27.438  1.00  0.00     0.074 A 
ATOM     53  C   UNL A   1      41.128  32.276  30.753  1.00  0.00     0.029 A 
ATOM     54  N   UNL A   1      42.325  30.819  29.576  1.00  0.00    -0.354 N 
ATOM     55  N   UNL A   1      44.699  29.861  28.154  1.00  0.00    -0.248 NA
ATOM     56  C   UNL A   1      46.798  30.271  27.220  1.00  0.00     0.031 C 
ATOM     57  C   UNL A   1      42.370  32.853  30.467  1.00  0.00     0.029 A 
ATOM     58  C   UNL A   1      43.120  31.940  29.741  1.00  0.00     0.049 A 
ATOM     59  H   UNL A   1      42.595  30.002  29.097  1.00  0.00     0.167 HD
ATOM     60  C   UNL A   1      45.111  31.144  28.504  1.00  0.00     0.074 A 
ATOM     61  C   UNL A   1      46.430  31.326  27.935  1.00  0.00     0.031 C 
ATOM     62  C   UNL A   1      44.453  32.090  29.219  1.00  0.00     0.034 A 
BRANCH  49  63
ATOM     63  C   UNL A   1      38.725  30.454  30.845  1.00  0.00     0.023 A 
ATOM     64  C   UNL A   1      38.516  30.148  32.205  1.00  0.00     0.012 A 
ATOM     65  C   UNL A   1      37.739  31.167  30.136  1.00  0.00     0.148 A 
ATOM     66  C   UNL A   1      37.333  30.521  32.842  1.00  0.00     0.002 A 
ATOM     67  C   UNL A   1      36.581  31.572  30.788  1.00  0.00     0.091 A 
ATOM     68  F   UNL A   1      37.946  31.423  28.836  1.00  0.00    -0.205 F 
ATOM     69  C   UNL A   1      36.371  31.241  32.137  1.00  0.00     0.022 A 
BRANCH  67  70
ATOM     70  S   UNL A   1      35.319  32.565  29.986  1.00  0.00     0.127 S 
ATOM     71  O   UNL A   1      34.845  31.655  28.943  1.00  0.00    -0.237 OA
ATOM     72  O   UNL A   1      34.366  32.794  31.074  1.00  0.00    -0.237 OA
ATOM     73  O   UNL A   1      35.995  33.764  29.510  1.00  0.00    -0.744 OA
ENDBRANCH  67  70
ENDBRANCH  49  63
BRANCH  50  74
ATOM     74  C   UNL A   1      47.030  27.563  26.120  1.00  0.00     0.023 A 
ATOM     75  C   UNL A   1      48.071  26.917  26.817  1.00  0.00     0.012 A 
ATOM     76  C   UNL A   1      47.174  27.805  24.740  1.00  0.00     0.148 A 
ATOM     77  C   UNL A   1      49.244  26.546  26.158  1.00  0.00     0.002 A 
ATOM     78  C   UNL A   1      48.322  27.384  24.079  1.00  0.00     0.091 A 
ATOM     79  F   UNL A   1      46.182  28.440  24.101  1.00  0.00    -0.205 F 
ATOM     80  C   UNL A   1      49.365  26.769  24.789  1.00  0.00     0.022 A 
BRANCH  78  81
ATOM     81  S   UNL A   1      48.509  27.521  22.298  1.00  0.00     0.127 S 
ATOM     82  O   UNL A   1      49.731  28.313  22.185  1.00  0.00    -0.237 OA
ATOM     83  O   UNL A   1      48.643  26.119  21.900  1.00  0.00    -0.237 OA
ATOM     84  O   UNL A   1      47.290  28.164  21.825  1.00  0.00    -0.744 OA
ENDBRANCH  78  81
ENDBRANCH  50  74
BRANCH  62  85
ATOM     85  C   UNL A   1      45.153  33.401  29.466  1.00  0.00     0.023 A 
ATOM     86  C   UNL A   1      45.942  33.566  30.621  1.00  0.00     0.012 A 
ATOM     87  C   UNL A   1      45.101  34.436  28.511  1.00  0.00     0.148 A 
ATOM     88  C   UNL A   1      46.642  34.753  30.838  1.00  0.00     0.002 A 
ATOM     89  C   UNL A   1      45.840  35.597  28.709  1.00  0.00     0.091 A 
ATOM     90  F   UNL A   1      44.332  34.267  27.425  1.00  0.00    -0.205 F 
ATOM     91  C   UNL A   1      46.602  35.762  29.877  1.00  0.00     0.022 A 
BRANCH  89  92
ATOM     92  S   UNL A   1      45.923  36.905  27.481  1.00  0.00     0.127 S 
ATOM     93  O   UNL A   1      45.924  36.144  26.233  1.00  0.00    -0.237 OA
ATOM     94  O   UNL A   1      44.691  37.653  27.737  1.00  0.00    -0.237 OA
ATOM     95  O   UNL A   1      47.146  37.644  27.766  1.00  0.00    -0.744 OA
ENDBRANCH  89  92
ENDBRANCH  62  85
ENDBRANCH  36  37
ENDBRANCH  29  31
ENDBRANCH  28  29
ENDBRANCH  27  28
ENDBRANCH  26  27
ENDBRANCH   1  26
TORSDOF 22
ENDMDL
MODEL 3
REMARK VINA RESULT:     -10.8      2.499      4.095
REMARK SMILES CC[C@H](C)[C@@H](NC(=O)c1csc(NC(C)=O)n1)C(=O)OCCOCCOC(=O)c1ccc(-c2c3nc(c(-c4cccc(S(=O)(=O)[O-])c4F)c4ccc([nH]4)c(-c4cccc(S(=O)(=O)[O-])c4F)c4nc(c(-c5cccc(S(=O)(=O)[O-])c5F)c5ccc2[nH]5)C=C4)C=C3)cc1
REMARK SMILES IDX 23 1 22 2 21 3 20 4 18 5 19 6 5 7 3 8 4 9 2 10 1 11 6 12
REMARK SMILES IDX 7 13 8 15 9 16 10 17 17 18 11 19 12 20 13 21 14 22 15 24
REMARK SMILES IDX 16 25 24 26 25 27 26 28 27 29 28 30 29 31 30 32 91 33 31 34
REMARK SMILES IDX 90 35 32 36 33 37 34 38 84 39 35 40 89 41 83 42 85 43 36 44
REMARK SMILES IDX 88 45 82 46 81 47 37 49 69 50 49 51 68 52 50 53 53 54 67 55
REMARK SMILES IDX 86 56 51 57 52 58 66 60 87 61 54 62 38 63 39 64 47 65 40 66
REMARK SMILES IDX 42 67 48 68 41 69 43 70 44 71 45 72 46 73 70 74 71 75 79 76
REMARK SMILES IDX 72 77 74 78 80 79 73 80 75 81 76 82 77 83 78 84 55 85 56 86
REMARK SMILES IDX 64 87 57 88 59 89 65 90 58 91 60 92 61 93 62 94 63 95
REMARK H PARENT 6 14 13 23 85 48 53 59
REMARK Flexibility Score: inf
ROOT
ATOM      1  O   UNL A   1      34.854  20.459  25.325  1.00  0.00    -0.374 OA
ENDROOT
BRANCH   1   2
ATOM      2  C   UNL A   1      34.007  19.525  24.681  1.00  0.00     0.202 C 
BRANCH   2   3
ATOM      3  C   UNL A   1      32.526  19.829  24.387  1.00  0.00     0.261 C 
BRANCH   3   4
ATOM      4  O   UNL A   1      32.025  21.166  24.337  1.00  0.00    -0.462 OA
BRANCH   4   5
ATOM      5  C   UNL A   1      31.991  21.762  23.117  1.00  0.00     0.329 C 
ATOM      6  O   UNL A   1      31.604  21.228  22.082  1.00  0.00    -0.250 OA
BRANCH   5   7
ATOM      7  C   UNL A   1      32.514  23.209  23.170  1.00  0.00     0.195 C 
BRANCH   7   8
ATOM      8  C   UNL A   1      33.927  23.301  23.880  1.00  0.00     0.019 C 
ATOM      9  C   UNL A   1      35.063  23.488  22.861  1.00  0.00     0.010 C 
BRANCH   8  10
ATOM     10  C   UNL A   1      33.982  24.401  24.969  1.00  0.00     0.002 C 
ATOM     11  C   UNL A   1      33.327  24.080  26.306  1.00  0.00     0.004 C 
ENDBRANCH   8  10
ENDBRANCH   7   8
BRANCH   7  12
ATOM     12  N   UNL A   1      32.571  23.927  21.873  1.00  0.00    -0.337 N 
ATOM     13  C   UNL A   1      32.757  25.232  21.485  1.00  0.00     0.271 C 
ATOM     14  H   UNL A   1      32.444  23.323  21.106  1.00  0.00     0.164 HD
ATOM     15  O   UNL A   1      33.186  25.410  20.344  1.00  0.00    -0.267 OA
BRANCH  13  16
ATOM     16  C   UNL A   1      32.306  26.353  22.304  1.00  0.00     0.141 A 
ATOM     17  C   UNL A   1      33.190  27.276  22.840  1.00  0.00     0.102 A 
ATOM     18  N   UNL A   1      30.985  26.580  22.654  1.00  0.00    -0.215 NA
ATOM     19  S   UNL A   1      32.332  28.501  23.677  1.00  0.00    -0.104 S 
ATOM     20  C   UNL A   1      30.870  27.748  23.246  1.00  0.00     0.190 A 
BRANCH  20  21
ATOM     21  N   UNL A   1      29.638  28.344  23.376  1.00  0.00    -0.302 N 
ATOM     22  C   UNL A   1      29.030  29.186  22.472  1.00  0.00     0.223 C 
ATOM     23  H   UNL A   1      29.139  28.150  24.202  1.00  0.00     0.172 HD
ATOM     24  C   UNL A   1      27.591  29.495  22.821  1.00  0.00     0.114 C 
ATOM     25  O   UNL A   1      29.509  29.636  21.436  1.00  0.00    -0.275 OA
ENDBRANCH  20  21
ENDBRANCH  13  16
ENDBRANCH   7  12
ENDBRANCH   5   7
ENDBRANCH   4   5
ENDBRANCH   3   4
ENDBRANCH   2   3
ENDBRANCH   1   2
BRANCH   1  26
ATOM     26  C   UNL A   1      36.227  20.483  24.950  1.00  0.00     0.202 C 
BRANCH  26  27
ATOM     27  C   UNL A   1      37.176  21.404  25.725  1.00  0.00     0.261 C 
BRANCH  27  28
ATOM     28  O   UNL A   1      38.497  21.441  25.148  1.00  0.00    -0.460 OA
BRANCH  28  29
ATOM     29  C   UNL A   1      39.500  21.242  26.035  1.00  0.00     0.338 C 
ATOM     30  O   UNL A   1      40.236  20.260  26.101  1.00  0.00    -0.246 OA
BRANCH  29  31
ATOM     31  C   UNL A   1      39.770  22.465  26.807  1.00  0.00     0.060 A 
ATOM     32  C   UNL A   1      39.053  23.622  26.464  1.00  0.00     0.016 A 
ATOM     33  C   UNL A   1      40.788  22.518  27.758  1.00  0.00     0.016 A 
ATOM     34  C   UNL A   1      39.398  24.851  27.018  1.00  0.00     0.010 A 
ATOM     35  C   UNL A   1      41.149  23.760  28.299  1.00  0.00     0.010 A 
ATOM     36  C   UNL A   1      40.493  24.935  27.888  1.00  0.00    -0.014 A 
BRANCH  36  37
ATOM     37  C   UNL A   1      41.088  26.266  28.164  1.00  0.00     0.031 A 
ATOM     38  C   UNL A   1      42.483  26.541  27.666  1.00  0.00     0.074 A 
ATOM     39  C   UNL A   1      40.403  27.224  28.813  1.00  0.00     0.049 A 
ATOM     40  N   UNL A   1      43.211  27.620  27.788  1.00  0.00    -0.248 NA
ATOM     41  C   UNL A   1      43.146  25.452  26.928  1.00  0.00     0.031 C 
ATOM     42  C   UNL A   1      39.040  27.093  29.321  1.00  0.00     0.029 A 
ATOM     43  N   UNL A   1      40.777  28.496  29.168  1.00  0.00    -0.354 N 
ATOM     44  C   UNL A   1      44.423  27.331  27.173  1.00  0.00     0.074 A 
ATOM     45  C   UNL A   1      44.339  25.973  26.684  1.00  0.00     0.031 C 
ATOM     46  C   UNL A   1      38.700  28.232  29.950  1.00  0.00     0.029 A 
ATOM     47  C   UNL A   1      39.828  29.162  29.905  1.00  0.00     0.049 A 
ATOM     48  H   UNL A   1      41.643  28.892  28.918  1.00  0.00     0.167 HD
ATOM     49  C   UNL A   1      45.506  28.128  27.012  1.00  0.00     0.034 A 
ATOM     50  C   UNL A   1      39.873  30.378  30.489  1.00  0.00     0.034 A 
ATOM     51  C   UNL A   1      45.583  29.487  27.470  1.00  0.00     0.049 A 
ATOM     52  C   UNL A   1      41.103  31.234  30.323  1.00  0.00     0.074 A 
ATOM     53  C   UNL A   1      46.617  30.391  27.311  1.00  0.00     0.029 A 
ATOM     54  N   UNL A   1      44.591  30.136  28.188  1.00  0.00    -0.354 N 
ATOM     55  N   UNL A   1      42.194  30.991  29.638  1.00  0.00    -0.248 NA
ATOM     56  C   UNL A   1      41.094  32.547  30.986  1.00  0.00     0.031 C 
ATOM     57  C   UNL A   1      46.262  31.581  27.955  1.00  0.00     0.029 A 
ATOM     58  C   UNL A   1      44.994  31.424  28.494  1.00  0.00     0.049 A 
ATOM     59  H   UNL A   1      43.726  29.740  28.443  1.00  0.00     0.167 HD
ATOM     60  C   UNL A   1      42.983  32.131  29.754  1.00  0.00     0.074 A 
ATOM     61  C   UNL A   1      42.236  33.073  30.562  1.00  0.00     0.031 C 
ATOM     62  C   UNL A   1      44.219  32.373  29.250  1.00  0.00     0.034 A 
BRANCH  49  63
ATOM     63  C   UNL A   1      46.694  27.553  26.289  1.00  0.00     0.023 A 
ATOM     64  C   UNL A   1      46.817  27.731  24.897  1.00  0.00     0.012 A 
ATOM     65  C   UNL A   1      47.712  26.883  26.995  1.00  0.00     0.148 A 
ATOM     66  C   UNL A   1      47.923  27.226  24.213  1.00  0.00     0.002 A 
ATOM     67  C   UNL A   1      48.830  26.418  26.314  1.00  0.00     0.091 A 
ATOM     68  F   UNL A   1      47.561  26.700  28.315  1.00  0.00    -0.205 F 
ATOM     69  C   UNL A   1      48.933  26.580  24.922  1.00  0.00     0.022 A 
BRANCH  67  70
ATOM     70  S   UNL A   1      50.215  25.640  27.149  1.00  0.00     0.127 S 
ATOM     71  O   UNL A   1      50.532  26.629  28.179  1.00  0.00    -0.237 OA
ATOM     72  O   UNL A   1      49.616  24.403  27.655  1.00  0.00    -0.237 OA
ATOM     73  O   UNL A   1      51.239  25.444  26.132  1.00  0.00    -0.744 OA
ENDBRANCH  67  70
ENDBRANCH  49  63
BRANCH  50  74
ATOM     74  C   UNL A   1      38.701  30.875  31.262  1.00  0.00     0.023 A 
ATOM     75  C   UNL A   1      38.672  30.715  32.661  1.00  0.00     0.012 A 
ATOM     76  C   UNL A   1      37.621  31.513  30.621  1.00  0.00     0.148 A 
ATOM     77  C   UNL A   1      37.576  31.155  33.404  1.00  0.00     0.002 A 
ATOM     78  C   UNL A   1      36.558  31.998  31.373  1.00  0.00     0.091 A 
ATOM     79  F   UNL A   1      37.658  31.636  29.287  1.00  0.00    -0.205 F 
ATOM     80  C   UNL A   1      36.525  31.805  32.763  1.00  0.00     0.022 A 
BRANCH  78  81
ATOM     81  S   UNL A   1      35.223  32.954  30.645  1.00  0.00     0.127 S 
ATOM     82  O   UNL A   1      35.935  34.127  30.143  1.00  0.00    -0.237 OA
ATOM     83  O   UNL A   1      34.728  32.044  29.611  1.00  0.00    -0.237 OA
ATOM     84  O   UNL A   1      34.281  33.200  31.728  1.00  0.00    -0.744 OA
ENDBRANCH  78  81
ENDBRANCH  50  74
BRANCH  62  85
ATOM     85  C   UNL A   1      44.840  33.720  29.520  1.00  0.00     0.023 A 
ATOM     86  C   UNL A   1      44.573  34.798  28.654  1.00  0.00     0.012 A 
ATOM     87  C   UNL A   1      45.612  33.938  30.678  1.00  0.00     0.148 A 
ATOM     88  C   UNL A   1      45.093  36.065  28.919  1.00  0.00     0.002 A 
ATOM     89  C   UNL A   1      46.087  35.213  30.962  1.00  0.00     0.091 A 
ATOM     90  F   UNL A   1      45.868  32.895  31.482  1.00  0.00    -0.205 F 
ATOM     91  C   UNL A   1      45.838  36.276  30.078  1.00  0.00     0.022 A 
BRANCH  89  92
ATOM     92  S   UNL A   1      46.970  35.595  32.479  1.00  0.00     0.127 S 
ATOM     93  O   UNL A   1      48.323  35.142  32.159  1.00  0.00    -0.237 OA
ATOM     94  O   UNL A   1      46.820  37.048  32.570  1.00  0.00    -0.237 OA
ATOM     95  O   UNL A   1      46.294  34.853  33.534  1.00  0.00    -0.744 OA
ENDBRANCH  89  92
ENDBRANCH  62  85
ENDBRANCH  36  37
ENDBRANCH  29  31
ENDBRANCH  28  29
ENDBRANCH  27  28
ENDBRANCH  26  27
ENDBRANCH   1  26
TORSDOF 22
ENDMDL
