MODEL 1
REMARK VINA RESULT:      -8.8      0.000      0.000
REMARK SMILES Cc1cc(Br)cc([N+](=O)[O-])c1OCCC(=O)OCCOCCOC(=O)c1ccc(-c2c3nc(c(-c4cccc(S(=O)(=O)[O-])c4F)c4ccc([nH]4)c(-c4cccc(S(=O)(=O)[O-])c4F)c4nc(c(-c5cccc(S(=O)(=O)[O-])c5F)c5ccc2[nH]5)C=C4)C=C3)cc1
REMARK SMILES IDX 19 1 18 2 17 3 15 4 16 5 14 6 13 7 12 8 11 9 1 10 2 11 3 12
REMARK SMILES IDX 4 13 7 14 5 15 6 16 8 17 9 18 10 19 20 20 21 21 22 22 23 23
REMARK SMILES IDX 24 24 25 25 26 26 27 27 88 28 28 29 87 30 29 31 30 32 31 33
REMARK SMILES IDX 81 34 32 35 86 36 80 37 82 38 33 39 85 40 79 41 78 42 34 44
REMARK SMILES IDX 66 45 46 46 65 47 47 48 50 49 64 50 83 51 48 52 49 53 63 55
REMARK SMILES IDX 84 56 51 57 35 58 36 59 44 60 37 61 39 62 45 63 38 64 40 65
REMARK SMILES IDX 41 66 42 67 43 68 67 69 68 70 76 71 69 72 71 73 77 74 70 75
REMARK SMILES IDX 72 76 73 77 74 78 75 79 52 80 53 81 61 82 54 83 56 84 62 85
REMARK SMILES IDX 55 86 57 87 58 88 59 89 60 90
REMARK H PARENT 82 43 50 54
REMARK Flexibility Score: inf
ROOT
ATOM      1  C   UNL A   1      33.015  36.056  30.799  1.00  0.00     0.202 C 
ENDROOT
BRANCH   1   2
ATOM      2  C   UNL A   1      33.738  35.553  32.078  1.00  0.00     0.261 C 
BRANCH   2   3
ATOM      3  O   UNL A   1      33.914  34.110  32.163  1.00  0.00    -0.463 OA
BRANCH   3   4
ATOM      4  C   UNL A   1      35.183  33.622  32.289  1.00  0.00     0.309 C 
ATOM      5  O   UNL A   1      36.026  33.675  31.401  1.00  0.00    -0.252 OA
BRANCH   4   6
ATOM      6  C   UNL A   1      35.429  32.893  33.616  1.00  0.00     0.164 C 
BRANCH   6   7
ATOM      7  C   UNL A   1      36.465  33.496  34.587  1.00  0.00     0.241 C 
BRANCH   7   8
ATOM      8  O   UNL A   1      37.854  33.070  34.470  1.00  0.00    -0.486 OA
BRANCH   8   9
ATOM      9  C   UNL A   1      38.658  33.306  35.549  1.00  0.00     0.200 A 
ATOM     10  C   UNL A   1      40.339  34.619  34.226  1.00  0.00     0.049 C 
ATOM     11  C   UNL A   1      39.633  34.282  35.504  1.00  0.00    -0.001 A 
ATOM     12  C   UNL A   1      39.859  34.978  36.688  1.00  0.00     0.023 A 
ATOM     13  C   UNL A   1      39.234  34.624  37.880  1.00  0.00     0.025 A 
ATOM     14  C   UNL A   1      38.398  32.694  36.782  1.00  0.00     0.312 A 
ATOM     15  Br  UNL A   1      39.169  35.874  39.293  1.00  0.00    -0.051 Br
ATOM     16  C   UNL A   1      38.634  33.386  37.974  1.00  0.00     0.105 A 
BRANCH  14  17
ATOM     17  N   UNL A   1      38.119  31.259  36.842  1.00  0.00     0.066 N 
ATOM     18  O   UNL A   1      38.649  30.552  35.974  1.00  0.00    -0.258 OA
ATOM     19  O   UNL A   1      37.303  30.846  37.676  1.00  0.00    -0.258 OA
ENDBRANCH  14  17
ENDBRANCH   8   9
ENDBRANCH   7   8
ENDBRANCH   6   7
ENDBRANCH   4   6
ENDBRANCH   3   4
ENDBRANCH   2   3
ENDBRANCH   1   2
BRANCH   1  20
ATOM     20  O   UNL A   1      32.687  35.051  29.828  1.00  0.00    -0.374 OA
BRANCH  20  21
ATOM     21  C   UNL A   1      33.492  35.031  28.653  1.00  0.00     0.202 C 
BRANCH  21  22
ATOM     22  C   UNL A   1      33.623  33.641  28.002  1.00  0.00     0.261 C 
BRANCH  22  23
ATOM     23  O   UNL A   1      34.471  32.767  28.783  1.00  0.00    -0.460 OA
BRANCH  23  24
ATOM     24  C   UNL A   1      34.811  31.579  28.231  1.00  0.00     0.338 C 
ATOM     25  O   UNL A   1      34.289  31.064  27.254  1.00  0.00    -0.246 OA
BRANCH  24  26
ATOM     26  C   UNL A   1      36.032  31.024  28.877  1.00  0.00     0.060 A 
ATOM     27  C   UNL A   1      37.203  31.777  28.750  1.00  0.00     0.016 A 
ATOM     28  C   UNL A   1      36.070  29.803  29.566  1.00  0.00     0.016 A 
ATOM     29  C   UNL A   1      38.410  31.311  29.279  1.00  0.00     0.010 A 
ATOM     30  C   UNL A   1      37.287  29.337  30.106  1.00  0.00     0.010 A 
ATOM     31  C   UNL A   1      38.474  30.075  29.939  1.00  0.00    -0.014 A 
BRANCH  31  32
ATOM     32  C   UNL A   1      39.823  29.514  30.243  1.00  0.00     0.031 A 
ATOM     33  C   UNL A   1      40.536  30.007  31.472  1.00  0.00     0.074 A 
ATOM     34  C   UNL A   1      40.372  28.510  29.532  1.00  0.00     0.049 A 
ATOM     35  N   UNL A   1      41.614  29.540  32.046  1.00  0.00    -0.248 NA
ATOM     36  C   UNL A   1      39.944  31.169  32.153  1.00  0.00     0.031 C 
ATOM     37  C   UNL A   1      39.800  27.924  28.329  1.00  0.00     0.029 A 
ATOM     38  N   UNL A   1      41.532  27.794  29.720  1.00  0.00    -0.354 N 
ATOM     39  C   UNL A   1      41.828  30.346  33.156  1.00  0.00     0.074 A 
ATOM     40  C   UNL A   1      40.785  31.349  33.158  1.00  0.00     0.031 C 
ATOM     41  C   UNL A   1      40.599  26.943  27.878  1.00  0.00     0.029 A 
ATOM     42  C   UNL A   1      41.759  26.834  28.758  1.00  0.00     0.049 A 
ATOM     43  H   UNL A   1      42.145  27.954  30.474  1.00  0.00     0.167 HD
ATOM     44  C   UNL A   1      42.789  30.250  34.103  1.00  0.00     0.034 A 
ATOM     45  C   UNL A   1      42.779  25.967  28.597  1.00  0.00     0.034 A 
ATOM     46  C   UNL A   1      43.838  29.270  34.100  1.00  0.00     0.049 A 
ATOM     47  C   UNL A   1      43.873  25.921  29.632  1.00  0.00     0.074 A 
ATOM     48  C   UNL A   1      44.843  29.084  35.033  1.00  0.00     0.029 A 
ATOM     49  N   UNL A   1      44.040  28.328  33.102  1.00  0.00    -0.354 N 
ATOM     50  N   UNL A   1      43.976  26.595  30.753  1.00  0.00    -0.248 NA
ATOM     51  C   UNL A   1      44.971  24.969  29.403  1.00  0.00     0.031 C 
ATOM     52  C   UNL A   1      45.676  28.056  34.578  1.00  0.00     0.029 A 
ATOM     53  C   UNL A   1      45.166  27.575  33.383  1.00  0.00     0.049 A 
ATOM     54  H   UNL A   1      43.467  28.214  32.310  1.00  0.00     0.167 HD
ATOM     55  C   UNL A   1      45.125  26.122  31.378  1.00  0.00     0.074 A 
ATOM     56  C   UNL A   1      45.674  25.091  30.522  1.00  0.00     0.031 C 
ATOM     57  C   UNL A   1      45.680  26.516  32.551  1.00  0.00     0.034 A 
BRANCH  44  58
ATOM     58  C   UNL A   1      42.736  31.244  35.231  1.00  0.00     0.023 A 
ATOM     59  C   UNL A   1      42.028  30.928  36.408  1.00  0.00     0.012 A 
ATOM     60  C   UNL A   1      43.396  32.483  35.130  1.00  0.00     0.148 A 
ATOM     61  C   UNL A   1      41.944  31.846  37.454  1.00  0.00     0.002 A 
ATOM     62  C   UNL A   1      43.344  33.376  36.193  1.00  0.00     0.091 A 
ATOM     63  F   UNL A   1      44.040  32.774  33.991  1.00  0.00    -0.205 F 
ATOM     64  C   UNL A   1      42.609  33.064  37.349  1.00  0.00     0.022 A 
BRANCH  62  65
ATOM     65  S   UNL A   1      44.222  34.941  36.183  1.00  0.00     0.127 S 
ATOM     66  O   UNL A   1      43.482  35.687  35.166  1.00  0.00    -0.237 OA
ATOM     67  O   UNL A   1      44.022  35.414  37.553  1.00  0.00    -0.237 OA
ATOM     68  O   UNL A   1      45.603  34.625  35.846  1.00  0.00    -0.744 OA
ENDBRANCH  62  65
ENDBRANCH  44  58
BRANCH  45  69
ATOM     69  C   UNL A   1      42.804  25.036  27.428  1.00  0.00     0.023 A 
ATOM     70  C   UNL A   1      43.415  25.437  26.224  1.00  0.00     0.012 A 
ATOM     71  C   UNL A   1      42.215  23.758  27.503  1.00  0.00     0.148 A 
ATOM     72  C   UNL A   1      43.408  24.598  25.107  1.00  0.00     0.002 A 
ATOM     73  C   UNL A   1      42.259  22.907  26.405  1.00  0.00     0.091 A 
ATOM     74  F   UNL A   1      41.625  23.399  28.652  1.00  0.00    -0.205 F 
ATOM     75  C   UNL A   1      42.838  23.332  25.199  1.00  0.00     0.022 A 
BRANCH  73  76
ATOM     76  S   UNL A   1      41.657  21.215  26.466  1.00  0.00     0.127 S 
ATOM     77  O   UNL A   1      40.227  21.397  26.235  1.00  0.00    -0.237 OA
ATOM     78  O   UNL A   1      42.387  20.599  25.357  1.00  0.00    -0.237 OA
ATOM     79  O   UNL A   1      42.026  20.712  27.781  1.00  0.00    -0.744 OA
ENDBRANCH  73  76
ENDBRANCH  45  69
BRANCH  57  80
ATOM     80  C   UNL A   1      46.931  25.810  33.012  1.00  0.00     0.023 A 
ATOM     81  C   UNL A   1      48.196  26.327  32.672  1.00  0.00     0.012 A 
ATOM     82  C   UNL A   1      46.848  24.685  33.857  1.00  0.00     0.148 A 
ATOM     83  C   UNL A   1      49.360  25.715  33.138  1.00  0.00     0.002 A 
ATOM     84  C   UNL A   1      48.010  24.113  34.361  1.00  0.00     0.091 A 
ATOM     85  F   UNL A   1      45.635  24.197  34.156  1.00  0.00    -0.205 F 
ATOM     86  C   UNL A   1      49.267  24.619  33.993  1.00  0.00     0.022 A 
BRANCH  84  87
ATOM     87  S   UNL A   1      47.985  22.764  35.547  1.00  0.00     0.127 S 
ATOM     88  O   UNL A   1      49.379  22.724  35.982  1.00  0.00    -0.237 OA
ATOM     89  O   UNL A   1      47.045  23.254  36.555  1.00  0.00    -0.237 OA
ATOM     90  O   UNL A   1      47.526  21.592  34.812  1.00  0.00    -0.744 OA
ENDBRANCH  84  87
ENDBRANCH  57  80
ENDBRANCH  31  32
ENDBRANCH  24  26
ENDBRANCH  23  24
ENDBRANCH  22  23
ENDBRANCH  21  22
ENDBRANCH  20  21
ENDBRANCH   1  20
TORSDOF 21
ENDMDL
MODEL 2
REMARK VINA RESULT:      -8.1      6.135     12.003
REMARK SMILES Cc1cc(Br)cc([N+](=O)[O-])c1OCCC(=O)OCCOCCOC(=O)c1ccc(-c2c3nc(c(-c4cccc(S(=O)(=O)[O-])c4F)c4ccc([nH]4)c(-c4cccc(S(=O)(=O)[O-])c4F)c4nc(c(-c5cccc(S(=O)(=O)[O-])c5F)c5ccc2[nH]5)C=C4)C=C3)cc1
REMARK SMILES IDX 19 1 18 2 17 3 15 4 16 5 14 6 13 7 12 8 11 9 1 10 2 11 3 12
REMARK SMILES IDX 4 13 7 14 5 15 6 16 8 17 9 18 10 19 20 20 21 21 22 22 23 23
REMARK SMILES IDX 24 24 25 25 26 26 27 27 88 28 28 29 87 30 29 31 30 32 31 33
REMARK SMILES IDX 81 34 32 35 86 36 80 37 82 38 33 39 85 40 79 41 78 42 34 44
REMARK SMILES IDX 66 45 46 46 65 47 47 48 50 49 64 50 83 51 48 52 49 53 63 55
REMARK SMILES IDX 84 56 51 57 35 58 36 59 44 60 37 61 39 62 45 63 38 64 40 65
REMARK SMILES IDX 41 66 42 67 43 68 67 69 68 70 76 71 69 72 71 73 77 74 70 75
REMARK SMILES IDX 72 76 73 77 74 78 75 79 52 80 53 81 61 82 54 83 56 84 62 85
REMARK SMILES IDX 55 86 57 87 58 88 59 89 60 90
REMARK H PARENT 82 43 50 54
REMARK Flexibility Score: inf
ROOT
ATOM      1  C   UNL A   1      34.138  21.607  26.375  1.00  0.00     0.202 C 
ENDROOT
BRANCH   1   2
ATOM      2  C   UNL A   1      33.601  23.045  26.604  1.00  0.00     0.261 C 
BRANCH   2   3
ATOM      3  O   UNL A   1      32.733  23.557  25.553  1.00  0.00    -0.463 OA
BRANCH   3   4
ATOM      4  C   UNL A   1      31.396  23.293  25.635  1.00  0.00     0.309 C 
ATOM      5  O   UNL A   1      30.921  22.162  25.626  1.00  0.00    -0.252 OA
BRANCH   4   6
ATOM      6  C   UNL A   1      30.522  24.553  25.627  1.00  0.00     0.164 C 
BRANCH   6   7
ATOM      7  C   UNL A   1      31.016  25.777  26.425  1.00  0.00     0.241 C 
BRANCH   7   8
ATOM      8  O   UNL A   1      30.913  27.094  25.810  1.00  0.00    -0.486 OA
BRANCH   8   9
ATOM      9  C   UNL A   1      31.529  27.253  24.601  1.00  0.00     0.200 A 
ATOM     10  C   UNL A   1      33.833  27.325  25.590  1.00  0.00     0.049 C 
ATOM     11  C   UNL A   1      32.885  27.042  24.465  1.00  0.00    -0.001 A 
ATOM     12  C   UNL A   1      33.302  26.481  23.261  1.00  0.00     0.023 A 
ATOM     13  C   UNL A   1      32.421  26.269  22.205  1.00  0.00     0.025 A 
ATOM     14  C   UNL A   1      30.775  27.456  23.437  1.00  0.00     0.312 A 
ATOM     15  Br  UNL A   1      32.902  25.067  20.831  1.00  0.00    -0.051 Br
ATOM     16  C   UNL A   1      31.196  26.904  22.222  1.00  0.00     0.105 A 
BRANCH  14  17
ATOM     17  N   UNL A   1      29.693  28.440  23.427  1.00  0.00     0.066 N 
ATOM     18  O   UNL A   1      28.546  28.004  23.261  1.00  0.00    -0.258 OA
ATOM     19  O   UNL A   1      29.983  29.642  23.479  1.00  0.00    -0.258 OA
ENDBRANCH  14  17
ENDBRANCH   8   9
ENDBRANCH   7   8
ENDBRANCH   6   7
ENDBRANCH   4   6
ENDBRANCH   3   4
ENDBRANCH   2   3
ENDBRANCH   1   2
BRANCH   1  20
ATOM     20  O   UNL A   1      35.363  21.505  25.635  1.00  0.00    -0.374 OA
BRANCH  20  21
ATOM     21  C   UNL A   1      36.148  22.692  25.559  1.00  0.00     0.202 C 
BRANCH  21  22
ATOM     22  C   UNL A   1      37.627  22.449  25.201  1.00  0.00     0.261 C 
BRANCH  22  23
ATOM     23  O   UNL A   1      38.415  22.155  26.378  1.00  0.00    -0.460 OA
BRANCH  23  24
ATOM     24  C   UNL A   1      39.689  22.610  26.399  1.00  0.00     0.338 C 
ATOM     25  O   UNL A   1      40.654  22.071  25.880  1.00  0.00    -0.246 OA
BRANCH  24  26
ATOM     26  C   UNL A   1      39.759  23.963  27.016  1.00  0.00     0.060 A 
ATOM     27  C   UNL A   1      40.076  25.023  26.161  1.00  0.00     0.016 A 
ATOM     28  C   UNL A   1      39.553  24.217  28.380  1.00  0.00     0.016 A 
ATOM     29  C   UNL A   1      40.215  26.322  26.659  1.00  0.00     0.010 A 
ATOM     30  C   UNL A   1      39.686  25.529  28.880  1.00  0.00     0.010 A 
ATOM     31  C   UNL A   1      40.049  26.588  28.025  1.00  0.00    -0.014 A 
BRANCH  31  32
ATOM     32  C   UNL A   1      40.467  27.927  28.534  1.00  0.00     0.031 A 
ATOM     33  C   UNL A   1      41.926  28.286  28.468  1.00  0.00     0.074 A 
ATOM     34  C   UNL A   1      39.585  28.862  28.939  1.00  0.00     0.049 A 
ATOM     35  N   UNL A   1      42.503  29.443  28.665  1.00  0.00    -0.248 NA
ATOM     36  C   UNL A   1      42.855  27.201  28.114  1.00  0.00     0.031 C 
ATOM     37  C   UNL A   1      38.148  28.666  29.049  1.00  0.00     0.029 A 
ATOM     38  N   UNL A   1      39.764  30.170  29.328  1.00  0.00    -0.354 N 
ATOM     39  C   UNL A   1      43.858  29.228  28.456  1.00  0.00     0.074 A 
ATOM     40  C   UNL A   1      44.022  27.824  28.147  1.00  0.00     0.031 C 
ATOM     41  C   UNL A   1      37.567  29.800  29.475  1.00  0.00     0.029 A 
ATOM     42  C   UNL A   1      38.598  30.811  29.685  1.00  0.00     0.049 A 
ATOM     43  H   UNL A   1      40.647  30.607  29.350  1.00  0.00     0.167 HD
ATOM     44  C   UNL A   1      44.876  30.119  28.494  1.00  0.00     0.034 A 
ATOM     45  C   UNL A   1      38.380  32.065  30.131  1.00  0.00     0.034 A 
ATOM     46  C   UNL A   1      44.726  31.510  28.818  1.00  0.00     0.049 A 
ATOM     47  C   UNL A   1      39.539  33.022  30.226  1.00  0.00     0.074 A 
ATOM     48  C   UNL A   1      45.700  32.492  28.859  1.00  0.00     0.029 A 
ATOM     49  N   UNL A   1      43.534  32.114  29.187  1.00  0.00    -0.354 N 
ATOM     50  N   UNL A   1      40.791  32.837  29.882  1.00  0.00    -0.248 NA
ATOM     51  C   UNL A   1      39.251  34.373  30.732  1.00  0.00     0.031 C 
ATOM     52  C   UNL A   1      45.104  33.681  29.291  1.00  0.00     0.029 A 
ATOM     53  C   UNL A   1      43.751  33.449  29.481  1.00  0.00     0.049 A 
ATOM     54  H   UNL A   1      42.662  31.660  29.234  1.00  0.00     0.167 HD
ATOM     55  C   UNL A   1      41.430  34.055  30.094  1.00  0.00     0.074 A 
ATOM     56  C   UNL A   1      40.423  34.977  30.577  1.00  0.00     0.031 C 
ATOM     57  C   UNL A   1      42.735  34.375  29.914  1.00  0.00     0.034 A 
BRANCH  44  58
ATOM     58  C   UNL A   1      46.249  29.599  28.168  1.00  0.00     0.023 A 
ATOM     59  C   UNL A   1      46.669  29.531  26.825  1.00  0.00     0.012 A 
ATOM     60  C   UNL A   1      47.125  29.191  29.191  1.00  0.00     0.148 A 
ATOM     61  C   UNL A   1      47.928  29.027  26.500  1.00  0.00     0.002 A 
ATOM     62  C   UNL A   1      48.395  28.731  28.863  1.00  0.00     0.091 A 
ATOM     63  F   UNL A   1      46.695  29.240  30.460  1.00  0.00    -0.205 F 
ATOM     64  C   UNL A   1      48.792  28.636  27.519  1.00  0.00     0.022 A 
BRANCH  62  65
ATOM     65  S   UNL A   1      49.604  28.267  30.106  1.00  0.00     0.127 S 
ATOM     66  O   UNL A   1      48.951  27.123  30.739  1.00  0.00    -0.237 OA
ATOM     67  O   UNL A   1      50.769  27.929  29.288  1.00  0.00    -0.237 OA
ATOM     68  O   UNL A   1      49.777  29.437  30.954  1.00  0.00    -0.744 OA
ENDBRANCH  62  65
ENDBRANCH  44  58
BRANCH  45  69
ATOM     69  C   UNL A   1      36.999  32.512  30.488  1.00  0.00     0.023 A 
ATOM     70  C   UNL A   1      36.532  32.361  31.808  1.00  0.00     0.012 A 
ATOM     71  C   UNL A   1      36.143  33.075  29.520  1.00  0.00     0.148 A 
ATOM     72  C   UNL A   1      35.229  32.730  32.149  1.00  0.00     0.002 A 
ATOM     73  C   UNL A   1      34.866  33.490  29.879  1.00  0.00     0.091 A 
ATOM     74  F   UNL A   1      36.599  33.196  28.265  1.00  0.00    -0.205 F 
ATOM     75  C   UNL A   1      34.399  33.302  31.189  1.00  0.00     0.022 A 
BRANCH  73  76
ATOM     76  S   UNL A   1      33.770  34.344  28.741  1.00  0.00     0.127 S 
ATOM     77  O   UNL A   1      33.330  33.255  27.873  1.00  0.00    -0.237 OA
ATOM     78  O   UNL A   1      32.744  34.863  29.647  1.00  0.00    -0.237 OA
ATOM     79  O   UNL A   1      34.583  35.370  28.104  1.00  0.00    -0.744 OA
ENDBRANCH  73  76
ENDBRANCH  45  69
BRANCH  57  80
ATOM     80  C   UNL A   1      43.160  35.793  30.202  1.00  0.00     0.023 A 
ATOM     81  C   UNL A   1      43.696  36.125  31.461  1.00  0.00     0.012 A 
ATOM     82  C   UNL A   1      43.109  36.775  29.192  1.00  0.00     0.148 A 
ATOM     83  C   UNL A   1      44.144  37.421  31.721  1.00  0.00     0.002 A 
ATOM     84  C   UNL A   1      43.605  38.049  29.441  1.00  0.00     0.091 A 
ATOM     85  F   UNL A   1      42.578  36.445  28.005  1.00  0.00    -0.205 F 
ATOM     86  C   UNL A   1      44.112  38.376  30.709  1.00  0.00     0.022 A 
BRANCH  84  87
ATOM     87  S   UNL A   1      43.698  39.314  28.169  1.00  0.00     0.127 S 
ATOM     88  O   UNL A   1      42.379  39.934  28.268  1.00  0.00    -0.237 OA
ATOM     89  O   UNL A   1      44.802  40.149  28.643  1.00  0.00    -0.237 OA
ATOM     90  O   UNL A   1      43.966  38.611  26.921  1.00  0.00    -0.744 OA
ENDBRANCH  84  87
ENDBRANCH  57  80
ENDBRANCH  31  32
ENDBRANCH  24  26
ENDBRANCH  23  24
ENDBRANCH  22  23
ENDBRANCH  21  22
ENDBRANCH  20  21
ENDBRANCH   1  20
TORSDOF 21
ENDMDL
MODEL 3
REMARK VINA RESULT:      -8.0      4.306      7.417
REMARK SMILES Cc1cc(Br)cc([N+](=O)[O-])c1OCCC(=O)OCCOCCOC(=O)c1ccc(-c2c3nc(c(-c4cccc(S(=O)(=O)[O-])c4F)c4ccc([nH]4)c(-c4cccc(S(=O)(=O)[O-])c4F)c4nc(c(-c5cccc(S(=O)(=O)[O-])c5F)c5ccc2[nH]5)C=C4)C=C3)cc1
REMARK SMILES IDX 19 1 18 2 17 3 15 4 16 5 14 6 13 7 12 8 11 9 1 10 2 11 3 12
REMARK SMILES IDX 4 13 7 14 5 15 6 16 8 17 9 18 10 19 20 20 21 21 22 22 23 23
REMARK SMILES IDX 24 24 25 25 26 26 27 27 88 28 28 29 87 30 29 31 30 32 31 33
REMARK SMILES IDX 81 34 32 35 86 36 80 37 82 38 33 39 85 40 79 41 78 42 34 44
REMARK SMILES IDX 66 45 46 46 65 47 47 48 50 49 64 50 83 51 48 52 49 53 63 55
REMARK SMILES IDX 84 56 51 57 35 58 36 59 44 60 37 61 39 62 45 63 38 64 40 65
REMARK SMILES IDX 41 66 42 67 43 68 67 69 68 70 76 71 69 72 71 73 77 74 70 75
REMARK SMILES IDX 72 76 73 77 74 78 75 79 52 80 53 81 61 82 54 83 56 84 62 85
REMARK SMILES IDX 55 86 57 87 58 88 59 89 60 90
REMARK H PARENT 82 43 50 54
REMARK Flexibility Score: inf
ROOT
ATOM      1  C   UNL A   1      34.865  33.489  28.339  1.00  0.00     0.202 C 
ENDROOT
BRANCH   1   2
ATOM      2  C   UNL A   1      34.020  32.194  28.203  1.00  0.00     0.261 C 
BRANCH   2   3
ATOM      3  O   UNL A   1      34.451  31.281  27.154  1.00  0.00    -0.463 OA
BRANCH   3   4
ATOM      4  C   UNL A   1      33.758  30.116  26.989  1.00  0.00     0.309 C 
ATOM      5  O   UNL A   1      34.289  29.022  26.833  1.00  0.00    -0.252 OA
BRANCH   4   6
ATOM      6  C   UNL A   1      32.240  30.314  26.901  1.00  0.00     0.164 C 
BRANCH   6   7
ATOM      7  C   UNL A   1      31.510  29.751  25.664  1.00  0.00     0.241 C 
BRANCH   7   8
ATOM      8  O   UNL A   1      32.218  29.733  24.390  1.00  0.00    -0.486 OA
BRANCH   8   9
ATOM      9  C   UNL A   1      31.951  28.683  23.557  1.00  0.00     0.200 A 
ATOM     10  C   UNL A   1      34.372  28.184  23.128  1.00  0.00     0.049 C 
ATOM     11  C   UNL A   1      32.935  27.774  23.228  1.00  0.00    -0.001 A 
ATOM     12  C   UNL A   1      32.523  26.453  23.075  1.00  0.00     0.023 A 
ATOM     13  C   UNL A   1      31.180  26.092  23.121  1.00  0.00     0.025 A 
ATOM     14  C   UNL A   1      30.637  28.402  23.163  1.00  0.00     0.312 A 
ATOM     15  Br  UNL A   1      30.722  24.286  23.423  1.00  0.00    -0.051 Br
ATOM     16  C   UNL A   1      30.222  27.076  22.997  1.00  0.00     0.105 A 
BRANCH  14  17
ATOM     17  N   UNL A   1      29.769  29.478  22.683  1.00  0.00     0.066 N 
ATOM     18  O   UNL A   1      28.786  29.753  23.384  1.00  0.00    -0.258 OA
ATOM     19  O   UNL A   1      29.998  29.976  21.574  1.00  0.00    -0.258 OA
ENDBRANCH  14  17
ENDBRANCH   8   9
ENDBRANCH   7   8
ENDBRANCH   6   7
ENDBRANCH   4   6
ENDBRANCH   3   4
ENDBRANCH   2   3
ENDBRANCH   1   2
BRANCH   1  20
ATOM     20  O   UNL A   1      34.305  34.669  27.745  1.00  0.00    -0.374 OA
BRANCH  20  21
ATOM     21  C   UNL A   1      33.943  35.711  28.647  1.00  0.00     0.202 C 
BRANCH  21  22
ATOM     22  C   UNL A   1      32.903  35.296  29.706  1.00  0.00     0.261 C 
BRANCH  22  23
ATOM     23  O   UNL A   1      33.211  35.863  31.001  1.00  0.00    -0.460 OA
BRANCH  23  24
ATOM     24  C   UNL A   1      33.358  35.002  32.034  1.00  0.00     0.338 C 
ATOM     25  O   UNL A   1      32.500  34.707  32.852  1.00  0.00    -0.246 OA
BRANCH  24  26
ATOM     26  C   UNL A   1      34.679  34.318  31.971  1.00  0.00     0.060 A 
ATOM     27  C   UNL A   1      34.697  32.963  32.315  1.00  0.00     0.016 A 
ATOM     28  C   UNL A   1      35.877  34.955  31.618  1.00  0.00     0.016 A 
ATOM     29  C   UNL A   1      35.899  32.250  32.336  1.00  0.00     0.010 A 
ATOM     30  C   UNL A   1      37.089  34.233  31.631  1.00  0.00     0.010 A 
ATOM     31  C   UNL A   1      37.112  32.879  32.021  1.00  0.00    -0.014 A 
BRANCH  31  32
ATOM     32  C   UNL A   1      38.378  32.147  32.316  1.00  0.00     0.031 A 
ATOM     33  C   UNL A   1      39.086  32.447  33.609  1.00  0.00     0.074 A 
ATOM     34  C   UNL A   1      38.846  31.155  31.533  1.00  0.00     0.049 A 
ATOM     35  N   UNL A   1      40.082  31.815  34.172  1.00  0.00    -0.248 NA
ATOM     36  C   UNL A   1      38.593  33.603  34.375  1.00  0.00     0.031 C 
ATOM     37  C   UNL A   1      38.267  30.746  30.263  1.00  0.00     0.029 A 
ATOM     38  N   UNL A   1      39.914  30.301  31.693  1.00  0.00    -0.354 N 
ATOM     39  C   UNL A   1      40.333  32.490  35.359  1.00  0.00     0.074 A 
ATOM     40  C   UNL A   1      39.405  33.598  35.420  1.00  0.00     0.031 C 
ATOM     41  C   UNL A   1      38.974  29.726  29.750  1.00  0.00     0.029 A 
ATOM     42  C   UNL A   1      40.077  29.412  30.654  1.00  0.00     0.049 A 
ATOM     43  H   UNL A   1      40.507  30.325  32.479  1.00  0.00     0.167 HD
ATOM     44  C   UNL A   1      41.236  32.205  36.325  1.00  0.00     0.034 A 
ATOM     45  C   UNL A   1      41.004  28.454  30.447  1.00  0.00     0.034 A 
ATOM     46  C   UNL A   1      42.173  31.118  36.265  1.00  0.00     0.049 A 
ATOM     47  C   UNL A   1      42.041  28.196  31.509  1.00  0.00     0.074 A 
ATOM     48  C   UNL A   1      43.111  30.740  37.210  1.00  0.00     0.029 A 
ATOM     49  N   UNL A   1      42.316  30.252  35.192  1.00  0.00    -0.354 N 
ATOM     50  N   UNL A   1      42.168  28.751  32.690  1.00  0.00    -0.248 NA
ATOM     51  C   UNL A   1      43.039  27.152  31.229  1.00  0.00     0.031 C 
ATOM     52  C   UNL A   1      43.848  29.670  36.690  1.00  0.00     0.029 A 
ATOM     53  C   UNL A   1      43.341  29.356  35.438  1.00  0.00     0.049 A 
ATOM     54  H   UNL A   1      41.768  30.272  34.373  1.00  0.00     0.167 HD
ATOM     55  C   UNL A   1      43.231  28.101  33.307  1.00  0.00     0.074 A 
ATOM     56  C   UNL A   1      43.702  27.095  32.378  1.00  0.00     0.031 C 
ATOM     57  C   UNL A   1      43.774  28.325  34.530  1.00  0.00     0.034 A 
BRANCH  44  58
ATOM     58  C   UNL A   1      41.242  33.094  37.538  1.00  0.00     0.023 A 
ATOM     59  C   UNL A   1      40.339  32.844  38.591  1.00  0.00     0.012 A 
ATOM     60  C   UNL A   1      42.147  34.167  37.639  1.00  0.00     0.148 A 
ATOM     61  C   UNL A   1      40.309  33.673  39.711  1.00  0.00     0.002 A 
ATOM     62  C   UNL A   1      42.142  34.962  38.778  1.00  0.00     0.091 A 
ATOM     63  F   UNL A   1      42.979  34.401  36.615  1.00  0.00    -0.205 F 
ATOM     64  C   UNL A   1      41.216  34.725  39.808  1.00  0.00     0.022 A 
BRANCH  62  65
ATOM     65  S   UNL A   1      43.314  36.299  39.027  1.00  0.00     0.127 S 
ATOM     66  O   UNL A   1      44.563  35.680  38.590  1.00  0.00    -0.237 OA
ATOM     67  O   UNL A   1      42.796  37.331  38.128  1.00  0.00    -0.237 OA
ATOM     68  O   UNL A   1      43.244  36.636  40.441  1.00  0.00    -0.744 OA
ENDBRANCH  62  65
ENDBRANCH  44  58
BRANCH  45  69
ATOM     69  C   UNL A   1      40.980  27.633  29.198  1.00  0.00     0.023 A 
ATOM     70  C   UNL A   1      40.118  26.523  29.105  1.00  0.00     0.012 A 
ATOM     71  C   UNL A   1      41.815  27.944  28.107  1.00  0.00     0.148 A 
ATOM     72  C   UNL A   1      40.114  25.717  27.965  1.00  0.00     0.002 A 
ATOM     73  C   UNL A   1      41.767  27.169  26.954  1.00  0.00     0.091 A 
ATOM     74  F   UNL A   1      42.640  28.994  28.219  1.00  0.00    -0.205 F 
ATOM     75  C   UNL A   1      40.932  26.044  26.886  1.00  0.00     0.022 A 
BRANCH  73  76
ATOM     76  S   UNL A   1      42.695  27.582  25.471  1.00  0.00     0.127 S 
ATOM     77  O   UNL A   1      44.057  27.681  25.987  1.00  0.00    -0.237 OA
ATOM     78  O   UNL A   1      42.439  26.416  24.625  1.00  0.00    -0.237 OA
ATOM     79  O   UNL A   1      42.115  28.822  24.975  1.00  0.00    -0.744 OA
ENDBRANCH  73  76
ENDBRANCH  45  69
BRANCH  57  80
ATOM     80  C   UNL A   1      44.921  27.447  34.964  1.00  0.00     0.023 A 
ATOM     81  C   UNL A   1      46.247  27.840  34.700  1.00  0.00     0.012 A 
ATOM     82  C   UNL A   1      44.683  26.276  35.712  1.00  0.00     0.148 A 
ATOM     83  C   UNL A   1      47.318  27.064  35.146  1.00  0.00     0.002 A 
ATOM     84  C   UNL A   1      45.754  25.537  36.198  1.00  0.00     0.091 A 
ATOM     85  F   UNL A   1      43.412  25.908  35.938  1.00  0.00    -0.205 F 
ATOM     86  C   UNL A   1      47.072  25.923  35.905  1.00  0.00     0.022 A 
BRANCH  84  87
ATOM     87  S   UNL A   1      45.536  24.111  37.269  1.00  0.00     0.127 S 
ATOM     88  O   UNL A   1      44.958  23.134  36.350  1.00  0.00    -0.237 OA
ATOM     89  O   UNL A   1      46.909  23.822  37.683  1.00  0.00    -0.237 OA
ATOM     90  O   UNL A   1      44.660  24.549  38.348  1.00  0.00    -0.744 OA
ENDBRANCH  84  87
ENDBRANCH  57  80
ENDBRANCH  31  32
ENDBRANCH  24  26
ENDBRANCH  23  24
ENDBRANCH  22  23
ENDBRANCH  21  22
ENDBRANCH  20  21
ENDBRANCH   1  20
TORSDOF 21
ENDMDL
