MODEL 1
REMARK VINA RESULT:     -11.0      0.000      0.000
REMARK SMILES O=C(COc1ccccc1C[NH+]1CCC2(CC[NH2+]CC2)CC1)OCCOCCOC(=O)c1ccc(-c2c3nc(c(-c4cccc(S(=O)(=O)[O-])c4F)c4ccc([nH]4)c(-c4cccc(S(=O)(=O)[O-])c4F)c4nc(c(-c5cccc(S(=O)(=O)[O-])c5F)c5ccc2[nH]5)C=C4)C=C3)cc1
REMARK SMILES IDX 25 1 24 2 23 3 2 4 1 5 3 6 4 7 5 8 6 9 10 10 7 11 9 12 8 13
REMARK SMILES IDX 11 14 12 15 13 16 22 17 14 19 21 20 15 21 16 22 20 23 17 24
REMARK SMILES IDX 19 25 18 26 26 29 27 30 28 31 29 32 30 33 31 34 32 35 33 36
REMARK SMILES IDX 94 37 34 38 93 39 35 40 36 41 37 42 87 43 38 44 92 45 86 46
REMARK SMILES IDX 88 47 39 48 91 49 85 50 84 51 40 53 72 54 52 55 71 56 53 57
REMARK SMILES IDX 56 58 70 59 89 60 54 61 55 62 69 64 90 65 57 66 41 67 42 68
REMARK SMILES IDX 50 69 43 70 45 71 51 72 44 73 46 74 47 75 48 76 49 77 73 78
REMARK SMILES IDX 74 79 82 80 75 81 77 82 83 83 76 84 78 85 79 86 80 87 81 88
REMARK SMILES IDX 58 89 59 90 67 91 60 92 62 93 68 94 61 95 63 96 64 97 65 98
REMARK SMILES IDX 66 99
REMARK H PARENT 12 18 18 27 18 28 88 52 56 63
REMARK Flexibility Score: inf
ROOT
ATOM      1  C   UNL A   1      34.653  19.500  24.742  1.00  0.00     0.202 C 
ENDROOT
BRANCH   1   2
ATOM      2  C   UNL A   1      33.240  18.952  24.932  1.00  0.00     0.261 C 
BRANCH   2   3
ATOM      3  O   UNL A   1      32.209  19.854  24.493  1.00  0.00    -0.461 OA
BRANCH   3   4
ATOM      4  C   UNL A   1      32.154  20.406  23.257  1.00  0.00     0.344 C 
ATOM      5  O   UNL A   1      31.971  19.689  22.271  1.00  0.00    -0.248 OA
BRANCH   4   6
ATOM      6  C   UNL A   1      32.358  21.901  23.106  1.00  0.00     0.351 C 
BRANCH   6   7
ATOM      7  O   UNL A   1      32.191  22.574  24.347  1.00  0.00    -0.481 OA
BRANCH   7   8
ATOM      8  C   UNL A   1      33.343  23.117  24.832  1.00  0.00     0.129 A 
ATOM      9  C   UNL A   1      33.830  22.581  26.028  1.00  0.00     0.047 A 
ATOM     10  C   UNL A   1      33.910  24.264  24.258  1.00  0.00     0.048 A 
ATOM     11  C   UNL A   1      34.937  23.153  26.646  1.00  0.00     0.004 A 
ATOM     12  C   UNL A   1      35.061  24.789  24.869  1.00  0.00     0.013 A 
ATOM     13  C   UNL A   1      35.562  24.248  26.059  1.00  0.00     0.001 A 
BRANCH  10  14
ATOM     14  C   UNL A   1      33.340  24.956  23.036  1.00  0.00     0.302 C 
BRANCH  14  15
ATOM     15  N   UNL A   1      32.457  26.111  23.206  1.00  0.00    -0.331 N 
ATOM     16  C   UNL A   1      31.738  26.237  24.464  1.00  0.00     0.263 C 
ATOM     17  C   UNL A   1      32.914  27.399  22.713  1.00  0.00     0.263 C 
ATOM     18  H   UNL A   1      31.757  25.806  22.530  1.00  0.00     0.348 HD
ATOM     19  C   UNL A   1      32.529  26.929  25.571  1.00  0.00     0.069 C 
ATOM     20  C   UNL A   1      33.760  28.185  23.710  1.00  0.00     0.069 C 
ATOM     21  C   UNL A   1      33.196  28.265  25.152  1.00  0.00    -0.008 C 
ATOM     22  C   UNL A   1      32.191  29.438  25.273  1.00  0.00     0.069 C 
ATOM     23  C   UNL A   1      34.391  28.559  26.098  1.00  0.00     0.069 C 
ATOM     24  C   UNL A   1      31.862  29.809  26.726  1.00  0.00     0.261 C 
ATOM     25  C   UNL A   1      33.954  28.895  27.517  1.00  0.00     0.261 C 
ATOM     26  N   UNL A   1      33.064  30.052  27.532  1.00  0.00    -0.346 N 
ATOM     27  H   UNL A   1      32.785  30.246  28.495  1.00  0.00     0.346 HD
ATOM     28  H   UNL A   1      33.562  30.848  27.134  1.00  0.00     0.346 HD
ENDBRANCH  14  15
ENDBRANCH  10  14
ENDBRANCH   7   8
ENDBRANCH   6   7
ENDBRANCH   4   6
ENDBRANCH   3   4
ENDBRANCH   2   3
ENDBRANCH   1   2
BRANCH   1  29
ATOM     29  O   UNL A   1      35.691  18.557  24.572  1.00  0.00    -0.374 OA
BRANCH  29  30
ATOM     30  C   UNL A   1      37.012  18.833  25.028  1.00  0.00     0.202 C 
BRANCH  30  31
ATOM     31  C   UNL A   1      37.900  20.025  24.601  1.00  0.00     0.261 C 
BRANCH  31  32
ATOM     32  O   UNL A   1      38.210  21.040  25.559  1.00  0.00    -0.460 OA
BRANCH  32  33
ATOM     33  C   UNL A   1      39.440  20.931  26.115  1.00  0.00     0.338 C 
ATOM     34  O   UNL A   1      40.230  20.017  25.972  1.00  0.00    -0.246 OA
BRANCH  33  35
ATOM     35  C   UNL A   1      39.767  22.169  26.844  1.00  0.00     0.060 A 
ATOM     36  C   UNL A   1      39.122  23.350  26.462  1.00  0.00     0.016 A 
ATOM     37  C   UNL A   1      40.798  22.190  27.786  1.00  0.00     0.016 A 
ATOM     38  C   UNL A   1      39.556  24.570  26.975  1.00  0.00     0.010 A 
ATOM     39  C   UNL A   1      41.236  23.418  28.294  1.00  0.00     0.010 A 
ATOM     40  C   UNL A   1      40.649  24.615  27.852  1.00  0.00    -0.014 A 
BRANCH  40  41
ATOM     41  C   UNL A   1      41.263  25.928  28.166  1.00  0.00     0.031 A 
ATOM     42  C   UNL A   1      42.672  26.206  27.712  1.00  0.00     0.074 A 
ATOM     43  C   UNL A   1      40.558  26.878  28.807  1.00  0.00     0.049 A 
ATOM     44  N   UNL A   1      43.370  27.307  27.812  1.00  0.00    -0.248 NA
ATOM     45  C   UNL A   1      43.387  25.099  27.055  1.00  0.00     0.031 C 
ATOM     46  C   UNL A   1      39.194  26.720  29.309  1.00  0.00     0.029 A 
ATOM     47  N   UNL A   1      40.900  28.160  29.154  1.00  0.00    -0.354 N 
ATOM     48  C   UNL A   1      44.605  27.027  27.236  1.00  0.00     0.074 A 
ATOM     49  C   UNL A   1      44.571  25.645  26.812  1.00  0.00     0.031 C 
ATOM     50  C   UNL A   1      38.822  27.857  29.921  1.00  0.00     0.029 A 
ATOM     51  C   UNL A   1      39.921  28.820  29.855  1.00  0.00     0.049 A 
ATOM     52  H   UNL A   1      41.765  28.568  28.922  1.00  0.00     0.167 HD
ATOM     53  C   UNL A   1      45.662  27.853  27.051  1.00  0.00     0.034 A 
ATOM     54  C   UNL A   1      39.913  30.059  30.386  1.00  0.00     0.034 A 
ATOM     55  C   UNL A   1      45.691  29.232  27.460  1.00  0.00     0.049 A 
ATOM     56  C   UNL A   1      41.102  30.959  30.165  1.00  0.00     0.074 A 
ATOM     57  C   UNL A   1      46.704  30.159  27.293  1.00  0.00     0.029 A 
ATOM     58  N   UNL A   1      44.660  29.881  28.121  1.00  0.00    -0.354 N 
ATOM     59  N   UNL A   1      42.207  30.719  29.501  1.00  0.00    -0.248 NA
ATOM     60  C   UNL A   1      41.025  32.314  30.729  1.00  0.00     0.031 C 
ATOM     61  C   UNL A   1      46.288  31.369  27.861  1.00  0.00     0.029 A 
ATOM     62  C   UNL A   1      45.012  31.196  28.372  1.00  0.00     0.049 A 
ATOM     63  H   UNL A   1      43.804  29.468  28.375  1.00  0.00     0.167 HD
ATOM     64  C   UNL A   1      42.945  31.897  29.547  1.00  0.00     0.074 A 
ATOM     65  C   UNL A   1      42.145  32.861  30.276  1.00  0.00     0.031 C 
ATOM     66  C   UNL A   1      44.183  32.155  29.055  1.00  0.00     0.034 A 
BRANCH  53  67
ATOM     67  C   UNL A   1      46.858  27.303  26.321  1.00  0.00     0.023 A 
ATOM     68  C   UNL A   1      46.948  27.480  24.925  1.00  0.00     0.012 A 
ATOM     69  C   UNL A   1      47.914  26.676  27.009  1.00  0.00     0.148 A 
ATOM     70  C   UNL A   1      48.062  27.022  24.222  1.00  0.00     0.002 A 
ATOM     71  C   UNL A   1      49.037  26.254  26.307  1.00  0.00     0.091 A 
ATOM     72  F   UNL A   1      47.798  26.498  28.333  1.00  0.00    -0.205 F 
ATOM     73  C   UNL A   1      49.109  26.419  24.913  1.00  0.00     0.022 A 
BRANCH  71  74
ATOM     74  S   UNL A   1      50.468  25.523  27.110  1.00  0.00     0.127 S 
ATOM     75  O   UNL A   1      51.359  25.294  25.973  1.00  0.00    -0.237 OA
ATOM     76  O   UNL A   1      50.895  26.592  28.013  1.00  0.00    -0.237 OA
ATOM     77  O   UNL A   1      49.984  24.321  27.775  1.00  0.00    -0.744 OA
ENDBRANCH  71  74
ENDBRANCH  53  67
BRANCH  54  78
ATOM     78  C   UNL A   1      38.717  30.539  31.134  1.00  0.00     0.023 A 
ATOM     79  C   UNL A   1      38.652  30.372  32.530  1.00  0.00     0.012 A 
ATOM     80  C   UNL A   1      37.655  31.182  30.470  1.00  0.00     0.148 A 
ATOM     81  C   UNL A   1      37.537  30.810  33.247  1.00  0.00     0.002 A 
ATOM     82  C   UNL A   1      36.574  31.669  31.197  1.00  0.00     0.091 A 
ATOM     83  F   UNL A   1      37.718  31.311  29.136  1.00  0.00    -0.205 F 
ATOM     84  C   UNL A   1      36.505  31.470  32.583  1.00  0.00     0.022 A 
BRANCH  82  85
ATOM     85  S   UNL A   1      35.285  32.654  30.427  1.00  0.00     0.127 S 
ATOM     86  O   UNL A   1      34.349  32.844  31.531  1.00  0.00    -0.237 OA
ATOM     87  O   UNL A   1      36.012  33.858  30.022  1.00  0.00    -0.237 OA
ATOM     88  O   UNL A   1      34.808  31.849  29.310  1.00  0.00    -0.744 OA
ENDBRANCH  82  85
ENDBRANCH  54  78
BRANCH  66  89
ATOM     89  C   UNL A   1      44.746  33.533  29.282  1.00  0.00     0.023 A 
ATOM     90  C   UNL A   1      45.419  33.814  30.488  1.00  0.00     0.012 A 
ATOM     91  C   UNL A   1      44.664  34.527  28.289  1.00  0.00     0.148 A 
ATOM     92  C   UNL A   1      45.970  35.074  30.716  1.00  0.00     0.002 A 
ATOM     93  C   UNL A   1      45.252  35.769  28.506  1.00  0.00     0.091 A 
ATOM     94  F   UNL A   1      44.001  34.252  27.155  1.00  0.00    -0.205 F 
ATOM     95  C   UNL A   1      45.895  36.047  29.723  1.00  0.00     0.022 A 
BRANCH  93  96
ATOM     96  S   UNL A   1      45.272  37.044  27.241  1.00  0.00     0.127 S 
ATOM     97  O   UNL A   1      45.994  38.122  27.913  1.00  0.00    -0.237 OA
ATOM     98  O   UNL A   1      46.013  36.401  26.154  1.00  0.00    -0.237 OA
ATOM     99  O   UNL A   1      43.874  37.311  26.933  1.00  0.00    -0.744 OA
ENDBRANCH  93  96
ENDBRANCH  66  89
ENDBRANCH  40  41
ENDBRANCH  33  35
ENDBRANCH  32  33
ENDBRANCH  31  32
ENDBRANCH  30  31
ENDBRANCH  29  30
ENDBRANCH   1  29
TORSDOF 21
ENDMDL
MODEL 2
REMARK VINA RESULT:     -10.7      5.024     10.465
REMARK SMILES O=C(COc1ccccc1C[NH+]1CCC2(CC[NH2+]CC2)CC1)OCCOCCOC(=O)c1ccc(-c2c3nc(c(-c4cccc(S(=O)(=O)[O-])c4F)c4ccc([nH]4)c(-c4cccc(S(=O)(=O)[O-])c4F)c4nc(c(-c5cccc(S(=O)(=O)[O-])c5F)c5ccc2[nH]5)C=C4)C=C3)cc1
REMARK SMILES IDX 25 1 24 2 23 3 2 4 1 5 3 6 4 7 5 8 6 9 10 10 7 11 9 12 8 13
REMARK SMILES IDX 11 14 12 15 13 16 22 17 14 19 21 20 15 21 16 22 20 23 17 24
REMARK SMILES IDX 19 25 18 26 26 29 27 30 28 31 29 32 30 33 31 34 32 35 33 36
REMARK SMILES IDX 94 37 34 38 93 39 35 40 36 41 37 42 87 43 38 44 92 45 86 46
REMARK SMILES IDX 88 47 39 48 91 49 85 50 84 51 40 53 72 54 52 55 71 56 53 57
REMARK SMILES IDX 56 58 70 59 89 60 54 61 55 62 69 64 90 65 57 66 41 67 42 68
REMARK SMILES IDX 50 69 43 70 45 71 51 72 44 73 46 74 47 75 48 76 49 77 73 78
REMARK SMILES IDX 74 79 82 80 75 81 77 82 83 83 76 84 78 85 79 86 80 87 81 88
REMARK SMILES IDX 58 89 59 90 67 91 60 92 62 93 68 94 61 95 63 96 64 97 65 98
REMARK SMILES IDX 66 99
REMARK H PARENT 12 18 18 27 18 28 88 52 56 63
REMARK Flexibility Score: inf
ROOT
ATOM      1  C   UNL A   1      31.931  29.632  25.527  1.00  0.00     0.202 C 
ENDROOT
BRANCH   1   2
ATOM      2  C   UNL A   1      33.126  29.433  24.597  1.00  0.00     0.261 C 
BRANCH   2   3
ATOM      3  O   UNL A   1      32.772  28.883  23.315  1.00  0.00    -0.461 OA
BRANCH   3   4
ATOM      4  C   UNL A   1      33.385  27.817  22.748  1.00  0.00     0.344 C 
ATOM      5  O   UNL A   1      34.061  27.966  21.729  1.00  0.00    -0.248 OA
BRANCH   4   6
ATOM      6  C   UNL A   1      33.194  26.443  23.362  1.00  0.00     0.351 C 
BRANCH   6   7
ATOM      7  O   UNL A   1      31.841  26.019  23.268  1.00  0.00    -0.481 OA
BRANCH   7   8
ATOM      8  C   UNL A   1      31.434  25.257  24.322  1.00  0.00     0.129 A 
ATOM      9  C   UNL A   1      31.356  25.900  25.562  1.00  0.00     0.047 A 
ATOM     10  C   UNL A   1      31.274  23.869  24.205  1.00  0.00     0.048 A 
ATOM     11  C   UNL A   1      31.057  25.168  26.707  1.00  0.00     0.004 A 
ATOM     12  C   UNL A   1      30.917  23.161  25.365  1.00  0.00     0.013 A 
ATOM     13  C   UNL A   1      30.823  23.800  26.605  1.00  0.00     0.001 A 
BRANCH  10  14
ATOM     14  C   UNL A   1      31.477  23.111  22.908  1.00  0.00     0.302 C 
BRANCH  14  15
ATOM     15  N   UNL A   1      32.637  22.232  22.759  1.00  0.00    -0.331 N 
ATOM     16  C   UNL A   1      33.922  22.847  22.465  1.00  0.00     0.263 C 
ATOM     17  C   UNL A   1      32.771  21.114  23.677  1.00  0.00     0.263 C 
ATOM     18  H   UNL A   1      32.337  21.812  21.879  1.00  0.00     0.348 HD
ATOM     19  C   UNL A   1      34.688  23.319  23.698  1.00  0.00     0.069 C 
ATOM     20  C   UNL A   1      33.484  21.459  24.981  1.00  0.00     0.069 C 
ATOM     21  C   UNL A   1      34.798  22.269  24.833  1.00  0.00    -0.008 C 
ATOM     22  C   UNL A   1      35.993  21.314  24.579  1.00  0.00     0.069 C 
ATOM     23  C   UNL A   1      35.045  22.996  26.181  1.00  0.00     0.069 C 
ATOM     24  C   UNL A   1      37.359  21.987  24.775  1.00  0.00     0.261 C 
ATOM     25  C   UNL A   1      36.421  23.643  26.262  1.00  0.00     0.261 C 
ATOM     26  N   UNL A   1      37.478  22.655  26.076  1.00  0.00    -0.346 N 
ATOM     27  H   UNL A   1      38.384  23.121  26.129  1.00  0.00     0.346 HD
ATOM     28  H   UNL A   1      37.393  21.949  26.809  1.00  0.00     0.346 HD
ENDBRANCH  14  15
ENDBRANCH  10  14
ENDBRANCH   7   8
ENDBRANCH   6   7
ENDBRANCH   4   6
ENDBRANCH   3   4
ENDBRANCH   2   3
ENDBRANCH   1   2
BRANCH   1  29
ATOM     29  O   UNL A   1      31.251  30.868  25.446  1.00  0.00    -0.374 OA
BRANCH  29  30
ATOM     30  C   UNL A   1      31.300  31.801  26.522  1.00  0.00     0.202 C 
BRANCH  30  31
ATOM     31  C   UNL A   1      32.511  32.676  26.923  1.00  0.00     0.261 C 
BRANCH  31  32
ATOM     32  O   UNL A   1      32.432  33.469  28.110  1.00  0.00    -0.460 OA
BRANCH  32  33
ATOM     33  C   UNL A   1      33.546  34.189  28.380  1.00  0.00     0.338 C 
ATOM     34  O   UNL A   1      33.622  35.396  28.525  1.00  0.00    -0.246 OA
BRANCH  33  35
ATOM     35  C   UNL A   1      34.682  33.279  28.611  1.00  0.00     0.060 A 
ATOM     36  C   UNL A   1      34.520  32.244  29.537  1.00  0.00     0.016 A 
ATOM     37  C   UNL A   1      35.928  33.534  28.034  1.00  0.00     0.016 A 
ATOM     38  C   UNL A   1      35.627  31.501  29.941  1.00  0.00     0.010 A 
ATOM     39  C   UNL A   1      37.039  32.791  28.447  1.00  0.00     0.010 A 
ATOM     40  C   UNL A   1      36.899  31.806  29.439  1.00  0.00    -0.014 A 
BRANCH  40  41
ATOM     41  C   UNL A   1      38.089  31.194  30.080  1.00  0.00     0.031 A 
ATOM     42  C   UNL A   1      38.453  31.597  31.485  1.00  0.00     0.074 A 
ATOM     43  C   UNL A   1      38.808  30.257  29.436  1.00  0.00     0.049 A 
ATOM     44  N   UNL A   1      39.400  31.134  32.258  1.00  0.00    -0.248 NA
ATOM     45  C   UNL A   1      37.640  32.659  32.101  1.00  0.00     0.031 C 
ATOM     46  C   UNL A   1      38.563  29.798  28.071  1.00  0.00     0.029 A 
ATOM     47  N   UNL A   1      39.899  29.533  29.846  1.00  0.00    -0.354 N 
ATOM     48  C   UNL A   1      39.302  31.848  33.448  1.00  0.00     0.074 A 
ATOM     49  C   UNL A   1      38.219  32.793  33.287  1.00  0.00     0.031 C 
ATOM     50  C   UNL A   1      39.492  28.882  27.746  1.00  0.00     0.029 A 
ATOM     51  C   UNL A   1      40.397  28.695  28.879  1.00  0.00     0.049 A 
ATOM     52  H   UNL A   1      40.287  29.607  30.748  1.00  0.00     0.167 HD
ATOM     53  C   UNL A   1      40.027  31.710  34.583  1.00  0.00     0.034 A 
ATOM     54  C   UNL A   1      41.465  27.872  28.905  1.00  0.00     0.034 A 
ATOM     55  C   UNL A   1      41.095  30.760  34.749  1.00  0.00     0.049 A 
ATOM     56  C   UNL A   1      42.255  27.736  30.181  1.00  0.00     0.074 A 
ATOM     57  C   UNL A   1      41.872  30.524  35.869  1.00  0.00     0.029 A 
ATOM     58  N   UNL A   1      41.537  29.890  33.765  1.00  0.00    -0.354 N 
ATOM     59  N   UNL A   1      42.063  28.322  31.338  1.00  0.00    -0.248 NA
ATOM     60  C   UNL A   1      43.384  26.793  30.167  1.00  0.00     0.031 C 
ATOM     61  C   UNL A   1      42.791  29.515  35.558  1.00  0.00     0.029 A 
ATOM     62  C   UNL A   1      42.579  29.117  34.249  1.00  0.00     0.049 A 
ATOM     63  H   UNL A   1      41.166  29.831  32.855  1.00  0.00     0.167 HD
ATOM     64  C   UNL A   1      43.027  27.803  32.196  1.00  0.00     0.074 A 
ATOM     65  C   UNL A   1      43.782  26.830  31.432  1.00  0.00     0.031 C 
ATOM     66  C   UNL A   1      43.285  28.119  33.489  1.00  0.00     0.034 A 
BRANCH  53  67
ATOM     67  C   UNL A   1      39.652  32.569  35.760  1.00  0.00     0.023 A 
ATOM     68  C   UNL A   1      40.152  33.885  35.836  1.00  0.00     0.012 A 
ATOM     69  C   UNL A   1      38.763  32.108  36.751  1.00  0.00     0.148 A 
ATOM     70  C   UNL A   1      39.790  34.723  36.890  1.00  0.00     0.002 A 
ATOM     71  C   UNL A   1      38.379  32.961  37.780  1.00  0.00     0.091 A 
ATOM     72  F   UNL A   1      38.317  30.846  36.673  1.00  0.00    -0.205 F 
ATOM     73  C   UNL A   1      38.897  34.266  37.854  1.00  0.00     0.022 A 
BRANCH  71  74
ATOM     74  S   UNL A   1      37.186  32.491  39.038  1.00  0.00     0.127 S 
ATOM     75  O   UNL A   1      37.529  33.406  40.126  1.00  0.00    -0.237 OA
ATOM     76  O   UNL A   1      35.912  32.780  38.378  1.00  0.00    -0.237 OA
ATOM     77  O   UNL A   1      37.424  31.080  39.309  1.00  0.00    -0.744 OA
ENDBRANCH  71  74
ENDBRANCH  53  67
BRANCH  54  78
ATOM     78  C   UNL A   1      41.816  27.073  27.697  1.00  0.00     0.023 A 
ATOM     79  C   UNL A   1      42.466  27.692  26.614  1.00  0.00     0.012 A 
ATOM     80  C   UNL A   1      41.528  25.696  27.628  1.00  0.00     0.148 A 
ATOM     81  C   UNL A   1      42.798  26.961  25.471  1.00  0.00     0.002 A 
ATOM     82  C   UNL A   1      41.913  24.961  26.512  1.00  0.00     0.091 A 
ATOM     83  F   UNL A   1      40.883  25.125  28.656  1.00  0.00    -0.205 F 
ATOM     84  C   UNL A   1      42.534  25.594  25.426  1.00  0.00     0.022 A 
BRANCH  82  85
ATOM     85  S   UNL A   1      41.735  23.175  26.450  1.00  0.00     0.127 S 
ATOM     86  O   UNL A   1      40.286  23.013  26.529  1.00  0.00    -0.237 OA
ATOM     87  O   UNL A   1      42.321  22.847  25.149  1.00  0.00    -0.237 OA
ATOM     88  O   UNL A   1      42.501  22.677  27.585  1.00  0.00    -0.744 OA
ENDBRANCH  82  85
ENDBRANCH  54  78
BRANCH  66  89
ATOM     89  C   UNL A   1      44.426  27.402  34.164  1.00  0.00     0.023 A 
ATOM     90  C   UNL A   1      45.718  27.963  34.117  1.00  0.00     0.012 A 
ATOM     91  C   UNL A   1      44.214  26.215  34.889  1.00  0.00     0.148 A 
ATOM     92  C   UNL A   1      46.788  27.334  34.751  1.00  0.00     0.002 A 
ATOM     93  C   UNL A   1      45.278  25.614  35.554  1.00  0.00     0.091 A 
ATOM     94  F   UNL A   1      42.983  25.682  34.907  1.00  0.00    -0.205 F 
ATOM     95  C   UNL A   1      46.567  26.167  35.477  1.00  0.00     0.022 A 
BRANCH  93  96
ATOM     96  S   UNL A   1      45.055  24.157  36.581  1.00  0.00     0.127 S 
ATOM     97  O   UNL A   1      46.430  23.849  36.967  1.00  0.00    -0.237 OA
ATOM     98  O   UNL A   1      44.216  24.661  37.670  1.00  0.00    -0.237 OA
ATOM     99  O   UNL A   1      44.400  23.175  35.728  1.00  0.00    -0.744 OA
ENDBRANCH  93  96
ENDBRANCH  66  89
ENDBRANCH  40  41
ENDBRANCH  33  35
ENDBRANCH  32  33
ENDBRANCH  31  32
ENDBRANCH  30  31
ENDBRANCH  29  30
ENDBRANCH   1  29
TORSDOF 21
ENDMDL
MODEL 3
REMARK VINA RESULT:     -10.3      1.897      7.681
REMARK SMILES O=C(COc1ccccc1C[NH+]1CCC2(CC[NH2+]CC2)CC1)OCCOCCOC(=O)c1ccc(-c2c3nc(c(-c4cccc(S(=O)(=O)[O-])c4F)c4ccc([nH]4)c(-c4cccc(S(=O)(=O)[O-])c4F)c4nc(c(-c5cccc(S(=O)(=O)[O-])c5F)c5ccc2[nH]5)C=C4)C=C3)cc1
REMARK SMILES IDX 25 1 24 2 23 3 2 4 1 5 3 6 4 7 5 8 6 9 10 10 7 11 9 12 8 13
REMARK SMILES IDX 11 14 12 15 13 16 22 17 14 19 21 20 15 21 16 22 20 23 17 24
REMARK SMILES IDX 19 25 18 26 26 29 27 30 28 31 29 32 30 33 31 34 32 35 33 36
REMARK SMILES IDX 94 37 34 38 93 39 35 40 36 41 37 42 87 43 38 44 92 45 86 46
REMARK SMILES IDX 88 47 39 48 91 49 85 50 84 51 40 53 72 54 52 55 71 56 53 57
REMARK SMILES IDX 56 58 70 59 89 60 54 61 55 62 69 64 90 65 57 66 41 67 42 68
REMARK SMILES IDX 50 69 43 70 45 71 51 72 44 73 46 74 47 75 48 76 49 77 73 78
REMARK SMILES IDX 74 79 82 80 75 81 77 82 83 83 76 84 78 85 79 86 80 87 81 88
REMARK SMILES IDX 58 89 59 90 67 91 60 92 62 93 68 94 61 95 63 96 64 97 65 98
REMARK SMILES IDX 66 99
REMARK H PARENT 12 18 18 27 18 28 88 52 56 63
REMARK Flexibility Score: inf
ROOT
ATOM      1  C   UNL A   1      36.038  21.910  25.884  1.00  0.00     0.202 C 
ENDROOT
BRANCH   1   2
ATOM      2  C   UNL A   1      37.004  23.076  25.678  1.00  0.00     0.261 C 
BRANCH   2   3
ATOM      3  O   UNL A   1      36.612  23.968  24.619  1.00  0.00    -0.461 OA
BRANCH   3   4
ATOM      4  C   UNL A   1      35.894  23.593  23.533  1.00  0.00     0.344 C 
ATOM      5  O   UNL A   1      36.408  22.876  22.674  1.00  0.00    -0.248 OA
BRANCH   4   6
ATOM      6  C   UNL A   1      34.473  24.100  23.376  1.00  0.00     0.351 C 
BRANCH   6   7
ATOM      7  O   UNL A   1      33.645  23.130  22.749  1.00  0.00    -0.481 OA
BRANCH   7   8
ATOM      8  C   UNL A   1      33.103  22.232  23.619  1.00  0.00     0.129 A 
ATOM      9  C   UNL A   1      33.673  20.955  23.634  1.00  0.00     0.047 A 
ATOM     10  C   UNL A   1      31.929  22.518  24.330  1.00  0.00     0.048 A 
ATOM     11  C   UNL A   1      33.108  19.950  24.412  1.00  0.00     0.004 A 
ATOM     12  C   UNL A   1      31.409  21.504  25.152  1.00  0.00     0.013 A 
ATOM     13  C   UNL A   1      31.984  20.229  25.183  1.00  0.00     0.001 A 
BRANCH  10  14
ATOM     14  C   UNL A   1      31.201  23.846  24.244  1.00  0.00     0.302 C 
BRANCH  14  15
ATOM     15  N   UNL A   1      30.957  24.616  25.463  1.00  0.00    -0.331 N 
ATOM     16  C   UNL A   1      32.096  24.924  26.313  1.00  0.00     0.263 C 
ATOM     17  C   UNL A   1      30.019  25.723  25.396  1.00  0.00     0.263 C 
ATOM     18  H   UNL A   1      30.453  23.877  25.954  1.00  0.00     0.348 HD
ATOM     19  C   UNL A   1      32.858  26.183  25.908  1.00  0.00     0.069 C 
ATOM     20  C   UNL A   1      30.642  27.045  24.957  1.00  0.00     0.069 C 
ATOM     21  C   UNL A   1      31.967  27.429  25.665  1.00  0.00    -0.008 C 
ATOM     22  C   UNL A   1      31.671  28.157  27.001  1.00  0.00     0.069 C 
ATOM     23  C   UNL A   1      32.715  28.421  24.735  1.00  0.00     0.069 C 
ATOM     24  C   UNL A   1      32.896  28.879  27.583  1.00  0.00     0.261 C 
ATOM     25  C   UNL A   1      33.922  29.064  25.404  1.00  0.00     0.261 C 
ATOM     26  N   UNL A   1      33.533  29.779  26.615  1.00  0.00    -0.346 N 
ATOM     27  H   UNL A   1      34.363  30.192  27.040  1.00  0.00     0.346 HD
ATOM     28  H   UNL A   1      32.861  30.504  26.359  1.00  0.00     0.346 HD
ENDBRANCH  14  15
ENDBRANCH  10  14
ENDBRANCH   7   8
ENDBRANCH   6   7
ENDBRANCH   4   6
ENDBRANCH   3   4
ENDBRANCH   2   3
ENDBRANCH   1   2
BRANCH   1  29
ATOM     29  O   UNL A   1      36.448  20.644  25.411  1.00  0.00    -0.374 OA
BRANCH  29  30
ATOM     30  C   UNL A   1      37.765  20.443  24.909  1.00  0.00     0.202 C 
BRANCH  30  31
ATOM     31  C   UNL A   1      38.758  19.343  25.352  1.00  0.00     0.261 C 
BRANCH  31  32
ATOM     32  O   UNL A   1      39.501  19.523  26.561  1.00  0.00    -0.460 OA
BRANCH  32  33
ATOM     33  C   UNL A   1      40.780  19.927  26.380  1.00  0.00     0.338 C 
ATOM     34  O   UNL A   1      41.669  19.315  25.816  1.00  0.00    -0.246 OA
BRANCH  33  35
ATOM     35  C   UNL A   1      40.937  21.312  26.859  1.00  0.00     0.060 A 
ATOM     36  C   UNL A   1      40.406  22.344  26.079  1.00  0.00     0.016 A 
ATOM     37  C   UNL A   1      41.722  21.594  27.979  1.00  0.00     0.016 A 
ATOM     38  C   UNL A   1      40.718  23.667  26.381  1.00  0.00     0.010 A 
ATOM     39  C   UNL A   1      42.038  22.923  28.277  1.00  0.00     0.010 A 
ATOM     40  C   UNL A   1      41.578  23.960  27.449  1.00  0.00    -0.014 A 
BRANCH  40  41
ATOM     41  C   UNL A   1      42.111  25.338  27.583  1.00  0.00     0.031 A 
ATOM     42  C   UNL A   1      41.286  26.376  28.297  1.00  0.00     0.074 A 
ATOM     43  C   UNL A   1      43.334  25.648  27.116  1.00  0.00     0.049 A 
ATOM     44  N   UNL A   1      41.590  27.614  28.593  1.00  0.00    -0.248 NA
ATOM     45  C   UNL A   1      39.942  25.967  28.739  1.00  0.00     0.031 C 
ATOM     46  C   UNL A   1      44.217  24.734  26.395  1.00  0.00     0.029 A 
ATOM     47  N   UNL A   1      44.037  26.825  27.171  1.00  0.00    -0.354 N 
ATOM     48  C   UNL A   1      40.479  28.131  29.250  1.00  0.00     0.074 A 
ATOM     49  C   UNL A   1      39.483  27.082  29.289  1.00  0.00     0.031 C 
ATOM     50  C   UNL A   1      45.339  25.391  26.054  1.00  0.00     0.029 A 
ATOM     51  C   UNL A   1      45.251  26.771  26.531  1.00  0.00     0.049 A 
ATOM     52  H   UNL A   1      43.703  27.631  27.627  1.00  0.00     0.167 HD
ATOM     53  C   UNL A   1      40.312  29.358  29.799  1.00  0.00     0.034 A 
ATOM     54  C   UNL A   1      46.183  27.727  26.348  1.00  0.00     0.034 A 
ATOM     55  C   UNL A   1      41.308  30.395  29.775  1.00  0.00     0.049 A 
ATOM     56  C   UNL A   1      45.974  29.084  26.970  1.00  0.00     0.074 A 
ATOM     57  C   UNL A   1      41.245  31.663  30.326  1.00  0.00     0.029 A 
ATOM     58  N   UNL A   1      42.546  30.287  29.162  1.00  0.00    -0.354 N 
ATOM     59  N   UNL A   1      44.974  29.511  27.703  1.00  0.00    -0.248 NA
ATOM     60  C   UNL A   1      47.040  30.077  26.775  1.00  0.00     0.031 C 
ATOM     61  C   UNL A   1      42.445  32.324  30.039  1.00  0.00     0.029 A 
ATOM     62  C   UNL A   1      43.258  31.464  29.319  1.00  0.00     0.049 A 
ATOM     63  H   UNL A   1      42.872  29.490  28.685  1.00  0.00     0.167 HD
ATOM     64  C   UNL A   1      45.300  30.810  28.077  1.00  0.00     0.074 A 
ATOM     65  C   UNL A   1      46.608  31.088  27.516  1.00  0.00     0.031 C 
ATOM     66  C   UNL A   1      44.577  31.705  28.796  1.00  0.00     0.034 A 
BRANCH  53  67
ATOM     67  C   UNL A   1      39.023  29.627  30.528  1.00  0.00     0.023 A 
ATOM     68  C   UNL A   1      38.816  29.037  31.793  1.00  0.00     0.012 A 
ATOM     69  C   UNL A   1      38.053  30.503  30.005  1.00  0.00     0.148 A 
ATOM     70  C   UNL A   1      37.652  29.299  32.516  1.00  0.00     0.002 A 
ATOM     71  C   UNL A   1      36.912  30.786  30.747  1.00  0.00     0.091 A 
ATOM     72  F   UNL A   1      38.259  31.034  28.791  1.00  0.00    -0.205 F 
ATOM     73  C   UNL A   1      36.707  30.180  31.998  1.00  0.00     0.022 A 
BRANCH  71  74
ATOM     74  S   UNL A   1      35.662  31.955  30.200  1.00  0.00     0.127 S 
ATOM     75  O   UNL A   1      36.472  33.137  29.906  1.00  0.00    -0.237 OA
ATOM     76  O   UNL A   1      35.110  31.287  29.021  1.00  0.00    -0.237 OA
ATOM     77  O   UNL A   1      34.732  32.097  31.311  1.00  0.00    -0.744 OA
ENDBRANCH  71  74
ENDBRANCH  53  67
BRANCH  54  78
ATOM     78  C   UNL A   1      47.424  27.417  25.584  1.00  0.00     0.023 A 
ATOM     79  C   UNL A   1      48.507  26.795  26.232  1.00  0.00     0.012 A 
ATOM     80  C   UNL A   1      47.527  27.716  24.211  1.00  0.00     0.148 A 
ATOM     81  C   UNL A   1      49.680  26.501  25.535  1.00  0.00     0.002 A 
ATOM     82  C   UNL A   1      48.675  27.368  23.508  1.00  0.00     0.091 A 
ATOM     83  F   UNL A   1      46.497  28.333  23.612  1.00  0.00    -0.205 F 
ATOM     84  C   UNL A   1      49.760  26.776  24.172  1.00  0.00     0.022 A 
BRANCH  82  85
ATOM     85  S   UNL A   1      48.786  27.559  21.726  1.00  0.00     0.127 S 
ATOM     86  O   UNL A   1      49.768  28.631  21.598  1.00  0.00    -0.237 OA
ATOM     87  O   UNL A   1      49.255  26.240  21.299  1.00  0.00    -0.237 OA
ATOM     88  O   UNL A   1      47.430  27.873  21.293  1.00  0.00    -0.744 OA
ENDBRANCH  82  85
ENDBRANCH  54  78
BRANCH  66  89
ATOM     89  C   UNL A   1      45.184  33.064  29.023  1.00  0.00     0.023 A 
ATOM     90  C   UNL A   1      46.106  33.242  30.075  1.00  0.00     0.012 A 
ATOM     91  C   UNL A   1      44.893  34.145  28.170  1.00  0.00     0.148 A 
ATOM     92  C   UNL A   1      46.701  34.482  30.295  1.00  0.00     0.002 A 
ATOM     93  C   UNL A   1      45.521  35.370  28.370  1.00  0.00     0.091 A 
ATOM     94  F   UNL A   1      43.997  33.967  27.188  1.00  0.00    -0.205 F 
ATOM     95  C   UNL A   1      46.417  35.543  29.438  1.00  0.00     0.022 A 
BRANCH  93  96
ATOM     96  S   UNL A   1      45.272  36.757  27.257  1.00  0.00     0.127 S 
ATOM     97  O   UNL A   1      45.584  37.894  28.120  1.00  0.00    -0.237 OA
ATOM     98  O   UNL A   1      46.259  36.503  26.205  1.00  0.00    -0.237 OA
ATOM     99  O   UNL A   1      43.888  36.658  26.813  1.00  0.00    -0.744 OA
ENDBRANCH  93  96
ENDBRANCH  66  89
ENDBRANCH  40  41
ENDBRANCH  33  35
ENDBRANCH  32  33
ENDBRANCH  31  32
ENDBRANCH  30  31
ENDBRANCH  29  30
ENDBRANCH   1  29
TORSDOF 21
ENDMDL
