MODEL 1
REMARK VINA RESULT:     -11.0      0.000      0.000
REMARK SMILES CCCCn1cc(C(N)=O)c2cc(C(=O)OCCOCCOC(=O)c3ccc(-c4c5nc(c(-c6cccc(S(=O)(=O)[O-])c6F)c6ccc([nH]6)c(-c6cccc(S(=O)(=O)[O-])c6F)c6nc(c(-c7cccc(S(=O)(=O)[O-])c7F)c7ccc4[nH]7)C=C6)C=C5)cc3)cnc21
REMARK SMILES IDX 19 1 18 2 17 3 16 4 14 5 15 6 13 7 5 8 6 9 90 10 7 11 11 12
REMARK SMILES IDX 89 13 12 14 88 15 4 16 3 17 2 18 1 19 8 20 9 21 10 22 20 25
REMARK SMILES IDX 21 26 22 27 23 28 24 29 25 30 26 31 87 32 27 33 86 34 28 35
REMARK SMILES IDX 29 36 30 37 80 38 31 39 85 40 79 41 81 42 32 43 84 44 78 45
REMARK SMILES IDX 77 46 33 48 65 49 45 50 64 51 46 52 49 53 63 54 82 55 47 56
REMARK SMILES IDX 48 57 62 59 83 60 50 61 34 62 35 63 43 64 36 65 38 66 44 67
REMARK SMILES IDX 37 68 39 69 40 70 41 71 42 72 66 73 67 74 75 75 68 76 70 77
REMARK SMILES IDX 76 78 69 79 71 80 72 81 73 82 74 83 51 84 52 85 60 86 53 87
REMARK SMILES IDX 55 88 61 89 54 90 56 91 57 92 58 93 59 94
REMARK H PARENT 9 23 9 24 81 47 49 58
REMARK Flexibility Score: inf
ROOT
ATOM      1  O   UNL A   1      31.109  29.303  24.823  1.00  0.00    -0.374 OA
ENDROOT
BRANCH   1   2
ATOM      2  C   UNL A   1      31.295  28.019  24.226  1.00  0.00     0.202 C 
BRANCH   2   3
ATOM      3  C   UNL A   1      31.643  27.942  22.739  1.00  0.00     0.261 C 
BRANCH   3   4
ATOM      4  O   UNL A   1      31.503  26.618  22.195  1.00  0.00    -0.460 OA
BRANCH   4   5
ATOM      5  C   UNL A   1      32.674  25.978  21.992  1.00  0.00     0.339 C 
ATOM      6  O   UNL A   1      33.669  26.422  21.425  1.00  0.00    -0.246 OA
BRANCH   5   7
ATOM      7  C   UNL A   1      32.724  24.716  22.736  1.00  0.00     0.079 A 
ATOM      8  N   UNL A   1      33.194  21.079  24.446  1.00  0.00    -0.332 N 
ATOM      9  C   UNL A   1      34.507  21.078  24.831  1.00  0.00     0.102 A 
ATOM     10  C   UNL A   1      32.874  22.311  23.933  1.00  0.00     0.140 A 
ATOM     11  C   UNL A   1      35.113  22.244  24.394  1.00  0.00     0.066 A 
ATOM     12  C   UNL A   1      34.067  23.029  23.808  1.00  0.00     0.033 A 
ATOM     13  N   UNL A   1      31.636  22.718  23.571  1.00  0.00    -0.237 NA
ATOM     14  C   UNL A   1      33.984  24.261  23.142  1.00  0.00     0.030 A 
ATOM     15  C   UNL A   1      31.605  23.949  23.006  1.00  0.00     0.129 A 
BRANCH   8  16
ATOM     16  C   UNL A   1      32.302  19.935  24.533  1.00  0.00     0.123 C 
BRANCH  16  17
ATOM     17  C   UNL A   1      32.914  18.724  25.258  1.00  0.00     0.022 C 
BRANCH  17  18
ATOM     18  C   UNL A   1      32.869  17.380  24.517  1.00  0.00    -0.002 C 
ATOM     19  C   UNL A   1      34.185  16.982  23.864  1.00  0.00     0.004 C 
ENDBRANCH  17  18
ENDBRANCH  16  17
ENDBRANCH   8  16
BRANCH  11  20
ATOM     20  C   UNL A   1      36.542  22.479  24.538  1.00  0.00     0.250 C 
ATOM     21  N   UNL A   1      36.925  23.653  25.110  1.00  0.00    -0.366 N 
ATOM     22  O   UNL A   1      37.398  21.666  24.184  1.00  0.00    -0.269 OA
ATOM     23  H   UNL A   1      36.247  24.306  25.395  1.00  0.00     0.159 HD
ATOM     24  H   UNL A   1      37.882  23.847  25.239  1.00  0.00     0.159 HD
ENDBRANCH  11  20
ENDBRANCH   5   7
ENDBRANCH   4   5
ENDBRANCH   3   4
ENDBRANCH   2   3
ENDBRANCH   1   2
BRANCH   1  25
ATOM     25  C   UNL A   1      32.115  29.858  25.664  1.00  0.00     0.202 C 
BRANCH  25  26
ATOM     26  C   UNL A   1      31.792  31.064  26.533  1.00  0.00     0.261 C 
BRANCH  26  27
ATOM     27  O   UNL A   1      32.889  31.452  27.339  1.00  0.00    -0.460 OA
BRANCH  27  28
ATOM     28  C   UNL A   1      32.846  32.754  27.679  1.00  0.00     0.338 C 
ATOM     29  O   UNL A   1      31.998  33.582  27.341  1.00  0.00    -0.246 OA
BRANCH  28  30
ATOM     30  C   UNL A   1      34.045  33.099  28.428  1.00  0.00     0.060 A 
ATOM     31  C   UNL A   1      35.051  33.738  27.699  1.00  0.00     0.016 A 
ATOM     32  C   UNL A   1      34.287  32.411  29.624  1.00  0.00     0.016 A 
ATOM     33  C   UNL A   1      36.349  33.446  28.023  1.00  0.00     0.010 A 
ATOM     34  C   UNL A   1      35.583  32.091  29.921  1.00  0.00     0.010 A 
ATOM     35  C   UNL A   1      36.581  32.539  29.060  1.00  0.00    -0.014 A 
BRANCH  35  36
ATOM     36  C   UNL A   1      37.938  32.129  29.300  1.00  0.00     0.031 A 
ATOM     37  C   UNL A   1      38.140  30.706  28.971  1.00  0.00     0.074 A 
ATOM     38  C   UNL A   1      38.889  32.990  29.696  1.00  0.00     0.049 A 
ATOM     39  N   UNL A   1      38.227  29.722  29.801  1.00  0.00    -0.248 NA
ATOM     40  C   UNL A   1      37.986  30.306  27.563  1.00  0.00     0.031 C 
ATOM     41  C   UNL A   1      38.828  34.454  29.759  1.00  0.00     0.029 A 
ATOM     42  N   UNL A   1      40.182  32.724  30.005  1.00  0.00    -0.354 N 
ATOM     43  C   UNL A   1      38.413  28.608  28.996  1.00  0.00     0.074 A 
ATOM     44  C   UNL A   1      37.999  28.978  27.668  1.00  0.00     0.031 C 
ATOM     45  C   UNL A   1      40.089  34.942  29.841  1.00  0.00     0.029 A 
ATOM     46  C   UNL A   1      41.019  33.832  29.962  1.00  0.00     0.049 A 
ATOM     47  H   UNL A   1      40.499  31.822  30.239  1.00  0.00     0.167 HD
ATOM     48  C   UNL A   1      39.203  27.578  29.393  1.00  0.00     0.034 A 
ATOM     49  C   UNL A   1      42.375  33.787  29.925  1.00  0.00     0.034 A 
ATOM     50  C   UNL A   1      39.489  27.623  30.801  1.00  0.00     0.049 A 
ATOM     51  C   UNL A   1      42.764  32.447  30.441  1.00  0.00     0.074 A 
ATOM     52  C   UNL A   1      38.729  27.605  31.952  1.00  0.00     0.029 A 
ATOM     53  N   UNL A   1      40.718  28.125  31.155  1.00  0.00    -0.354 N 
ATOM     54  N   UNL A   1      42.565  32.058  31.669  1.00  0.00    -0.248 NA
ATOM     55  C   UNL A   1      42.994  31.384  29.476  1.00  0.00     0.031 C 
ATOM     56  C   UNL A   1      39.386  28.502  32.843  1.00  0.00     0.029 A 
ATOM     57  C   UNL A   1      40.536  28.979  32.210  1.00  0.00     0.049 A 
ATOM     58  H   UNL A   1      41.577  27.910  30.725  1.00  0.00     0.167 HD
ATOM     59  C   UNL A   1      42.202  30.722  31.553  1.00  0.00     0.074 A 
ATOM     60  C   UNL A   1      42.595  30.335  30.201  1.00  0.00     0.031 C 
ATOM     61  C   UNL A   1      41.353  30.148  32.453  1.00  0.00     0.034 A 
BRANCH  48  62
ATOM     62  C   UNL A   1      40.043  26.785  28.434  1.00  0.00     0.023 A 
ATOM     63  C   UNL A   1      40.038  25.385  28.552  1.00  0.00     0.012 A 
ATOM     64  C   UNL A   1      41.019  27.366  27.591  1.00  0.00     0.148 A 
ATOM     65  C   UNL A   1      40.956  24.598  27.851  1.00  0.00     0.002 A 
ATOM     66  C   UNL A   1      41.863  26.578  26.824  1.00  0.00     0.091 A 
ATOM     67  F   UNL A   1      41.239  28.684  27.633  1.00  0.00    -0.205 F 
ATOM     68  C   UNL A   1      41.854  25.192  26.967  1.00  0.00     0.022 A 
BRANCH  66  69
ATOM     69  S   UNL A   1      42.990  27.311  25.634  1.00  0.00     0.127 S 
ATOM     70  O   UNL A   1      44.003  27.890  26.509  1.00  0.00    -0.237 OA
ATOM     71  O   UNL A   1      43.421  26.140  24.869  1.00  0.00    -0.237 OA
ATOM     72  O   UNL A   1      42.181  28.253  24.869  1.00  0.00    -0.744 OA
ENDBRANCH  66  69
ENDBRANCH  48  62
BRANCH  49  73
ATOM     73  C   UNL A   1      43.353  34.644  29.205  1.00  0.00     0.023 A 
ATOM     74  C   UNL A   1      44.060  35.622  29.939  1.00  0.00     0.012 A 
ATOM     75  C   UNL A   1      43.827  34.320  27.915  1.00  0.00     0.148 A 
ATOM     76  C   UNL A   1      45.237  36.197  29.442  1.00  0.00     0.002 A 
ATOM     77  C   UNL A   1      44.992  34.903  27.419  1.00  0.00     0.091 A 
ATOM     78  F   UNL A   1      43.202  33.369  27.211  1.00  0.00    -0.205 F 
ATOM     79  C   UNL A   1      45.711  35.826  28.189  1.00  0.00     0.022 A 
BRANCH  77  80
ATOM     80  S   UNL A   1      45.668  34.466  25.810  1.00  0.00     0.127 S 
ATOM     81  O   UNL A   1      46.626  35.547  25.576  1.00  0.00    -0.237 OA
ATOM     82  O   UNL A   1      46.270  33.163  26.078  1.00  0.00    -0.237 OA
ATOM     83  O   UNL A   1      44.535  34.467  24.894  1.00  0.00    -0.744 OA
ENDBRANCH  77  80
ENDBRANCH  49  73
BRANCH  61  84
ATOM     84  C   UNL A   1      41.044  30.909  33.715  1.00  0.00     0.023 A 
ATOM     85  C   UNL A   1      41.901  30.892  34.836  1.00  0.00     0.012 A 
ATOM     86  C   UNL A   1      39.974  31.817  33.684  1.00  0.00     0.148 A 
ATOM     87  C   UNL A   1      41.692  31.769  35.906  1.00  0.00     0.002 A 
ATOM     88  C   UNL A   1      39.793  32.711  34.729  1.00  0.00     0.091 A 
ATOM     89  F   UNL A   1      39.182  31.818  32.602  1.00  0.00    -0.205 F 
ATOM     90  C   UNL A   1      40.647  32.689  35.844  1.00  0.00     0.022 A 
BRANCH  88  91
ATOM     91  S   UNL A   1      38.541  33.995  34.666  1.00  0.00     0.127 S 
ATOM     92  O   UNL A   1      38.848  34.781  35.859  1.00  0.00    -0.237 OA
ATOM     93  O   UNL A   1      38.845  34.661  33.398  1.00  0.00    -0.237 OA
ATOM     94  O   UNL A   1      37.254  33.310  34.689  1.00  0.00    -0.744 OA
ENDBRANCH  88  91
ENDBRANCH  61  84
ENDBRANCH  35  36
ENDBRANCH  28  30
ENDBRANCH  27  28
ENDBRANCH  26  27
ENDBRANCH  25  26
ENDBRANCH   1  25
TORSDOF 21
ENDMDL
MODEL 2
REMARK VINA RESULT:     -10.8      3.412      7.286
REMARK SMILES CCCCn1cc(C(N)=O)c2cc(C(=O)OCCOCCOC(=O)c3ccc(-c4c5nc(c(-c6cccc(S(=O)(=O)[O-])c6F)c6ccc([nH]6)c(-c6cccc(S(=O)(=O)[O-])c6F)c6nc(c(-c7cccc(S(=O)(=O)[O-])c7F)c7ccc4[nH]7)C=C6)C=C5)cc3)cnc21
REMARK SMILES IDX 19 1 18 2 17 3 16 4 14 5 15 6 13 7 5 8 6 9 90 10 7 11 11 12
REMARK SMILES IDX 89 13 12 14 88 15 4 16 3 17 2 18 1 19 8 20 9 21 10 22 20 25
REMARK SMILES IDX 21 26 22 27 23 28 24 29 25 30 26 31 87 32 27 33 86 34 28 35
REMARK SMILES IDX 29 36 30 37 80 38 31 39 85 40 79 41 81 42 32 43 84 44 78 45
REMARK SMILES IDX 77 46 33 48 65 49 45 50 64 51 46 52 49 53 63 54 82 55 47 56
REMARK SMILES IDX 48 57 62 59 83 60 50 61 34 62 35 63 43 64 36 65 38 66 44 67
REMARK SMILES IDX 37 68 39 69 40 70 41 71 42 72 66 73 67 74 75 75 68 76 70 77
REMARK SMILES IDX 76 78 69 79 71 80 72 81 73 82 74 83 51 84 52 85 60 86 53 87
REMARK SMILES IDX 55 88 61 89 54 90 56 91 57 92 58 93 59 94
REMARK H PARENT 9 23 9 24 81 47 49 58
REMARK Flexibility Score: inf
ROOT
ATOM      1  O   UNL A   1      33.401  29.422  25.210  1.00  0.00    -0.374 OA
ENDROOT
BRANCH   1   2
ATOM      2  C   UNL A   1      33.041  28.121  24.743  1.00  0.00     0.202 C 
BRANCH   2   3
ATOM      3  C   UNL A   1      32.134  27.251  25.614  1.00  0.00     0.261 C 
BRANCH   3   4
ATOM      4  O   UNL A   1      32.066  25.885  25.169  1.00  0.00    -0.460 OA
BRANCH   4   5
ATOM      5  C   UNL A   1      31.466  25.048  26.043  1.00  0.00     0.339 C 
ATOM      6  O   UNL A   1      30.540  25.316  26.804  1.00  0.00    -0.246 OA
BRANCH   5   7
ATOM      7  C   UNL A   1      31.905  23.665  25.838  1.00  0.00     0.079 A 
ATOM      8  N   UNL A   1      33.322  20.008  24.845  1.00  0.00    -0.332 N 
ATOM      9  C   UNL A   1      34.680  20.181  24.858  1.00  0.00     0.102 A 
ATOM     10  C   UNL A   1      32.715  21.164  25.267  1.00  0.00     0.140 A 
ATOM     11  C   UNL A   1      34.969  21.514  25.100  1.00  0.00     0.066 A 
ATOM     12  C   UNL A   1      33.708  22.145  25.351  1.00  0.00     0.033 A 
ATOM     13  N   UNL A   1      31.393  21.321  25.500  1.00  0.00    -0.237 NA
ATOM     14  C   UNL A   1      33.268  23.453  25.604  1.00  0.00     0.030 A 
ATOM     15  C   UNL A   1      31.036  22.588  25.820  1.00  0.00     0.129 A 
BRANCH   8  16
ATOM     16  C   UNL A   1      32.644  18.799  24.409  1.00  0.00     0.123 C 
BRANCH  16  17
ATOM     17  C   UNL A   1      33.043  17.542  25.200  1.00  0.00     0.022 C 
BRANCH  17  18
ATOM     18  C   UNL A   1      33.430  16.303  24.380  1.00  0.00    -0.002 C 
ATOM     19  C   UNL A   1      34.108  16.617  23.054  1.00  0.00     0.004 C 
ENDBRANCH  17  18
ENDBRANCH  16  17
ENDBRANCH   8  16
BRANCH  11  20
ATOM     20  C   UNL A   1      36.326  22.037  25.046  1.00  0.00     0.250 C 
ATOM     21  N   UNL A   1      36.805  22.640  26.168  1.00  0.00    -0.366 N 
ATOM     22  O   UNL A   1      37.046  21.942  24.051  1.00  0.00    -0.269 OA
ATOM     23  H   UNL A   1      36.235  22.718  26.966  1.00  0.00     0.159 HD
ATOM     24  H   UNL A   1      37.723  22.996  26.181  1.00  0.00     0.159 HD
ENDBRANCH  11  20
ENDBRANCH   5   7
ENDBRANCH   4   5
ENDBRANCH   3   4
ENDBRANCH   2   3
ENDBRANCH   1   2
BRANCH   1  25
ATOM     25  C   UNL A   1      32.888  29.910  26.446  1.00  0.00     0.202 C 
BRANCH  25  26
ATOM     26  C   UNL A   1      33.488  31.161  27.071  1.00  0.00     0.261 C 
BRANCH  26  27
ATOM     27  O   UNL A   1      34.361  30.857  28.142  1.00  0.00    -0.460 OA
BRANCH  27  28
ATOM     28  C   UNL A   1      35.394  31.716  28.228  1.00  0.00     0.338 C 
ATOM     29  O   UNL A   1      35.539  32.768  27.601  1.00  0.00    -0.246 OA
BRANCH  28  30
ATOM     30  C   UNL A   1      36.415  31.160  29.102  1.00  0.00     0.060 A 
ATOM     31  C   UNL A   1      37.551  31.952  29.285  1.00  0.00     0.016 A 
ATOM     32  C   UNL A   1      36.406  29.776  29.319  1.00  0.00     0.016 A 
ATOM     33  C   UNL A   1      38.755  31.312  29.413  1.00  0.00     0.010 A 
ATOM     34  C   UNL A   1      37.613  29.139  29.408  1.00  0.00     0.010 A 
ATOM     35  C   UNL A   1      38.767  29.916  29.359  1.00  0.00    -0.014 A 
BRANCH  35  36
ATOM     36  C   UNL A   1      40.045  29.257  29.351  1.00  0.00     0.031 A 
ATOM     37  C   UNL A   1      40.587  29.110  30.713  1.00  0.00     0.074 A 
ATOM     38  C   UNL A   1      40.598  28.778  28.225  1.00  0.00     0.049 A 
ATOM     39  N   UNL A   1      41.520  29.817  31.258  1.00  0.00    -0.248 NA
ATOM     40  C   UNL A   1      39.849  28.247  31.649  1.00  0.00     0.031 C 
ATOM     41  C   UNL A   1      39.991  28.631  26.898  1.00  0.00     0.029 A 
ATOM     42  N   UNL A   1      41.810  28.189  28.074  1.00  0.00    -0.354 N 
ATOM     43  C   UNL A   1      41.657  29.283  32.531  1.00  0.00     0.074 A 
ATOM     44  C   UNL A   1      40.462  28.528  32.799  1.00  0.00     0.031 C 
ATOM     45  C   UNL A   1      40.743  27.776  26.164  1.00  0.00     0.029 A 
ATOM     46  C   UNL A   1      41.933  27.425  26.919  1.00  0.00     0.049 A 
ATOM     47  H   UNL A   1      42.539  28.294  28.727  1.00  0.00     0.167 HD
ATOM     48  C   UNL A   1      42.870  29.214  33.137  1.00  0.00     0.034 A 
ATOM     49  C   UNL A   1      42.906  26.506  26.691  1.00  0.00     0.034 A 
ATOM     50  C   UNL A   1      43.848  30.047  32.492  1.00  0.00     0.049 A 
ATOM     51  C   UNL A   1      44.023  26.839  27.613  1.00  0.00     0.074 A 
ATOM     52  C   UNL A   1      43.957  31.395  32.223  1.00  0.00     0.029 A 
ATOM     53  N   UNL A   1      44.724  29.410  31.647  1.00  0.00    -0.354 N 
ATOM     54  N   UNL A   1      44.730  27.932  27.529  1.00  0.00    -0.248 NA
ATOM     55  C   UNL A   1      44.082  26.151  28.893  1.00  0.00     0.031 C 
ATOM     56  C   UNL A   1      44.563  31.467  30.936  1.00  0.00     0.029 A 
ATOM     57  C   UNL A   1      44.837  30.165  30.511  1.00  0.00     0.049 A 
ATOM     58  H   UNL A   1      45.188  28.561  31.826  1.00  0.00     0.167 HD
ATOM     59  C   UNL A   1      44.951  28.302  28.850  1.00  0.00     0.074 A 
ATOM     60  C   UNL A   1      44.632  27.114  29.638  1.00  0.00     0.031 C 
ATOM     61  C   UNL A   1      45.082  29.614  29.196  1.00  0.00     0.034 A 
BRANCH  48  62
ATOM     62  C   UNL A   1      43.258  28.083  34.044  1.00  0.00     0.023 A 
ATOM     63  C   UNL A   1      43.649  28.393  35.358  1.00  0.00     0.012 A 
ATOM     64  C   UNL A   1      43.492  26.764  33.587  1.00  0.00     0.148 A 
ATOM     65  C   UNL A   1      44.234  27.429  36.184  1.00  0.00     0.002 A 
ATOM     66  C   UNL A   1      43.982  25.787  34.440  1.00  0.00     0.091 A 
ATOM     67  F   UNL A   1      43.380  26.479  32.286  1.00  0.00    -0.205 F 
ATOM     68  C   UNL A   1      44.378  26.119  35.734  1.00  0.00     0.022 A 
BRANCH  66  69
ATOM     69  S   UNL A   1      44.124  24.079  33.909  1.00  0.00     0.127 S 
ATOM     70  O   UNL A   1      45.344  23.661  34.592  1.00  0.00    -0.237 OA
ATOM     71  O   UNL A   1      42.887  23.498  34.431  1.00  0.00    -0.237 OA
ATOM     72  O   UNL A   1      44.185  24.133  32.453  1.00  0.00    -0.744 OA
ENDBRANCH  66  69
ENDBRANCH  48  62
BRANCH  49  73
ATOM     73  C   UNL A   1      42.853  25.194  25.994  1.00  0.00     0.023 A 
ATOM     74  C   UNL A   1      43.905  24.853  25.116  1.00  0.00     0.012 A 
ATOM     75  C   UNL A   1      41.979  24.163  26.404  1.00  0.00     0.148 A 
ATOM     76  C   UNL A   1      44.128  23.528  24.724  1.00  0.00     0.002 A 
ATOM     77  C   UNL A   1      42.197  22.846  26.001  1.00  0.00     0.091 A 
ATOM     78  F   UNL A   1      40.996  24.445  27.266  1.00  0.00    -0.205 F 
ATOM     79  C   UNL A   1      43.283  22.522  25.179  1.00  0.00     0.022 A 
BRANCH  77  80
ATOM     80  S   UNL A   1      41.150  21.492  26.557  1.00  0.00     0.127 S 
ATOM     81  O   UNL A   1      41.850  20.324  26.022  1.00  0.00    -0.237 OA
ATOM     82  O   UNL A   1      41.215  21.634  28.008  1.00  0.00    -0.237 OA
ATOM     83  O   UNL A   1      39.845  21.731  25.953  1.00  0.00    -0.744 OA
ENDBRANCH  77  80
ENDBRANCH  49  73
BRANCH  61  84
ATOM     84  C   UNL A   1      45.259  30.620  28.088  1.00  0.00     0.023 A 
ATOM     85  C   UNL A   1      44.164  31.231  27.442  1.00  0.00     0.012 A 
ATOM     86  C   UNL A   1      46.555  31.101  27.846  1.00  0.00     0.148 A 
ATOM     87  C   UNL A   1      44.363  32.307  26.570  1.00  0.00     0.002 A 
ATOM     88  C   UNL A   1      46.744  32.192  27.010  1.00  0.00     0.091 A 
ATOM     89  F   UNL A   1      47.575  30.507  28.482  1.00  0.00    -0.205 F 
ATOM     90  C   UNL A   1      45.652  32.797  26.367  1.00  0.00     0.022 A 
BRANCH  88  91
ATOM     91  S   UNL A   1      48.358  32.944  26.793  1.00  0.00     0.127 S 
ATOM     92  O   UNL A   1      48.102  33.919  25.734  1.00  0.00    -0.237 OA
ATOM     93  O   UNL A   1      48.609  33.526  28.112  1.00  0.00    -0.237 OA
ATOM     94  O   UNL A   1      49.267  31.862  26.432  1.00  0.00    -0.744 OA
ENDBRANCH  88  91
ENDBRANCH  61  84
ENDBRANCH  35  36
ENDBRANCH  28  30
ENDBRANCH  27  28
ENDBRANCH  26  27
ENDBRANCH  25  26
ENDBRANCH   1  25
TORSDOF 21
ENDMDL
MODEL 3
REMARK VINA RESULT:     -10.6      1.879      2.187
REMARK SMILES CCCCn1cc(C(N)=O)c2cc(C(=O)OCCOCCOC(=O)c3ccc(-c4c5nc(c(-c6cccc(S(=O)(=O)[O-])c6F)c6ccc([nH]6)c(-c6cccc(S(=O)(=O)[O-])c6F)c6nc(c(-c7cccc(S(=O)(=O)[O-])c7F)c7ccc4[nH]7)C=C6)C=C5)cc3)cnc21
REMARK SMILES IDX 19 1 18 2 17 3 16 4 14 5 15 6 13 7 5 8 6 9 90 10 7 11 11 12
REMARK SMILES IDX 89 13 12 14 88 15 4 16 3 17 2 18 1 19 8 20 9 21 10 22 20 25
REMARK SMILES IDX 21 26 22 27 23 28 24 29 25 30 26 31 87 32 27 33 86 34 28 35
REMARK SMILES IDX 29 36 30 37 80 38 31 39 85 40 79 41 81 42 32 43 84 44 78 45
REMARK SMILES IDX 77 46 33 48 65 49 45 50 64 51 46 52 49 53 63 54 82 55 47 56
REMARK SMILES IDX 48 57 62 59 83 60 50 61 34 62 35 63 43 64 36 65 38 66 44 67
REMARK SMILES IDX 37 68 39 69 40 70 41 71 42 72 66 73 67 74 75 75 68 76 70 77
REMARK SMILES IDX 76 78 69 79 71 80 72 81 73 82 74 83 51 84 52 85 60 86 53 87
REMARK SMILES IDX 55 88 61 89 54 90 56 91 57 92 58 93 59 94
REMARK H PARENT 9 23 9 24 81 47 49 58
REMARK Flexibility Score: inf
ROOT
ATOM      1  O   UNL A   1      31.081  29.123  24.699  1.00  0.00    -0.374 OA
ENDROOT
BRANCH   1   2
ATOM      2  C   UNL A   1      31.319  27.841  24.115  1.00  0.00     0.202 C 
BRANCH   2   3
ATOM      3  C   UNL A   1      31.673  27.764  22.629  1.00  0.00     0.261 C 
BRANCH   3   4
ATOM      4  O   UNL A   1      31.670  26.419  22.119  1.00  0.00    -0.460 OA
BRANCH   4   5
ATOM      5  C   UNL A   1      32.886  25.830  22.108  1.00  0.00     0.339 C 
ATOM      6  O   UNL A   1      33.946  26.334  21.746  1.00  0.00    -0.246 OA
BRANCH   5   7
ATOM      7  C   UNL A   1      32.856  24.540  22.802  1.00  0.00     0.079 A 
ATOM      8  N   UNL A   1      33.142  20.839  24.411  1.00  0.00    -0.332 N 
ATOM      9  C   UNL A   1      34.404  20.820  24.940  1.00  0.00     0.102 A 
ATOM     10  C   UNL A   1      32.878  22.090  23.914  1.00  0.00     0.140 A 
ATOM     11  C   UNL A   1      35.052  22.002  24.619  1.00  0.00     0.066 A 
ATOM     12  C   UNL A   1      34.076  22.811  23.951  1.00  0.00     0.033 A 
ATOM     13  N   UNL A   1      31.688  22.512  23.432  1.00  0.00    -0.237 NA
ATOM     14  C   UNL A   1      34.064  24.068  23.329  1.00  0.00     0.030 A 
ATOM     15  C   UNL A   1      31.716  23.765  22.916  1.00  0.00     0.129 A 
BRANCH   8  16
ATOM     16  C   UNL A   1      32.250  19.693  24.353  1.00  0.00     0.123 C 
BRANCH  16  17
ATOM     17  C   UNL A   1      32.949  18.347  24.610  1.00  0.00     0.022 C 
BRANCH  17  18
ATOM     18  C   UNL A   1      32.969  17.346  23.447  1.00  0.00    -0.002 C 
ATOM     19  C   UNL A   1      34.352  16.802  23.115  1.00  0.00     0.004 C 
ENDBRANCH  17  18
ENDBRANCH  16  17
ENDBRANCH   8  16
BRANCH  11  20
ATOM     20  C   UNL A   1      36.456  22.229  24.931  1.00  0.00     0.250 C 
ATOM     21  N   UNL A   1      36.750  22.680  26.179  1.00  0.00    -0.366 N 
ATOM     22  O   UNL A   1      37.367  22.017  24.128  1.00  0.00    -0.269 OA
ATOM     23  H   UNL A   1      36.027  22.851  26.825  1.00  0.00     0.159 HD
ATOM     24  H   UNL A   1      37.688  22.834  26.438  1.00  0.00     0.159 HD
ENDBRANCH  11  20
ENDBRANCH   5   7
ENDBRANCH   4   5
ENDBRANCH   3   4
ENDBRANCH   2   3
ENDBRANCH   1   2
BRANCH   1  25
ATOM     25  C   UNL A   1      32.141  29.834  25.330  1.00  0.00     0.202 C 
BRANCH  25  26
ATOM     26  C   UNL A   1      31.846  30.715  26.535  1.00  0.00     0.261 C 
BRANCH  26  27
ATOM     27  O   UNL A   1      33.022  31.276  27.087  1.00  0.00    -0.460 OA
BRANCH  27  28
ATOM     28  C   UNL A   1      32.840  32.539  27.516  1.00  0.00     0.338 C 
ATOM     29  O   UNL A   1      31.917  33.300  27.216  1.00  0.00    -0.246 OA
BRANCH  28  30
ATOM     30  C   UNL A   1      33.984  32.949  28.316  1.00  0.00     0.060 A 
ATOM     31  C   UNL A   1      34.982  33.647  27.632  1.00  0.00     0.016 A 
ATOM     32  C   UNL A   1      34.214  32.272  29.521  1.00  0.00     0.016 A 
ATOM     33  C   UNL A   1      36.280  33.428  28.011  1.00  0.00     0.010 A 
ATOM     34  C   UNL A   1      35.512  32.025  29.873  1.00  0.00     0.010 A 
ATOM     35  C   UNL A   1      36.518  32.532  29.056  1.00  0.00    -0.014 A 
BRANCH  35  36
ATOM     36  C   UNL A   1      37.885  32.199  29.354  1.00  0.00     0.031 A 
ATOM     37  C   UNL A   1      38.178  30.788  29.043  1.00  0.00     0.074 A 
ATOM     38  C   UNL A   1      38.770  33.114  29.782  1.00  0.00     0.049 A 
ATOM     39  N   UNL A   1      38.286  29.814  29.883  1.00  0.00    -0.248 NA
ATOM     40  C   UNL A   1      38.104  30.373  27.633  1.00  0.00     0.031 C 
ATOM     41  C   UNL A   1      38.626  34.572  29.832  1.00  0.00     0.029 A 
ATOM     42  N   UNL A   1      40.062  32.920  30.145  1.00  0.00    -0.354 N 
ATOM     43  C   UNL A   1      38.565  28.708  29.094  1.00  0.00     0.074 A 
ATOM     44  C   UNL A   1      38.186  29.048  27.749  1.00  0.00     0.031 C 
ATOM     45  C   UNL A   1      39.854  35.129  29.962  1.00  0.00     0.029 A 
ATOM     46  C   UNL A   1      40.838  34.073  30.128  1.00  0.00     0.049 A 
ATOM     47  H   UNL A   1      40.419  32.039  30.398  1.00  0.00     0.167 HD
ATOM     48  C   UNL A   1      39.394  27.726  29.531  1.00  0.00     0.034 A 
ATOM     49  C   UNL A   1      42.195  34.103  30.146  1.00  0.00     0.034 A 
ATOM     50  C   UNL A   1      39.619  27.793  30.949  1.00  0.00     0.049 A 
ATOM     51  C   UNL A   1      42.635  32.790  30.687  1.00  0.00     0.074 A 
ATOM     52  C   UNL A   1      38.815  27.739  32.068  1.00  0.00     0.029 A 
ATOM     53  N   UNL A   1      40.803  28.365  31.348  1.00  0.00    -0.354 N 
ATOM     54  N   UNL A   1      42.408  32.396  31.909  1.00  0.00    -0.248 NA
ATOM     55  C   UNL A   1      42.963  31.736  29.739  1.00  0.00     0.031 C 
ATOM     56  C   UNL A   1      39.385  28.675  32.978  1.00  0.00     0.029 A 
ATOM     57  C   UNL A   1      40.532  29.212  32.389  1.00  0.00     0.049 A 
ATOM     58  H   UNL A   1      41.689  28.195  30.955  1.00  0.00     0.167 HD
ATOM     59  C   UNL A   1      42.124  31.042  31.788  1.00  0.00     0.074 A 
ATOM     60  C   UNL A   1      42.593  30.670  30.455  1.00  0.00     0.031 C 
ATOM     61  C   UNL A   1      41.272  30.426  32.656  1.00  0.00     0.034 A 
BRANCH  48  62
ATOM     62  C   UNL A   1      40.315  26.976  28.612  1.00  0.00     0.023 A 
ATOM     63  C   UNL A   1      41.216  27.717  27.828  1.00  0.00     0.012 A 
ATOM     64  C   UNL A   1      40.160  25.603  28.307  1.00  0.00     0.148 A 
ATOM     65  C   UNL A   1      41.939  27.114  26.795  1.00  0.00     0.002 A 
ATOM     66  C   UNL A   1      40.950  24.989  27.348  1.00  0.00     0.091 A 
ATOM     67  F   UNL A   1      39.147  24.911  28.838  1.00  0.00    -0.205 F 
ATOM     68  C   UNL A   1      41.826  25.745  26.570  1.00  0.00     0.022 A 
BRANCH  66  69
ATOM     69  S   UNL A   1      40.870  23.217  27.074  1.00  0.00     0.127 S 
ATOM     70  O   UNL A   1      39.505  23.059  26.582  1.00  0.00    -0.237 OA
ATOM     71  O   UNL A   1      41.920  23.019  26.075  1.00  0.00    -0.237 OA
ATOM     72  O   UNL A   1      41.164  22.615  28.370  1.00  0.00    -0.744 OA
ENDBRANCH  66  69
ENDBRANCH  48  62
BRANCH  49  73
ATOM     73  C   UNL A   1      43.153  35.009  29.461  1.00  0.00     0.023 A 
ATOM     74  C   UNL A   1      43.352  34.854  28.071  1.00  0.00     0.012 A 
ATOM     75  C   UNL A   1      43.622  36.197  30.062  1.00  0.00     0.148 A 
ATOM     76  C   UNL A   1      43.923  35.871  27.298  1.00  0.00     0.002 A 
ATOM     77  C   UNL A   1      44.202  37.204  29.291  1.00  0.00     0.091 A 
ATOM     78  F   UNL A   1      43.414  36.392  31.370  1.00  0.00    -0.205 F 
ATOM     79  C   UNL A   1      44.334  37.052  27.906  1.00  0.00     0.022 A 
BRANCH  77  80
ATOM     80  S   UNL A   1      44.749  38.760  30.008  1.00  0.00     0.127 S 
ATOM     81  O   UNL A   1      45.563  39.325  28.930  1.00  0.00    -0.237 OA
ATOM     82  O   UNL A   1      43.484  39.448  30.243  1.00  0.00    -0.237 OA
ATOM     83  O   UNL A   1      45.508  38.400  31.199  1.00  0.00    -0.744 OA
ENDBRANCH  77  80
ENDBRANCH  49  73
BRANCH  61  84
ATOM     84  C   UNL A   1      40.871  31.175  33.900  1.00  0.00     0.023 A 
ATOM     85  C   UNL A   1      41.684  31.216  35.052  1.00  0.00     0.012 A 
ATOM     86  C   UNL A   1      39.750  32.016  33.821  1.00  0.00     0.148 A 
ATOM     87  C   UNL A   1      41.383  32.085  36.105  1.00  0.00     0.002 A 
ATOM     88  C   UNL A   1      39.476  32.904  34.851  1.00  0.00     0.091 A 
ATOM     89  F   UNL A   1      39.001  31.962  32.710  1.00  0.00    -0.205 F 
ATOM     90  C   UNL A   1      40.288  32.941  35.997  1.00  0.00     0.022 A 
BRANCH  88  91
ATOM     91  S   UNL A   1      38.153  34.110  34.729  1.00  0.00     0.127 S 
ATOM     92  O   UNL A   1      37.354  33.808  35.916  1.00  0.00    -0.237 OA
ATOM     93  O   UNL A   1      38.883  35.377  34.788  1.00  0.00    -0.237 OA
ATOM     94  O   UNL A   1      37.489  33.858  33.456  1.00  0.00    -0.744 OA
ENDBRANCH  88  91
ENDBRANCH  61  84
ENDBRANCH  35  36
ENDBRANCH  28  30
ENDBRANCH  27  28
ENDBRANCH  26  27
ENDBRANCH  25  26
ENDBRANCH   1  25
TORSDOF 21
ENDMDL
