MODEL 1
REMARK VINA RESULT:      -8.7      0.000      0.000
REMARK SMILES CCCN(CCC)c1cc(C(=O)OCCOCCOC(=O)c2ccc(-c3c4nc(c(-c5cccc(S(=O)(=O)[O-])c5F)c5ccc([nH]5)c(-c5cccc(S(=O)(=O)[O-])c5F)c5nc(c(-c6cccc(S(=O)(=O)[O-])c6F)c6ccc3[nH]6)C=C5)C=C4)cc2)cc(C(F)(F)F)c1
REMARK SMILES IDX 16 1 15 2 14 3 13 4 11 5 12 6 10 7 8 8 9 9 91 10 86 11 85 12
REMARK SMILES IDX 4 13 3 14 2 15 1 16 5 17 6 18 7 19 87 20 88 21 89 22 90 23
REMARK SMILES IDX 17 24 18 25 19 26 20 27 21 28 22 29 23 30 84 31 24 32 83 33
REMARK SMILES IDX 25 34 26 35 27 36 77 37 28 38 82 39 76 40 78 41 29 42 81 43
REMARK SMILES IDX 75 44 74 45 30 47 62 48 42 49 61 50 43 51 46 52 60 53 79 54
REMARK SMILES IDX 44 55 45 56 59 58 80 59 47 60 31 61 32 62 40 63 33 64 35 65
REMARK SMILES IDX 41 66 34 67 36 68 37 69 38 70 39 71 63 72 64 73 72 74 65 75
REMARK SMILES IDX 67 76 73 77 66 78 68 79 69 80 70 81 71 82 48 83 49 84 57 85
REMARK SMILES IDX 50 86 52 87 58 88 51 89 53 90 54 91 55 92 56 93
REMARK H PARENT 78 46 46 57
REMARK Flexibility Score: inf
ROOT
ATOM      1  O   UNL A   1      38.938  20.367  25.693  1.00  0.00    -0.374 OA
ENDROOT
BRANCH   1   2
ATOM      2  C   UNL A   1      38.171  21.572  25.788  1.00  0.00     0.202 C 
BRANCH   2   3
ATOM      3  C   UNL A   1      37.020  21.714  24.785  1.00  0.00     0.261 C 
BRANCH   3   4
ATOM      4  O   UNL A   1      36.609  23.091  24.712  1.00  0.00    -0.460 OA
BRANCH   4   5
ATOM      5  C   UNL A   1      35.721  23.406  23.736  1.00  0.00     0.338 C 
ATOM      6  O   UNL A   1      35.764  23.079  22.567  1.00  0.00    -0.246 OA
BRANCH   5   7
ATOM      7  C   UNL A   1      34.528  24.004  24.389  1.00  0.00     0.062 A 
ATOM      8  C   UNL A   1      33.077  25.952  24.546  1.00  0.00     0.038 A 
ATOM      9  C   UNL A   1      34.281  25.364  24.155  1.00  0.00     0.041 A 
ATOM     10  C   UNL A   1      32.147  25.152  25.217  1.00  0.00     0.039 A 
ATOM     11  C   UNL A   1      32.426  23.823  25.572  1.00  0.00     0.058 A 
ATOM     12  C   UNL A   1      33.614  23.238  25.118  1.00  0.00     0.029 A 
BRANCH   8  13
ATOM     13  N   UNL A   1      32.816  27.288  24.312  1.00  0.00    -0.372 N 
BRANCH  13  14
ATOM     14  C   UNL A   1      31.735  27.654  23.389  1.00  0.00     0.116 C 
BRANCH  14  15
ATOM     15  C   UNL A   1      30.535  28.286  24.106  1.00  0.00     0.018 C 
ATOM     16  C   UNL A   1      29.745  29.240  23.216  1.00  0.00     0.006 C 
ENDBRANCH  14  15
ENDBRANCH  13  14
BRANCH  13  17
ATOM     17  C   UNL A   1      33.602  28.334  24.972  1.00  0.00     0.116 C 
BRANCH  17  18
ATOM     18  C   UNL A   1      33.532  28.244  26.501  1.00  0.00     0.018 C 
ATOM     19  C   UNL A   1      34.645  29.028  27.178  1.00  0.00     0.006 C 
ENDBRANCH  17  18
ENDBRANCH  13  17
ENDBRANCH   8  13
BRANCH  11  20
ATOM     20  C   UNL A   1      31.466  23.053  26.444  1.00  0.00     0.416 C 
ATOM     21  F   UNL A   1      30.372  23.781  26.790  1.00  0.00    -0.166 F 
ATOM     22  F   UNL A   1      31.005  21.927  25.837  1.00  0.00    -0.166 F 
ATOM     23  F   UNL A   1      32.026  22.635  27.616  1.00  0.00    -0.166 F 
ENDBRANCH  11  20
ENDBRANCH   5   7
ENDBRANCH   4   5
ENDBRANCH   3   4
ENDBRANCH   2   3
ENDBRANCH   1   2
BRANCH   1  24
ATOM     24  C   UNL A   1      40.337  20.470  25.947  1.00  0.00     0.202 C 
BRANCH  24  25
ATOM     25  C   UNL A   1      40.912  21.877  26.146  1.00  0.00     0.261 C 
BRANCH  25  26
ATOM     26  O   UNL A   1      42.343  21.895  26.172  1.00  0.00    -0.460 OA
BRANCH  26  27
ATOM     27  C   UNL A   1      42.896  22.888  25.434  1.00  0.00     0.338 C 
ATOM     28  O   UNL A   1      43.338  22.810  24.300  1.00  0.00    -0.246 OA
BRANCH  27  29
ATOM     29  C   UNL A   1      42.749  24.170  26.146  1.00  0.00     0.060 A 
ATOM     30  C   UNL A   1      42.424  25.298  25.382  1.00  0.00     0.016 A 
ATOM     31  C   UNL A   1      42.976  24.276  27.519  1.00  0.00     0.016 A 
ATOM     32  C   UNL A   1      42.365  26.550  25.986  1.00  0.00     0.010 A 
ATOM     33  C   UNL A   1      42.924  25.536  28.120  1.00  0.00     0.010 A 
ATOM     34  C   UNL A   1      42.651  26.681  27.351  1.00  0.00    -0.014 A 
BRANCH  34  35
ATOM     35  C   UNL A   1      42.790  28.029  27.948  1.00  0.00     0.031 A 
ATOM     36  C   UNL A   1      44.156  28.647  28.047  1.00  0.00     0.074 A 
ATOM     37  C   UNL A   1      41.709  28.687  28.404  1.00  0.00     0.049 A 
ATOM     38  N   UNL A   1      44.509  29.792  28.567  1.00  0.00    -0.248 NA
ATOM     39  C   UNL A   1      45.275  27.868  27.490  1.00  0.00     0.031 C 
ATOM     40  C   UNL A   1      40.336  28.187  28.361  1.00  0.00     0.029 A 
ATOM     41  N   UNL A   1      41.605  29.909  29.020  1.00  0.00    -0.354 N 
ATOM     42  C   UNL A   1      45.891  29.860  28.430  1.00  0.00     0.074 A 
ATOM     43  C   UNL A   1      46.313  28.635  27.787  1.00  0.00     0.031 C 
ATOM     44  C   UNL A   1      39.527  29.081  28.956  1.00  0.00     0.029 A 
ATOM     45  C   UNL A   1      40.330  30.203  29.441  1.00  0.00     0.049 A 
ATOM     46  H   UNL A   1      42.369  30.515  29.149  1.00  0.00     0.167 HD
ATOM     47  C   UNL A   1      46.729  30.859  28.792  1.00  0.00     0.034 A 
ATOM     48  C   UNL A   1      39.869  31.248  30.157  1.00  0.00     0.034 A 
ATOM     49  C   UNL A   1      46.302  32.083  29.413  1.00  0.00     0.049 A 
ATOM     50  C   UNL A   1      40.826  32.337  30.564  1.00  0.00     0.074 A 
ATOM     51  C   UNL A   1      47.067  33.179  29.772  1.00  0.00     0.029 A 
ATOM     52  N   UNL A   1      44.996  32.370  29.779  1.00  0.00    -0.354 N 
ATOM     53  N   UNL A   1      42.110  32.444  30.319  1.00  0.00    -0.248 NA
ATOM     54  C   UNL A   1      40.265  33.468  31.319  1.00  0.00     0.031 C 
ATOM     55  C   UNL A   1      46.227  34.117  30.381  1.00  0.00     0.029 A 
ATOM     56  C   UNL A   1      44.933  33.619  30.372  1.00  0.00     0.049 A 
ATOM     57  H   UNL A   1      44.226  31.773  29.638  1.00  0.00     0.167 HD
ATOM     58  C   UNL A   1      42.502  33.667  30.852  1.00  0.00     0.074 A 
ATOM     59  C   UNL A   1      41.314  34.272  31.420  1.00  0.00     0.031 C 
ATOM     60  C   UNL A   1      43.734  34.233  30.882  1.00  0.00     0.034 A 
BRANCH  47  61
ATOM     61  C   UNL A   1      48.197  30.680  28.503  1.00  0.00     0.023 A 
ATOM     62  C   UNL A   1      48.742  31.202  27.313  1.00  0.00     0.012 A 
ATOM     63  C   UNL A   1      49.045  30.045  29.431  1.00  0.00     0.148 A 
ATOM     64  C   UNL A   1      50.102  31.067  27.036  1.00  0.00     0.002 A 
ATOM     65  C   UNL A   1      50.406  29.953  29.169  1.00  0.00     0.091 A 
ATOM     66  F   UNL A   1      48.502  29.533  30.546  1.00  0.00    -0.205 F 
ATOM     67  C   UNL A   1      50.935  30.453  27.967  1.00  0.00     0.022 A 
BRANCH  65  68
ATOM     68  S   UNL A   1      51.572  29.248  30.340  1.00  0.00     0.127 S 
ATOM     69  O   UNL A   1      50.952  29.593  31.618  1.00  0.00    -0.237 OA
ATOM     70  O   UNL A   1      51.523  27.825  30.004  1.00  0.00    -0.237 OA
ATOM     71  O   UNL A   1      52.850  29.891  30.070  1.00  0.00    -0.744 OA
ENDBRANCH  65  68
ENDBRANCH  47  61
BRANCH  48  72
ATOM     72  C   UNL A   1      38.422  31.331  30.503  1.00  0.00     0.023 A 
ATOM     73  C   UNL A   1      37.947  30.687  31.661  1.00  0.00     0.012 A 
ATOM     74  C   UNL A   1      37.521  32.060  29.704  1.00  0.00     0.148 A 
ATOM     75  C   UNL A   1      36.594  30.741  32.000  1.00  0.00     0.002 A 
ATOM     76  C   UNL A   1      36.186  32.157  30.077  1.00  0.00     0.091 A 
ATOM     77  F   UNL A   1      37.990  32.654  28.596  1.00  0.00    -0.205 F 
ATOM     78  C   UNL A   1      35.717  31.484  31.215  1.00  0.00     0.022 A 
BRANCH  76  79
ATOM     79  S   UNL A   1      35.012  33.196  29.199  1.00  0.00     0.127 S 
ATOM     80  O   UNL A   1      34.720  32.386  28.020  1.00  0.00    -0.237 OA
ATOM     81  O   UNL A   1      33.918  33.297  30.165  1.00  0.00    -0.237 OA
ATOM     82  O   UNL A   1      35.709  34.451  28.949  1.00  0.00    -0.744 OA
ENDBRANCH  76  79
ENDBRANCH  48  72
BRANCH  60  83
ATOM     83  C   UNL A   1      43.865  35.597  31.510  1.00  0.00     0.023 A 
ATOM     84  C   UNL A   1      43.865  36.747  30.696  1.00  0.00     0.012 A 
ATOM     85  C   UNL A   1      43.906  35.740  32.911  1.00  0.00     0.148 A 
ATOM     86  C   UNL A   1      43.937  38.018  31.267  1.00  0.00     0.002 A 
ATOM     87  C   UNL A   1      43.926  37.010  33.474  1.00  0.00     0.091 A 
ATOM     88  F   UNL A   1      43.922  34.632  33.666  1.00  0.00    -0.205 F 
ATOM     89  C   UNL A   1      43.954  38.150  32.654  1.00  0.00     0.022 A 
BRANCH  87  90
ATOM     90  S   UNL A   1      43.852  37.278  35.249  1.00  0.00     0.127 S 
ATOM     91  O   UNL A   1      43.941  38.735  35.335  1.00  0.00    -0.237 OA
ATOM     92  O   UNL A   1      42.541  36.726  35.593  1.00  0.00    -0.237 OA
ATOM     93  O   UNL A   1      44.980  36.548  35.813  1.00  0.00    -0.744 OA
ENDBRANCH  87  90
ENDBRANCH  60  83
ENDBRANCH  34  35
ENDBRANCH  27  29
ENDBRANCH  26  27
ENDBRANCH  25  26
ENDBRANCH  24  25
ENDBRANCH   1  24
TORSDOF 23
ENDMDL
MODEL 2
REMARK VINA RESULT:      -8.4      5.209     11.777
REMARK SMILES CCCN(CCC)c1cc(C(=O)OCCOCCOC(=O)c2ccc(-c3c4nc(c(-c5cccc(S(=O)(=O)[O-])c5F)c5ccc([nH]5)c(-c5cccc(S(=O)(=O)[O-])c5F)c5nc(c(-c6cccc(S(=O)(=O)[O-])c6F)c6ccc3[nH]6)C=C5)C=C4)cc2)cc(C(F)(F)F)c1
REMARK SMILES IDX 16 1 15 2 14 3 13 4 11 5 12 6 10 7 8 8 9 9 91 10 86 11 85 12
REMARK SMILES IDX 4 13 3 14 2 15 1 16 5 17 6 18 7 19 87 20 88 21 89 22 90 23
REMARK SMILES IDX 17 24 18 25 19 26 20 27 21 28 22 29 23 30 84 31 24 32 83 33
REMARK SMILES IDX 25 34 26 35 27 36 77 37 28 38 82 39 76 40 78 41 29 42 81 43
REMARK SMILES IDX 75 44 74 45 30 47 62 48 42 49 61 50 43 51 46 52 60 53 79 54
REMARK SMILES IDX 44 55 45 56 59 58 80 59 47 60 31 61 32 62 40 63 33 64 35 65
REMARK SMILES IDX 41 66 34 67 36 68 37 69 38 70 39 71 63 72 64 73 72 74 65 75
REMARK SMILES IDX 67 76 73 77 66 78 68 79 69 80 70 81 71 82 48 83 49 84 57 85
REMARK SMILES IDX 50 86 52 87 58 88 51 89 53 90 54 91 55 92 56 93
REMARK H PARENT 78 46 46 57
REMARK Flexibility Score: inf
ROOT
ATOM      1  O   UNL A   1      51.667  31.159  22.282  1.00  0.00    -0.374 OA
ENDROOT
BRANCH   1   2
ATOM      2  C   UNL A   1      52.071  29.988  21.564  1.00  0.00     0.202 C 
BRANCH   2   3
ATOM      3  C   UNL A   1      50.937  29.071  21.089  1.00  0.00     0.261 C 
BRANCH   3   4
ATOM      4  O   UNL A   1      50.247  28.524  22.227  1.00  0.00    -0.460 OA
BRANCH   4   5
ATOM      5  C   UNL A   1      49.320  27.568  21.971  1.00  0.00     0.338 C 
ATOM      6  O   UNL A   1      48.872  27.248  20.889  1.00  0.00    -0.246 OA
BRANCH   5   7
ATOM      7  C   UNL A   1      49.132  26.779  23.216  1.00  0.00     0.062 A 
ATOM      8  C   UNL A   1      49.814  26.471  25.532  1.00  0.00     0.038 A 
ATOM      9  C   UNL A   1      50.040  27.000  24.261  1.00  0.00     0.041 A 
ATOM     10  C   UNL A   1      48.677  25.677  25.716  1.00  0.00     0.039 A 
ATOM     11  C   UNL A   1      47.823  25.339  24.654  1.00  0.00     0.058 A 
ATOM     12  C   UNL A   1      48.037  25.929  23.403  1.00  0.00     0.029 A 
BRANCH   8  13
ATOM     13  N   UNL A   1      50.694  26.690  26.573  1.00  0.00    -0.372 N 
BRANCH  13  14
ATOM     14  C   UNL A   1      52.137  26.636  26.311  1.00  0.00     0.116 C 
BRANCH  14  15
ATOM     15  C   UNL A   1      52.696  25.208  26.376  1.00  0.00     0.018 C 
ATOM     16  C   UNL A   1      53.141  24.680  25.016  1.00  0.00     0.006 C 
ENDBRANCH  14  15
ENDBRANCH  13  14
BRANCH  13  17
ATOM     17  C   UNL A   1      50.205  26.976  27.924  1.00  0.00     0.116 C 
BRANCH  17  18
ATOM     18  C   UNL A   1      49.039  27.972  27.928  1.00  0.00     0.018 C 
ATOM     19  C   UNL A   1      48.766  28.537  29.313  1.00  0.00     0.006 C 
ENDBRANCH  17  18
ENDBRANCH  13  17
ENDBRANCH   8  13
BRANCH  11  20
ATOM     20  C   UNL A   1      46.712  24.342  24.862  1.00  0.00     0.416 C 
ATOM     21  F   UNL A   1      46.647  23.413  23.873  1.00  0.00    -0.166 F 
ATOM     22  F   UNL A   1      46.844  23.656  26.029  1.00  0.00    -0.166 F 
ATOM     23  F   UNL A   1      45.477  24.921  24.915  1.00  0.00    -0.166 F 
ENDBRANCH  11  20
ENDBRANCH   5   7
ENDBRANCH   4   5
ENDBRANCH   3   4
ENDBRANCH   2   3
ENDBRANCH   1   2
BRANCH   1  24
ATOM     24  C   UNL A   1      52.349  31.436  23.502  1.00  0.00     0.202 C 
BRANCH  24  25
ATOM     25  C   UNL A   1      52.746  32.893  23.768  1.00  0.00     0.261 C 
BRANCH  25  26
ATOM     26  O   UNL A   1      51.726  33.632  24.449  1.00  0.00    -0.460 OA
BRANCH  26  27
ATOM     27  C   UNL A   1      51.672  33.396  25.783  1.00  0.00     0.338 C 
ATOM     28  O   UNL A   1      52.549  33.593  26.607  1.00  0.00    -0.246 OA
BRANCH  27  29
ATOM     29  C   UNL A   1      50.302  32.999  26.156  1.00  0.00     0.060 A 
ATOM     30  C   UNL A   1      49.254  33.827  25.737  1.00  0.00     0.016 A 
ATOM     31  C   UNL A   1      50.054  31.873  26.943  1.00  0.00     0.016 A 
ATOM     32  C   UNL A   1      47.951  33.554  26.140  1.00  0.00     0.010 A 
ATOM     33  C   UNL A   1      48.745  31.606  27.353  1.00  0.00     0.010 A 
ATOM     34  C   UNL A   1      47.695  32.463  26.980  1.00  0.00    -0.014 A 
BRANCH  34  35
ATOM     35  C   UNL A   1      46.348  32.291  27.573  1.00  0.00     0.031 A 
ATOM     36  C   UNL A   1      45.795  33.374  28.456  1.00  0.00     0.074 A 
ATOM     37  C   UNL A   1      45.634  31.177  27.332  1.00  0.00     0.049 A 
ATOM     38  N   UNL A   1      44.663  33.413  29.107  1.00  0.00    -0.248 NA
ATOM     39  C   UNL A   1      46.633  34.572  28.634  1.00  0.00     0.031 C 
ATOM     40  C   UNL A   1      46.068  30.061  26.493  1.00  0.00     0.029 A 
ATOM     41  N   UNL A   1      44.403  30.791  27.798  1.00  0.00    -0.354 N 
ATOM     42  C   UNL A   1      44.663  34.620  29.795  1.00  0.00     0.074 A 
ATOM     43  C   UNL A   1      45.914  35.281  29.492  1.00  0.00     0.031 C 
ATOM     44  C   UNL A   1      45.130  29.100  26.527  1.00  0.00     0.029 A 
ATOM     45  C   UNL A   1      44.043  29.523  27.409  1.00  0.00     0.049 A 
ATOM     46  H   UNL A   1      43.832  31.366  28.356  1.00  0.00     0.167 HD
ATOM     47  C   UNL A   1      43.701  35.138  30.595  1.00  0.00     0.034 A 
ATOM     48  C   UNL A   1      42.970  28.780  27.745  1.00  0.00     0.034 A 
ATOM     49  C   UNL A   1      42.452  34.486  30.877  1.00  0.00     0.049 A 
ATOM     50  C   UNL A   1      41.924  29.373  28.652  1.00  0.00     0.074 A 
ATOM     51  C   UNL A   1      41.390  34.951  31.634  1.00  0.00     0.029 A 
ATOM     52  N   UNL A   1      42.099  33.224  30.426  1.00  0.00    -0.354 N 
ATOM     53  N   UNL A   1      41.881  30.565  29.197  1.00  0.00    -0.248 NA
ATOM     54  C   UNL A   1      40.759  28.531  28.965  1.00  0.00     0.031 C 
ATOM     55  C   UNL A   1      40.407  33.956  31.662  1.00  0.00     0.029 A 
ATOM     56  C   UNL A   1      40.842  32.886  30.897  1.00  0.00     0.049 A 
ATOM     57  H   UNL A   1      42.660  32.652  29.854  1.00  0.00     0.167 HD
ATOM     58  C   UNL A   1      40.672  30.631  29.882  1.00  0.00     0.074 A 
ATOM     59  C   UNL A   1      40.005  29.362  29.670  1.00  0.00     0.031 C 
ATOM     60  C   UNL A   1      40.166  31.642  30.630  1.00  0.00     0.034 A 
BRANCH  47  61
ATOM     61  C   UNL A   1      43.954  36.492  31.205  1.00  0.00     0.023 A 
ATOM     62  C   UNL A   1      44.503  36.582  32.501  1.00  0.00     0.012 A 
ATOM     63  C   UNL A   1      43.699  37.672  30.479  1.00  0.00     0.148 A 
ATOM     64  C   UNL A   1      44.765  37.825  33.075  1.00  0.00     0.002 A 
ATOM     65  C   UNL A   1      44.004  38.905  31.041  1.00  0.00     0.091 A 
ATOM     66  F   UNL A   1      43.154  37.566  29.259  1.00  0.00    -0.205 F 
ATOM     67  C   UNL A   1      44.527  38.984  32.343  1.00  0.00     0.022 A 
BRANCH  65  68
ATOM     68  S   UNL A   1      43.805  40.452  30.150  1.00  0.00     0.127 S 
ATOM     69  O   UNL A   1      44.209  41.429  31.160  1.00  0.00    -0.237 OA
ATOM     70  O   UNL A   1      44.749  40.294  29.044  1.00  0.00    -0.237 OA
ATOM     71  O   UNL A   1      42.406  40.508  29.750  1.00  0.00    -0.744 OA
ENDBRANCH  65  68
ENDBRANCH  47  61
BRANCH  48  72
ATOM     72  C   UNL A   1      42.813  27.405  27.192  1.00  0.00     0.023 A 
ATOM     73  C   UNL A   1      42.320  27.235  25.885  1.00  0.00     0.012 A 
ATOM     74  C   UNL A   1      43.168  26.271  27.946  1.00  0.00     0.148 A 
ATOM     75  C   UNL A   1      42.153  25.957  25.349  1.00  0.00     0.002 A 
ATOM     76  C   UNL A   1      43.053  25.004  27.386  1.00  0.00     0.091 A 
ATOM     77  F   UNL A   1      43.621  26.454  29.195  1.00  0.00    -0.205 F 
ATOM     78  C   UNL A   1      42.529  24.843  26.095  1.00  0.00     0.022 A 
BRANCH  76  79
ATOM     79  S   UNL A   1      43.632  23.524  28.225  1.00  0.00     0.127 S 
ATOM     80  O   UNL A   1      45.061  23.792  28.353  1.00  0.00    -0.237 OA
ATOM     81  O   UNL A   1      42.880  23.575  29.479  1.00  0.00    -0.237 OA
ATOM     82  O   UNL A   1      43.272  22.413  27.354  1.00  0.00    -0.744 OA
ENDBRANCH  76  79
ENDBRANCH  48  72
BRANCH  60  83
ATOM     83  C   UNL A   1      38.804  31.447  31.244  1.00  0.00     0.023 A 
ATOM     84  C   UNL A   1      38.676  30.757  32.466  1.00  0.00     0.012 A 
ATOM     85  C   UNL A   1      37.661  32.019  30.650  1.00  0.00     0.148 A 
ATOM     86  C   UNL A   1      37.427  30.611  33.070  1.00  0.00     0.002 A 
ATOM     87  C   UNL A   1      36.428  31.913  31.283  1.00  0.00     0.091 A 
ATOM     88  F   UNL A   1      37.801  32.657  29.479  1.00  0.00    -0.205 F 
ATOM     89  C   UNL A   1      36.307  31.199  32.486  1.00  0.00     0.022 A 
BRANCH  87  90
ATOM     90  S   UNL A   1      34.952  32.720  30.655  1.00  0.00     0.127 S 
ATOM     91  O   UNL A   1      34.023  32.555  31.772  1.00  0.00    -0.237 OA
ATOM     92  O   UNL A   1      35.412  34.093  30.445  1.00  0.00    -0.237 OA
ATOM     93  O   UNL A   1      34.594  32.010  29.433  1.00  0.00    -0.744 OA
ENDBRANCH  87  90
ENDBRANCH  60  83
ENDBRANCH  34  35
ENDBRANCH  27  29
ENDBRANCH  26  27
ENDBRANCH  25  26
ENDBRANCH  24  25
ENDBRANCH   1  24
TORSDOF 23
ENDMDL
MODEL 3
REMARK VINA RESULT:      -8.3      3.771      9.407
REMARK SMILES CCCN(CCC)c1cc(C(=O)OCCOCCOC(=O)c2ccc(-c3c4nc(c(-c5cccc(S(=O)(=O)[O-])c5F)c5ccc([nH]5)c(-c5cccc(S(=O)(=O)[O-])c5F)c5nc(c(-c6cccc(S(=O)(=O)[O-])c6F)c6ccc3[nH]6)C=C5)C=C4)cc2)cc(C(F)(F)F)c1
REMARK SMILES IDX 16 1 15 2 14 3 13 4 11 5 12 6 10 7 8 8 9 9 91 10 86 11 85 12
REMARK SMILES IDX 4 13 3 14 2 15 1 16 5 17 6 18 7 19 87 20 88 21 89 22 90 23
REMARK SMILES IDX 17 24 18 25 19 26 20 27 21 28 22 29 23 30 84 31 24 32 83 33
REMARK SMILES IDX 25 34 26 35 27 36 77 37 28 38 82 39 76 40 78 41 29 42 81 43
REMARK SMILES IDX 75 44 74 45 30 47 62 48 42 49 61 50 43 51 46 52 60 53 79 54
REMARK SMILES IDX 44 55 45 56 59 58 80 59 47 60 31 61 32 62 40 63 33 64 35 65
REMARK SMILES IDX 41 66 34 67 36 68 37 69 38 70 39 71 63 72 64 73 72 74 65 75
REMARK SMILES IDX 67 76 73 77 66 78 68 79 69 80 70 81 71 82 48 83 49 84 57 85
REMARK SMILES IDX 50 86 52 87 58 88 51 89 53 90 54 91 55 92 56 93
REMARK H PARENT 78 46 46 57
REMARK Flexibility Score: inf
ROOT
ATOM      1  O   UNL A   1      33.931  32.395  27.897  1.00  0.00    -0.374 OA
ENDROOT
BRANCH   1   2
ATOM      2  C   UNL A   1      32.543  32.168  27.630  1.00  0.00     0.202 C 
BRANCH   2   3
ATOM      3  C   UNL A   1      32.231  31.105  26.569  1.00  0.00     0.261 C 
BRANCH   3   4
ATOM      4  O   UNL A   1      32.186  29.805  27.186  1.00  0.00    -0.460 OA
BRANCH   4   5
ATOM      5  C   UNL A   1      33.220  28.970  26.914  1.00  0.00     0.338 C 
ATOM      6  O   UNL A   1      34.351  29.032  27.351  1.00  0.00    -0.246 OA
BRANCH   5   7
ATOM      7  C   UNL A   1      32.670  27.794  26.191  1.00  0.00     0.062 A 
ATOM      8  C   UNL A   1      32.745  25.376  25.920  1.00  0.00     0.038 A 
ATOM      9  C   UNL A   1      33.315  26.564  26.381  1.00  0.00     0.041 A 
ATOM     10  C   UNL A   1      31.534  25.460  25.226  1.00  0.00     0.039 A 
ATOM     11  C   UNL A   1      30.936  26.691  24.915  1.00  0.00     0.058 A 
ATOM     12  C   UNL A   1      31.494  27.864  25.438  1.00  0.00     0.029 A 
BRANCH   8  13
ATOM     13  N   UNL A   1      33.364  24.157  26.110  1.00  0.00    -0.372 N 
BRANCH  13  14
ATOM     14  C   UNL A   1      34.707  23.944  25.558  1.00  0.00     0.116 C 
BRANCH  14  15
ATOM     15  C   UNL A   1      34.791  24.279  24.063  1.00  0.00     0.018 C 
ATOM     16  C   UNL A   1      34.646  23.051  23.169  1.00  0.00     0.006 C 
ENDBRANCH  14  15
ENDBRANCH  13  14
BRANCH  13  17
ATOM     17  C   UNL A   1      32.698  23.083  26.854  1.00  0.00     0.116 C 
BRANCH  17  18
ATOM     18  C   UNL A   1      32.905  21.708  26.210  1.00  0.00     0.018 C 
ATOM     19  C   UNL A   1      31.874  21.412  25.132  1.00  0.00     0.006 C 
ENDBRANCH  17  18
ENDBRANCH  13  17
ENDBRANCH   8  13
BRANCH  11  20
ATOM     20  C   UNL A   1      29.726  26.742  24.017  1.00  0.00     0.416 C 
ATOM     21  F   UNL A   1      29.402  28.007  23.643  1.00  0.00    -0.166 F 
ATOM     22  F   UNL A   1      29.903  26.033  22.870  1.00  0.00    -0.166 F 
ATOM     23  F   UNL A   1      28.606  26.223  24.598  1.00  0.00    -0.166 F 
ENDBRANCH  11  20
ENDBRANCH   5   7
ENDBRANCH   4   5
ENDBRANCH   3   4
ENDBRANCH   2   3
ENDBRANCH   1   2
BRANCH   1  24
ATOM     24  C   UNL A   1      34.289  33.680  28.400  1.00  0.00     0.202 C 
BRANCH  24  25
ATOM     25  C   UNL A   1      34.359  33.843  29.923  1.00  0.00     0.261 C 
BRANCH  25  26
ATOM     26  O   UNL A   1      34.282  32.595  30.621  1.00  0.00    -0.460 OA
BRANCH  26  27
ATOM     27  C   UNL A   1      34.952  32.580  31.799  1.00  0.00     0.338 C 
ATOM     28  O   UNL A   1      34.542  32.948  32.888  1.00  0.00    -0.246 OA
BRANCH  27  29
ATOM     29  C   UNL A   1      36.240  31.888  31.624  1.00  0.00     0.060 A 
ATOM     30  C   UNL A   1      36.313  30.549  32.026  1.00  0.00     0.016 A 
ATOM     31  C   UNL A   1      37.366  32.548  31.128  1.00  0.00     0.016 A 
ATOM     32  C   UNL A   1      37.529  29.874  31.972  1.00  0.00     0.010 A 
ATOM     33  C   UNL A   1      38.587  31.870  31.082  1.00  0.00     0.010 A 
ATOM     34  C   UNL A   1      38.679  30.542  31.535  1.00  0.00    -0.014 A 
BRANCH  34  35
ATOM     35  C   UNL A   1      40.004  29.893  31.670  1.00  0.00     0.031 A 
ATOM     36  C   UNL A   1      40.905  30.299  32.802  1.00  0.00     0.074 A 
ATOM     37  C   UNL A   1      40.399  28.960  30.785  1.00  0.00     0.049 A 
ATOM     38  N   UNL A   1      42.113  29.892  33.084  1.00  0.00    -0.248 NA
ATOM     39  C   UNL A   1      40.373  31.302  33.741  1.00  0.00     0.031 C 
ATOM     40  C   UNL A   1      39.611  28.487  29.648  1.00  0.00     0.029 A 
ATOM     41  N   UNL A   1      41.578  28.264  30.692  1.00  0.00    -0.354 N 
ATOM     42  C   UNL A   1      42.501  30.609  34.210  1.00  0.00     0.074 A 
ATOM     43  C   UNL A   1      41.403  31.484  34.554  1.00  0.00     0.031 C 
ATOM     44  C   UNL A   1      40.341  27.600  28.951  1.00  0.00     0.029 A 
ATOM     45  C   UNL A   1      41.654  27.462  29.579  1.00  0.00     0.049 A 
ATOM     46  H   UNL A   1      42.300  28.334  31.357  1.00  0.00     0.167 HD
ATOM     47  C   UNL A   1      43.662  30.532  34.903  1.00  0.00     0.034 A 
ATOM     48  C   UNL A   1      42.676  26.719  29.109  1.00  0.00     0.034 A 
ATOM     49  C   UNL A   1      44.743  29.645  34.568  1.00  0.00     0.049 A 
ATOM     50  C   UNL A   1      43.963  26.666  29.890  1.00  0.00     0.074 A 
ATOM     51  C   UNL A   1      45.939  29.456  35.237  1.00  0.00     0.029 A 
ATOM     52  N   UNL A   1      44.766  28.809  33.463  1.00  0.00    -0.354 N 
ATOM     53  N   UNL A   1      44.269  27.255  31.020  1.00  0.00    -0.248 NA
ATOM     54  C   UNL A   1      45.035  25.818  29.348  1.00  0.00     0.031 C 
ATOM     55  C   UNL A   1      46.697  28.524  34.520  1.00  0.00     0.029 A 
ATOM     56  C   UNL A   1      45.959  28.110  33.422  1.00  0.00     0.049 A 
ATOM     57  H   UNL A   1      44.039  28.724  32.804  1.00  0.00     0.167 HD
ATOM     58  C   UNL A   1      45.550  26.821  31.345  1.00  0.00     0.074 A 
ATOM     59  C   UNL A   1      45.956  25.905  30.299  1.00  0.00     0.031 C 
ATOM     60  C   UNL A   1      46.326  27.158  32.405  1.00  0.00     0.034 A 
BRANCH  47  61
ATOM     61  C   UNL A   1      43.813  31.417  36.113  1.00  0.00     0.023 A 
ATOM     62  C   UNL A   1      43.408  30.945  37.378  1.00  0.00     0.012 A 
ATOM     63  C   UNL A   1      44.404  32.691  36.007  1.00  0.00     0.148 A 
ATOM     64  C   UNL A   1      43.560  31.739  38.513  1.00  0.00     0.002 A 
ATOM     65  C   UNL A   1      44.593  33.459  37.149  1.00  0.00     0.091 A 
ATOM     66  F   UNL A   1      44.760  33.132  34.792  1.00  0.00    -0.205 F 
ATOM     67  C   UNL A   1      44.161  32.990  38.402  1.00  0.00     0.022 A 
BRANCH  65  68
ATOM     68  S   UNL A   1      45.426  35.050  37.121  1.00  0.00     0.127 S 
ATOM     69  O   UNL A   1      45.470  35.386  38.543  1.00  0.00    -0.237 OA
ATOM     70  O   UNL A   1      46.722  34.708  36.535  1.00  0.00    -0.237 OA
ATOM     71  O   UNL A   1      44.599  35.922  36.298  1.00  0.00    -0.744 OA
ENDBRANCH  65  68
ENDBRANCH  47  61
BRANCH  48  72
ATOM     72  C   UNL A   1      42.510  25.936  27.852  1.00  0.00     0.023 A 
ATOM     73  C   UNL A   1      42.746  26.557  26.611  1.00  0.00     0.012 A 
ATOM     74  C   UNL A   1      42.140  24.578  27.882  1.00  0.00     0.148 A 
ATOM     75  C   UNL A   1      42.585  25.848  25.420  1.00  0.00     0.002 A 
ATOM     76  C   UNL A   1      42.037  23.862  26.695  1.00  0.00     0.091 A 
ATOM     77  F   UNL A   1      41.904  24.009  29.074  1.00  0.00    -0.205 F 
ATOM     78  C   UNL A   1      42.242  24.499  25.462  1.00  0.00     0.022 A 
BRANCH  76  79
ATOM     79  S   UNL A   1      41.725  22.093  26.661  1.00  0.00     0.127 S 
ATOM     80  O   UNL A   1      42.655  21.605  27.676  1.00  0.00    -0.237 OA
ATOM     81  O   UNL A   1      40.312  22.029  27.036  1.00  0.00    -0.237 OA
ATOM     82  O   UNL A   1      42.002  21.672  25.294  1.00  0.00    -0.744 OA
ENDBRANCH  76  79
ENDBRANCH  48  72
BRANCH  60  83
ATOM     83  C   UNL A   1      47.679  26.505  32.520  1.00  0.00     0.023 A 
ATOM     84  C   UNL A   1      47.844  25.371  33.339  1.00  0.00     0.012 A 
ATOM     85  C   UNL A   1      48.766  26.969  31.753  1.00  0.00     0.148 A 
ATOM     86  C   UNL A   1      49.080  24.727  33.417  1.00  0.00     0.002 A 
ATOM     87  C   UNL A   1      49.980  26.293  31.797  1.00  0.00     0.091 A 
ATOM     88  F   UNL A   1      48.594  28.060  30.993  1.00  0.00    -0.205 F 
ATOM     89  C   UNL A   1      50.142  25.180  32.638  1.00  0.00     0.022 A 
BRANCH  87  90
ATOM     90  S   UNL A   1      51.372  26.745  30.756  1.00  0.00     0.127 S 
ATOM     91  O   UNL A   1      50.812  26.572  29.417  1.00  0.00    -0.237 OA
ATOM     92  O   UNL A   1      51.611  28.136  31.142  1.00  0.00    -0.237 OA
ATOM     93  O   UNL A   1      52.450  25.829  31.106  1.00  0.00    -0.744 OA
ENDBRANCH  87  90
ENDBRANCH  60  83
ENDBRANCH  34  35
ENDBRANCH  27  29
ENDBRANCH  26  27
ENDBRANCH  25  26
ENDBRANCH  24  25
ENDBRANCH   1  24
TORSDOF 23
ENDMDL
