MODEL 1
REMARK VINA RESULT:     -10.0      0.000      0.000
REMARK SMILES CCCCCCOC(=O)Nc1cccc(-c2ccc([C@@H](C)C(=O)OCCOCCOC(=O)c3ccc(-c4c5nc(c(-c6cccc(S(=O)(=O)[O-])c6F)c6ccc([nH]6)c(-c6cccc(S(=O)(=O)[O-])c6F)c6nc(c(-c7cccc(S(=O)(=O)[O-])c7F)c7ccc4[nH]7)C=C6)C=C5)cc3)cc2F)c1
REMARK SMILES IDX 24 1 22 2 23 3 20 4 21 5 19 6 16 7 17 8 97 9 18 10 96 11
REMARK SMILES IDX 98 12 15 13 11 14 12 15 99 16 13 17 14 18 10 19 8 20 9 21
REMARK SMILES IDX 7 23 6 24 5 25 4 26 3 27 2 28 1 29 25 30 26 31 27 32 28 33
REMARK SMILES IDX 29 34 30 35 31 36 32 37 33 38 34 39 95 40 35 41 94 42 36 43
REMARK SMILES IDX 37 44 38 45 88 46 39 47 93 48 87 49 89 50 40 51 92 52 86 53
REMARK SMILES IDX 85 54 41 56 73 57 53 58 72 59 54 60 57 61 71 62 90 63 55 64
REMARK SMILES IDX 56 65 70 67 91 68 58 69 42 70 43 71 51 72 44 73 46 74 52 75
REMARK SMILES IDX 45 76 47 77 48 78 49 79 50 80 74 81 75 82 83 83 76 84 78 85
REMARK SMILES IDX 84 86 77 87 79 88 80 89 81 90 82 91 59 92 60 93 68 94 61 95
REMARK SMILES IDX 63 96 69 97 62 98 64 99 65 100 66 101 67 102
REMARK H PARENT 10 22 89 55 57 66
REMARK Flexibility Score: inf
ROOT
ATOM      1  O   UNL A   1      33.182  22.766  24.913  1.00  0.00    -0.463 OA
ENDROOT
BRANCH   1   2
ATOM      2  C   UNL A   1      33.670  23.656  24.012  1.00  0.00     0.313 C 
ATOM      3  O   UNL A   1      33.398  23.655  22.815  1.00  0.00    -0.252 OA
BRANCH   2   4
ATOM      4  C   UNL A   1      34.627  24.675  24.611  1.00  0.00     0.126 C 
ATOM      5  C   UNL A   1      35.343  24.054  25.807  1.00  0.00     0.025 C 
BRANCH   4   6
ATOM      6  C   UNL A   1      34.087  26.063  24.936  1.00  0.00    -0.031 A 
ATOM      7  C   UNL A   1      32.830  28.564  25.494  1.00  0.00     0.018 A 
ATOM      8  C   UNL A   1      33.626  28.391  24.353  1.00  0.00     0.012 A 
ATOM      9  C   UNL A   1      32.713  27.472  26.366  1.00  0.00     0.131 A 
ATOM     10  C   UNL A   1      34.245  27.162  24.078  1.00  0.00     0.005 A 
ATOM     11  C   UNL A   1      33.325  26.247  26.100  1.00  0.00     0.044 A 
ATOM     12  F   UNL A   1      31.966  27.569  27.478  1.00  0.00    -0.206 F 
BRANCH   7  13
ATOM     13  C   UNL A   1      32.115  29.824  25.753  1.00  0.00    -0.013 A 
ATOM     14  C   UNL A   1      30.368  31.423  25.149  1.00  0.00     0.045 A 
ATOM     15  C   UNL A   1      30.874  32.337  26.072  1.00  0.00     0.026 A 
ATOM     16  C   UNL A   1      30.990  30.177  24.995  1.00  0.00     0.035 A 
ATOM     17  C   UNL A   1      31.959  31.983  26.874  1.00  0.00     0.003 A 
ATOM     18  C   UNL A   1      32.573  30.738  26.715  1.00  0.00     0.009 A 
BRANCH  14  19
ATOM     19  N   UNL A   1      29.302  31.818  24.329  1.00  0.00    -0.291 N 
ATOM     20  C   UNL A   1      29.161  31.590  22.987  1.00  0.00     0.411 C 
ATOM     21  O   UNL A   1      28.433  32.293  22.295  1.00  0.00    -0.224 OA
ATOM     22  H   UNL A   1      28.574  32.316  24.768  1.00  0.00     0.173 HD
BRANCH  20  23
ATOM     23  O   UNL A   1      29.806  30.472  22.569  1.00  0.00    -0.449 OA
BRANCH  23  24
ATOM     24  C   UNL A   1      29.027  29.351  22.127  1.00  0.00     0.235 C 
BRANCH  24  25
ATOM     25  C   UNL A   1      29.356  28.073  22.907  1.00  0.00     0.042 C 
BRANCH  25  26
ATOM     26  C   UNL A   1      30.714  27.433  22.595  1.00  0.00     0.003 C 
BRANCH  26  27
ATOM     27  C   UNL A   1      30.873  25.979  23.060  1.00  0.00    -0.000 C 
BRANCH  27  28
ATOM     28  C   UNL A   1      29.798  25.487  24.028  1.00  0.00    -0.003 C 
ATOM     29  C   UNL A   1      30.378  24.935  25.320  1.00  0.00     0.004 C 
ENDBRANCH  27  28
ENDBRANCH  26  27
ENDBRANCH  25  26
ENDBRANCH  24  25
ENDBRANCH  23  24
ENDBRANCH  20  23
ENDBRANCH  14  19
ENDBRANCH   7  13
ENDBRANCH   4   6
ENDBRANCH   2   4
ENDBRANCH   1   2
BRANCH   1  30
ATOM     30  C   UNL A   1      33.168  21.388  24.501  1.00  0.00     0.261 C 
BRANCH  30  31
ATOM     31  C   UNL A   1      34.098  20.544  25.376  1.00  0.00     0.202 C 
BRANCH  31  32
ATOM     32  O   UNL A   1      35.258  20.015  24.729  1.00  0.00    -0.374 OA
BRANCH  32  33
ATOM     33  C   UNL A   1      36.409  20.855  24.659  1.00  0.00     0.202 C 
BRANCH  33  34
ATOM     34  C   UNL A   1      37.739  20.235  25.105  1.00  0.00     0.261 C 
BRANCH  34  35
ATOM     35  O   UNL A   1      38.249  20.842  26.304  1.00  0.00    -0.460 OA
BRANCH  35  36
ATOM     36  C   UNL A   1      39.595  21.001  26.323  1.00  0.00     0.338 C 
ATOM     37  O   UNL A   1      40.427  20.275  25.803  1.00  0.00    -0.246 OA
BRANCH  36  38
ATOM     38  C   UNL A   1      39.955  22.298  26.928  1.00  0.00     0.060 A 
ATOM     39  C   UNL A   1      39.282  23.430  26.452  1.00  0.00     0.016 A 
ATOM     40  C   UNL A   1      40.996  22.425  27.850  1.00  0.00     0.016 A 
ATOM     41  C   UNL A   1      39.709  24.702  26.822  1.00  0.00     0.010 A 
ATOM     42  C   UNL A   1      41.425  23.705  28.221  1.00  0.00     0.010 A 
ATOM     43  C   UNL A   1      40.822  24.847  27.661  1.00  0.00    -0.014 A 
BRANCH  43  44
ATOM     44  C   UNL A   1      41.462  26.183  27.767  1.00  0.00     0.031 A 
ATOM     45  C   UNL A   1      40.766  27.258  28.562  1.00  0.00     0.074 A 
ATOM     46  C   UNL A   1      42.667  26.425  27.221  1.00  0.00     0.049 A 
ATOM     47  N   UNL A   1      41.163  28.473  28.839  1.00  0.00    -0.248 NA
ATOM     48  C   UNL A   1      39.446  26.916  29.122  1.00  0.00     0.031 C 
ATOM     49  C   UNL A   1      43.445  25.470  26.433  1.00  0.00     0.029 A 
ATOM     50  N   UNL A   1      43.442  27.556  27.241  1.00  0.00    -0.354 N 
ATOM     51  C   UNL A   1      40.136  29.048  29.580  1.00  0.00     0.074 A 
ATOM     52  C   UNL A   1      39.089  28.057  29.693  1.00  0.00     0.031 C 
ATOM     53  C   UNL A   1      44.582  26.064  26.030  1.00  0.00     0.029 A 
ATOM     54  C   UNL A   1      44.608  27.440  26.522  1.00  0.00     0.049 A 
ATOM     55  H   UNL A   1      43.189  28.375  27.727  1.00  0.00     0.167 HD
ATOM     56  C   UNL A   1      40.076  30.280  30.138  1.00  0.00     0.034 A 
ATOM     57  C   UNL A   1      45.581  28.342  26.286  1.00  0.00     0.034 A 
ATOM     58  C   UNL A   1      41.126  31.258  30.054  1.00  0.00     0.049 A 
ATOM     59  C   UNL A   1      45.494  29.706  26.923  1.00  0.00     0.074 A 
ATOM     60  C   UNL A   1      41.175  32.521  30.614  1.00  0.00     0.029 A 
ATOM     61  N   UNL A   1      42.314  31.082  29.361  1.00  0.00    -0.354 N 
ATOM     62  N   UNL A   1      44.570  30.190  27.719  1.00  0.00    -0.248 NA
ATOM     63  C   UNL A   1      46.607  30.632  26.667  1.00  0.00     0.031 C 
ATOM     64  C   UNL A   1      42.386  33.116  30.246  1.00  0.00     0.029 A 
ATOM     65  C   UNL A   1      43.103  32.214  29.478  1.00  0.00     0.049 A 
ATOM     66  H   UNL A   1      42.560  30.271  28.858  1.00  0.00     0.167 HD
ATOM     67  C   UNL A   1      45.012  31.455  28.093  1.00  0.00     0.074 A 
ATOM     68  C   UNL A   1      46.294  31.655  27.450  1.00  0.00     0.031 C 
ATOM     69  C   UNL A   1      44.406  32.374  28.886  1.00  0.00     0.034 A 
BRANCH  56  70
ATOM     70  C   UNL A   1      38.839  30.628  30.923  1.00  0.00     0.023 A 
ATOM     71  C   UNL A   1      38.776  30.323  32.298  1.00  0.00     0.012 A 
ATOM     72  C   UNL A   1      37.757  31.292  30.313  1.00  0.00     0.148 A 
ATOM     73  C   UNL A   1      37.645  30.645  33.046  1.00  0.00     0.002 A 
ATOM     74  C   UNL A   1      36.651  31.648  31.075  1.00  0.00     0.091 A 
ATOM     75  F   UNL A   1      37.823  31.550  28.998  1.00  0.00    -0.205 F 
ATOM     76  C   UNL A   1      36.587  31.316  32.438  1.00  0.00     0.022 A 
BRANCH  74  77
ATOM     77  S   UNL A   1      35.273  32.581  30.398  1.00  0.00     0.127 S 
ATOM     78  O   UNL A   1      35.936  33.807  29.954  1.00  0.00    -0.237 OA
ATOM     79  O   UNL A   1      34.810  31.712  29.316  1.00  0.00    -0.237 OA
ATOM     80  O   UNL A   1      34.324  32.743  31.491  1.00  0.00    -0.744 OA
ENDBRANCH  74  77
ENDBRANCH  56  70
BRANCH  57  81
ATOM     81  C   UNL A   1      46.757  27.968  25.451  1.00  0.00     0.023 A 
ATOM     82  C   UNL A   1      46.683  28.084  24.050  1.00  0.00     0.012 A 
ATOM     83  C   UNL A   1      47.951  27.508  26.041  1.00  0.00     0.148 A 
ATOM     84  C   UNL A   1      47.766  27.719  23.248  1.00  0.00     0.002 A 
ATOM     85  C   UNL A   1      49.044  27.199  25.239  1.00  0.00     0.091 A 
ATOM     86  F   UNL A   1      47.996  27.387  27.375  1.00  0.00    -0.205 F 
ATOM     87  C   UNL A   1      48.948  27.286  23.842  1.00  0.00     0.022 A 
BRANCH  85  88
ATOM     88  S   UNL A   1      50.643  26.758  25.926  1.00  0.00     0.127 S 
ATOM     89  O   UNL A   1      51.514  26.874  24.759  1.00  0.00    -0.237 OA
ATOM     90  O   UNL A   1      50.831  27.794  26.943  1.00  0.00    -0.237 OA
ATOM     91  O   UNL A   1      50.482  25.415  26.466  1.00  0.00    -0.744 OA
ENDBRANCH  85  88
ENDBRANCH  57  81
BRANCH  69  92
ATOM     92  C   UNL A   1      45.139  33.664  29.151  1.00  0.00     0.023 A 
ATOM     93  C   UNL A   1      46.015  33.763  30.250  1.00  0.00     0.012 A 
ATOM     94  C   UNL A   1      45.008  34.758  28.273  1.00  0.00     0.148 A 
ATOM     95  C   UNL A   1      46.717  34.943  30.494  1.00  0.00     0.002 A 
ATOM     96  C   UNL A   1      45.748  35.914  28.495  1.00  0.00     0.091 A 
ATOM     97  F   UNL A   1      44.156  34.656  27.242  1.00  0.00    -0.205 F 
ATOM     98  C   UNL A   1      46.593  36.014  29.612  1.00  0.00     0.022 A 
BRANCH  96  99
ATOM     99  S   UNL A   1      45.716  37.299  27.350  1.00  0.00     0.127 S 
ATOM    100  O   UNL A   1      44.285  37.445  27.097  1.00  0.00    -0.237 OA
ATOM    101  O   UNL A   1      46.309  38.377  28.142  1.00  0.00    -0.237 OA
ATOM    102  O   UNL A   1      46.520  36.884  26.209  1.00  0.00    -0.744 OA
ENDBRANCH  96  99
ENDBRANCH  69  92
ENDBRANCH  43  44
ENDBRANCH  36  38
ENDBRANCH  35  36
ENDBRANCH  34  35
ENDBRANCH  33  34
ENDBRANCH  32  33
ENDBRANCH  31  32
ENDBRANCH  30  31
ENDBRANCH   1  30
TORSDOF 26
ENDMDL
MODEL 2
REMARK VINA RESULT:      -9.8      5.131      9.204
REMARK SMILES CCCCCCOC(=O)Nc1cccc(-c2ccc([C@@H](C)C(=O)OCCOCCOC(=O)c3ccc(-c4c5nc(c(-c6cccc(S(=O)(=O)[O-])c6F)c6ccc([nH]6)c(-c6cccc(S(=O)(=O)[O-])c6F)c6nc(c(-c7cccc(S(=O)(=O)[O-])c7F)c7ccc4[nH]7)C=C6)C=C5)cc3)cc2F)c1
REMARK SMILES IDX 24 1 22 2 23 3 20 4 21 5 19 6 16 7 17 8 97 9 18 10 96 11
REMARK SMILES IDX 98 12 15 13 11 14 12 15 99 16 13 17 14 18 10 19 8 20 9 21
REMARK SMILES IDX 7 23 6 24 5 25 4 26 3 27 2 28 1 29 25 30 26 31 27 32 28 33
REMARK SMILES IDX 29 34 30 35 31 36 32 37 33 38 34 39 95 40 35 41 94 42 36 43
REMARK SMILES IDX 37 44 38 45 88 46 39 47 93 48 87 49 89 50 40 51 92 52 86 53
REMARK SMILES IDX 85 54 41 56 73 57 53 58 72 59 54 60 57 61 71 62 90 63 55 64
REMARK SMILES IDX 56 65 70 67 91 68 58 69 42 70 43 71 51 72 44 73 46 74 52 75
REMARK SMILES IDX 45 76 47 77 48 78 49 79 50 80 74 81 75 82 83 83 76 84 78 85
REMARK SMILES IDX 84 86 77 87 79 88 80 89 81 90 82 91 59 92 60 93 68 94 61 95
REMARK SMILES IDX 63 96 69 97 62 98 64 99 65 100 66 101 67 102
REMARK H PARENT 10 22 89 55 57 66
REMARK Flexibility Score: inf
ROOT
ATOM      1  O   UNL A   1      31.701  29.514  24.315  1.00  0.00    -0.463 OA
ENDROOT
BRANCH   1   2
ATOM      2  C   UNL A   1      30.541  29.328  23.636  1.00  0.00     0.313 C 
ATOM      3  O   UNL A   1      29.702  30.202  23.440  1.00  0.00    -0.252 OA
BRANCH   2   4
ATOM      4  C   UNL A   1      30.340  27.905  23.141  1.00  0.00     0.126 C 
ATOM      5  C   UNL A   1      28.941  27.429  23.523  1.00  0.00     0.025 C 
BRANCH   4   6
ATOM      6  C   UNL A   1      31.403  26.867  23.486  1.00  0.00    -0.031 A 
ATOM      7  C   UNL A   1      33.237  24.744  24.008  1.00  0.00     0.018 A 
ATOM      8  C   UNL A   1      32.493  25.330  25.042  1.00  0.00     0.012 A 
ATOM      9  C   UNL A   1      33.072  25.273  22.720  1.00  0.00     0.131 A 
ATOM     10  C   UNL A   1      31.591  26.374  24.786  1.00  0.00     0.005 A 
ATOM     11  C   UNL A   1      32.178  26.311  22.457  1.00  0.00     0.044 A 
ATOM     12  F   UNL A   1      33.755  24.759  21.683  1.00  0.00    -0.206 F 
BRANCH   7  13
ATOM     13  C   UNL A   1      34.128  23.599  24.251  1.00  0.00    -0.013 A 
ATOM     14  C   UNL A   1      34.509  21.389  25.224  1.00  0.00     0.045 A 
ATOM     15  C   UNL A   1      35.870  21.490  24.940  1.00  0.00     0.026 A 
ATOM     16  C   UNL A   1      33.650  22.441  24.881  1.00  0.00     0.035 A 
ATOM     17  C   UNL A   1      36.356  22.610  24.266  1.00  0.00     0.003 A 
ATOM     18  C   UNL A   1      35.493  23.654  23.925  1.00  0.00     0.009 A 
BRANCH  14  19
ATOM     19  N   UNL A   1      34.053  20.271  25.937  1.00  0.00    -0.291 N 
ATOM     20  C   UNL A   1      33.179  19.311  25.502  1.00  0.00     0.411 C 
ATOM     21  O   UNL A   1      32.543  18.626  26.294  1.00  0.00    -0.224 OA
ATOM     22  H   UNL A   1      34.400  20.166  26.853  1.00  0.00     0.173 HD
BRANCH  20  23
ATOM     23  O   UNL A   1      33.199  19.148  24.156  1.00  0.00    -0.449 OA
BRANCH  23  24
ATOM     24  C   UNL A   1      32.450  18.068  23.581  1.00  0.00     0.235 C 
BRANCH  24  25
ATOM     25  C   UNL A   1      33.353  16.924  23.106  1.00  0.00     0.042 C 
BRANCH  25  26
ATOM     26  C   UNL A   1      34.556  16.608  24.003  1.00  0.00     0.003 C 
BRANCH  26  27
ATOM     27  C   UNL A   1      34.211  15.976  25.359  1.00  0.00    -0.000 C 
BRANCH  27  28
ATOM     28  C   UNL A   1      32.828  15.330  25.440  1.00  0.00    -0.003 C 
ATOM     29  C   UNL A   1      32.892  13.813  25.514  1.00  0.00     0.004 C 
ENDBRANCH  27  28
ENDBRANCH  26  27
ENDBRANCH  25  26
ENDBRANCH  24  25
ENDBRANCH  23  24
ENDBRANCH  20  23
ENDBRANCH  14  19
ENDBRANCH   7  13
ENDBRANCH   4   6
ENDBRANCH   2   4
ENDBRANCH   1   2
BRANCH   1  30
ATOM     30  C   UNL A   1      31.584  29.709  25.736  1.00  0.00     0.261 C 
BRANCH  30  31
ATOM     31  C   UNL A   1      32.936  30.070  26.355  1.00  0.00     0.202 C 
BRANCH  31  32
ATOM     32  O   UNL A   1      33.119  31.444  26.703  1.00  0.00    -0.374 OA
BRANCH  32  33
ATOM     33  C   UNL A   1      32.002  32.132  27.266  1.00  0.00     0.202 C 
BRANCH  33  34
ATOM     34  C   UNL A   1      32.151  33.646  27.452  1.00  0.00     0.261 C 
BRANCH  34  35
ATOM     35  O   UNL A   1      33.520  34.040  27.645  1.00  0.00    -0.460 OA
BRANCH  35  36
ATOM     36  C   UNL A   1      33.963  33.918  28.920  1.00  0.00     0.338 C 
ATOM     37  O   UNL A   1      33.397  34.296  29.933  1.00  0.00    -0.246 OA
BRANCH  36  38
ATOM     38  C   UNL A   1      35.186  33.093  28.968  1.00  0.00     0.060 A 
ATOM     39  C   UNL A   1      35.068  31.815  29.529  1.00  0.00     0.016 A 
ATOM     40  C   UNL A   1      36.433  33.589  28.584  1.00  0.00     0.016 A 
ATOM     41  C   UNL A   1      36.209  31.063  29.795  1.00  0.00     0.010 A 
ATOM     42  C   UNL A   1      37.580  32.831  28.853  1.00  0.00     0.010 A 
ATOM     43  C   UNL A   1      37.475  31.594  29.515  1.00  0.00    -0.014 A 
BRANCH  43  44
ATOM     44  C   UNL A   1      38.668  30.938  30.110  1.00  0.00     0.031 A 
ATOM     45  C   UNL A   1      39.116  31.361  31.485  1.00  0.00     0.074 A 
ATOM     46  C   UNL A   1      39.307  29.942  29.470  1.00  0.00     0.049 A 
ATOM     47  N   UNL A   1      40.088  30.888  32.221  1.00  0.00    -0.248 NA
ATOM     48  C   UNL A   1      38.368  32.463  32.115  1.00  0.00     0.031 C 
ATOM     49  C   UNL A   1      38.970  29.437  28.141  1.00  0.00     0.029 A 
ATOM     50  N   UNL A   1      40.383  29.183  29.856  1.00  0.00    -0.354 N 
ATOM     51  C   UNL A   1      40.085  31.648  33.386  1.00  0.00     0.074 A 
ATOM     52  C   UNL A   1      39.029  32.627  33.251  1.00  0.00     0.031 C 
ATOM     53  C   UNL A   1      39.835  28.462  27.813  1.00  0.00     0.029 A 
ATOM     54  C   UNL A   1      40.791  28.280  28.905  1.00  0.00     0.049 A 
ATOM     55  H   UNL A   1      40.821  29.276  30.733  1.00  0.00     0.167 HD
ATOM     56  C   UNL A   1      40.873  31.530  34.481  1.00  0.00     0.034 A 
ATOM     57  C   UNL A   1      41.820  27.409  28.912  1.00  0.00     0.034 A 
ATOM     58  C   UNL A   1      41.904  30.541  34.632  1.00  0.00     0.049 A 
ATOM     59  C   UNL A   1      42.679  27.293  30.146  1.00  0.00     0.074 A 
ATOM     60  C   UNL A   1      42.733  30.319  35.717  1.00  0.00     0.029 A 
ATOM     61  N   UNL A   1      42.251  29.609  33.667  1.00  0.00    -0.354 N 
ATOM     62  N   UNL A   1      42.585  27.939  31.283  1.00  0.00    -0.248 NA
ATOM     63  C   UNL A   1      43.758  26.294  30.113  1.00  0.00     0.031 C 
ATOM     64  C   UNL A   1      43.593  29.261  35.401  1.00  0.00     0.029 A 
ATOM     65  C   UNL A   1      43.283  28.809  34.129  1.00  0.00     0.049 A 
ATOM     66  H   UNL A   1      41.827  29.528  32.781  1.00  0.00     0.167 HD
ATOM     67  C   UNL A   1      43.560  27.395  32.114  1.00  0.00     0.074 A 
ATOM     68  C   UNL A   1      44.220  26.355  31.354  1.00  0.00     0.031 C 
ATOM     69  C   UNL A   1      43.888  27.734  33.386  1.00  0.00     0.034 A 
BRANCH  56  70
ATOM     70  C   UNL A   1      40.623  32.481  35.622  1.00  0.00     0.023 A 
ATOM     71  C   UNL A   1      41.403  33.650  35.739  1.00  0.00     0.012 A 
ATOM     72  C   UNL A   1      39.593  32.243  36.553  1.00  0.00     0.148 A 
ATOM     73  C   UNL A   1      41.182  34.550  36.781  1.00  0.00     0.002 A 
ATOM     74  C   UNL A   1      39.351  33.165  37.563  1.00  0.00     0.091 A 
ATOM     75  F   UNL A   1      38.879  31.112  36.441  1.00  0.00    -0.205 F 
ATOM     76  C   UNL A   1      40.151  34.313  37.686  1.00  0.00     0.022 A 
BRANCH  74  77
ATOM     77  S   UNL A   1      37.997  32.986  38.730  1.00  0.00     0.127 S 
ATOM     78  O   UNL A   1      36.863  32.761  37.835  1.00  0.00    -0.237 OA
ATOM     79  O   UNL A   1      38.406  31.813  39.503  1.00  0.00    -0.237 OA
ATOM     80  O   UNL A   1      37.958  34.227  39.491  1.00  0.00    -0.744 OA
ENDBRANCH  74  77
ENDBRANCH  56  70
BRANCH  57  81
ATOM     81  C   UNL A   1      42.062  26.532  27.732  1.00  0.00     0.023 A 
ATOM     82  C   UNL A   1      42.787  27.027  26.632  1.00  0.00     0.012 A 
ATOM     83  C   UNL A   1      41.586  25.206  27.702  1.00  0.00     0.148 A 
ATOM     84  C   UNL A   1      43.007  26.229  25.508  1.00  0.00     0.002 A 
ATOM     85  C   UNL A   1      41.857  24.399  26.602  1.00  0.00     0.091 A 
ATOM     86  F   UNL A   1      40.882  24.758  28.751  1.00  0.00    -0.205 F 
ATOM     87  C   UNL A   1      42.551  24.914  25.497  1.00  0.00     0.022 A 
BRANCH  85  88
ATOM     88  S   UNL A   1      41.420  22.658  26.560  1.00  0.00     0.127 S 
ATOM     89  O   UNL A   1      39.963  22.716  26.476  1.00  0.00    -0.237 OA
ATOM     90  O   UNL A   1      42.092  22.207  25.340  1.00  0.00    -0.237 OA
ATOM     91  O   UNL A   1      41.963  22.087  27.786  1.00  0.00    -0.744 OA
ENDBRANCH  85  88
ENDBRANCH  57  81
BRANCH  69  92
ATOM     92  C   UNL A   1      44.976  26.942  34.064  1.00  0.00     0.023 A 
ATOM     93  C   UNL A   1      46.324  27.321  33.906  1.00  0.00     0.012 A 
ATOM     94  C   UNL A   1      44.657  25.860  34.908  1.00  0.00     0.148 A 
ATOM     95  C   UNL A   1      47.340  26.610  34.546  1.00  0.00     0.002 A 
ATOM     96  C   UNL A   1      45.671  25.188  35.581  1.00  0.00     0.091 A 
ATOM     97  F   UNL A   1      43.371  25.499  35.033  1.00  0.00    -0.205 F 
ATOM     98  C   UNL A   1      47.014  25.552  35.391  1.00  0.00     0.022 A 
BRANCH  96  99
ATOM     99  S   UNL A   1      45.324  23.878  36.762  1.00  0.00     0.127 S 
ATOM    100  O   UNL A   1      46.643  23.645  37.346  1.00  0.00    -0.237 OA
ATOM    101  O   UNL A   1      44.360  24.512  37.662  1.00  0.00    -0.237 OA
ATOM    102  O   UNL A   1      44.776  22.778  35.979  1.00  0.00    -0.744 OA
ENDBRANCH  96  99
ENDBRANCH  69  92
ENDBRANCH  43  44
ENDBRANCH  36  38
ENDBRANCH  35  36
ENDBRANCH  34  35
ENDBRANCH  33  34
ENDBRANCH  32  33
ENDBRANCH  31  32
ENDBRANCH  30  31
ENDBRANCH   1  30
TORSDOF 26
ENDMDL
MODEL 3
REMARK VINA RESULT:      -9.7      1.131      7.439
REMARK SMILES CCCCCCOC(=O)Nc1cccc(-c2ccc([C@@H](C)C(=O)OCCOCCOC(=O)c3ccc(-c4c5nc(c(-c6cccc(S(=O)(=O)[O-])c6F)c6ccc([nH]6)c(-c6cccc(S(=O)(=O)[O-])c6F)c6nc(c(-c7cccc(S(=O)(=O)[O-])c7F)c7ccc4[nH]7)C=C6)C=C5)cc3)cc2F)c1
REMARK SMILES IDX 24 1 22 2 23 3 20 4 21 5 19 6 16 7 17 8 97 9 18 10 96 11
REMARK SMILES IDX 98 12 15 13 11 14 12 15 99 16 13 17 14 18 10 19 8 20 9 21
REMARK SMILES IDX 7 23 6 24 5 25 4 26 3 27 2 28 1 29 25 30 26 31 27 32 28 33
REMARK SMILES IDX 29 34 30 35 31 36 32 37 33 38 34 39 95 40 35 41 94 42 36 43
REMARK SMILES IDX 37 44 38 45 88 46 39 47 93 48 87 49 89 50 40 51 92 52 86 53
REMARK SMILES IDX 85 54 41 56 73 57 53 58 72 59 54 60 57 61 71 62 90 63 55 64
REMARK SMILES IDX 56 65 70 67 91 68 58 69 42 70 43 71 51 72 44 73 46 74 52 75
REMARK SMILES IDX 45 76 47 77 48 78 49 79 50 80 74 81 75 82 83 83 76 84 78 85
REMARK SMILES IDX 84 86 77 87 79 88 80 89 81 90 82 91 59 92 60 93 68 94 61 95
REMARK SMILES IDX 63 96 69 97 62 98 64 99 65 100 66 101 67 102
REMARK H PARENT 10 22 89 55 57 66
REMARK Flexibility Score: inf
ROOT
ATOM      1  O   UNL A   1      33.274  22.692  24.897  1.00  0.00    -0.463 OA
ENDROOT
BRANCH   1   2
ATOM      2  C   UNL A   1      33.626  23.535  23.894  1.00  0.00     0.313 C 
ATOM      3  O   UNL A   1      33.216  23.454  22.740  1.00  0.00    -0.252 OA
BRANCH   2   4
ATOM      4  C   UNL A   1      34.616  24.610  24.314  1.00  0.00     0.126 C 
ATOM      5  C   UNL A   1      35.488  24.079  25.448  1.00  0.00     0.025 C 
BRANCH   4   6
ATOM      6  C   UNL A   1      34.076  26.002  24.623  1.00  0.00    -0.031 A 
ATOM      7  C   UNL A   1      32.831  28.490  25.262  1.00  0.00     0.018 A 
ATOM      8  C   UNL A   1      33.165  28.165  23.940  1.00  0.00     0.012 A 
ATOM      9  C   UNL A   1      33.172  27.562  26.257  1.00  0.00     0.131 A 
ATOM     10  C   UNL A   1      33.777  26.942  23.625  1.00  0.00     0.005 A 
ATOM     11  C   UNL A   1      33.781  26.344  25.952  1.00  0.00     0.044 A 
ATOM     12  F   UNL A   1      32.882  27.810  27.545  1.00  0.00    -0.206 F 
BRANCH   7  13
ATOM     13  C   UNL A   1      32.121  29.734  25.596  1.00  0.00    -0.013 A 
ATOM     14  C   UNL A   1      30.403  31.392  25.068  1.00  0.00     0.045 A 
ATOM     15  C   UNL A   1      30.895  32.230  26.068  1.00  0.00     0.026 A 
ATOM     16  C   UNL A   1      31.019  30.154  24.838  1.00  0.00     0.035 A 
ATOM     17  C   UNL A   1      31.955  31.808  26.868  1.00  0.00     0.003 A 
ATOM     18  C   UNL A   1      32.563  30.571  26.633  1.00  0.00     0.009 A 
BRANCH  14  19
ATOM     19  N   UNL A   1      29.362  31.857  24.253  1.00  0.00    -0.291 N 
ATOM     20  C   UNL A   1      29.146  31.559  22.935  1.00  0.00     0.411 C 
ATOM     21  O   UNL A   1      28.482  32.298  22.217  1.00  0.00    -0.224 OA
ATOM     22  H   UNL A   1      28.715  32.467  24.677  1.00  0.00     0.173 HD
BRANCH  20  23
ATOM     23  O   UNL A   1      29.639  30.347  22.578  1.00  0.00    -0.449 OA
BRANCH  23  24
ATOM     24  C   UNL A   1      28.720  29.270  22.345  1.00  0.00     0.235 C 
BRANCH  24  25
ATOM     25  C   UNL A   1      29.013  28.055  23.230  1.00  0.00     0.042 C 
BRANCH  25  26
ATOM     26  C   UNL A   1      30.142  27.136  22.749  1.00  0.00     0.003 C 
BRANCH  26  27
ATOM     27  C   UNL A   1      30.238  25.786  23.472  1.00  0.00    -0.000 C 
BRANCH  27  28
ATOM     28  C   UNL A   1      29.519  25.719  24.819  1.00  0.00    -0.003 C 
ATOM     29  C   UNL A   1      30.459  25.411  25.973  1.00  0.00     0.004 C 
ENDBRANCH  27  28
ENDBRANCH  26  27
ENDBRANCH  25  26
ENDBRANCH  24  25
ENDBRANCH  23  24
ENDBRANCH  20  23
ENDBRANCH  14  19
ENDBRANCH   7  13
ENDBRANCH   4   6
ENDBRANCH   2   4
ENDBRANCH   1   2
BRANCH   1  30
ATOM     30  C   UNL A   1      33.260  21.290  24.574  1.00  0.00     0.261 C 
BRANCH  30  31
ATOM     31  C   UNL A   1      34.293  20.525  25.406  1.00  0.00     0.202 C 
BRANCH  31  32
ATOM     32  O   UNL A   1      35.400  19.980  24.684  1.00  0.00    -0.374 OA
BRANCH  32  33
ATOM     33  C   UNL A   1      36.565  20.795  24.559  1.00  0.00     0.202 C 
BRANCH  33  34
ATOM     34  C   UNL A   1      37.893  20.165  24.994  1.00  0.00     0.261 C 
BRANCH  34  35
ATOM     35  O   UNL A   1      38.398  20.742  26.210  1.00  0.00    -0.460 OA
BRANCH  35  36
ATOM     36  C   UNL A   1      39.733  20.978  26.206  1.00  0.00     0.338 C 
ATOM     37  O   UNL A   1      40.586  20.359  25.591  1.00  0.00    -0.246 OA
BRANCH  36  38
ATOM     38  C   UNL A   1      40.040  22.226  26.931  1.00  0.00     0.060 A 
ATOM     39  C   UNL A   1      39.339  23.375  26.542  1.00  0.00     0.016 A 
ATOM     40  C   UNL A   1      41.061  22.303  27.881  1.00  0.00     0.016 A 
ATOM     41  C   UNL A   1      39.718  24.621  27.033  1.00  0.00     0.010 A 
ATOM     42  C   UNL A   1      41.440  23.558  28.372  1.00  0.00     0.010 A 
ATOM     43  C   UNL A   1      40.811  24.726  27.903  1.00  0.00    -0.014 A 
BRANCH  43  44
ATOM     44  C   UNL A   1      41.405  26.067  28.140  1.00  0.00     0.031 A 
ATOM     45  C   UNL A   1      42.781  26.355  27.595  1.00  0.00     0.074 A 
ATOM     46  C   UNL A   1      40.716  27.032  28.773  1.00  0.00     0.049 A 
ATOM     47  N   UNL A   1      43.469  27.467  27.630  1.00  0.00    -0.248 NA
ATOM     48  C   UNL A   1      43.472  25.242  26.922  1.00  0.00     0.031 C 
ATOM     49  C   UNL A   1      39.378  26.882  29.341  1.00  0.00     0.029 A 
ATOM     50  N   UNL A   1      41.056  28.332  29.050  1.00  0.00    -0.354 N 
ATOM     51  C   UNL A   1      44.679  27.182  27.006  1.00  0.00     0.074 A 
ATOM     52  C   UNL A   1      44.641  25.788  26.623  1.00  0.00     0.031 C 
ATOM     53  C   UNL A   1      39.017  28.043  29.916  1.00  0.00     0.029 A 
ATOM     54  C   UNL A   1      40.100  29.013  29.765  1.00  0.00     0.049 A 
ATOM     55  H   UNL A   1      41.905  28.740  28.763  1.00  0.00     0.167 HD
ATOM     56  C   UNL A   1      45.721  28.009  26.753  1.00  0.00     0.034 A 
ATOM     57  C   UNL A   1      40.101  30.273  30.245  1.00  0.00     0.034 A 
ATOM     58  C   UNL A   1      45.752  29.402  27.107  1.00  0.00     0.049 A 
ATOM     59  C   UNL A   1      41.271  31.175  29.945  1.00  0.00     0.074 A 
ATOM     60  C   UNL A   1      46.747  30.331  26.863  1.00  0.00     0.029 A 
ATOM     61  N   UNL A   1      44.741  30.067  27.783  1.00  0.00    -0.354 N 
ATOM     62  N   UNL A   1      42.355  30.922  29.252  1.00  0.00    -0.248 NA
ATOM     63  C   UNL A   1      41.196  32.553  30.454  1.00  0.00     0.031 C 
ATOM     64  C   UNL A   1      46.345  31.556  27.407  1.00  0.00     0.029 A 
ATOM     65  C   UNL A   1      45.088  31.395  27.967  1.00  0.00     0.049 A 
ATOM     66  H   UNL A   1      43.900  29.655  28.088  1.00  0.00     0.167 HD
ATOM     67  C   UNL A   1      43.067  32.117  29.204  1.00  0.00     0.074 A 
ATOM     68  C   UNL A   1      42.282  33.097  29.924  1.00  0.00     0.031 C 
ATOM     69  C   UNL A   1      44.268  32.376  28.629  1.00  0.00     0.034 A 
BRANCH  56  70
ATOM     70  C   UNL A   1      46.907  27.430  26.027  1.00  0.00     0.023 A 
ATOM     71  C   UNL A   1      46.991  27.549  24.625  1.00  0.00     0.012 A 
ATOM     72  C   UNL A   1      47.956  26.808  26.732  1.00  0.00     0.148 A 
ATOM     73  C   UNL A   1      48.085  27.030  23.933  1.00  0.00     0.002 A 
ATOM     74  C   UNL A   1      49.062  26.331  26.039  1.00  0.00     0.091 A 
ATOM     75  F   UNL A   1      47.845  26.680  28.063  1.00  0.00    -0.205 F 
ATOM     76  C   UNL A   1      49.124  26.431  24.640  1.00  0.00     0.022 A 
BRANCH  74  77
ATOM     77  S   UNL A   1      50.484  25.613  26.869  1.00  0.00     0.127 S 
ATOM     78  O   UNL A   1      49.888  24.447  27.521  1.00  0.00    -0.237 OA
ATOM     79  O   UNL A   1      51.370  25.297  25.749  1.00  0.00    -0.237 OA
ATOM     80  O   UNL A   1      50.986  26.643  27.766  1.00  0.00    -0.744 OA
ENDBRANCH  74  77
ENDBRANCH  56  70
BRANCH  57  81
ATOM     81  C   UNL A   1      38.928  30.779  31.011  1.00  0.00     0.023 A 
ATOM     82  C   UNL A   1      38.823  30.504  32.388  1.00  0.00     0.012 A 
ATOM     83  C   UNL A   1      37.922  31.540  30.383  1.00  0.00     0.148 A 
ATOM     84  C   UNL A   1      37.722  30.951  33.121  1.00  0.00     0.002 A 
ATOM     85  C   UNL A   1      36.856  32.028  31.131  1.00  0.00     0.091 A 
ATOM     86  F   UNL A   1      38.030  31.775  29.068  1.00  0.00    -0.205 F 
ATOM     87  C   UNL A   1      36.745  31.720  32.495  1.00  0.00     0.022 A 
BRANCH  85  88
ATOM     88  S   UNL A   1      35.623  33.133  30.435  1.00  0.00     0.127 S 
ATOM     89  O   UNL A   1      36.072  33.248  29.050  1.00  0.00    -0.237 OA
ATOM     90  O   UNL A   1      34.391  32.367  30.624  1.00  0.00    -0.237 OA
ATOM     91  O   UNL A   1      35.696  34.352  31.229  1.00  0.00    -0.744 OA
ENDBRANCH  85  88
ENDBRANCH  57  81
BRANCH  69  92
ATOM     92  C   UNL A   1      44.791  33.787  28.704  1.00  0.00     0.023 A 
ATOM     93  C   UNL A   1      44.463  34.715  27.695  1.00  0.00     0.012 A 
ATOM     94  C   UNL A   1      45.557  34.211  29.808  1.00  0.00     0.148 A 
ATOM     95  C   UNL A   1      44.922  36.030  27.764  1.00  0.00     0.002 A 
ATOM     96  C   UNL A   1      45.970  35.536  29.894  1.00  0.00     0.091 A 
ATOM     97  F   UNL A   1      45.878  33.313  30.751  1.00  0.00    -0.205 F 
ATOM     98  C   UNL A   1      45.665  36.444  28.868  1.00  0.00     0.022 A 
BRANCH  96  99
ATOM     99  S   UNL A   1      46.846  36.169  31.330  1.00  0.00     0.127 S 
ATOM    100  O   UNL A   1      45.834  36.046  32.377  1.00  0.00    -0.237 OA
ATOM    101  O   UNL A   1      47.967  35.236  31.452  1.00  0.00    -0.237 OA
ATOM    102  O   UNL A   1      47.236  37.529  30.985  1.00  0.00    -0.744 OA
ENDBRANCH  96  99
ENDBRANCH  69  92
ENDBRANCH  43  44
ENDBRANCH  36  38
ENDBRANCH  35  36
ENDBRANCH  34  35
ENDBRANCH  33  34
ENDBRANCH  32  33
ENDBRANCH  31  32
ENDBRANCH  30  31
ENDBRANCH   1  30
TORSDOF 26
ENDMDL
