MODEL 1
REMARK VINA RESULT:     -12.2      0.000      0.000
REMARK SMILES CN(C(=O)C[C@@H]1SC(=O)N(c2ccccc2)C1=O)c1ccccc1C(=O)OCCOCCOC(=O)c1ccc(-c2c3nc(c(-c4cccc(S(=O)(=O)[O-])c4F)c4ccc([nH]4)c(-c4cccc(S(=O)(=O)[O-])c4F)c4nc(c(-c5cccc(S(=O)(=O)[O-])c5F)c5ccc2[nH]5)C=C4)C=C3)cc1
REMARK SMILES IDX 29 1 28 2 27 3 25 4 26 5 24 6 19 7 20 8 21 9 23 10 22 11
REMARK SMILES IDX 2 12 1 13 3 14 4 15 5 16 6 17 7 18 17 19 8 20 10 21 18 22
REMARK SMILES IDX 9 23 11 24 12 25 16 26 13 27 15 28 14 29 30 30 31 31 32 32
REMARK SMILES IDX 33 33 34 34 35 35 36 36 37 37 98 38 38 39 97 40 39 41 40 42
REMARK SMILES IDX 41 43 91 44 42 45 96 46 90 47 92 48 43 49 95 50 89 51 88 52
REMARK SMILES IDX 44 54 76 55 56 56 75 57 57 58 60 59 74 60 93 61 58 62 59 63
REMARK SMILES IDX 73 65 94 66 61 67 45 68 46 69 54 70 47 71 49 72 55 73 48 74
REMARK SMILES IDX 50 75 51 76 52 77 53 78 77 79 78 80 86 81 79 82 81 83 87 84
REMARK SMILES IDX 80 85 82 86 83 87 84 88 85 89 62 90 63 91 71 92 64 93 66 94
REMARK SMILES IDX 72 95 65 96 67 97 68 98 69 99 70 100
REMARK H PARENT 92 53 60 64
REMARK Flexibility Score: inf
ROOT
ATOM      1  C   UNL A   1      32.920  28.722  26.070  1.00  0.00     0.202 C 
ENDROOT
BRANCH   1   2
ATOM      2  C   UNL A   1      33.709  27.705  25.244  1.00  0.00     0.261 C 
BRANCH   2   3
ATOM      3  O   UNL A   1      34.182  26.607  26.048  1.00  0.00    -0.460 OA
BRANCH   3   4
ATOM      4  C   UNL A   1      33.582  25.418  25.812  1.00  0.00     0.340 C 
ATOM      5  O   UNL A   1      32.433  25.115  26.102  1.00  0.00    -0.246 OA
BRANCH   4   6
ATOM      6  C   UNL A   1      34.422  24.528  24.977  1.00  0.00     0.083 A 
ATOM      7  C   UNL A   1      34.076  24.008  23.719  1.00  0.00     0.058 A 
ATOM      8  C   UNL A   1      34.998  23.172  23.057  1.00  0.00     0.027 A 
ATOM      9  C   UNL A   1      36.230  22.853  23.628  1.00  0.00     0.002 A 
ATOM     10  C   UNL A   1      35.659  24.181  25.552  1.00  0.00     0.018 A 
ATOM     11  C   UNL A   1      36.556  23.350  24.882  1.00  0.00     0.001 A 
BRANCH   7  12
ATOM     12  N   UNL A   1      32.855  24.301  23.038  1.00  0.00    -0.315 N 
ATOM     13  C   UNL A   1      31.768  23.337  23.241  1.00  0.00     0.153 C 
BRANCH  12  14
ATOM     14  C   UNL A   1      32.770  25.505  22.347  1.00  0.00     0.228 C 
ATOM     15  O   UNL A   1      33.755  26.068  21.852  1.00  0.00    -0.274 OA
BRANCH  14  16
ATOM     16  C   UNL A   1      31.421  26.130  22.095  1.00  0.00     0.125 C 
BRANCH  16  17
ATOM     17  C   UNL A   1      31.082  27.038  23.269  1.00  0.00     0.156 C 
ATOM     18  S   UNL A   1      29.570  26.399  24.022  1.00  0.00    -0.050 SA
ATOM     19  C   UNL A   1      30.737  28.443  22.825  1.00  0.00     0.248 C 
ATOM     20  C   UNL A   1      28.629  27.762  23.460  1.00  0.00     0.293 C 
ATOM     21  N   UNL A   1      29.452  28.804  23.134  1.00  0.00    -0.240 N 
ATOM     22  O   UNL A   1      31.503  29.125  22.154  1.00  0.00    -0.273 OA
ATOM     23  O   UNL A   1      27.417  27.678  23.357  1.00  0.00    -0.261 OA
BRANCH  21  24
ATOM     24  C   UNL A   1      28.966  30.086  22.768  1.00  0.00     0.053 A 
ATOM     25  C   UNL A   1      29.020  31.147  23.672  1.00  0.00     0.027 A 
ATOM     26  C   UNL A   1      28.530  30.328  21.451  1.00  0.00     0.027 A 
ATOM     27  C   UNL A   1      28.689  32.440  23.262  1.00  0.00     0.002 A 
ATOM     28  C   UNL A   1      28.270  31.636  21.025  1.00  0.00     0.002 A 
ATOM     29  C   UNL A   1      28.348  32.690  21.934  1.00  0.00     0.000 A 
ENDBRANCH  21  24
ENDBRANCH  16  17
ENDBRANCH  14  16
ENDBRANCH  12  14
ENDBRANCH   7  12
ENDBRANCH   4   6
ENDBRANCH   3   4
ENDBRANCH   2   3
ENDBRANCH   1   2
BRANCH   1  30
ATOM     30  O   UNL A   1      32.678  29.994  25.467  1.00  0.00    -0.374 OA
BRANCH  30  31
ATOM     31  C   UNL A   1      31.589  30.758  25.973  1.00  0.00     0.202 C 
BRANCH  31  32
ATOM     32  C   UNL A   1      31.900  32.025  26.787  1.00  0.00     0.261 C 
BRANCH  32  33
ATOM     33  O   UNL A   1      32.850  31.871  27.853  1.00  0.00    -0.460 OA
BRANCH  33  34
ATOM     34  C   UNL A   1      33.932  32.690  27.769  1.00  0.00     0.338 C 
ATOM     35  O   UNL A   1      33.938  33.872  27.470  1.00  0.00    -0.246 OA
BRANCH  34  36
ATOM     36  C   UNL A   1      35.150  31.966  28.197  1.00  0.00     0.060 A 
ATOM     37  C   UNL A   1      35.056  30.609  28.530  1.00  0.00     0.016 A 
ATOM     38  C   UNL A   1      36.360  32.635  28.358  1.00  0.00     0.016 A 
ATOM     39  C   UNL A   1      36.169  29.916  29.036  1.00  0.00     0.010 A 
ATOM     40  C   UNL A   1      37.468  31.938  28.858  1.00  0.00     0.010 A 
ATOM     41  C   UNL A   1      37.389  30.575  29.221  1.00  0.00    -0.014 A 
BRANCH  41  42
ATOM     42  C   UNL A   1      38.552  29.952  29.935  1.00  0.00     0.031 A 
ATOM     43  C   UNL A   1      39.000  30.571  31.228  1.00  0.00     0.074 A 
ATOM     44  C   UNL A   1      39.260  28.905  29.456  1.00  0.00     0.049 A 
ATOM     45  N   UNL A   1      40.039  30.278  31.960  1.00  0.00    -0.248 NA
ATOM     46  C   UNL A   1      38.149  31.637  31.785  1.00  0.00     0.031 C 
ATOM     47  C   UNL A   1      38.895  28.106  28.304  1.00  0.00     0.029 A 
ATOM     48  N   UNL A   1      40.475  28.374  29.830  1.00  0.00    -0.354 N 
ATOM     49  C   UNL A   1      39.947  31.088  33.078  1.00  0.00     0.074 A 
ATOM     50  C   UNL A   1      38.817  31.968  32.877  1.00  0.00     0.031 C 
ATOM     51  C   UNL A   1      39.924  27.322  27.941  1.00  0.00     0.029 A 
ATOM     52  C   UNL A   1      41.010  27.515  28.886  1.00  0.00     0.049 A 
ATOM     53  H   UNL A   1      40.919  28.584  30.684  1.00  0.00     0.167 HD
ATOM     54  C   UNL A   1      40.680  31.044  34.213  1.00  0.00     0.034 A 
ATOM     55  C   UNL A   1      42.227  26.940  28.790  1.00  0.00     0.034 A 
ATOM     56  C   UNL A   1      41.795  30.163  34.417  1.00  0.00     0.049 A 
ATOM     57  C   UNL A   1      43.127  27.025  29.994  1.00  0.00     0.074 A 
ATOM     58  C   UNL A   1      42.578  30.017  35.547  1.00  0.00     0.029 A 
ATOM     59  N   UNL A   1      42.295  29.291  33.464  1.00  0.00    -0.354 N 
ATOM     60  N   UNL A   1      42.945  27.693  31.106  1.00  0.00    -0.248 NA
ATOM     61  C   UNL A   1      44.327  26.175  29.993  1.00  0.00     0.031 C 
ATOM     62  C   UNL A   1      43.572  29.075  35.266  1.00  0.00     0.029 A 
ATOM     63  C   UNL A   1      43.381  28.604  33.977  1.00  0.00     0.049 A 
ATOM     64  H   UNL A   1      41.931  29.175  32.557  1.00  0.00     0.167 HD
ATOM     65  C   UNL A   1      43.933  27.255  31.976  1.00  0.00     0.074 A 
ATOM     66  C   UNL A   1      44.733  26.290  31.250  1.00  0.00     0.031 C 
ATOM     67  C   UNL A   1      44.133  27.601  33.270  1.00  0.00     0.034 A 
BRANCH  54  68
ATOM     68  C   UNL A   1      40.232  31.932  35.337  1.00  0.00     0.023 A 
ATOM     69  C   UNL A   1      40.811  33.212  35.476  1.00  0.00     0.012 A 
ATOM     70  C   UNL A   1      39.246  31.512  36.244  1.00  0.00     0.148 A 
ATOM     71  C   UNL A   1      40.447  34.044  36.531  1.00  0.00     0.002 A 
ATOM     72  C   UNL A   1      38.853  32.366  37.265  1.00  0.00     0.091 A 
ATOM     73  F   UNL A   1      38.726  30.286  36.099  1.00  0.00    -0.205 F 
ATOM     74  C   UNL A   1      39.462  33.624  37.420  1.00  0.00     0.022 A 
BRANCH  72  75
ATOM     75  S   UNL A   1      37.549  31.952  38.426  1.00  0.00     0.127 S 
ATOM     76  O   UNL A   1      37.217  30.585  38.024  1.00  0.00    -0.237 OA
ATOM     77  O   UNL A   1      38.242  32.061  39.709  1.00  0.00    -0.237 OA
ATOM     78  O   UNL A   1      36.491  32.931  38.213  1.00  0.00    -0.744 OA
ENDBRANCH  72  75
ENDBRANCH  54  68
BRANCH  55  79
ATOM     79  C   UNL A   1      42.624  26.110  27.608  1.00  0.00     0.023 A 
ATOM     80  C   UNL A   1      43.269  26.729  26.518  1.00  0.00     0.012 A 
ATOM     81  C   UNL A   1      42.302  24.739  27.520  1.00  0.00     0.148 A 
ATOM     82  C   UNL A   1      43.524  26.023  25.340  1.00  0.00     0.002 A 
ATOM     83  C   UNL A   1      42.599  24.028  26.357  1.00  0.00     0.091 A 
ATOM     84  F   UNL A   1      41.670  24.163  28.551  1.00  0.00    -0.205 F 
ATOM     85  C   UNL A   1      43.189  24.675  25.259  1.00  0.00     0.022 A 
BRANCH  83  86
ATOM     86  S   UNL A   1      42.286  22.267  26.169  1.00  0.00     0.127 S 
ATOM     87  O   UNL A   1      42.884  21.722  27.386  1.00  0.00    -0.237 OA
ATOM     88  O   UNL A   1      40.822  22.222  26.133  1.00  0.00    -0.237 OA
ATOM     89  O   UNL A   1      42.924  21.875  24.920  1.00  0.00    -0.744 OA
ENDBRANCH  83  86
ENDBRANCH  55  79
BRANCH  67  90
ATOM     90  C   UNL A   1      45.202  26.866  34.032  1.00  0.00     0.023 A 
ATOM     91  C   UNL A   1      46.517  27.364  34.083  1.00  0.00     0.012 A 
ATOM     92  C   UNL A   1      44.870  25.704  34.759  1.00  0.00     0.148 A 
ATOM     93  C   UNL A   1      47.496  26.696  34.816  1.00  0.00     0.002 A 
ATOM     94  C   UNL A   1      45.835  25.080  35.535  1.00  0.00     0.091 A 
ATOM     95  F   UNL A   1      43.617  25.234  34.677  1.00  0.00    -0.205 F 
ATOM     96  C   UNL A   1      47.153  25.563  35.552  1.00  0.00     0.022 A 
BRANCH  94  97
ATOM     97  S   UNL A   1      45.454  23.686  36.603  1.00  0.00     0.127 S 
ATOM     98  O   UNL A   1      46.770  23.362  37.151  1.00  0.00    -0.237 OA
ATOM     99  O   UNL A   1      44.523  24.280  37.562  1.00  0.00    -0.237 OA
ATOM    100  O   UNL A   1      44.867  22.667  35.744  1.00  0.00    -0.744 OA
ENDBRANCH  94  97
ENDBRANCH  67  90
ENDBRANCH  41  42
ENDBRANCH  34  36
ENDBRANCH  33  34
ENDBRANCH  32  33
ENDBRANCH  31  32
ENDBRANCH  30  31
ENDBRANCH   1  30
TORSDOF 22
ENDMDL
MODEL 2
REMARK VINA RESULT:     -11.5      2.130      2.463
REMARK SMILES CN(C(=O)C[C@@H]1SC(=O)N(c2ccccc2)C1=O)c1ccccc1C(=O)OCCOCCOC(=O)c1ccc(-c2c3nc(c(-c4cccc(S(=O)(=O)[O-])c4F)c4ccc([nH]4)c(-c4cccc(S(=O)(=O)[O-])c4F)c4nc(c(-c5cccc(S(=O)(=O)[O-])c5F)c5ccc2[nH]5)C=C4)C=C3)cc1
REMARK SMILES IDX 29 1 28 2 27 3 25 4 26 5 24 6 19 7 20 8 21 9 23 10 22 11
REMARK SMILES IDX 2 12 1 13 3 14 4 15 5 16 6 17 7 18 17 19 8 20 10 21 18 22
REMARK SMILES IDX 9 23 11 24 12 25 16 26 13 27 15 28 14 29 30 30 31 31 32 32
REMARK SMILES IDX 33 33 34 34 35 35 36 36 37 37 98 38 38 39 97 40 39 41 40 42
REMARK SMILES IDX 41 43 91 44 42 45 96 46 90 47 92 48 43 49 95 50 89 51 88 52
REMARK SMILES IDX 44 54 76 55 56 56 75 57 57 58 60 59 74 60 93 61 58 62 59 63
REMARK SMILES IDX 73 65 94 66 61 67 45 68 46 69 54 70 47 71 49 72 55 73 48 74
REMARK SMILES IDX 50 75 51 76 52 77 53 78 77 79 78 80 86 81 79 82 81 83 87 84
REMARK SMILES IDX 80 85 82 86 83 87 84 88 85 89 62 90 63 91 71 92 64 93 66 94
REMARK SMILES IDX 72 95 65 96 67 97 68 98 69 99 70 100
REMARK H PARENT 92 53 60 64
REMARK Flexibility Score: inf
ROOT
ATOM      1  C   UNL A   1      33.605  27.894  26.455  1.00  0.00     0.202 C 
ENDROOT
BRANCH   1   2
ATOM      2  C   UNL A   1      33.783  26.562  25.724  1.00  0.00     0.261 C 
BRANCH   2   3
ATOM      3  O   UNL A   1      33.247  25.457  26.478  1.00  0.00    -0.460 OA
BRANCH   3   4
ATOM      4  C   UNL A   1      33.060  24.316  25.777  1.00  0.00     0.340 C 
ATOM      5  O   UNL A   1      32.000  23.724  25.624  1.00  0.00    -0.246 OA
BRANCH   4   6
ATOM      6  C   UNL A   1      34.275  23.918  25.028  1.00  0.00     0.083 A 
ATOM      7  C   UNL A   1      34.372  23.759  23.636  1.00  0.00     0.058 A 
ATOM      8  C   UNL A   1      35.611  23.373  23.085  1.00  0.00     0.027 A 
ATOM      9  C   UNL A   1      36.725  23.145  23.892  1.00  0.00     0.002 A 
ATOM     10  C   UNL A   1      35.401  23.663  25.834  1.00  0.00     0.018 A 
ATOM     11  C   UNL A   1      36.617  23.279  25.269  1.00  0.00     0.001 A 
BRANCH   7  12
ATOM     12  N   UNL A   1      33.299  24.001  22.724  1.00  0.00    -0.315 N 
ATOM     13  C   UNL A   1      32.455  22.841  22.417  1.00  0.00     0.153 C 
BRANCH  12  14
ATOM     14  C   UNL A   1      33.087  25.310  22.305  1.00  0.00     0.228 C 
ATOM     15  O   UNL A   1      34.007  26.068  21.971  1.00  0.00    -0.274 OA
BRANCH  14  16
ATOM     16  C   UNL A   1      31.679  25.827  22.151  1.00  0.00     0.125 C 
BRANCH  16  17
ATOM     17  C   UNL A   1      31.366  26.733  23.334  1.00  0.00     0.156 C 
ATOM     18  S   UNL A   1      29.899  26.064  24.148  1.00  0.00    -0.050 SA
ATOM     19  C   UNL A   1      30.971  28.128  22.898  1.00  0.00     0.248 C 
ATOM     20  C   UNL A   1      28.906  27.403  23.618  1.00  0.00     0.293 C 
ATOM     21  N   UNL A   1      29.692  28.462  23.256  1.00  0.00    -0.240 N 
ATOM     22  O   UNL A   1      31.695  28.824  22.195  1.00  0.00    -0.273 OA
ATOM     23  O   UNL A   1      27.693  27.291  23.562  1.00  0.00    -0.261 OA
BRANCH  21  24
ATOM     24  C   UNL A   1      29.163  29.730  22.904  1.00  0.00     0.053 A 
ATOM     25  C   UNL A   1      29.247  30.803  23.793  1.00  0.00     0.027 A 
ATOM     26  C   UNL A   1      28.651  29.950  21.611  1.00  0.00     0.027 A 
ATOM     27  C   UNL A   1      28.870  32.084  23.389  1.00  0.00     0.002 A 
ATOM     28  C   UNL A   1      28.343  31.249  21.187  1.00  0.00     0.002 A 
ATOM     29  C   UNL A   1      28.452  32.313  22.080  1.00  0.00     0.000 A 
ENDBRANCH  21  24
ENDBRANCH  16  17
ENDBRANCH  14  16
ENDBRANCH  12  14
ENDBRANCH   7  12
ENDBRANCH   4   6
ENDBRANCH   3   4
ENDBRANCH   2   3
ENDBRANCH   1   2
BRANCH   1  30
ATOM     30  O   UNL A   1      33.638  29.078  25.656  1.00  0.00    -0.374 OA
BRANCH  30  31
ATOM     31  C   UNL A   1      32.561  29.995  25.805  1.00  0.00     0.202 C 
BRANCH  31  32
ATOM     32  C   UNL A   1      32.670  31.081  26.889  1.00  0.00     0.261 C 
BRANCH  32  33
ATOM     33  O   UNL A   1      33.626  30.835  27.933  1.00  0.00    -0.460 OA
BRANCH  33  34
ATOM     34  C   UNL A   1      34.786  31.533  27.813  1.00  0.00     0.338 C 
ATOM     35  O   UNL A   1      34.911  32.705  27.501  1.00  0.00    -0.246 OA
BRANCH  34  36
ATOM     36  C   UNL A   1      35.930  30.686  28.219  1.00  0.00     0.060 A 
ATOM     37  C   UNL A   1      35.792  29.834  29.323  1.00  0.00     0.016 A 
ATOM     38  C   UNL A   1      37.161  30.792  27.578  1.00  0.00     0.016 A 
ATOM     39  C   UNL A   1      36.887  29.093  29.798  1.00  0.00     0.010 A 
ATOM     40  C   UNL A   1      38.249  30.046  28.053  1.00  0.00     0.010 A 
ATOM     41  C   UNL A   1      38.137  29.198  29.177  1.00  0.00    -0.014 A 
BRANCH  41  42
ATOM     42  C   UNL A   1      39.385  28.591  29.748  1.00  0.00     0.031 A 
ATOM     43  C   UNL A   1      40.104  29.344  30.830  1.00  0.00     0.074 A 
ATOM     44  C   UNL A   1      39.934  27.439  29.305  1.00  0.00     0.049 A 
ATOM     45  N   UNL A   1      41.250  29.074  31.392  1.00  0.00    -0.248 NA
ATOM     46  C   UNL A   1      39.430  30.537  31.372  1.00  0.00     0.031 C 
ATOM     47  C   UNL A   1      39.314  26.521  28.371  1.00  0.00     0.029 A 
ATOM     48  N   UNL A   1      41.171  26.872  29.522  1.00  0.00    -0.354 N 
ATOM     49  C   UNL A   1      41.415  30.033  32.377  1.00  0.00     0.074 A 
ATOM     50  C   UNL A   1      40.313  30.961  32.261  1.00  0.00     0.031 C 
ATOM     51  C   UNL A   1      40.214  25.620  27.943  1.00  0.00     0.029 A 
ATOM     52  C   UNL A   1      41.470  25.856  28.632  1.00  0.00     0.049 A 
ATOM     53  H   UNL A   1      41.782  27.161  30.239  1.00  0.00     0.167 HD
ATOM     54  C   UNL A   1      42.352  30.087  33.349  1.00  0.00     0.034 A 
ATOM     55  C   UNL A   1      42.617  25.183  28.397  1.00  0.00     0.034 A 
ATOM     56  C   UNL A   1      43.441  29.160  33.471  1.00  0.00     0.049 A 
ATOM     57  C   UNL A   1      43.735  25.361  29.388  1.00  0.00     0.074 A 
ATOM     58  C   UNL A   1      44.420  29.109  34.446  1.00  0.00     0.029 A 
ATOM     59  N   UNL A   1      43.703  28.131  32.581  1.00  0.00    -0.354 N 
ATOM     60  N   UNL A   1      43.805  26.185  30.404  1.00  0.00    -0.248 NA
ATOM     61  C   UNL A   1      44.870  24.430  29.291  1.00  0.00     0.031 C 
ATOM     62  C   UNL A   1      45.294  28.064  34.127  1.00  0.00     0.029 A 
ATOM     63  C   UNL A   1      44.834  27.440  32.980  1.00  0.00     0.049 A 
ATOM     64  H   UNL A   1      43.166  27.922  31.784  1.00  0.00     0.167 HD
ATOM     65  C   UNL A   1      44.921  25.794  31.132  1.00  0.00     0.074 A 
ATOM     66  C   UNL A   1      45.517  24.683  30.420  1.00  0.00     0.031 C 
ATOM     67  C   UNL A   1      45.385  26.296  32.301  1.00  0.00     0.034 A 
BRANCH  54  68
ATOM     68  C   UNL A   1      42.174  31.150  34.394  1.00  0.00     0.023 A 
ATOM     69  C   UNL A   1      41.420  30.858  35.551  1.00  0.00     0.012 A 
ATOM     70  C   UNL A   1      42.748  32.422  34.240  1.00  0.00     0.148 A 
ATOM     71  C   UNL A   1      41.201  31.834  36.520  1.00  0.00     0.002 A 
ATOM     72  C   UNL A   1      42.567  33.375  35.232  1.00  0.00     0.091 A 
ATOM     73  F   UNL A   1      43.444  32.677  33.124  1.00  0.00    -0.205 F 
ATOM     74  C   UNL A   1      41.782  33.090  36.364  1.00  0.00     0.022 A 
BRANCH  72  75
ATOM     75  S   UNL A   1      43.323  35.001  35.164  1.00  0.00     0.127 S 
ATOM     76  O   UNL A   1      42.504  35.748  36.118  1.00  0.00    -0.237 OA
ATOM     77  O   UNL A   1      44.685  34.720  35.617  1.00  0.00    -0.237 OA
ATOM     78  O   UNL A   1      43.213  35.441  33.780  1.00  0.00    -0.744 OA
ENDBRANCH  72  75
ENDBRANCH  54  68
BRANCH  55  79
ATOM     79  C   UNL A   1      42.736  24.173  27.298  1.00  0.00     0.023 A 
ATOM     80  C   UNL A   1      43.316  24.556  26.071  1.00  0.00     0.012 A 
ATOM     81  C   UNL A   1      42.213  22.868  27.426  1.00  0.00     0.148 A 
ATOM     82  C   UNL A   1      43.314  23.690  24.975  1.00  0.00     0.002 A 
ATOM     83  C   UNL A   1      42.254  21.993  26.340  1.00  0.00     0.091 A 
ATOM     84  F   UNL A   1      41.644  22.518  28.587  1.00  0.00    -0.205 F 
ATOM     85  C   UNL A   1      42.783  22.411  25.109  1.00  0.00     0.022 A 
BRANCH  83  86
ATOM     86  S   UNL A   1      41.672  20.293  26.420  1.00  0.00     0.127 S 
ATOM     87  O   UNL A   1      42.107  19.887  27.755  1.00  0.00    -0.237 OA
ATOM     88  O   UNL A   1      40.225  20.460  26.273  1.00  0.00    -0.237 OA
ATOM     89  O   UNL A   1      42.308  19.597  25.310  1.00  0.00    -0.744 OA
ENDBRANCH  83  86
ENDBRANCH  55  79
BRANCH  67  90
ATOM     90  C   UNL A   1      46.544  25.592  32.952  1.00  0.00     0.023 A 
ATOM     91  C   UNL A   1      47.862  26.034  32.738  1.00  0.00     0.012 A 
ATOM     92  C   UNL A   1      46.305  24.522  33.839  1.00  0.00     0.148 A 
ATOM     93  C   UNL A   1      48.930  25.397  33.368  1.00  0.00     0.002 A 
ATOM     94  C   UNL A   1      47.367  23.933  34.509  1.00  0.00     0.091 A 
ATOM     95  F   UNL A   1      45.043  24.101  34.009  1.00  0.00    -0.205 F 
ATOM     96  C   UNL A   1      48.682  24.358  34.262  1.00  0.00     0.022 A 
BRANCH  94  97
ATOM     97  S   UNL A   1      47.129  22.668  35.761  1.00  0.00     0.127 S 
ATOM     98  O   UNL A   1      46.229  23.339  36.697  1.00  0.00    -0.237 OA
ATOM     99  O   UNL A   1      46.514  21.587  34.991  1.00  0.00    -0.237 OA
ATOM    100  O   UNL A   1      48.454  22.360  36.281  1.00  0.00    -0.744 OA
ENDBRANCH  94  97
ENDBRANCH  67  90
ENDBRANCH  41  42
ENDBRANCH  34  36
ENDBRANCH  33  34
ENDBRANCH  32  33
ENDBRANCH  31  32
ENDBRANCH  30  31
ENDBRANCH   1  30
TORSDOF 22
ENDMDL
MODEL 3
REMARK VINA RESULT:     -11.5      0.748      7.223
REMARK SMILES CN(C(=O)C[C@@H]1SC(=O)N(c2ccccc2)C1=O)c1ccccc1C(=O)OCCOCCOC(=O)c1ccc(-c2c3nc(c(-c4cccc(S(=O)(=O)[O-])c4F)c4ccc([nH]4)c(-c4cccc(S(=O)(=O)[O-])c4F)c4nc(c(-c5cccc(S(=O)(=O)[O-])c5F)c5ccc2[nH]5)C=C4)C=C3)cc1
REMARK SMILES IDX 29 1 28 2 27 3 25 4 26 5 24 6 19 7 20 8 21 9 23 10 22 11
REMARK SMILES IDX 2 12 1 13 3 14 4 15 5 16 6 17 7 18 17 19 8 20 10 21 18 22
REMARK SMILES IDX 9 23 11 24 12 25 16 26 13 27 15 28 14 29 30 30 31 31 32 32
REMARK SMILES IDX 33 33 34 34 35 35 36 36 37 37 98 38 38 39 97 40 39 41 40 42
REMARK SMILES IDX 41 43 91 44 42 45 96 46 90 47 92 48 43 49 95 50 89 51 88 52
REMARK SMILES IDX 44 54 76 55 56 56 75 57 57 58 60 59 74 60 93 61 58 62 59 63
REMARK SMILES IDX 73 65 94 66 61 67 45 68 46 69 54 70 47 71 49 72 55 73 48 74
REMARK SMILES IDX 50 75 51 76 52 77 53 78 77 79 78 80 86 81 79 82 81 83 87 84
REMARK SMILES IDX 80 85 82 86 83 87 84 88 85 89 62 90 63 91 71 92 64 93 66 94
REMARK SMILES IDX 72 95 65 96 67 97 68 98 69 99 70 100
REMARK H PARENT 92 53 60 64
REMARK Flexibility Score: inf
ROOT
ATOM      1  C   UNL A   1      33.398  28.028  26.333  1.00  0.00     0.202 C 
ENDROOT
BRANCH   1   2
ATOM      2  C   UNL A   1      33.682  26.690  25.646  1.00  0.00     0.261 C 
BRANCH   2   3
ATOM      3  O   UNL A   1      33.257  25.571  26.449  1.00  0.00    -0.460 OA
BRANCH   3   4
ATOM      4  C   UNL A   1      33.034  24.424  25.769  1.00  0.00     0.340 C 
ATOM      5  O   UNL A   1      31.955  23.868  25.617  1.00  0.00    -0.246 OA
BRANCH   4   6
ATOM      6  C   UNL A   1      34.241  23.966  25.040  1.00  0.00     0.083 A 
ATOM      7  C   UNL A   1      34.335  23.742  23.657  1.00  0.00     0.058 A 
ATOM      8  C   UNL A   1      35.565  23.305  23.126  1.00  0.00     0.027 A 
ATOM      9  C   UNL A   1      36.675  23.091  23.943  1.00  0.00     0.002 A 
ATOM     10  C   UNL A   1      35.361  23.726  25.858  1.00  0.00     0.018 A 
ATOM     11  C   UNL A   1      36.569  23.291  25.313  1.00  0.00     0.001 A 
BRANCH   7  12
ATOM     12  N   UNL A   1      33.267  23.963  22.734  1.00  0.00    -0.315 N 
ATOM     13  C   UNL A   1      32.433  22.793  22.437  1.00  0.00     0.153 C 
BRANCH  12  14
ATOM     14  C   UNL A   1      33.049  25.264  22.295  1.00  0.00     0.228 C 
ATOM     15  O   UNL A   1      33.964  26.018  21.940  1.00  0.00    -0.274 OA
BRANCH  14  16
ATOM     16  C   UNL A   1      31.639  25.777  22.146  1.00  0.00     0.125 C 
BRANCH  16  17
ATOM     17  C   UNL A   1      31.349  26.735  23.294  1.00  0.00     0.156 C 
ATOM     18  S   UNL A   1      29.831  26.172  24.093  1.00  0.00    -0.050 SA
ATOM     19  C   UNL A   1      31.041  28.135  22.806  1.00  0.00     0.248 C 
ATOM     20  C   UNL A   1      28.924  27.545  23.499  1.00  0.00     0.293 C 
ATOM     21  N   UNL A   1      29.774  28.548  23.124  1.00  0.00    -0.240 N 
ATOM     22  O   UNL A   1      31.817  28.768  22.100  1.00  0.00    -0.273 OA
ATOM     23  O   UNL A   1      27.708  27.497  23.419  1.00  0.00    -0.261 OA
BRANCH  21  24
ATOM     24  C   UNL A   1      29.323  29.832  22.722  1.00  0.00     0.053 A 
ATOM     25  C   UNL A   1      28.914  30.057  21.407  1.00  0.00     0.027 A 
ATOM     26  C   UNL A   1      29.174  30.861  23.672  1.00  0.00     0.027 A 
ATOM     27  C   UNL A   1      28.325  31.271  21.050  1.00  0.00     0.002 A 
ATOM     28  C   UNL A   1      28.517  32.048  23.327  1.00  0.00     0.002 A 
ATOM     29  C   UNL A   1      28.095  32.250  22.014  1.00  0.00     0.000 A 
ENDBRANCH  21  24
ENDBRANCH  16  17
ENDBRANCH  14  16
ENDBRANCH  12  14
ENDBRANCH   7  12
ENDBRANCH   4   6
ENDBRANCH   3   4
ENDBRANCH   2   3
ENDBRANCH   1   2
BRANCH   1  30
ATOM     30  O   UNL A   1      33.419  29.193  25.507  1.00  0.00    -0.374 OA
BRANCH  30  31
ATOM     31  C   UNL A   1      32.225  29.964  25.437  1.00  0.00     0.202 C 
BRANCH  31  32
ATOM     32  C   UNL A   1      31.963  31.008  26.535  1.00  0.00     0.261 C 
BRANCH  32  33
ATOM     33  O   UNL A   1      32.874  30.997  27.646  1.00  0.00    -0.460 OA
BRANCH  33  34
ATOM     34  C   UNL A   1      33.783  32.008  27.643  1.00  0.00     0.338 C 
ATOM     35  O   UNL A   1      33.574  33.183  27.397  1.00  0.00    -0.246 OA
BRANCH  34  36
ATOM     36  C   UNL A   1      35.101  31.504  28.090  1.00  0.00     0.060 A 
ATOM     37  C   UNL A   1      35.199  30.201  28.595  1.00  0.00     0.016 A 
ATOM     38  C   UNL A   1      36.218  32.335  28.099  1.00  0.00     0.016 A 
ATOM     39  C   UNL A   1      36.413  29.726  29.122  1.00  0.00     0.010 A 
ATOM     40  C   UNL A   1      37.427  31.854  28.621  1.00  0.00     0.010 A 
ATOM     41  C   UNL A   1      37.542  30.551  29.155  1.00  0.00    -0.014 A 
BRANCH  41  42
ATOM     42  C   UNL A   1      38.804  30.178  29.876  1.00  0.00     0.031 A 
ATOM     43  C   UNL A   1      39.609  29.029  29.340  1.00  0.00     0.074 A 
ATOM     44  C   UNL A   1      39.228  30.774  31.012  1.00  0.00     0.049 A 
ATOM     45  N   UNL A   1      40.665  28.460  29.854  1.00  0.00    -0.248 NA
ATOM     46  C   UNL A   1      39.188  28.468  28.045  1.00  0.00     0.031 C 
ATOM     47  C   UNL A   1      38.657  31.973  31.592  1.00  0.00     0.029 A 
ATOM     48  N   UNL A   1      40.193  30.415  31.928  1.00  0.00    -0.354 N 
ATOM     49  C   UNL A   1      41.059  27.508  28.929  1.00  0.00     0.074 A 
ATOM     50  C   UNL A   1      40.065  27.492  27.879  1.00  0.00     0.031 C 
ATOM     51  C   UNL A   1      39.130  32.155  32.836  1.00  0.00     0.029 A 
ATOM     52  C   UNL A   1      40.099  31.112  33.121  1.00  0.00     0.049 A 
ATOM     53  H   UNL A   1      40.880  29.732  31.753  1.00  0.00     0.167 HD
ATOM     54  C   UNL A   1      42.194  26.775  28.909  1.00  0.00     0.034 A 
ATOM     55  C   UNL A   1      40.724  30.941  34.305  1.00  0.00     0.034 A 
ATOM     56  C   UNL A   1      43.186  26.797  29.946  1.00  0.00     0.049 A 
ATOM     57  C   UNL A   1      41.895  29.996  34.338  1.00  0.00     0.074 A 
ATOM     58  C   UNL A   1      44.390  26.119  29.998  1.00  0.00     0.029 A 
ATOM     59  N   UNL A   1      43.083  27.526  31.120  1.00  0.00    -0.354 N 
ATOM     60  N   UNL A   1      42.334  29.205  33.391  1.00  0.00    -0.248 NA
ATOM     61  C   UNL A   1      42.738  30.017  35.542  1.00  0.00     0.031 C 
ATOM     62  C   UNL A   1      45.001  26.415  31.220  1.00  0.00     0.029 A 
ATOM     63  C   UNL A   1      44.200  27.310  31.908  1.00  0.00     0.049 A 
ATOM     64  H   UNL A   1      42.328  28.110  31.357  1.00  0.00     0.167 HD
ATOM     65  C   UNL A   1      43.561  28.730  33.834  1.00  0.00     0.074 A 
ATOM     66  C   UNL A   1      43.778  29.294  35.149  1.00  0.00     0.031 C 
ATOM     67  C   UNL A   1      44.437  27.924  33.189  1.00  0.00     0.034 A 
BRANCH  54  68
ATOM     68  C   UNL A   1      42.438  25.950  27.679  1.00  0.00     0.023 A 
ATOM     69  C   UNL A   1      43.044  26.552  26.555  1.00  0.00     0.012 A 
ATOM     70  C   UNL A   1      42.079  24.593  27.632  1.00  0.00     0.148 A 
ATOM     71  C   UNL A   1      43.247  25.827  25.384  1.00  0.00     0.002 A 
ATOM     72  C   UNL A   1      42.329  23.863  26.479  1.00  0.00     0.091 A 
ATOM     73  F   UNL A   1      41.490  24.051  28.706  1.00  0.00    -0.205 F 
ATOM     74  C   UNL A   1      42.897  24.480  25.350  1.00  0.00     0.022 A 
BRANCH  72  75
ATOM     75  S   UNL A   1      41.978  22.108  26.348  1.00  0.00     0.127 S 
ATOM     76  O   UNL A   1      42.779  21.732  25.183  1.00  0.00    -0.237 OA
ATOM     77  O   UNL A   1      42.483  21.603  27.625  1.00  0.00    -0.237 OA
ATOM     78  O   UNL A   1      40.538  21.995  26.167  1.00  0.00    -0.744 OA
ENDBRANCH  72  75
ENDBRANCH  54  68
BRANCH  55  79
ATOM     79  C   UNL A   1      40.387  31.767  35.508  1.00  0.00     0.023 A 
ATOM     80  C   UNL A   1      41.313  32.728  35.964  1.00  0.00     0.012 A 
ATOM     81  C   UNL A   1      39.202  31.560  36.246  1.00  0.00     0.148 A 
ATOM     82  C   UNL A   1      41.103  33.415  37.161  1.00  0.00     0.002 A 
ATOM     83  C   UNL A   1      38.978  32.281  37.419  1.00  0.00     0.091 A 
ATOM     84  F   UNL A   1      38.337  30.630  35.819  1.00  0.00    -0.205 F 
ATOM     85  C   UNL A   1      39.938  33.192  37.888  1.00  0.00     0.022 A 
BRANCH  83  86
ATOM     86  S   UNL A   1      37.475  32.135  38.396  1.00  0.00     0.127 S 
ATOM     87  O   UNL A   1      37.185  30.706  38.293  1.00  0.00    -0.237 OA
ATOM     88  O   UNL A   1      37.929  32.573  39.718  1.00  0.00    -0.237 OA
ATOM     89  O   UNL A   1      36.502  33.023  37.775  1.00  0.00    -0.744 OA
ENDBRANCH  83  86
ENDBRANCH  55  79
BRANCH  67  90
ATOM     90  C   UNL A   1      45.768  27.673  33.844  1.00  0.00     0.023 A 
ATOM     91  C   UNL A   1      46.805  28.619  33.743  1.00  0.00     0.012 A 
ATOM     92  C   UNL A   1      45.957  26.515  34.625  1.00  0.00     0.148 A 
ATOM     93  C   UNL A   1      48.026  28.396  34.379  1.00  0.00     0.002 A 
ATOM     94  C   UNL A   1      47.152  26.330  35.304  1.00  0.00     0.091 A 
ATOM     95  F   UNL A   1      44.964  25.616  34.688  1.00  0.00    -0.205 F 
ATOM     96  C   UNL A   1      48.194  27.261  35.169  1.00  0.00     0.022 A 
BRANCH  94  97
ATOM     97  S   UNL A   1      47.413  24.957  36.433  1.00  0.00     0.127 S 
ATOM     98  O   UNL A   1      47.221  23.806  35.552  1.00  0.00    -0.237 OA
ATOM     99  O   UNL A   1      48.795  25.173  36.862  1.00  0.00    -0.237 OA
ATOM    100  O   UNL A   1      46.422  25.108  37.489  1.00  0.00    -0.744 OA
ENDBRANCH  94  97
ENDBRANCH  67  90
ENDBRANCH  41  42
ENDBRANCH  34  36
ENDBRANCH  33  34
ENDBRANCH  32  33
ENDBRANCH  31  32
ENDBRANCH  30  31
ENDBRANCH   1  30
TORSDOF 22
ENDMDL
