MODEL 1
REMARK VINA RESULT:     -11.1      0.000      0.000
REMARK SMILES O=C(OCCOCCOC(=O)c1cc(Br)ccc1OC(=O)c1ccc(F)cc1)c1ccc(-c2c3nc(c(-c4cccc(S(=O)(=O)[O-])c4F)c4ccc([nH]4)c(-c4cccc(S(=O)(=O)[O-])c4F)c4nc(c(-c5cccc(S(=O)(=O)[O-])c5F)c5ccc2[nH]5)C=C4)C=C3)cc1
REMARK SMILES IDX 6 1 5 2 4 3 3 4 2 5 1 6 29 7 30 8 91 9 31 10 90 11 32 12
REMARK SMILES IDX 33 13 34 14 84 15 35 16 89 17 83 18 85 19 36 20 88 21 82 22
REMARK SMILES IDX 81 23 37 25 69 26 49 27 68 28 50 29 53 30 67 31 86 32 51 33
REMARK SMILES IDX 52 34 66 36 87 37 54 38 38 39 39 40 47 41 40 42 42 43 48 44
REMARK SMILES IDX 41 45 43 46 44 47 45 48 46 49 70 50 71 51 79 52 72 53 74 54
REMARK SMILES IDX 80 55 73 56 75 57 76 58 77 59 78 60 55 61 56 62 64 63 57 64
REMARK SMILES IDX 59 65 65 66 58 67 60 68 61 69 62 70 63 71 7 72 8 73 9 74
REMARK SMILES IDX 10 75 11 76 12 77 13 78 18 79 14 80 17 81 15 82 16 83 19 84
REMARK SMILES IDX 20 85 21 86 22 87 23 88 28 89 24 90 27 91 25 92 26 93
REMARK H PARENT 85 24 53 35
REMARK Flexibility Score: inf
ROOT
ATOM      1  O   UNL A   1      32.305  30.076  27.033  1.00  0.00    -0.374 OA
ENDROOT
BRANCH   1   2
ATOM      2  C   UNL A   1      31.804  31.160  26.261  1.00  0.00     0.202 C 
BRANCH   2   3
ATOM      3  C   UNL A   1      31.498  32.355  27.165  1.00  0.00     0.261 C 
BRANCH   3   4
ATOM      4  O   UNL A   1      32.441  33.409  26.919  1.00  0.00    -0.460 OA
BRANCH   4   5
ATOM      5  C   UNL A   1      33.166  34.031  27.888  1.00  0.00     0.338 C 
ATOM      6  O   UNL A   1      32.789  35.115  28.327  1.00  0.00    -0.246 OA
BRANCH   5   7
ATOM      7  C   UNL A   1      34.287  33.328  28.580  1.00  0.00     0.060 A 
ATOM      8  C   UNL A   1      34.143  32.183  29.366  1.00  0.00     0.016 A 
ATOM      9  C   UNL A   1      35.581  33.801  28.327  1.00  0.00     0.016 A 
ATOM     10  C   UNL A   1      35.242  31.566  29.951  1.00  0.00     0.010 A 
ATOM     11  C   UNL A   1      36.697  33.148  28.865  1.00  0.00     0.010 A 
ATOM     12  C   UNL A   1      36.530  32.033  29.699  1.00  0.00    -0.014 A 
BRANCH  12  13
ATOM     13  C   UNL A   1      37.677  31.361  30.351  1.00  0.00     0.031 A 
ATOM     14  C   UNL A   1      37.985  31.667  31.787  1.00  0.00     0.074 A 
ATOM     15  C   UNL A   1      38.387  30.437  29.673  1.00  0.00     0.049 A 
ATOM     16  N   UNL A   1      38.981  31.251  32.520  1.00  0.00    -0.248 NA
ATOM     17  C   UNL A   1      37.046  32.557  32.494  1.00  0.00     0.031 C 
ATOM     18  C   UNL A   1      38.126  30.022  28.292  1.00  0.00     0.029 A 
ATOM     19  N   UNL A   1      39.459  29.668  30.050  1.00  0.00    -0.354 N 
ATOM     20  C   UNL A   1      38.826  31.873  33.751  1.00  0.00     0.074 A 
ATOM     21  C   UNL A   1      37.632  32.683  33.677  1.00  0.00     0.031 C 
ATOM     22  C   UNL A   1      38.989  29.053  27.951  1.00  0.00     0.029 A 
ATOM     23  C   UNL A   1      39.918  28.835  29.054  1.00  0.00     0.049 A 
ATOM     24  H   UNL A   1      39.862  29.708  30.947  1.00  0.00     0.167 HD
ATOM     25  C   UNL A   1      39.613  31.773  34.844  1.00  0.00     0.034 A 
ATOM     26  C   UNL A   1      40.987  28.015  29.024  1.00  0.00     0.034 A 
ATOM     27  C   UNL A   1      40.773  30.929  34.912  1.00  0.00     0.049 A 
ATOM     28  C   UNL A   1      41.862  27.944  30.247  1.00  0.00     0.074 A 
ATOM     29  C   UNL A   1      41.654  30.764  35.963  1.00  0.00     0.029 A 
ATOM     30  N   UNL A   1      41.207  30.102  33.886  1.00  0.00    -0.354 N 
ATOM     31  N   UNL A   1      41.697  28.529  31.410  1.00  0.00    -0.248 NA
ATOM     32  C   UNL A   1      43.068  27.110  30.160  1.00  0.00     0.031 C 
ATOM     33  C   UNL A   1      42.637  29.854  35.564  1.00  0.00     0.029 A 
ATOM     34  C   UNL A   1      42.351  29.432  34.274  1.00  0.00     0.049 A 
ATOM     35  H   UNL A   1      40.765  30.008  33.011  1.00  0.00     0.167 HD
ATOM     36  C   UNL A   1      42.770  28.130  32.195  1.00  0.00     0.074 A 
ATOM     37  C   UNL A   1      43.564  27.226  31.387  1.00  0.00     0.031 C 
ATOM     38  C   UNL A   1      43.088  28.499  33.460  1.00  0.00     0.034 A 
BRANCH  25  39
ATOM     39  C   UNL A   1      39.256  32.600  36.047  1.00  0.00     0.023 A 
ATOM     40  C   UNL A   1      39.709  33.929  36.147  1.00  0.00     0.012 A 
ATOM     41  C   UNL A   1      38.424  32.071  37.054  1.00  0.00     0.148 A 
ATOM     42  C   UNL A   1      39.354  34.716  37.244  1.00  0.00     0.002 A 
ATOM     43  C   UNL A   1      38.044  32.872  38.123  1.00  0.00     0.091 A 
ATOM     44  F   UNL A   1      38.024  30.796  36.946  1.00  0.00    -0.205 F 
ATOM     45  C   UNL A   1      38.516  34.192  38.225  1.00  0.00     0.022 A 
BRANCH  43  46
ATOM     46  S   UNL A   1      36.922  32.312  39.409  1.00  0.00     0.127 S 
ATOM     47  O   UNL A   1      37.221  33.252  40.491  1.00  0.00    -0.237 OA
ATOM     48  O   UNL A   1      35.617  32.503  38.779  1.00  0.00    -0.237 OA
ATOM     49  O   UNL A   1      37.277  30.926  39.682  1.00  0.00    -0.744 OA
ENDBRANCH  43  46
ENDBRANCH  25  39
BRANCH  26  50
ATOM     50  C   UNL A   1      41.280  27.207  27.803  1.00  0.00     0.023 A 
ATOM     51  C   UNL A   1      41.859  27.825  26.678  1.00  0.00     0.012 A 
ATOM     52  C   UNL A   1      41.039  25.818  27.766  1.00  0.00     0.148 A 
ATOM     53  C   UNL A   1      42.181  27.082  25.540  1.00  0.00     0.002 A 
ATOM     54  C   UNL A   1      41.423  25.071  26.657  1.00  0.00     0.091 A 
ATOM     55  F   UNL A   1      40.455  25.245  28.827  1.00  0.00    -0.205 F 
ATOM     56  C   UNL A   1      41.980  25.703  25.535  1.00  0.00     0.022 A 
BRANCH  54  57
ATOM     57  S   UNL A   1      41.342  23.276  26.638  1.00  0.00     0.127 S 
ATOM     58  O   UNL A   1      41.928  22.935  27.932  1.00  0.00    -0.237 OA
ATOM     59  O   UNL A   1      39.903  23.035  26.530  1.00  0.00    -0.237 OA
ATOM     60  O   UNL A   1      42.104  22.866  25.465  1.00  0.00    -0.744 OA
ENDBRANCH  54  57
ENDBRANCH  26  50
BRANCH  38  61
ATOM     61  C   UNL A   1      44.341  27.930  34.065  1.00  0.00     0.023 A 
ATOM     62  C   UNL A   1      45.522  28.696  34.054  1.00  0.00     0.012 A 
ATOM     63  C   UNL A   1      44.302  26.717  34.782  1.00  0.00     0.148 A 
ATOM     64  C   UNL A   1      46.652  28.261  34.743  1.00  0.00     0.002 A 
ATOM     65  C   UNL A   1      45.415  26.315  35.507  1.00  0.00     0.091 A 
ATOM     66  F   UNL A   1      43.168  26.001  34.763  1.00  0.00    -0.205 F 
ATOM     67  C   UNL A   1      46.592  27.081  35.483  1.00  0.00     0.022 A 
BRANCH  65  68
ATOM     68  S   UNL A   1      45.396  24.875  36.580  1.00  0.00     0.127 S 
ATOM     69  O   UNL A   1      44.340  25.224  37.529  1.00  0.00    -0.237 OA
ATOM     70  O   UNL A   1      45.049  23.801  35.649  1.00  0.00    -0.237 OA
ATOM     71  O   UNL A   1      46.733  24.776  37.147  1.00  0.00    -0.744 OA
ENDBRANCH  65  68
ENDBRANCH  38  61
ENDBRANCH  12  13
ENDBRANCH   5   7
ENDBRANCH   4   5
ENDBRANCH   3   4
ENDBRANCH   2   3
ENDBRANCH   1   2
BRANCH   1  72
ATOM     72  C   UNL A   1      33.645  29.676  26.783  1.00  0.00     0.202 C 
BRANCH  72  73
ATOM     73  C   UNL A   1      33.714  28.184  26.459  1.00  0.00     0.261 C 
BRANCH  73  74
ATOM     74  O   UNL A   1      32.814  27.884  25.380  1.00  0.00    -0.460 OA
BRANCH  74  75
ATOM     75  C   UNL A   1      33.378  27.664  24.164  1.00  0.00     0.342 C 
ATOM     76  O   UNL A   1      34.026  28.450  23.496  1.00  0.00    -0.246 OA
BRANCH  75  77
ATOM     77  C   UNL A   1      33.231  26.221  23.865  1.00  0.00     0.103 A 
ATOM     78  C   UNL A   1      34.265  25.333  24.196  1.00  0.00     0.035 A 
ATOM     79  C   UNL A   1      32.124  25.750  23.145  1.00  0.00     0.145 A 
ATOM     80  C   UNL A   1      34.209  24.011  23.762  1.00  0.00     0.019 A 
ATOM     81  C   UNL A   1      32.074  24.423  22.708  1.00  0.00     0.049 A 
ATOM     82  Br  UNL A   1      35.651  22.847  24.136  1.00  0.00    -0.051 Br
ATOM     83  C   UNL A   1      33.123  23.553  23.016  1.00  0.00     0.019 A 
BRANCH  79  84
ATOM     84  O   UNL A   1      31.148  26.632  22.649  1.00  0.00    -0.422 OA
BRANCH  84  85
ATOM     85  C   UNL A   1      30.101  26.922  23.509  1.00  0.00     0.343 C 
ATOM     86  O   UNL A   1      29.716  26.230  24.438  1.00  0.00    -0.246 OA
BRANCH  85  87
ATOM     87  C   UNL A   1      29.401  28.152  23.029  1.00  0.00     0.060 A 
ATOM     88  C   UNL A   1      30.163  29.162  22.423  1.00  0.00     0.019 A 
ATOM     89  C   UNL A   1      28.022  28.348  23.198  1.00  0.00     0.019 A 
ATOM     90  C   UNL A   1      29.558  30.356  22.015  1.00  0.00     0.040 A 
ATOM     91  C   UNL A   1      27.421  29.546  22.796  1.00  0.00     0.040 A 
ATOM     92  C   UNL A   1      28.195  30.540  22.212  1.00  0.00     0.123 A 
ATOM     93  F   UNL A   1      27.621  31.692  21.845  1.00  0.00    -0.207 F 
ENDBRANCH  85  87
ENDBRANCH  84  85
ENDBRANCH  79  84
ENDBRANCH  75  77
ENDBRANCH  74  75
ENDBRANCH  73  74
ENDBRANCH  72  73
ENDBRANCH   1  72
TORSDOF 20
ENDMDL
MODEL 2
REMARK VINA RESULT:     -11.0      2.732      8.706
REMARK SMILES O=C(OCCOCCOC(=O)c1cc(Br)ccc1OC(=O)c1ccc(F)cc1)c1ccc(-c2c3nc(c(-c4cccc(S(=O)(=O)[O-])c4F)c4ccc([nH]4)c(-c4cccc(S(=O)(=O)[O-])c4F)c4nc(c(-c5cccc(S(=O)(=O)[O-])c5F)c5ccc2[nH]5)C=C4)C=C3)cc1
REMARK SMILES IDX 6 1 5 2 4 3 3 4 2 5 1 6 29 7 30 8 91 9 31 10 90 11 32 12
REMARK SMILES IDX 33 13 34 14 84 15 35 16 89 17 83 18 85 19 36 20 88 21 82 22
REMARK SMILES IDX 81 23 37 25 69 26 49 27 68 28 50 29 53 30 67 31 86 32 51 33
REMARK SMILES IDX 52 34 66 36 87 37 54 38 38 39 39 40 47 41 40 42 42 43 48 44
REMARK SMILES IDX 41 45 43 46 44 47 45 48 46 49 70 50 71 51 79 52 72 53 74 54
REMARK SMILES IDX 80 55 73 56 75 57 76 58 77 59 78 60 55 61 56 62 64 63 57 64
REMARK SMILES IDX 59 65 65 66 58 67 60 68 61 69 62 70 63 71 7 72 8 73 9 74
REMARK SMILES IDX 10 75 11 76 12 77 13 78 18 79 14 80 17 81 15 82 16 83 19 84
REMARK SMILES IDX 20 85 21 86 22 87 23 88 28 89 24 90 27 91 25 92 26 93
REMARK H PARENT 85 24 53 35
REMARK Flexibility Score: inf
ROOT
ATOM      1  O   UNL A   1      32.935  27.738  24.532  1.00  0.00    -0.374 OA
ENDROOT
BRANCH   1   2
ATOM      2  C   UNL A   1      33.490  28.696  25.424  1.00  0.00     0.202 C 
BRANCH   2   3
ATOM      3  C   UNL A   1      32.594  29.933  25.494  1.00  0.00     0.261 C 
BRANCH   3   4
ATOM      4  O   UNL A   1      32.666  30.516  26.804  1.00  0.00    -0.460 OA
BRANCH   4   5
ATOM      5  C   UNL A   1      33.609  31.416  27.194  1.00  0.00     0.338 C 
ATOM      6  O   UNL A   1      33.375  32.618  27.105  1.00  0.00    -0.246 OA
BRANCH   5   7
ATOM      7  C   UNL A   1      34.834  30.976  27.926  1.00  0.00     0.060 A 
ATOM      8  C   UNL A   1      35.016  29.708  28.482  1.00  0.00     0.016 A 
ATOM      9  C   UNL A   1      35.908  31.875  27.957  1.00  0.00     0.016 A 
ATOM     10  C   UNL A   1      36.201  29.363  29.120  1.00  0.00     0.010 A 
ATOM     11  C   UNL A   1      37.125  31.511  28.547  1.00  0.00     0.010 A 
ATOM     12  C   UNL A   1      37.272  30.254  29.150  1.00  0.00    -0.014 A 
BRANCH  12  13
ATOM     13  C   UNL A   1      38.514  29.860  29.852  1.00  0.00     0.031 A 
ATOM     14  C   UNL A   1      39.473  28.927  29.174  1.00  0.00     0.074 A 
ATOM     15  C   UNL A   1      38.802  30.392  31.056  1.00  0.00     0.049 A 
ATOM     16  N   UNL A   1      40.572  28.398  29.639  1.00  0.00    -0.248 NA
ATOM     17  C   UNL A   1      39.156  28.538  27.788  1.00  0.00     0.031 C 
ATOM     18  C   UNL A   1      37.964  31.360  31.770  1.00  0.00     0.029 A 
ATOM     19  N   UNL A   1      39.879  30.215  31.888  1.00  0.00    -0.354 N 
ATOM     20  C   UNL A   1      41.045  27.570  28.631  1.00  0.00     0.074 A 
ATOM     21  C   UNL A   1      40.126  27.674  27.521  1.00  0.00     0.031 C 
ATOM     22  C   UNL A   1      38.573  31.714  32.913  1.00  0.00     0.029 A 
ATOM     23  C   UNL A   1      39.801  30.940  33.055  1.00  0.00     0.049 A 
ATOM     24  H   UNL A   1      40.636  29.624  31.670  1.00  0.00     0.167 HD
ATOM     25  C   UNL A   1      42.150  26.792  28.637  1.00  0.00     0.034 A 
ATOM     26  C   UNL A   1      40.610  30.952  34.133  1.00  0.00     0.034 A 
ATOM     27  C   UNL A   1      43.074  26.734  29.734  1.00  0.00     0.049 A 
ATOM     28  C   UNL A   1      41.820  30.056  34.122  1.00  0.00     0.074 A 
ATOM     29  C   UNL A   1      44.217  25.967  29.855  1.00  0.00     0.029 A 
ATOM     30  N   UNL A   1      42.962  27.481  30.898  1.00  0.00    -0.354 N 
ATOM     31  N   UNL A   1      42.262  29.285  33.157  1.00  0.00    -0.248 NA
ATOM     32  C   UNL A   1      42.640  30.022  35.341  1.00  0.00     0.031 C 
ATOM     33  C   UNL A   1      44.784  26.232  31.104  1.00  0.00     0.029 A 
ATOM     34  C   UNL A   1      44.010  27.185  31.750  1.00  0.00     0.049 A 
ATOM     35  H   UNL A   1      42.243  28.125  31.089  1.00  0.00     0.167 HD
ATOM     36  C   UNL A   1      43.413  28.681  33.645  1.00  0.00     0.074 A 
ATOM     37  C   UNL A   1      43.620  29.201  34.983  1.00  0.00     0.031 C 
ATOM     38  C   UNL A   1      44.212  27.759  33.055  1.00  0.00     0.034 A 
BRANCH  25  39
ATOM     39  C   UNL A   1      42.415  25.937  27.430  1.00  0.00     0.023 A 
ATOM     40  C   UNL A   1      43.028  26.495  26.292  1.00  0.00     0.012 A 
ATOM     41  C   UNL A   1      42.101  24.562  27.447  1.00  0.00     0.148 A 
ATOM     42  C   UNL A   1      43.310  25.701  25.179  1.00  0.00     0.002 A 
ATOM     43  C   UNL A   1      42.418  23.771  26.351  1.00  0.00     0.091 A 
ATOM     44  F   UNL A   1      41.498  24.060  28.533  1.00  0.00    -0.205 F 
ATOM     45  C   UNL A   1      43.014  24.341  25.212  1.00  0.00     0.022 A 
BRANCH  43  46
ATOM     46  S   UNL A   1      42.133  21.998  26.314  1.00  0.00     0.127 S 
ATOM     47  O   UNL A   1      43.074  21.569  25.279  1.00  0.00    -0.237 OA
ATOM     48  O   UNL A   1      42.499  21.603  27.673  1.00  0.00    -0.237 OA
ATOM     49  O   UNL A   1      40.727  21.820  25.979  1.00  0.00    -0.744 OA
ENDBRANCH  43  46
ENDBRANCH  25  39
BRANCH  26  50
ATOM     50  C   UNL A   1      40.300  31.837  35.295  1.00  0.00     0.023 A 
ATOM     51  C   UNL A   1      40.950  33.079  35.421  1.00  0.00     0.012 A 
ATOM     52  C   UNL A   1      39.325  31.480  36.250  1.00  0.00     0.148 A 
ATOM     53  C   UNL A   1      40.645  33.942  36.477  1.00  0.00     0.002 A 
ATOM     54  C   UNL A   1      38.977  32.370  37.260  1.00  0.00     0.091 A 
ATOM     55  F   UNL A   1      38.738  30.280  36.142  1.00  0.00    -0.205 F 
ATOM     56  C   UNL A   1      39.648  33.596  37.386  1.00  0.00     0.022 A 
BRANCH  54  57
ATOM     57  S   UNL A   1      37.597  32.065  38.371  1.00  0.00     0.127 S 
ATOM     58  O   UNL A   1      37.297  30.662  38.099  1.00  0.00    -0.237 OA
ATOM     59  O   UNL A   1      38.195  32.326  39.680  1.00  0.00    -0.237 OA
ATOM     60  O   UNL A   1      36.570  33.024  37.984  1.00  0.00    -0.744 OA
ENDBRANCH  54  57
ENDBRANCH  26  50
BRANCH  38  61
ATOM     61  C   UNL A   1      45.390  27.246  33.835  1.00  0.00     0.023 A 
ATOM     62  C   UNL A   1      46.599  27.968  33.813  1.00  0.00     0.012 A 
ATOM     63  C   UNL A   1      45.247  26.151  34.709  1.00  0.00     0.148 A 
ATOM     64  C   UNL A   1      47.654  27.603  34.646  1.00  0.00     0.002 A 
ATOM     65  C   UNL A   1      46.284  25.824  35.573  1.00  0.00     0.091 A 
ATOM     66  F   UNL A   1      44.090  25.473  34.699  1.00  0.00    -0.205 F 
ATOM     67  C   UNL A   1      47.490  26.544  35.537  1.00  0.00     0.022 A 
BRANCH  65  68
ATOM     68  S   UNL A   1      46.124  24.554  36.832  1.00  0.00     0.127 S 
ATOM     69  O   UNL A   1      47.521  24.294  37.171  1.00  0.00    -0.237 OA
ATOM     70  O   UNL A   1      45.361  25.244  37.872  1.00  0.00    -0.237 OA
ATOM     71  O   UNL A   1      45.421  23.446  36.201  1.00  0.00    -0.744 OA
ENDBRANCH  65  68
ENDBRANCH  38  61
ENDBRANCH  12  13
ENDBRANCH   5   7
ENDBRANCH   4   5
ENDBRANCH   3   4
ENDBRANCH   2   3
ENDBRANCH   1   2
BRANCH   1  72
ATOM     72  C   UNL A   1      33.660  27.477  23.339  1.00  0.00     0.202 C 
BRANCH  72  73
ATOM     73  C   UNL A   1      33.183  26.180  22.687  1.00  0.00     0.261 C 
BRANCH  73  74
ATOM     74  O   UNL A   1      33.369  25.086  23.601  1.00  0.00    -0.460 OA
BRANCH  74  75
ATOM     75  C   UNL A   1      33.788  23.912  23.061  1.00  0.00     0.342 C 
ATOM     76  O   UNL A   1      33.684  23.551  21.903  1.00  0.00    -0.246 OA
BRANCH  75  77
ATOM     77  C   UNL A   1      34.576  23.208  24.099  1.00  0.00     0.103 A 
ATOM     78  C   UNL A   1      35.686  23.843  24.677  1.00  0.00     0.035 A 
ATOM     79  C   UNL A   1      34.302  21.872  24.421  1.00  0.00     0.145 A 
ATOM     80  C   UNL A   1      36.532  23.126  25.520  1.00  0.00     0.019 A 
ATOM     81  C   UNL A   1      35.157  21.156  25.264  1.00  0.00     0.049 A 
ATOM     82  Br  UNL A   1      38.074  23.964  26.223  1.00  0.00    -0.051 Br
ATOM     83  C   UNL A   1      36.276  21.786  25.812  1.00  0.00     0.019 A 
BRANCH  79  84
ATOM     84  O   UNL A   1      33.306  21.148  23.742  1.00  0.00    -0.422 OA
BRANCH  84  85
ATOM     85  C   UNL A   1      32.371  20.511  24.542  1.00  0.00     0.343 C 
ATOM     86  O   UNL A   1      31.538  21.051  25.251  1.00  0.00    -0.246 OA
BRANCH  85  87
ATOM     87  C   UNL A   1      32.638  19.041  24.528  1.00  0.00     0.060 A 
ATOM     88  C   UNL A   1      32.555  18.334  25.737  1.00  0.00     0.019 A 
ATOM     89  C   UNL A   1      33.004  18.352  23.361  1.00  0.00     0.019 A 
ATOM     90  C   UNL A   1      32.857  16.969  25.782  1.00  0.00     0.040 A 
ATOM     91  C   UNL A   1      33.312  16.988  23.409  1.00  0.00     0.040 A 
ATOM     92  C   UNL A   1      33.239  16.310  24.619  1.00  0.00     0.123 A 
ATOM     93  F   UNL A   1      33.553  15.009  24.666  1.00  0.00    -0.207 F 
ENDBRANCH  85  87
ENDBRANCH  84  85
ENDBRANCH  79  84
ENDBRANCH  75  77
ENDBRANCH  74  75
ENDBRANCH  73  74
ENDBRANCH  72  73
ENDBRANCH   1  72
TORSDOF 20
ENDMDL
MODEL 3
REMARK VINA RESULT:     -11.0      5.955     11.539
REMARK SMILES O=C(OCCOCCOC(=O)c1cc(Br)ccc1OC(=O)c1ccc(F)cc1)c1ccc(-c2c3nc(c(-c4cccc(S(=O)(=O)[O-])c4F)c4ccc([nH]4)c(-c4cccc(S(=O)(=O)[O-])c4F)c4nc(c(-c5cccc(S(=O)(=O)[O-])c5F)c5ccc2[nH]5)C=C4)C=C3)cc1
REMARK SMILES IDX 6 1 5 2 4 3 3 4 2 5 1 6 29 7 30 8 91 9 31 10 90 11 32 12
REMARK SMILES IDX 33 13 34 14 84 15 35 16 89 17 83 18 85 19 36 20 88 21 82 22
REMARK SMILES IDX 81 23 37 25 69 26 49 27 68 28 50 29 53 30 67 31 86 32 51 33
REMARK SMILES IDX 52 34 66 36 87 37 54 38 38 39 39 40 47 41 40 42 42 43 48 44
REMARK SMILES IDX 41 45 43 46 44 47 45 48 46 49 70 50 71 51 79 52 72 53 74 54
REMARK SMILES IDX 80 55 73 56 75 57 76 58 77 59 78 60 55 61 56 62 64 63 57 64
REMARK SMILES IDX 59 65 65 66 58 67 60 68 61 69 62 70 63 71 7 72 8 73 9 74
REMARK SMILES IDX 10 75 11 76 12 77 13 78 18 79 14 80 17 81 15 82 16 83 19 84
REMARK SMILES IDX 20 85 21 86 22 87 23 88 28 89 24 90 27 91 25 92 26 93
REMARK H PARENT 85 24 53 35
REMARK Flexibility Score: inf
ROOT
ATOM      1  O   UNL A   1      37.323  20.663  24.929  1.00  0.00    -0.374 OA
ENDROOT
BRANCH   1   2
ATOM      2  C   UNL A   1      38.247  19.582  24.971  1.00  0.00     0.202 C 
BRANCH   2   3
ATOM      3  C   UNL A   1      39.292  19.823  26.061  1.00  0.00     0.261 C 
BRANCH   3   4
ATOM      4  O   UNL A   1      40.496  19.104  25.752  1.00  0.00    -0.460 OA
BRANCH   4   5
ATOM      5  C   UNL A   1      41.742  19.495  26.133  1.00  0.00     0.338 C 
ATOM      6  O   UNL A   1      42.680  18.707  26.042  1.00  0.00    -0.246 OA
BRANCH   5   7
ATOM      7  C   UNL A   1      42.034  20.923  26.457  1.00  0.00     0.060 A 
ATOM      8  C   UNL A   1      42.267  21.415  27.744  1.00  0.00     0.016 A 
ATOM      9  C   UNL A   1      42.186  21.799  25.375  1.00  0.00     0.016 A 
ATOM     10  C   UNL A   1      42.566  22.755  27.961  1.00  0.00     0.010 A 
ATOM     11  C   UNL A   1      42.546  23.136  25.584  1.00  0.00     0.010 A 
ATOM     12  C   UNL A   1      42.721  23.626  26.885  1.00  0.00    -0.014 A 
BRANCH  12  13
ATOM     13  C   UNL A   1      43.024  25.050  27.154  1.00  0.00     0.031 A 
ATOM     14  C   UNL A   1      44.320  25.627  26.667  1.00  0.00     0.074 A 
ATOM     15  C   UNL A   1      42.110  25.826  27.770  1.00  0.00     0.049 A 
ATOM     16  N   UNL A   1      44.813  26.819  26.860  1.00  0.00    -0.248 NA
ATOM     17  C   UNL A   1      45.175  24.747  25.850  1.00  0.00     0.031 C 
ATOM     18  C   UNL A   1      40.793  25.374  28.225  1.00  0.00     0.029 A 
ATOM     19  N   UNL A   1      42.136  27.156  28.107  1.00  0.00    -0.354 N 
ATOM     20  C   UNL A   1      46.057  26.816  26.245  1.00  0.00     0.074 A 
ATOM     21  C   UNL A   1      46.243  25.509  25.657  1.00  0.00     0.031 C 
ATOM     22  C   UNL A   1      40.126  26.414  28.750  1.00  0.00     0.029 A 
ATOM     23  C   UNL A   1      40.995  27.585  28.747  1.00  0.00     0.049 A 
ATOM     24  H   UNL A   1      42.899  27.747  27.912  1.00  0.00     0.167 HD
ATOM     25  C   UNL A   1      46.962  27.817  26.181  1.00  0.00     0.034 A 
ATOM     26  C   UNL A   1      40.697  28.779  29.298  1.00  0.00     0.034 A 
ATOM     27  C   UNL A   1      46.741  29.123  26.736  1.00  0.00     0.049 A 
ATOM     28  C   UNL A   1      41.735  29.868  29.235  1.00  0.00     0.074 A 
ATOM     29  C   UNL A   1      47.597  30.207  26.745  1.00  0.00     0.029 A 
ATOM     30  N   UNL A   1      45.576  29.520  27.376  1.00  0.00    -0.354 N 
ATOM     31  N   UNL A   1      42.905  29.854  28.639  1.00  0.00    -0.248 NA
ATOM     32  C   UNL A   1      41.423  31.131  29.916  1.00  0.00     0.031 C 
ATOM     33  C   UNL A   1      46.957  31.256  27.412  1.00  0.00     0.029 A 
ATOM     34  C   UNL A   1      45.693  30.832  27.795  1.00  0.00     0.049 A 
ATOM     35  H   UNL A   1      44.784  28.951  27.512  1.00  0.00     0.167 HD
ATOM     36  C   UNL A   1      43.465  31.104  28.867  1.00  0.00     0.074 A 
ATOM     37  C   UNL A   1      42.492  31.864  29.627  1.00  0.00     0.031 C 
ATOM     38  C   UNL A   1      44.683  31.574  28.506  1.00  0.00     0.034 A 
BRANCH  25  39
ATOM     39  C   UNL A   1      48.272  27.539  25.498  1.00  0.00     0.023 A 
ATOM     40  C   UNL A   1      49.383  27.117  26.252  1.00  0.00     0.012 A 
ATOM     41  C   UNL A   1      48.382  27.647  24.097  1.00  0.00     0.148 A 
ATOM     42  C   UNL A   1      50.594  26.824  25.624  1.00  0.00     0.002 A 
ATOM     43  C   UNL A   1      49.579  27.317  23.475  1.00  0.00     0.091 A 
ATOM     44  F   UNL A   1      47.316  28.071  23.405  1.00  0.00    -0.205 F 
ATOM     45  C   UNL A   1      50.689  26.915  24.237  1.00  0.00     0.022 A 
BRANCH  43  46
ATOM     46  S   UNL A   1      49.788  27.344  21.691  1.00  0.00     0.127 S 
ATOM     47  O   UNL A   1      49.779  28.782  21.415  1.00  0.00    -0.237 OA
ATOM     48  O   UNL A   1      51.091  26.701  21.528  1.00  0.00    -0.237 OA
ATOM     49  O   UNL A   1      48.662  26.604  21.139  1.00  0.00    -0.744 OA
ENDBRANCH  43  46
ENDBRANCH  25  39
BRANCH  26  50
ATOM     50  C   UNL A   1      39.372  28.996  29.949  1.00  0.00     0.023 A 
ATOM     51  C   UNL A   1      39.136  28.491  31.242  1.00  0.00     0.012 A 
ATOM     52  C   UNL A   1      38.358  29.749  29.319  1.00  0.00     0.148 A 
ATOM     53  C   UNL A   1      37.918  28.719  31.888  1.00  0.00     0.002 A 
ATOM     54  C   UNL A   1      37.175  30.030  29.993  1.00  0.00     0.091 A 
ATOM     55  F   UNL A   1      38.578  30.196  28.074  1.00  0.00    -0.205 F 
ATOM     56  C   UNL A   1      36.945  29.501  31.272  1.00  0.00     0.022 A 
BRANCH  54  57
ATOM     57  S   UNL A   1      35.942  31.158  29.331  1.00  0.00     0.127 S 
ATOM     58  O   UNL A   1      36.776  32.187  28.715  1.00  0.00    -0.237 OA
ATOM     59  O   UNL A   1      35.219  30.304  28.390  1.00  0.00    -0.237 OA
ATOM     60  O   UNL A   1      35.151  31.583  30.479  1.00  0.00    -0.744 OA
ENDBRANCH  54  57
ENDBRANCH  26  50
BRANCH  38  61
ATOM     61  C   UNL A   1      45.048  32.973  28.915  1.00  0.00     0.023 A 
ATOM     62  C   UNL A   1      45.788  33.176  30.096  1.00  0.00     0.012 A 
ATOM     63  C   UNL A   1      44.801  34.058  28.051  1.00  0.00     0.148 A 
ATOM     64  C   UNL A   1      46.272  34.442  30.416  1.00  0.00     0.002 A 
ATOM     65  C   UNL A   1      45.330  35.306  28.351  1.00  0.00     0.091 A 
ATOM     66  F   UNL A   1      44.081  33.839  26.941  1.00  0.00    -0.205 F 
ATOM     67  C   UNL A   1      46.059  35.502  29.536  1.00  0.00     0.022 A 
BRANCH  65  68
ATOM     68  S   UNL A   1      45.206  36.700  27.225  1.00  0.00     0.127 S 
ATOM     69  O   UNL A   1      45.755  37.786  28.035  1.00  0.00    -0.237 OA
ATOM     70  O   UNL A   1      46.057  36.276  26.114  1.00  0.00    -0.237 OA
ATOM     71  O   UNL A   1      43.794  36.826  26.892  1.00  0.00    -0.744 OA
ENDBRANCH  65  68
ENDBRANCH  38  61
ENDBRANCH  12  13
ENDBRANCH   5   7
ENDBRANCH   4   5
ENDBRANCH   3   4
ENDBRANCH   2   3
ENDBRANCH   1   2
BRANCH   1  72
ATOM     72  C   UNL A   1      37.689  21.847  25.623  1.00  0.00     0.202 C 
BRANCH  72  73
ATOM     73  C   UNL A   1      36.797  23.016  25.209  1.00  0.00     0.261 C 
BRANCH  73  74
ATOM     74  O   UNL A   1      35.458  22.545  24.985  1.00  0.00    -0.460 OA
BRANCH  74  75
ATOM     75  C   UNL A   1      34.564  22.767  25.983  1.00  0.00     0.342 C 
ATOM     76  O   UNL A   1      34.644  22.404  27.143  1.00  0.00    -0.246 OA
BRANCH  75  77
ATOM     77  C   UNL A   1      33.544  23.704  25.459  1.00  0.00     0.103 A 
ATOM     78  C   UNL A   1      33.304  24.914  26.127  1.00  0.00     0.035 A 
ATOM     79  C   UNL A   1      32.730  23.342  24.376  1.00  0.00     0.145 A 
ATOM     80  C   UNL A   1      32.231  25.716  25.744  1.00  0.00     0.019 A 
ATOM     81  C   UNL A   1      31.652  24.148  23.999  1.00  0.00     0.049 A 
ATOM     82  Br  UNL A   1      31.862  27.299  26.708  1.00  0.00    -0.051 Br
ATOM     83  C   UNL A   1      31.402  25.337  24.688  1.00  0.00     0.019 A 
BRANCH  79  84
ATOM     84  O   UNL A   1      32.826  22.070  23.786  1.00  0.00    -0.422 OA
BRANCH  84  85
ATOM     85  C   UNL A   1      32.219  21.035  24.479  1.00  0.00     0.343 C 
ATOM     86  O   UNL A   1      31.388  21.147  25.366  1.00  0.00    -0.246 OA
BRANCH  85  87
ATOM     87  C   UNL A   1      32.856  19.742  24.082  1.00  0.00     0.060 A 
ATOM     88  C   UNL A   1      32.214  18.948  23.120  1.00  0.00     0.019 A 
ATOM     89  C   UNL A   1      34.046  19.279  24.663  1.00  0.00     0.019 A 
ATOM     90  C   UNL A   1      32.742  17.702  22.765  1.00  0.00     0.040 A 
ATOM     91  C   UNL A   1      34.568  18.029  24.311  1.00  0.00     0.040 A 
ATOM     92  C   UNL A   1      33.909  17.251  23.368  1.00  0.00     0.123 A 
ATOM     93  F   UNL A   1      34.402  16.048  23.047  1.00  0.00    -0.207 F 
ENDBRANCH  85  87
ENDBRANCH  84  85
ENDBRANCH  79  84
ENDBRANCH  75  77
ENDBRANCH  74  75
ENDBRANCH  73  74
ENDBRANCH  72  73
ENDBRANCH   1  72
TORSDOF 20
ENDMDL
