MODEL 1
REMARK VINA RESULT:     -10.2      0.000      0.000
REMARK SMILES CCCc1nn2c(=O)cc(CSc3ccccc3C(=O)OCCOCCOC(=O)c3ccc(-c4c5nc(c(-c6cccc(S(=O)(=O)[O-])c6F)c6ccc([nH]6)c(-c6cccc(S(=O)(=O)[O-])c6F)c6nc(c(-c7cccc(S(=O)(=O)[O-])c7F)c7ccc4[nH]7)C=C6)C=C5)cc3)nc2s1
REMARK SMILES IDX 23 1 22 2 21 3 19 4 20 5 18 6 13 7 14 8 15 9 17 10 16 11
REMARK SMILES IDX 12 12 11 13 10 14 4 15 5 16 95 17 6 18 94 19 7 20 93 21 8 22
REMARK SMILES IDX 9 23 3 24 2 25 1 26 24 27 25 28 26 29 27 30 28 31 29 32
REMARK SMILES IDX 30 33 31 34 92 35 32 36 91 37 33 38 34 39 35 40 85 41 36 42
REMARK SMILES IDX 90 43 84 44 86 45 37 46 89 47 83 48 82 49 38 51 70 52 50 53
REMARK SMILES IDX 69 54 51 55 54 56 68 57 87 58 52 59 53 60 67 62 88 63 55 64
REMARK SMILES IDX 39 65 40 66 48 67 41 68 43 69 49 70 42 71 44 72 45 73 46 74
REMARK SMILES IDX 47 75 71 76 72 77 80 78 73 79 75 80 81 81 74 82 76 83 77 84
REMARK SMILES IDX 78 85 79 86 56 87 57 88 65 89 58 90 60 91 66 92 59 93 61 94
REMARK SMILES IDX 62 95 63 96 64 97
REMARK H PARENT 86 50 54 61
REMARK Flexibility Score: inf
ROOT
ATOM      1  C   UNL A   1      34.320  31.464  28.113  1.00  0.00     0.202 C 
ENDROOT
BRANCH   1   2
ATOM      2  C   UNL A   1      34.078  30.414  27.028  1.00  0.00     0.261 C 
BRANCH   2   3
ATOM      3  O   UNL A   1      32.695  30.456  26.646  1.00  0.00    -0.460 OA
BRANCH   3   4
ATOM      4  C   UNL A   1      31.991  29.314  26.745  1.00  0.00     0.339 C 
ATOM      5  O   UNL A   1      31.513  28.851  27.773  1.00  0.00    -0.246 OA
BRANCH   4   6
ATOM      6  C   UNL A   1      31.653  28.772  25.397  1.00  0.00     0.073 A 
ATOM      7  C   UNL A   1      32.036  27.517  24.879  1.00  0.00     0.022 A 
ATOM      8  C   UNL A   1      31.609  27.172  23.581  1.00  0.00     0.016 A 
ATOM      9  C   UNL A   1      30.838  28.046  22.810  1.00  0.00     0.001 A 
ATOM     10  C   UNL A   1      30.897  29.653  24.594  1.00  0.00     0.017 A 
ATOM     11  C   UNL A   1      30.496  29.294  23.310  1.00  0.00     0.001 A 
BRANCH   7  12
ATOM     12  S   UNL A   1      33.115  26.360  25.725  1.00  0.00    -0.119 SA
BRANCH  12  13
ATOM     13  C   UNL A   1      34.121  25.674  24.364  1.00  0.00     0.131 C 
BRANCH  13  14
ATOM     14  C   UNL A   1      34.456  24.212  24.561  1.00  0.00     0.060 A 
ATOM     15  C   UNL A   1      33.919  19.681  24.719  1.00  0.00     0.117 A 
ATOM     16  N   UNL A   1      35.036  20.227  25.082  1.00  0.00    -0.156 NA
ATOM     17  S   UNL A   1      32.649  20.753  24.180  1.00  0.00    -0.079 S 
ATOM     18  N   UNL A   1      34.934  21.587  24.937  1.00  0.00    -0.167 N 
ATOM     19  C   UNL A   1      33.737  22.068  24.480  1.00  0.00     0.215 A 
ATOM     20  C   UNL A   1      35.991  22.425  25.203  1.00  0.00     0.275 A 
ATOM     21  N   UNL A   1      33.455  23.308  24.272  1.00  0.00    -0.223 NA
ATOM     22  O   UNL A   1      37.126  22.102  25.544  1.00  0.00    -0.267 OA
ATOM     23  C   UNL A   1      35.673  23.855  25.009  1.00  0.00     0.098 A 
BRANCH  15  24
ATOM     24  C   UNL A   1      33.658  18.204  24.772  1.00  0.00     0.069 C 
BRANCH  24  25
ATOM     25  C   UNL A   1      33.182  17.628  23.437  1.00  0.00     0.004 C 
ATOM     26  C   UNL A   1      34.156  16.635  22.810  1.00  0.00     0.004 C 
ENDBRANCH  24  25
ENDBRANCH  15  24
ENDBRANCH  13  14
ENDBRANCH  12  13
ENDBRANCH   7  12
ENDBRANCH   4   6
ENDBRANCH   3   4
ENDBRANCH   2   3
ENDBRANCH   1   2
BRANCH   1  27
ATOM     27  O   UNL A   1      33.487  32.628  28.025  1.00  0.00    -0.374 OA
BRANCH  27  28
ATOM     28  C   UNL A   1      34.148  33.894  28.064  1.00  0.00     0.202 C 
BRANCH  28  29
ATOM     29  C   UNL A   1      33.398  35.025  28.779  1.00  0.00     0.261 C 
BRANCH  29  30
ATOM     30  O   UNL A   1      32.746  34.577  29.979  1.00  0.00    -0.460 OA
BRANCH  30  31
ATOM     31  C   UNL A   1      33.098  35.248  31.099  1.00  0.00     0.338 C 
ATOM     32  O   UNL A   1      32.507  36.192  31.610  1.00  0.00    -0.246 OA
BRANCH  31  33
ATOM     33  C   UNL A   1      34.241  34.587  31.755  1.00  0.00     0.060 A 
ATOM     34  C   UNL A   1      35.495  35.196  31.628  1.00  0.00     0.016 A 
ATOM     35  C   UNL A   1      34.113  33.366  32.423  1.00  0.00     0.016 A 
ATOM     36  C   UNL A   1      36.632  34.564  32.123  1.00  0.00     0.010 A 
ATOM     37  C   UNL A   1      35.258  32.730  32.916  1.00  0.00     0.010 A 
ATOM     38  C   UNL A   1      36.527  33.309  32.737  1.00  0.00    -0.014 A 
BRANCH  38  39
ATOM     39  C   UNL A   1      37.763  32.569  33.089  1.00  0.00     0.031 A 
ATOM     40  C   UNL A   1      38.526  32.946  34.331  1.00  0.00     0.074 A 
ATOM     41  C   UNL A   1      38.189  31.551  32.321  1.00  0.00     0.049 A 
ATOM     42  N   UNL A   1      39.596  32.396  34.842  1.00  0.00    -0.248 NA
ATOM     43  C   UNL A   1      38.016  34.095  35.096  1.00  0.00     0.031 C 
ATOM     44  C   UNL A   1      37.547  31.099  31.088  1.00  0.00     0.029 A 
ATOM     45  N   UNL A   1      39.274  30.721  32.459  1.00  0.00    -0.354 N 
ATOM     46  C   UNL A   1      39.901  33.139  35.976  1.00  0.00     0.074 A 
ATOM     47  C   UNL A   1      38.912  34.192  36.068  1.00  0.00     0.031 C 
ATOM     48  C   UNL A   1      38.261  30.084  30.570  1.00  0.00     0.029 A 
ATOM     49  C   UNL A   1      39.416  29.824  31.428  1.00  0.00     0.049 A 
ATOM     50  H   UNL A   1      39.891  30.764  33.225  1.00  0.00     0.167 HD
ATOM     51  C   UNL A   1      40.898  32.950  36.873  1.00  0.00     0.034 A 
ATOM     52  C   UNL A   1      40.373  28.903  31.197  1.00  0.00     0.034 A 
ATOM     53  C   UNL A   1      41.869  31.890  36.793  1.00  0.00     0.049 A 
ATOM     54  C   UNL A   1      41.475  28.717  32.208  1.00  0.00     0.074 A 
ATOM     55  C   UNL A   1      42.881  31.582  37.686  1.00  0.00     0.029 A 
ATOM     56  N   UNL A   1      41.958  30.974  35.756  1.00  0.00    -0.354 N 
ATOM     57  N   UNL A   1      41.664  29.333  33.350  1.00  0.00    -0.248 NA
ATOM     58  C   UNL A   1      42.476  27.680  31.916  1.00  0.00     0.031 C 
ATOM     59  C   UNL A   1      43.598  30.493  37.174  1.00  0.00     0.029 A 
ATOM     60  C   UNL A   1      43.018  30.110  35.977  1.00  0.00     0.049 A 
ATOM     61  H   UNL A   1      41.357  30.943  34.978  1.00  0.00     0.167 HD
ATOM     62  C   UNL A   1      42.784  28.742  33.924  1.00  0.00     0.074 A 
ATOM     63  C   UNL A   1      43.215  27.698  33.016  1.00  0.00     0.031 C 
ATOM     64  C   UNL A   1      43.411  29.045  35.088  1.00  0.00     0.034 A 
BRANCH  51  65
ATOM     65  C   UNL A   1      40.971  33.893  38.045  1.00  0.00     0.023 A 
ATOM     66  C   UNL A   1      41.807  35.025  37.973  1.00  0.00     0.012 A 
ATOM     67  C   UNL A   1      40.174  33.692  39.189  1.00  0.00     0.148 A 
ATOM     68  C   UNL A   1      41.872  35.929  39.034  1.00  0.00     0.002 A 
ATOM     69  C   UNL A   1      40.215  34.619  40.226  1.00  0.00     0.091 A 
ATOM     70  F   UNL A   1      39.404  32.598  39.249  1.00  0.00    -0.205 F 
ATOM     71  C   UNL A   1      41.070  35.730  40.154  1.00  0.00     0.022 A 
BRANCH  69  72
ATOM     72  S   UNL A   1      39.164  34.491  41.678  1.00  0.00     0.127 S 
ATOM     73  O   UNL A   1      37.842  34.749  41.108  1.00  0.00    -0.237 OA
ATOM     74  O   UNL A   1      39.386  33.107  42.099  1.00  0.00    -0.237 OA
ATOM     75  O   UNL A   1      39.650  35.495  42.613  1.00  0.00    -0.744 OA
ENDBRANCH  69  72
ENDBRANCH  51  65
BRANCH  52  76
ATOM     76  C   UNL A   1      40.302  28.050  29.978  1.00  0.00     0.023 A 
ATOM     77  C   UNL A   1      39.382  26.984  29.927  1.00  0.00     0.012 A 
ATOM     78  C   UNL A   1      41.123  28.304  28.862  1.00  0.00     0.148 A 
ATOM     79  C   UNL A   1      39.301  26.170  28.797  1.00  0.00     0.002 A 
ATOM     80  C   UNL A   1      40.999  27.523  27.718  1.00  0.00     0.091 A 
ATOM     81  F   UNL A   1      42.006  29.309  28.939  1.00  0.00    -0.205 F 
ATOM     82  C   UNL A   1      40.100  26.445  27.690  1.00  0.00     0.022 A 
BRANCH  80  83
ATOM     83  S   UNL A   1      41.895  27.886  26.205  1.00  0.00     0.127 S 
ATOM     84  O   UNL A   1      41.468  26.794  25.334  1.00  0.00    -0.237 OA
ATOM     85  O   UNL A   1      41.367  29.203  25.846  1.00  0.00    -0.237 OA
ATOM     86  O   UNL A   1      43.305  27.888  26.573  1.00  0.00    -0.744 OA
ENDBRANCH  80  83
ENDBRANCH  52  76
BRANCH  64  87
ATOM     87  C   UNL A   1      44.624  28.231  35.461  1.00  0.00     0.023 A 
ATOM     88  C   UNL A   1      45.910  28.706  35.134  1.00  0.00     0.012 A 
ATOM     89  C   UNL A   1      44.496  27.030  36.188  1.00  0.00     0.148 A 
ATOM     90  C   UNL A   1      47.047  27.981  35.490  1.00  0.00     0.002 A 
ATOM     91  C   UNL A   1      45.637  26.337  36.580  1.00  0.00     0.091 A 
ATOM     92  F   UNL A   1      43.265  26.582  36.475  1.00  0.00    -0.205 F 
ATOM     93  C   UNL A   1      46.911  26.803  36.221  1.00  0.00     0.022 A 
BRANCH  91  94
ATOM     94  S   UNL A   1      45.558  24.862  37.604  1.00  0.00     0.127 S 
ATOM     95  O   UNL A   1      46.970  24.503  37.718  1.00  0.00    -0.237 OA
ATOM     96  O   UNL A   1      44.955  25.368  38.837  1.00  0.00    -0.237 OA
ATOM     97  O   UNL A   1      44.725  23.915  36.873  1.00  0.00    -0.744 OA
ENDBRANCH  91  94
ENDBRANCH  64  87
ENDBRANCH  38  39
ENDBRANCH  31  33
ENDBRANCH  30  31
ENDBRANCH  29  30
ENDBRANCH  28  29
ENDBRANCH  27  28
ENDBRANCH   1  27
TORSDOF 22
ENDMDL
MODEL 2
REMARK VINA RESULT:     -10.2      3.158      4.387
REMARK SMILES CCCc1nn2c(=O)cc(CSc3ccccc3C(=O)OCCOCCOC(=O)c3ccc(-c4c5nc(c(-c6cccc(S(=O)(=O)[O-])c6F)c6ccc([nH]6)c(-c6cccc(S(=O)(=O)[O-])c6F)c6nc(c(-c7cccc(S(=O)(=O)[O-])c7F)c7ccc4[nH]7)C=C6)C=C5)cc3)nc2s1
REMARK SMILES IDX 23 1 22 2 21 3 19 4 20 5 18 6 13 7 14 8 15 9 17 10 16 11
REMARK SMILES IDX 12 12 11 13 10 14 4 15 5 16 95 17 6 18 94 19 7 20 93 21 8 22
REMARK SMILES IDX 9 23 3 24 2 25 1 26 24 27 25 28 26 29 27 30 28 31 29 32
REMARK SMILES IDX 30 33 31 34 92 35 32 36 91 37 33 38 34 39 35 40 85 41 36 42
REMARK SMILES IDX 90 43 84 44 86 45 37 46 89 47 83 48 82 49 38 51 70 52 50 53
REMARK SMILES IDX 69 54 51 55 54 56 68 57 87 58 52 59 53 60 67 62 88 63 55 64
REMARK SMILES IDX 39 65 40 66 48 67 41 68 43 69 49 70 42 71 44 72 45 73 46 74
REMARK SMILES IDX 47 75 71 76 72 77 80 78 73 79 75 80 81 81 74 82 76 83 77 84
REMARK SMILES IDX 78 85 79 86 56 87 57 88 65 89 58 90 60 91 66 92 59 93 61 94
REMARK SMILES IDX 62 95 63 96 64 97
REMARK H PARENT 86 50 54 61
REMARK Flexibility Score: inf
ROOT
ATOM      1  C   UNL A   1      32.979  30.015  27.055  1.00  0.00     0.202 C 
ENDROOT
BRANCH   1   2
ATOM      2  C   UNL A   1      32.601  29.045  25.934  1.00  0.00     0.261 C 
BRANCH   2   3
ATOM      3  O   UNL A   1      31.821  29.751  24.958  1.00  0.00    -0.460 OA
BRANCH   3   4
ATOM      4  C   UNL A   1      31.590  29.131  23.786  1.00  0.00     0.339 C 
ATOM      5  O   UNL A   1      32.433  28.599  23.076  1.00  0.00    -0.246 OA
BRANCH   4   6
ATOM      6  C   UNL A   1      30.127  28.960  23.548  1.00  0.00     0.073 A 
ATOM      7  C   UNL A   1      29.434  27.736  23.440  1.00  0.00     0.022 A 
ATOM      8  C   UNL A   1      28.042  27.774  23.225  1.00  0.00     0.016 A 
ATOM      9  C   UNL A   1      27.354  28.985  23.106  1.00  0.00     0.001 A 
ATOM     10  C   UNL A   1      29.422  30.173  23.398  1.00  0.00     0.017 A 
ATOM     11  C   UNL A   1      28.047  30.185  23.176  1.00  0.00     0.001 A 
BRANCH   7  12
ATOM     12  S   UNL A   1      30.219  26.123  23.462  1.00  0.00    -0.119 SA
BRANCH  12  13
ATOM     13  C   UNL A   1      30.284  25.728  25.243  1.00  0.00     0.131 C 
BRANCH  13  14
ATOM     14  C   UNL A   1      31.062  24.463  25.536  1.00  0.00     0.060 A 
ATOM     15  C   UNL A   1      33.183  20.483  24.831  1.00  0.00     0.117 A 
ATOM     16  N   UNL A   1      33.061  20.963  26.028  1.00  0.00    -0.156 NA
ATOM     17  S   UNL A   1      32.500  21.419  23.525  1.00  0.00    -0.079 S 
ATOM     18  N   UNL A   1      32.392  22.159  25.960  1.00  0.00    -0.167 N 
ATOM     19  C   UNL A   1      31.997  22.573  24.717  1.00  0.00     0.215 A 
ATOM     20  C   UNL A   1      32.160  22.923  27.080  1.00  0.00     0.275 A 
ATOM     21  N   UNL A   1      31.369  23.666  24.453  1.00  0.00    -0.223 NA
ATOM     22  O   UNL A   1      32.532  22.691  28.227  1.00  0.00    -0.267 OA
ATOM     23  C   UNL A   1      31.405  24.162  26.801  1.00  0.00     0.098 A 
BRANCH  15  24
ATOM     24  C   UNL A   1      33.839  19.168  24.526  1.00  0.00     0.069 C 
BRANCH  24  25
ATOM     25  C   UNL A   1      32.852  18.094  24.065  1.00  0.00     0.004 C 
ATOM     26  C   UNL A   1      33.358  17.248  22.902  1.00  0.00     0.004 C 
ENDBRANCH  24  25
ENDBRANCH  15  24
ENDBRANCH  13  14
ENDBRANCH  12  13
ENDBRANCH   7  12
ENDBRANCH   4   6
ENDBRANCH   3   4
ENDBRANCH   2   3
ENDBRANCH   1   2
BRANCH   1  27
ATOM     27  O   UNL A   1      32.451  31.341  26.912  1.00  0.00    -0.374 OA
BRANCH  27  28
ATOM     28  C   UNL A   1      33.111  32.376  27.642  1.00  0.00     0.202 C 
BRANCH  28  29
ATOM     29  C   UNL A   1      34.392  31.969  28.380  1.00  0.00     0.261 C 
BRANCH  29  30
ATOM     30  O   UNL A   1      34.753  32.905  29.409  1.00  0.00    -0.460 OA
BRANCH  30  31
ATOM     31  C   UNL A   1      35.075  32.345  30.597  1.00  0.00     0.338 C 
ATOM     32  O   UNL A   1      34.371  32.285  31.599  1.00  0.00    -0.246 OA
BRANCH  31  33
ATOM     33  C   UNL A   1      36.369  31.645  30.502  1.00  0.00     0.060 A 
ATOM     34  C   UNL A   1      36.500  30.439  31.200  1.00  0.00     0.016 A 
ATOM     35  C   UNL A   1      37.456  32.181  29.805  1.00  0.00     0.016 A 
ATOM     36  C   UNL A   1      37.730  29.789  31.246  1.00  0.00     0.010 A 
ATOM     37  C   UNL A   1      38.693  31.529  29.858  1.00  0.00     0.010 A 
ATOM     38  C   UNL A   1      38.844  30.349  30.607  1.00  0.00    -0.014 A 
BRANCH  38  39
ATOM     39  C   UNL A   1      40.182  29.744  30.822  1.00  0.00     0.031 A 
ATOM     40  C   UNL A   1      41.069  30.272  31.917  1.00  0.00     0.074 A 
ATOM     41  C   UNL A   1      40.592  28.713  30.062  1.00  0.00     0.049 A 
ATOM     42  N   UNL A   1      42.246  29.853  32.301  1.00  0.00    -0.248 NA
ATOM     43  C   UNL A   1      40.562  31.425  32.679  1.00  0.00     0.031 C 
ATOM     44  C   UNL A   1      39.832  28.121  28.962  1.00  0.00     0.029 A 
ATOM     45  N   UNL A   1      41.759  27.991  30.092  1.00  0.00    -0.354 N 
ATOM     46  C   UNL A   1      42.632  30.698  33.335  1.00  0.00     0.074 A 
ATOM     47  C   UNL A   1      41.570  31.667  33.505  1.00  0.00     0.031 C 
ATOM     48  C   UNL A   1      40.561  27.136  28.408  1.00  0.00     0.029 A 
ATOM     49  C   UNL A   1      41.843  27.037  29.106  1.00  0.00     0.049 A 
ATOM     50  H   UNL A   1      42.469  28.141  30.758  1.00  0.00     0.167 HD
ATOM     51  C   UNL A   1      43.756  30.660  34.089  1.00  0.00     0.034 A 
ATOM     52  C   UNL A   1      42.841  26.187  28.795  1.00  0.00     0.034 A 
ATOM     53  C   UNL A   1      44.802  29.683  33.934  1.00  0.00     0.049 A 
ATOM     54  C   UNL A   1      44.084  26.168  29.646  1.00  0.00     0.074 A 
ATOM     55  C   UNL A   1      45.952  29.527  34.689  1.00  0.00     0.029 A 
ATOM     56  N   UNL A   1      44.834  28.707  32.950  1.00  0.00    -0.354 N 
ATOM     57  N   UNL A   1      44.368  26.878  30.712  1.00  0.00    -0.248 NA
ATOM     58  C   UNL A   1      45.128  25.202  29.276  1.00  0.00     0.031 C 
ATOM     59  C   UNL A   1      46.691  28.469  34.145  1.00  0.00     0.029 A 
ATOM     60  C   UNL A   1      45.991  27.953  33.067  1.00  0.00     0.049 A 
ATOM     61  H   UNL A   1      44.137  28.569  32.269  1.00  0.00     0.167 HD
ATOM     62  C   UNL A   1      45.608  26.427  31.153  1.00  0.00     0.074 A 
ATOM     63  C   UNL A   1      46.007  25.362  30.256  1.00  0.00     0.031 C 
ATOM     64  C   UNL A   1      46.357  26.865  32.196  1.00  0.00     0.034 A 
BRANCH  51  65
ATOM     65  C   UNL A   1      43.900  31.687  35.181  1.00  0.00     0.023 A 
ATOM     66  C   UNL A   1      44.391  32.970  34.866  1.00  0.00     0.012 A 
ATOM     67  C   UNL A   1      43.499  31.404  36.501  1.00  0.00     0.148 A 
ATOM     68  C   UNL A   1      44.508  33.948  35.854  1.00  0.00     0.002 A 
ATOM     69  C   UNL A   1      43.581  32.397  37.472  1.00  0.00     0.091 A 
ATOM     70  F   UNL A   1      43.056  30.172  36.786  1.00  0.00    -0.205 F 
ATOM     71  C   UNL A   1      44.095  33.664  37.152  1.00  0.00     0.022 A 
BRANCH  69  72
ATOM     72  S   UNL A   1      43.004  32.152  39.156  1.00  0.00     0.127 S 
ATOM     73  O   UNL A   1      43.336  33.437  39.770  1.00  0.00    -0.237 OA
ATOM     74  O   UNL A   1      41.572  31.922  38.962  1.00  0.00    -0.237 OA
ATOM     75  O   UNL A   1      43.739  31.005  39.668  1.00  0.00    -0.744 OA
ENDBRANCH  69  72
ENDBRANCH  51  65
BRANCH  52  76
ATOM     76  C   UNL A   1      42.684  25.246  27.651  1.00  0.00     0.023 A 
ATOM     77  C   UNL A   1      43.103  25.638  26.365  1.00  0.00     0.012 A 
ATOM     78  C   UNL A   1      42.144  23.957  27.835  1.00  0.00     0.148 A 
ATOM     79  C   UNL A   1      42.962  24.775  25.278  1.00  0.00     0.002 A 
ATOM     80  C   UNL A   1      42.057  23.082  26.758  1.00  0.00     0.091 A 
ATOM     81  F   UNL A   1      41.732  23.611  29.063  1.00  0.00    -0.205 F 
ATOM     82  C   UNL A   1      42.450  23.495  25.476  1.00  0.00     0.022 A 
BRANCH  80  83
ATOM     83  S   UNL A   1      41.530  21.375  26.947  1.00  0.00     0.127 S 
ATOM     84  O   UNL A   1      40.112  21.533  27.263  1.00  0.00    -0.237 OA
ATOM     85  O   UNL A   1      41.809  20.822  25.622  1.00  0.00    -0.237 OA
ATOM     86  O   UNL A   1      42.359  20.824  28.011  1.00  0.00    -0.744 OA
ENDBRANCH  80  83
ENDBRANCH  52  76
BRANCH  64  87
ATOM     87  C   UNL A   1      47.681  26.186  32.439  1.00  0.00     0.023 A 
ATOM     88  C   UNL A   1      48.828  26.628  31.750  1.00  0.00     0.012 A 
ATOM     89  C   UNL A   1      47.803  25.155  33.391  1.00  0.00     0.148 A 
ATOM     90  C   UNL A   1      50.067  26.029  31.975  1.00  0.00     0.002 A 
ATOM     91  C   UNL A   1      49.051  24.595  33.646  1.00  0.00     0.091 A 
ATOM     92  F   UNL A   1      46.700  24.732  34.025  1.00  0.00    -0.205 F 
ATOM     93  C   UNL A   1      50.181  25.022  32.930  1.00  0.00     0.022 A 
BRANCH  91  94
ATOM     94  S   UNL A   1      49.305  23.358  34.924  1.00  0.00     0.127 S 
ATOM     95  O   UNL A   1      48.498  22.245  34.426  1.00  0.00    -0.237 OA
ATOM     96  O   UNL A   1      50.750  23.137  34.864  1.00  0.00    -0.237 OA
ATOM     97  O   UNL A   1      48.841  23.967  36.164  1.00  0.00    -0.744 OA
ENDBRANCH  91  94
ENDBRANCH  64  87
ENDBRANCH  38  39
ENDBRANCH  31  33
ENDBRANCH  30  31
ENDBRANCH  29  30
ENDBRANCH  28  29
ENDBRANCH  27  28
ENDBRANCH   1  27
TORSDOF 22
ENDMDL
MODEL 3
REMARK VINA RESULT:      -9.9      1.917      2.298
REMARK SMILES CCCc1nn2c(=O)cc(CSc3ccccc3C(=O)OCCOCCOC(=O)c3ccc(-c4c5nc(c(-c6cccc(S(=O)(=O)[O-])c6F)c6ccc([nH]6)c(-c6cccc(S(=O)(=O)[O-])c6F)c6nc(c(-c7cccc(S(=O)(=O)[O-])c7F)c7ccc4[nH]7)C=C6)C=C5)cc3)nc2s1
REMARK SMILES IDX 23 1 22 2 21 3 19 4 20 5 18 6 13 7 14 8 15 9 17 10 16 11
REMARK SMILES IDX 12 12 11 13 10 14 4 15 5 16 95 17 6 18 94 19 7 20 93 21 8 22
REMARK SMILES IDX 9 23 3 24 2 25 1 26 24 27 25 28 26 29 27 30 28 31 29 32
REMARK SMILES IDX 30 33 31 34 92 35 32 36 91 37 33 38 34 39 35 40 85 41 36 42
REMARK SMILES IDX 90 43 84 44 86 45 37 46 89 47 83 48 82 49 38 51 70 52 50 53
REMARK SMILES IDX 69 54 51 55 54 56 68 57 87 58 52 59 53 60 67 62 88 63 55 64
REMARK SMILES IDX 39 65 40 66 48 67 41 68 43 69 49 70 42 71 44 72 45 73 46 74
REMARK SMILES IDX 47 75 71 76 72 77 80 78 73 79 75 80 81 81 74 82 76 83 77 84
REMARK SMILES IDX 78 85 79 86 56 87 57 88 65 89 58 90 60 91 66 92 59 93 61 94
REMARK SMILES IDX 62 95 63 96 64 97
REMARK H PARENT 86 50 54 61
REMARK Flexibility Score: inf
ROOT
ATOM      1  C   UNL A   1      34.230  31.622  28.083  1.00  0.00     0.202 C 
ENDROOT
BRANCH   1   2
ATOM      2  C   UNL A   1      34.034  30.496  27.066  1.00  0.00     0.261 C 
BRANCH   2   3
ATOM      3  O   UNL A   1      32.715  30.601  26.511  1.00  0.00    -0.460 OA
BRANCH   3   4
ATOM      4  C   UNL A   1      31.934  29.506  26.561  1.00  0.00     0.339 C 
ATOM      5  O   UNL A   1      31.378  29.066  27.559  1.00  0.00    -0.246 OA
BRANCH   4   6
ATOM      6  C   UNL A   1      31.628  29.000  25.192  1.00  0.00     0.073 A 
ATOM      7  C   UNL A   1      32.154  27.837  24.592  1.00  0.00     0.022 A 
ATOM      8  C   UNL A   1      31.735  27.512  23.287  1.00  0.00     0.016 A 
ATOM      9  C   UNL A   1      30.835  28.319  22.586  1.00  0.00     0.001 A 
ATOM     10  C   UNL A   1      30.741  29.818  24.460  1.00  0.00     0.017 A 
ATOM     11  C   UNL A   1      30.350  29.482  23.167  1.00  0.00     0.001 A 
BRANCH   7  12
ATOM     12  S   UNL A   1      33.398  26.785  25.343  1.00  0.00    -0.119 SA
BRANCH  12  13
ATOM     13  C   UNL A   1      34.079  25.877  23.913  1.00  0.00     0.131 C 
BRANCH  13  14
ATOM     14  C   UNL A   1      34.357  24.422  24.220  1.00  0.00     0.060 A 
ATOM     15  C   UNL A   1      33.689  19.920  24.580  1.00  0.00     0.117 A 
ATOM     16  N   UNL A   1      34.783  20.462  25.010  1.00  0.00    -0.156 NA
ATOM     17  S   UNL A   1      32.500  20.985  23.871  1.00  0.00    -0.079 S 
ATOM     18  N   UNL A   1      34.730  21.813  24.782  1.00  0.00    -0.167 N 
ATOM     19  C   UNL A   1      33.591  22.292  24.193  1.00  0.00     0.215 A 
ATOM     20  C   UNL A   1      35.782  22.642  25.094  1.00  0.00     0.275 A 
ATOM     21  N   UNL A   1      33.362  23.524  23.893  1.00  0.00    -0.223 NA
ATOM     22  O   UNL A   1      36.874  22.315  25.551  1.00  0.00    -0.267 OA
ATOM     23  C   UNL A   1      35.520  24.065  24.793  1.00  0.00     0.098 A 
BRANCH  15  24
ATOM     24  C   UNL A   1      33.386  18.454  24.691  1.00  0.00     0.069 C 
BRANCH  24  25
ATOM     25  C   UNL A   1      34.557  17.563  24.274  1.00  0.00     0.004 C 
ATOM     26  C   UNL A   1      34.148  16.353  23.442  1.00  0.00     0.004 C 
ENDBRANCH  24  25
ENDBRANCH  15  24
ENDBRANCH  13  14
ENDBRANCH  12  13
ENDBRANCH   7  12
ENDBRANCH   4   6
ENDBRANCH   3   4
ENDBRANCH   2   3
ENDBRANCH   1   2
BRANCH   1  27
ATOM     27  O   UNL A   1      33.207  32.626  28.079  1.00  0.00    -0.374 OA
BRANCH  27  28
ATOM     28  C   UNL A   1      33.610  33.951  27.729  1.00  0.00     0.202 C 
BRANCH  28  29
ATOM     29  C   UNL A   1      33.028  35.081  28.588  1.00  0.00     0.261 C 
BRANCH  29  30
ATOM     30  O   UNL A   1      32.685  34.641  29.913  1.00  0.00    -0.460 OA
BRANCH  30  31
ATOM     31  C   UNL A   1      33.494  35.107  30.891  1.00  0.00     0.338 C 
ATOM     32  O   UNL A   1      33.258  36.023  31.671  1.00  0.00    -0.246 OA
BRANCH  31  33
ATOM     33  C   UNL A   1      34.685  34.248  31.024  1.00  0.00     0.060 A 
ATOM     34  C   UNL A   1      34.570  33.112  31.835  1.00  0.00     0.016 A 
ATOM     35  C   UNL A   1      35.907  34.572  30.430  1.00  0.00     0.016 A 
ATOM     36  C   UNL A   1      35.689  32.325  32.096  1.00  0.00     0.010 A 
ATOM     37  C   UNL A   1      37.031  33.782  30.698  1.00  0.00     0.010 A 
ATOM     38  C   UNL A   1      36.935  32.676  31.560  1.00  0.00    -0.014 A 
BRANCH  38  39
ATOM     39  C   UNL A   1      38.145  31.937  31.998  1.00  0.00     0.031 A 
ATOM     40  C   UNL A   1      38.814  32.308  33.294  1.00  0.00     0.074 A 
ATOM     41  C   UNL A   1      38.629  30.925  31.256  1.00  0.00     0.049 A 
ATOM     42  N   UNL A   1      39.845  31.758  33.878  1.00  0.00    -0.248 NA
ATOM     43  C   UNL A   1      38.245  33.450  34.028  1.00  0.00     0.031 C 
ATOM     44  C   UNL A   1      38.080  30.480  29.976  1.00  0.00     0.029 A 
ATOM     45  N   UNL A   1      39.704  30.098  31.468  1.00  0.00    -0.354 N 
ATOM     46  C   UNL A   1      40.064  32.494  35.037  1.00  0.00     0.074 A 
ATOM     47  C   UNL A   1      39.067  33.543  35.063  1.00  0.00     0.031 C 
ATOM     48  C   UNL A   1      38.834  29.471  29.506  1.00  0.00     0.029 A 
ATOM     49  C   UNL A   1      39.924  29.208  30.444  1.00  0.00     0.049 A 
ATOM     50  H   UNL A   1      40.263  30.138  32.277  1.00  0.00     0.167 HD
ATOM     51  C   UNL A   1      40.993  32.302  36.002  1.00  0.00     0.034 A 
ATOM     52  C   UNL A   1      40.898  28.291  30.278  1.00  0.00     0.034 A 
ATOM     53  C   UNL A   1      41.971  31.246  35.987  1.00  0.00     0.049 A 
ATOM     54  C   UNL A   1      41.924  28.102  31.365  1.00  0.00     0.074 A 
ATOM     55  C   UNL A   1      42.916  30.934  36.949  1.00  0.00     0.029 A 
ATOM     56  N   UNL A   1      42.139  30.337  34.954  1.00  0.00    -0.354 N 
ATOM     57  N   UNL A   1      42.026  28.711  32.522  1.00  0.00    -0.248 NA
ATOM     58  C   UNL A   1      42.947  27.070  31.140  1.00  0.00     0.031 C 
ATOM     59  C   UNL A   1      43.672  29.851  36.485  1.00  0.00     0.029 A 
ATOM     60  C   UNL A   1      43.182  29.474  35.245  1.00  0.00     0.049 A 
ATOM     61  H   UNL A   1      41.596  30.309  34.133  1.00  0.00     0.167 HD
ATOM     62  C   UNL A   1      43.104  28.119  33.172  1.00  0.00     0.074 A 
ATOM     63  C   UNL A   1      43.604  27.083  32.292  1.00  0.00     0.031 C 
ATOM     64  C   UNL A   1      43.643  28.417  34.381  1.00  0.00     0.034 A 
BRANCH  51  65
ATOM     65  C   UNL A   1      40.977  33.237  37.182  1.00  0.00     0.023 A 
ATOM     66  C   UNL A   1      40.048  33.027  38.222  1.00  0.00     0.012 A 
ATOM     67  C   UNL A   1      41.911  34.286  37.292  1.00  0.00     0.148 A 
ATOM     68  C   UNL A   1      40.030  33.862  39.339  1.00  0.00     0.002 A 
ATOM     69  C   UNL A   1      41.913  35.089  38.427  1.00  0.00     0.091 A 
ATOM     70  F   UNL A   1      42.770  34.485  36.283  1.00  0.00    -0.205 F 
ATOM     71  C   UNL A   1      40.968  34.885  39.445  1.00  0.00     0.022 A 
BRANCH  69  72
ATOM     72  S   UNL A   1      43.128  36.386  38.691  1.00  0.00     0.127 S 
ATOM     73  O   UNL A   1      42.695  36.939  39.973  1.00  0.00    -0.237 OA
ATOM     74  O   UNL A   1      44.380  35.631  38.745  1.00  0.00    -0.237 OA
ATOM     75  O   UNL A   1      43.010  37.284  37.550  1.00  0.00    -0.744 OA
ENDBRANCH  69  72
ENDBRANCH  51  65
BRANCH  52  76
ATOM     76  C   UNL A   1      40.919  27.446  29.051  1.00  0.00     0.023 A 
ATOM     77  C   UNL A   1      40.003  26.384  28.921  1.00  0.00     0.012 A 
ATOM     78  C   UNL A   1      41.825  27.704  28.004  1.00  0.00     0.148 A 
ATOM     79  C   UNL A   1      40.007  25.578  27.783  1.00  0.00     0.002 A 
ATOM     80  C   UNL A   1      41.788  26.931  26.849  1.00  0.00     0.091 A 
ATOM     81  F   UNL A   1      42.703  28.706  28.156  1.00  0.00    -0.205 F 
ATOM     82  C   UNL A   1      40.891  25.857  26.744  1.00  0.00     0.022 A 
BRANCH  80  83
ATOM     83  S   UNL A   1      42.801  27.300  25.412  1.00  0.00     0.127 S 
ATOM     84  O   UNL A   1      44.117  27.495  26.015  1.00  0.00    -0.237 OA
ATOM     85  O   UNL A   1      42.661  26.078  24.619  1.00  0.00    -0.237 OA
ATOM     86  O   UNL A   1      42.202  28.480  24.802  1.00  0.00    -0.744 OA
ENDBRANCH  80  83
ENDBRANCH  52  76
BRANCH  64  87
ATOM     87  C   UNL A   1      44.828  27.603  34.837  1.00  0.00     0.023 A 
ATOM     88  C   UNL A   1      44.619  26.423  35.578  1.00  0.00     0.012 A 
ATOM     89  C   UNL A   1      46.140  27.971  34.481  1.00  0.00     0.148 A 
ATOM     90  C   UNL A   1      45.698  25.642  35.990  1.00  0.00     0.002 A 
ATOM     91  C   UNL A   1      47.209  27.162  34.855  1.00  0.00     0.091 A 
ATOM     92  F   UNL A   1      46.324  29.106  33.792  1.00  0.00    -0.205 F 
ATOM     93  C   UNL A   1      46.991  26.005  35.620  1.00  0.00     0.022 A 
BRANCH  91  94
ATOM     94  S   UNL A   1      48.897  27.504  34.342  1.00  0.00     0.127 S 
ATOM     95  O   UNL A   1      48.755  27.591  32.890  1.00  0.00    -0.237 OA
ATOM     96  O   UNL A   1      49.173  28.778  35.005  1.00  0.00    -0.237 OA
ATOM     97  O   UNL A   1      49.695  26.387  34.831  1.00  0.00    -0.744 OA
ENDBRANCH  91  94
ENDBRANCH  64  87
ENDBRANCH  38  39
ENDBRANCH  31  33
ENDBRANCH  30  31
ENDBRANCH  29  30
ENDBRANCH  28  29
ENDBRANCH  27  28
ENDBRANCH   1  27
TORSDOF 22
ENDMDL
