MODEL 1
REMARK VINA RESULT:     -12.4      0.000      0.000
REMARK SMILES O=C(C[C@H](NC(=O)[C@]12C[C@H]3C[C@H](C[C@H](C3)C1)C2)c1cccc([N+](=O)[O-])c1)OCCOCCOC(=O)c1ccc(-c2c3nc(c(-c4cccc(S(=O)(=O)[O-])c4F)c4ccc([nH]4)c(-c4cccc(S(=O)(=O)[O-])c4F)c4nc(c(-c5cccc(S(=O)(=O)[O-])c5F)c5ccc2[nH]5)C=C4)C=C3)cc1
REMARK SMILES IDX 30 1 29 2 28 3 27 4 2 5 1 6 3 7 4 8 18 9 19 10 26 11 20 12
REMARK SMILES IDX 22 13 21 14 23 15 24 16 25 17 5 18 6 19 7 21 8 22 9 23 16 24
REMARK SMILES IDX 17 25 10 26 14 27 12 28 11 29 15 30 13 31 31 32 32 33 33 34
REMARK SMILES IDX 34 35 35 36 36 37 37 38 98 39 38 40 97 41 39 42 40 43 41 44
REMARK SMILES IDX 91 45 42 46 96 47 90 48 92 49 43 50 95 51 89 52 88 53 44 55
REMARK SMILES IDX 76 56 56 57 75 58 57 59 60 60 74 61 93 62 58 63 59 64 73 66
REMARK SMILES IDX 94 67 61 68 45 69 46 70 54 71 47 72 49 73 55 74 48 75 50 76
REMARK SMILES IDX 51 77 52 78 53 79 77 80 78 81 86 82 79 83 81 84 87 85 80 86
REMARK SMILES IDX 82 87 83 88 84 89 85 90 62 91 63 92 71 93 64 94 66 95 72 96
REMARK SMILES IDX 65 97 67 98 68 99 69 100 70 101
REMARK H PARENT 5 20 92 54 60 65
REMARK Flexibility Score: inf
ROOT
ATOM      1  O   UNL A   1      35.571  21.573  25.423  1.00  0.00    -0.374 OA
ENDROOT
BRANCH   1   2
ATOM      2  C   UNL A   1      34.767  21.514  26.605  1.00  0.00     0.202 C 
BRANCH   2   3
ATOM      3  C   UNL A   1      34.002  22.772  27.017  1.00  0.00     0.261 C 
BRANCH   3   4
ATOM      4  O   UNL A   1      32.609  22.498  27.242  1.00  0.00    -0.463 OA
BRANCH   4   5
ATOM      5  C   UNL A   1      31.620  23.224  26.676  1.00  0.00     0.308 C 
ATOM      6  O   UNL A   1      31.193  24.226  27.241  1.00  0.00    -0.252 OA
BRANCH   5   7
ATOM      7  C   UNL A   1      31.026  22.720  25.392  1.00  0.00     0.152 C 
BRANCH   7   8
ATOM      8  C   UNL A   1      31.898  22.882  24.160  1.00  0.00     0.123 C 
BRANCH   8   9
ATOM      9  C   UNL A   1      32.155  21.499  23.556  1.00  0.00    -0.018 A 
ATOM     10  C   UNL A   1      31.938  21.196  22.210  1.00  0.00     0.006 A 
ATOM     11  C   UNL A   1      32.511  20.437  24.421  1.00  0.00     0.091 A 
ATOM     12  C   UNL A   1      31.988  19.875  21.749  1.00  0.00     0.007 A 
ATOM     13  C   UNL A   1      32.550  19.114  23.962  1.00  0.00     0.269 A 
ATOM     14  C   UNL A   1      32.277  18.827  22.624  1.00  0.00     0.085 A 
BRANCH  13  15
ATOM     15  N   UNL A   1      32.836  18.023  24.903  1.00  0.00     0.062 N 
ATOM     16  O   UNL A   1      33.545  17.089  24.504  1.00  0.00    -0.258 OA
ATOM     17  O   UNL A   1      32.351  18.104  26.042  1.00  0.00    -0.258 OA
ENDBRANCH  13  15
ENDBRANCH   8   9
BRANCH   8  18
ATOM     18  N   UNL A   1      31.575  23.962  23.227  1.00  0.00    -0.348 N 
ATOM     19  C   UNL A   1      31.855  25.270  23.022  1.00  0.00     0.226 C 
ATOM     20  H   UNL A   1      30.963  23.634  22.529  1.00  0.00     0.164 HD
ATOM     21  O   UNL A   1      31.593  25.645  21.866  1.00  0.00    -0.274 OA
BRANCH  19  22
ATOM     22  C   UNL A   1      32.261  26.338  24.062  1.00  0.00     0.050 C 
ATOM     23  C   UNL A   1      32.688  27.648  23.327  1.00  0.00     0.020 C 
ATOM     24  C   UNL A   1      33.382  26.019  25.054  1.00  0.00     0.020 C 
ATOM     25  C   UNL A   1      30.963  26.663  24.851  1.00  0.00     0.020 C 
ATOM     26  C   UNL A   1      32.922  28.797  24.332  1.00  0.00    -0.010 C 
ATOM     27  C   UNL A   1      33.596  27.135  26.084  1.00  0.00    -0.010 C 
ATOM     28  C   UNL A   1      31.188  27.796  25.860  1.00  0.00    -0.010 C 
ATOM     29  C   UNL A   1      31.623  29.063  25.108  1.00  0.00     0.007 C 
ATOM     30  C   UNL A   1      34.019  28.405  25.335  1.00  0.00     0.007 C 
ATOM     31  C   UNL A   1      32.287  27.376  26.844  1.00  0.00     0.007 C 
ENDBRANCH  19  22
ENDBRANCH   8  18
ENDBRANCH   7   8
ENDBRANCH   5   7
ENDBRANCH   4   5
ENDBRANCH   3   4
ENDBRANCH   2   3
ENDBRANCH   1   2
BRANCH   1  32
ATOM     32  C   UNL A   1      36.138  20.323  24.996  1.00  0.00     0.202 C 
BRANCH  32  33
ATOM     33  C   UNL A   1      37.671  20.206  25.021  1.00  0.00     0.261 C 
BRANCH  33  34
ATOM     34  O   UNL A   1      38.276  21.323  25.684  1.00  0.00    -0.460 OA
BRANCH  34  35
ATOM     35  C   UNL A   1      39.471  21.060  26.268  1.00  0.00     0.338 C 
ATOM     36  O   UNL A   1      40.126  20.035  26.163  1.00  0.00    -0.246 OA
BRANCH  35  37
ATOM     37  C   UNL A   1      40.014  22.320  26.815  1.00  0.00     0.060 A 
ATOM     38  C   UNL A   1      39.383  23.509  26.418  1.00  0.00     0.016 A 
ATOM     39  C   UNL A   1      41.052  22.346  27.750  1.00  0.00     0.016 A 
ATOM     40  C   UNL A   1      39.807  24.729  26.923  1.00  0.00     0.010 A 
ATOM     41  C   UNL A   1      41.506  23.577  28.229  1.00  0.00     0.010 A 
ATOM     42  C   UNL A   1      40.912  24.769  27.781  1.00  0.00    -0.014 A 
BRANCH  42  43
ATOM     43  C   UNL A   1      41.585  26.068  27.972  1.00  0.00     0.031 A 
ATOM     44  C   UNL A   1      40.813  27.153  28.671  1.00  0.00     0.074 A 
ATOM     45  C   UNL A   1      42.865  26.249  27.606  1.00  0.00     0.049 A 
ATOM     46  N   UNL A   1      41.187  28.362  28.990  1.00  0.00    -0.248 NA
ATOM     47  C   UNL A   1      39.431  26.825  29.068  1.00  0.00     0.031 C 
ATOM     48  C   UNL A   1      43.703  25.255  26.938  1.00  0.00     0.029 A 
ATOM     49  N   UNL A   1      43.676  27.346  27.735  1.00  0.00    -0.354 N 
ATOM     50  C   UNL A   1      40.087  28.942  29.610  1.00  0.00     0.074 A 
ATOM     51  C   UNL A   1      39.022  27.966  29.599  1.00  0.00     0.031 C 
ATOM     52  C   UNL A   1      44.906  25.801  26.686  1.00  0.00     0.029 A 
ATOM     53  C   UNL A   1      44.911  27.184  27.157  1.00  0.00     0.049 A 
ATOM     54  H   UNL A   1      43.400  28.170  28.197  1.00  0.00     0.167 HD
ATOM     55  C   UNL A   1      39.979  30.174  30.159  1.00  0.00     0.034 A 
ATOM     56  C   UNL A   1      45.917  28.069  27.007  1.00  0.00     0.034 A 
ATOM     57  C   UNL A   1      41.046  31.135  30.164  1.00  0.00     0.049 A 
ATOM     58  C   UNL A   1      45.760  29.448  27.596  1.00  0.00     0.074 A 
ATOM     59  C   UNL A   1      41.053  32.411  30.697  1.00  0.00     0.029 A 
ATOM     60  N   UNL A   1      42.295  30.928  29.597  1.00  0.00    -0.354 N 
ATOM     61  N   UNL A   1      44.746  29.955  28.257  1.00  0.00    -0.248 NA
ATOM     62  C   UNL A   1      46.901  30.362  27.455  1.00  0.00     0.031 C 
ATOM     63  C   UNL A   1      42.300  32.985  30.427  1.00  0.00     0.029 A 
ATOM     64  C   UNL A   1      43.082  32.052  29.763  1.00  0.00     0.049 A 
ATOM     65  H   UNL A   1      42.578  30.102  29.142  1.00  0.00     0.167 HD
ATOM     66  C   UNL A   1      45.140  31.232  28.639  1.00  0.00     0.074 A 
ATOM     67  C   UNL A   1      46.497  31.408  28.160  1.00  0.00     0.031 C 
ATOM     68  C   UNL A   1      44.444  32.183  29.313  1.00  0.00     0.034 A 
BRANCH  55  69
ATOM     69  C   UNL A   1      38.672  30.533  30.814  1.00  0.00     0.023 A 
ATOM     70  C   UNL A   1      38.451  30.199  32.166  1.00  0.00     0.012 A 
ATOM     71  C   UNL A   1      37.677  31.231  30.104  1.00  0.00     0.148 A 
ATOM     72  C   UNL A   1      37.250  30.528  32.793  1.00  0.00     0.002 A 
ATOM     73  C   UNL A   1      36.502  31.597  30.749  1.00  0.00     0.091 A 
ATOM     74  F   UNL A   1      37.894  31.515  28.812  1.00  0.00    -0.205 F 
ATOM     75  C   UNL A   1      36.281  31.236  32.088  1.00  0.00     0.022 A 
BRANCH  73  76
ATOM     76  S   UNL A   1      35.223  32.577  29.954  1.00  0.00     0.127 S 
ATOM     77  O   UNL A   1      34.732  31.648  28.936  1.00  0.00    -0.237 OA
ATOM     78  O   UNL A   1      34.294  32.819  31.058  1.00  0.00    -0.237 OA
ATOM     79  O   UNL A   1      35.886  33.767  29.440  1.00  0.00    -0.744 OA
ENDBRANCH  73  76
ENDBRANCH  55  69
BRANCH  56  80
ATOM     80  C   UNL A   1      47.157  27.679  26.278  1.00  0.00     0.023 A 
ATOM     81  C   UNL A   1      48.238  27.107  26.976  1.00  0.00     0.012 A 
ATOM     82  C   UNL A   1      47.267  27.877  24.888  1.00  0.00     0.148 A 
ATOM     83  C   UNL A   1      49.419  26.776  26.310  1.00  0.00     0.002 A 
ATOM     84  C   UNL A   1      48.422  27.491  24.221  1.00  0.00     0.091 A 
ATOM     85  F   UNL A   1      46.234  28.439  24.243  1.00  0.00    -0.205 F 
ATOM     86  C   UNL A   1      49.508  26.960  24.933  1.00  0.00     0.022 A 
BRANCH  84  87
ATOM     87  S   UNL A   1      48.568  27.568  22.433  1.00  0.00     0.127 S 
ATOM     88  O   UNL A   1      47.375  28.325  22.068  1.00  0.00    -0.237 OA
ATOM     89  O   UNL A   1      49.832  28.287  22.266  1.00  0.00    -0.237 OA
ATOM     90  O   UNL A   1      48.604  26.183  21.983  1.00  0.00    -0.744 OA
ENDBRANCH  84  87
ENDBRANCH  56  80
BRANCH  68  91
ATOM     91  C   UNL A   1      45.154  33.478  29.611  1.00  0.00     0.023 A 
ATOM     92  C   UNL A   1      45.906  33.615  30.795  1.00  0.00     0.012 A 
ATOM     93  C   UNL A   1      45.113  34.543  28.690  1.00  0.00     0.148 A 
ATOM     94  C   UNL A   1      46.564  34.810  31.080  1.00  0.00     0.002 A 
ATOM     95  C   UNL A   1      45.818  35.710  28.954  1.00  0.00     0.091 A 
ATOM     96  F   UNL A   1      44.380  34.398  27.575  1.00  0.00    -0.205 F 
ATOM     97  C   UNL A   1      46.528  35.852  30.157  1.00  0.00     0.022 A 
BRANCH  95  98
ATOM     98  S   UNL A   1      45.912  37.063  27.777  1.00  0.00     0.127 S 
ATOM     99  O   UNL A   1      46.719  38.038  28.508  1.00  0.00    -0.237 OA
ATOM    100  O   UNL A   1      46.590  36.437  26.642  1.00  0.00    -0.237 OA
ATOM    101  O   UNL A   1      44.536  37.462  27.513  1.00  0.00    -0.744 OA
ENDBRANCH  95  98
ENDBRANCH  68  91
ENDBRANCH  42  43
ENDBRANCH  35  37
ENDBRANCH  34  35
ENDBRANCH  33  34
ENDBRANCH  32  33
ENDBRANCH   1  32
TORSDOF 22
ENDMDL
MODEL 2
REMARK VINA RESULT:     -12.2      4.842      7.986
REMARK SMILES O=C(C[C@H](NC(=O)[C@]12C[C@H]3C[C@H](C[C@H](C3)C1)C2)c1cccc([N+](=O)[O-])c1)OCCOCCOC(=O)c1ccc(-c2c3nc(c(-c4cccc(S(=O)(=O)[O-])c4F)c4ccc([nH]4)c(-c4cccc(S(=O)(=O)[O-])c4F)c4nc(c(-c5cccc(S(=O)(=O)[O-])c5F)c5ccc2[nH]5)C=C4)C=C3)cc1
REMARK SMILES IDX 30 1 29 2 28 3 27 4 2 5 1 6 3 7 4 8 18 9 19 10 26 11 20 12
REMARK SMILES IDX 22 13 21 14 23 15 24 16 25 17 5 18 6 19 7 21 8 22 9 23 16 24
REMARK SMILES IDX 17 25 10 26 14 27 12 28 11 29 15 30 13 31 31 32 32 33 33 34
REMARK SMILES IDX 34 35 35 36 36 37 37 38 98 39 38 40 97 41 39 42 40 43 41 44
REMARK SMILES IDX 91 45 42 46 96 47 90 48 92 49 43 50 95 51 89 52 88 53 44 55
REMARK SMILES IDX 76 56 56 57 75 58 57 59 60 60 74 61 93 62 58 63 59 64 73 66
REMARK SMILES IDX 94 67 61 68 45 69 46 70 54 71 47 72 49 73 55 74 48 75 50 76
REMARK SMILES IDX 51 77 52 78 53 79 77 80 78 81 86 82 79 83 81 84 87 85 80 86
REMARK SMILES IDX 82 87 83 88 84 89 85 90 62 91 63 92 71 93 64 94 66 95 72 96
REMARK SMILES IDX 65 97 67 98 68 99 69 100 70 101
REMARK H PARENT 5 20 92 54 60 65
REMARK Flexibility Score: inf
ROOT
ATOM      1  O   UNL A   1      32.987  29.290  26.076  1.00  0.00    -0.374 OA
ENDROOT
BRANCH   1   2
ATOM      2  C   UNL A   1      32.787  28.033  26.728  1.00  0.00     0.202 C 
BRANCH   2   3
ATOM      3  C   UNL A   1      31.362  27.487  26.816  1.00  0.00     0.261 C 
BRANCH   3   4
ATOM      4  O   UNL A   1      31.342  26.050  26.846  1.00  0.00    -0.463 OA
BRANCH   4   5
ATOM      5  C   UNL A   1      30.368  25.320  26.260  1.00  0.00     0.308 C 
ATOM      6  O   UNL A   1      29.189  25.583  26.478  1.00  0.00    -0.252 OA
BRANCH   5   7
ATOM      7  C   UNL A   1      30.779  24.150  25.413  1.00  0.00     0.152 C 
BRANCH   7   8
ATOM      8  C   UNL A   1      30.713  24.374  23.913  1.00  0.00     0.123 C 
BRANCH   8   9
ATOM      9  C   UNL A   1      30.876  25.870  23.634  1.00  0.00    -0.018 A 
ATOM     10  C   UNL A   1      29.798  26.749  23.500  1.00  0.00     0.006 A 
ATOM     11  C   UNL A   1      32.173  26.373  23.374  1.00  0.00     0.091 A 
ATOM     12  C   UNL A   1      29.986  28.058  23.043  1.00  0.00     0.007 A 
ATOM     13  C   UNL A   1      32.359  27.681  22.905  1.00  0.00     0.269 A 
ATOM     14  C   UNL A   1      31.264  28.525  22.727  1.00  0.00     0.085 A 
BRANCH  13  15
ATOM     15  N   UNL A   1      33.709  28.146  22.560  1.00  0.00     0.062 N 
ATOM     16  O   UNL A   1      34.412  28.601  23.472  1.00  0.00    -0.258 OA
ATOM     17  O   UNL A   1      34.063  28.054  21.375  1.00  0.00    -0.258 OA
ENDBRANCH  13  15
ENDBRANCH   8   9
BRANCH   8  18
ATOM     18  N   UNL A   1      31.453  23.454  23.049  1.00  0.00    -0.348 N 
ATOM     19  C   UNL A   1      32.507  22.607  23.101  1.00  0.00     0.226 C 
ATOM     20  H   UNL A   1      31.061  23.450  22.145  1.00  0.00     0.164 HD
ATOM     21  O   UNL A   1      32.515  21.787  22.166  1.00  0.00    -0.274 OA
BRANCH  19  22
ATOM     22  C   UNL A   1      33.738  22.664  24.033  1.00  0.00     0.050 C 
ATOM     23  C   UNL A   1      33.709  21.447  25.012  1.00  0.00     0.020 C 
ATOM     24  C   UNL A   1      33.954  23.906  24.901  1.00  0.00     0.020 C 
ATOM     25  C   UNL A   1      34.969  22.472  23.107  1.00  0.00     0.020 C 
ATOM     26  C   UNL A   1      35.014  21.365  25.834  1.00  0.00    -0.010 C 
ATOM     27  C   UNL A   1      35.268  23.856  25.690  1.00  0.00    -0.010 C 
ATOM     28  C   UNL A   1      36.273  22.399  23.912  1.00  0.00    -0.010 C 
ATOM     29  C   UNL A   1      36.205  21.205  24.876  1.00  0.00     0.007 C 
ATOM     30  C   UNL A   1      35.209  22.656  26.644  1.00  0.00     0.007 C 
ATOM     31  C   UNL A   1      36.437  23.699  24.710  1.00  0.00     0.007 C 
ENDBRANCH  19  22
ENDBRANCH   8  18
ENDBRANCH   7   8
ENDBRANCH   5   7
ENDBRANCH   4   5
ENDBRANCH   3   4
ENDBRANCH   2   3
ENDBRANCH   1   2
BRANCH   1  32
ATOM     32  C   UNL A   1      31.803  30.078  25.869  1.00  0.00     0.202 C 
BRANCH  32  33
ATOM     33  C   UNL A   1      31.777  31.479  26.502  1.00  0.00     0.261 C 
BRANCH  33  34
ATOM     34  O   UNL A   1      32.604  31.547  27.671  1.00  0.00    -0.460 OA
BRANCH  34  35
ATOM     35  C   UNL A   1      33.495  32.569  27.679  1.00  0.00     0.338 C 
ATOM     36  O   UNL A   1      33.241  33.762  27.622  1.00  0.00    -0.246 OA
BRANCH  35  37
ATOM     37  C   UNL A   1      34.817  32.036  28.071  1.00  0.00     0.060 A 
ATOM     38  C   UNL A   1      34.893  30.660  28.335  1.00  0.00     0.016 A 
ATOM     39  C   UNL A   1      35.966  32.829  28.102  1.00  0.00     0.016 A 
ATOM     40  C   UNL A   1      36.107  30.078  28.666  1.00  0.00     0.010 A 
ATOM     41  C   UNL A   1      37.182  32.252  28.474  1.00  0.00     0.010 A 
ATOM     42  C   UNL A   1      37.242  30.886  28.798  1.00  0.00    -0.014 A 
BRANCH  42  43
ATOM     43  C   UNL A   1      38.397  30.333  29.533  1.00  0.00     0.031 A 
ATOM     44  C   UNL A   1      38.596  30.786  30.953  1.00  0.00     0.074 A 
ATOM     45  C   UNL A   1      39.192  29.402  28.980  1.00  0.00     0.049 A 
ATOM     46  N   UNL A   1      39.505  30.427  31.817  1.00  0.00    -0.248 NA
ATOM     47  C   UNL A   1      37.634  31.778  31.468  1.00  0.00     0.031 C 
ATOM     48  C   UNL A   1      39.070  28.885  27.619  1.00  0.00     0.029 A 
ATOM     49  N   UNL A   1      40.271  28.738  29.501  1.00  0.00    -0.354 N 
ATOM     50  C   UNL A   1      39.235  31.156  32.969  1.00  0.00     0.074 A 
ATOM     51  C   UNL A   1      38.096  31.998  32.688  1.00  0.00     0.031 C 
ATOM     52  C   UNL A   1      40.063  28.003  27.399  1.00  0.00     0.029 A 
ATOM     53  C   UNL A   1      40.894  27.912  28.598  1.00  0.00     0.049 A 
ATOM     54  H   UNL A   1      40.572  28.843  30.433  1.00  0.00     0.167 HD
ATOM     55  C   UNL A   1      39.868  31.111  34.164  1.00  0.00     0.034 A 
ATOM     56  C   UNL A   1      42.024  27.188  28.725  1.00  0.00     0.034 A 
ATOM     57  C   UNL A   1      40.999  30.269  34.431  1.00  0.00     0.049 A 
ATOM     58  C   UNL A   1      42.732  27.183  30.056  1.00  0.00     0.074 A 
ATOM     59  C   UNL A   1      41.716  30.136  35.605  1.00  0.00     0.029 A 
ATOM     60  N   UNL A   1      41.586  29.421  33.502  1.00  0.00    -0.354 N 
ATOM     61  N   UNL A   1      42.415  27.810  31.164  1.00  0.00    -0.248 NA
ATOM     62  C   UNL A   1      43.930  26.339  30.165  1.00  0.00     0.031 C 
ATOM     63  C   UNL A   1      42.755  29.227  35.377  1.00  0.00     0.029 A 
ATOM     64  C   UNL A   1      42.659  28.764  34.074  1.00  0.00     0.049 A 
ATOM     65  H   UNL A   1      41.283  29.306  32.573  1.00  0.00     0.167 HD
ATOM     66  C   UNL A   1      43.352  27.409  32.111  1.00  0.00     0.074 A 
ATOM     67  C   UNL A   1      44.230  26.464  31.449  1.00  0.00     0.031 C 
ATOM     68  C   UNL A   1      43.489  27.795  33.404  1.00  0.00     0.034 A 
BRANCH  55  69
ATOM     69  C   UNL A   1      39.333  31.984  35.268  1.00  0.00     0.023 A 
ATOM     70  C   UNL A   1      38.351  31.479  36.145  1.00  0.00     0.012 A 
ATOM     71  C   UNL A   1      39.826  33.288  35.461  1.00  0.00     0.148 A 
ATOM     72  C   UNL A   1      37.846  32.268  37.178  1.00  0.00     0.002 A 
ATOM     73  C   UNL A   1      39.352  34.052  36.521  1.00  0.00     0.091 A 
ATOM     74  F   UNL A   1      40.738  33.760  34.600  1.00  0.00    -0.205 F 
ATOM     75  C   UNL A   1      38.355  33.549  37.372  1.00  0.00     0.022 A 
BRANCH  73  76
ATOM     76  S   UNL A   1      39.996  35.684  36.905  1.00  0.00     0.127 S 
ATOM     77  O   UNL A   1      41.422  35.408  37.067  1.00  0.00    -0.237 OA
ATOM     78  O   UNL A   1      39.654  36.438  35.698  1.00  0.00    -0.237 OA
ATOM     79  O   UNL A   1      39.306  36.117  38.112  1.00  0.00    -0.744 OA
ENDBRANCH  73  76
ENDBRANCH  55  69
BRANCH  56  80
ATOM     80  C   UNL A   1      42.548  26.407  27.570  1.00  0.00     0.023 A 
ATOM     81  C   UNL A   1      43.420  27.011  26.644  1.00  0.00     0.012 A 
ATOM     82  C   UNL A   1      42.180  25.060  27.385  1.00  0.00     0.148 A 
ATOM     83  C   UNL A   1      43.884  26.300  25.536  1.00  0.00     0.002 A 
ATOM     84  C   UNL A   1      42.692  24.341  26.313  1.00  0.00     0.091 A 
ATOM     85  F   UNL A   1      41.334  24.506  28.267  1.00  0.00    -0.205 F 
ATOM     86  C   UNL A   1      43.527  24.964  25.375  1.00  0.00     0.022 A 
BRANCH  84  87
ATOM     87  S   UNL A   1      42.391  22.582  26.107  1.00  0.00     0.127 S 
ATOM     88  O   UNL A   1      43.018  22.321  24.814  1.00  0.00    -0.237 OA
ATOM     89  O   UNL A   1      43.097  22.021  27.261  1.00  0.00    -0.237 OA
ATOM     90  O   UNL A   1      40.945  22.423  26.155  1.00  0.00    -0.744 OA
ENDBRANCH  84  87
ENDBRANCH  56  80
BRANCH  68  91
ATOM     91  C   UNL A   1      44.598  27.160  34.202  1.00  0.00     0.023 A 
ATOM     92  C   UNL A   1      45.862  27.778  34.270  1.00  0.00     0.012 A 
ATOM     93  C   UNL A   1      44.369  25.971  34.923  1.00  0.00     0.148 A 
ATOM     94  C   UNL A   1      46.895  27.196  35.003  1.00  0.00     0.002 A 
ATOM     95  C   UNL A   1      45.386  25.428  35.697  1.00  0.00     0.091 A 
ATOM     96  F   UNL A   1      43.163  25.391  34.833  1.00  0.00    -0.205 F 
ATOM     97  C   UNL A   1      46.654  26.029  35.724  1.00  0.00     0.022 A 
BRANCH  95  98
ATOM     98  S   UNL A   1      45.135  23.986  36.737  1.00  0.00     0.127 S 
ATOM     99  O   UNL A   1      46.479  23.763  37.265  1.00  0.00    -0.237 OA
ATOM    100  O   UNL A   1      44.167  24.477  37.718  1.00  0.00    -0.237 OA
ATOM    101  O   UNL A   1      44.626  22.941  35.858  1.00  0.00    -0.744 OA
ENDBRANCH  95  98
ENDBRANCH  68  91
ENDBRANCH  42  43
ENDBRANCH  35  37
ENDBRANCH  34  35
ENDBRANCH  33  34
ENDBRANCH  32  33
ENDBRANCH   1  32
TORSDOF 22
ENDMDL
MODEL 3
REMARK VINA RESULT:     -11.9      2.041      8.106
REMARK SMILES O=C(C[C@H](NC(=O)[C@]12C[C@H]3C[C@H](C[C@H](C3)C1)C2)c1cccc([N+](=O)[O-])c1)OCCOCCOC(=O)c1ccc(-c2c3nc(c(-c4cccc(S(=O)(=O)[O-])c4F)c4ccc([nH]4)c(-c4cccc(S(=O)(=O)[O-])c4F)c4nc(c(-c5cccc(S(=O)(=O)[O-])c5F)c5ccc2[nH]5)C=C4)C=C3)cc1
REMARK SMILES IDX 30 1 29 2 28 3 27 4 2 5 1 6 3 7 4 8 18 9 19 10 26 11 20 12
REMARK SMILES IDX 22 13 21 14 23 15 24 16 25 17 5 18 6 19 7 21 8 22 9 23 16 24
REMARK SMILES IDX 17 25 10 26 14 27 12 28 11 29 15 30 13 31 31 32 32 33 33 34
REMARK SMILES IDX 34 35 35 36 36 37 37 38 98 39 38 40 97 41 39 42 40 43 41 44
REMARK SMILES IDX 91 45 42 46 96 47 90 48 92 49 43 50 95 51 89 52 88 53 44 55
REMARK SMILES IDX 76 56 56 57 75 58 57 59 60 60 74 61 93 62 58 63 59 64 73 66
REMARK SMILES IDX 94 67 61 68 45 69 46 70 54 71 47 72 49 73 55 74 48 75 50 76
REMARK SMILES IDX 51 77 52 78 53 79 77 80 78 81 86 82 79 83 81 84 87 85 80 86
REMARK SMILES IDX 82 87 83 88 84 89 85 90 62 91 63 92 71 93 64 94 66 95 72 96
REMARK SMILES IDX 65 97 67 98 68 99 69 100 70 101
REMARK H PARENT 5 20 92 54 60 65
REMARK Flexibility Score: inf
ROOT
ATOM      1  O   UNL A   1      34.717  21.339  24.564  1.00  0.00    -0.374 OA
ENDROOT
BRANCH   1   2
ATOM      2  C   UNL A   1      33.746  22.226  24.002  1.00  0.00     0.202 C 
BRANCH   2   3
ATOM      3  C   UNL A   1      32.267  21.916  24.237  1.00  0.00     0.261 C 
BRANCH   3   4
ATOM      4  O   UNL A   1      31.460  23.104  24.196  1.00  0.00    -0.463 OA
BRANCH   4   5
ATOM      5  C   UNL A   1      30.606  23.443  25.187  1.00  0.00     0.308 C 
ATOM      6  O   UNL A   1      30.320  22.625  26.056  1.00  0.00    -0.252 OA
BRANCH   5   7
ATOM      7  C   UNL A   1      29.976  24.805  25.136  1.00  0.00     0.152 C 
BRANCH   7   8
ATOM      8  C   UNL A   1      30.206  25.584  23.854  1.00  0.00     0.123 C 
BRANCH   8   9
ATOM      9  C   UNL A   1      29.158  26.696  23.762  1.00  0.00    -0.018 A 
ATOM     10  C   UNL A   1      27.832  26.538  24.173  1.00  0.00     0.006 A 
ATOM     11  C   UNL A   1      29.508  27.906  23.116  1.00  0.00     0.091 A 
ATOM     12  C   UNL A   1      26.865  27.507  23.881  1.00  0.00     0.007 A 
ATOM     13  C   UNL A   1      28.537  28.870  22.814  1.00  0.00     0.269 A 
ATOM     14  C   UNL A   1      27.208  28.668  23.186  1.00  0.00     0.085 A 
BRANCH  13  15
ATOM     15  N   UNL A   1      28.915  30.075  22.065  1.00  0.00     0.062 N 
ATOM     16  O   UNL A   1      28.273  31.112  22.281  1.00  0.00    -0.258 OA
ATOM     17  O   UNL A   1      29.854  29.982  21.261  1.00  0.00    -0.258 OA
ENDBRANCH  13  15
ENDBRANCH   8   9
BRANCH   8  18
ATOM     18  N   UNL A   1      31.582  25.941  23.505  1.00  0.00    -0.348 N 
ATOM     19  C   UNL A   1      32.671  26.524  24.057  1.00  0.00     0.226 C 
ATOM     20  H   UNL A   1      31.776  25.673  22.578  1.00  0.00     0.164 HD
ATOM     21  O   UNL A   1      33.720  26.271  23.440  1.00  0.00    -0.274 OA
BRANCH  19  22
ATOM     22  C   UNL A   1      32.727  27.566  25.197  1.00  0.00     0.050 C 
ATOM     23  C   UNL A   1      34.087  27.439  25.955  1.00  0.00     0.020 C 
ATOM     24  C   UNL A   1      31.635  27.552  26.269  1.00  0.00     0.020 C 
ATOM     25  C   UNL A   1      32.728  28.950  24.492  1.00  0.00     0.020 C 
ATOM     26  C   UNL A   1      34.259  28.583  26.979  1.00  0.00    -0.010 C 
ATOM     27  C   UNL A   1      31.772  28.708  27.268  1.00  0.00    -0.010 C 
ATOM     28  C   UNL A   1      32.889  30.094  25.501  1.00  0.00    -0.010 C 
ATOM     29  C   UNL A   1      34.225  29.931  26.241  1.00  0.00     0.007 C 
ATOM     30  C   UNL A   1      33.111  28.555  27.999  1.00  0.00     0.007 C 
ATOM     31  C   UNL A   1      31.730  30.038  26.506  1.00  0.00     0.007 C 
ENDBRANCH  19  22
ENDBRANCH   8  18
ENDBRANCH   7   8
ENDBRANCH   5   7
ENDBRANCH   4   5
ENDBRANCH   3   4
ENDBRANCH   2   3
ENDBRANCH   1   2
BRANCH   1  32
ATOM     32  C   UNL A   1      36.056  21.856  24.647  1.00  0.00     0.202 C 
BRANCH  32  33
ATOM     33  C   UNL A   1      37.150  20.888  25.124  1.00  0.00     0.261 C 
BRANCH  33  34
ATOM     34  O   UNL A   1      38.457  21.464  25.000  1.00  0.00    -0.460 OA
BRANCH  34  35
ATOM     35  C   UNL A   1      39.319  21.139  25.995  1.00  0.00     0.338 C 
ATOM     36  O   UNL A   1      39.839  20.052  26.186  1.00  0.00    -0.246 OA
BRANCH  35  37
ATOM     37  C   UNL A   1      39.774  22.385  26.647  1.00  0.00     0.060 A 
ATOM     38  C   UNL A   1      39.088  23.563  26.313  1.00  0.00     0.016 A 
ATOM     39  C   UNL A   1      40.780  22.401  27.616  1.00  0.00     0.016 A 
ATOM     40  C   UNL A   1      39.428  24.765  26.916  1.00  0.00     0.010 A 
ATOM     41  C   UNL A   1      41.150  23.616  28.195  1.00  0.00     0.010 A 
ATOM     42  C   UNL A   1      40.502  24.803  27.811  1.00  0.00    -0.014 A 
BRANCH  42  43
ATOM     43  C   UNL A   1      41.096  26.121  28.115  1.00  0.00     0.031 A 
ATOM     44  C   UNL A   1      42.491  26.383  27.619  1.00  0.00     0.074 A 
ATOM     45  C   UNL A   1      40.388  27.075  28.742  1.00  0.00     0.049 A 
ATOM     46  N   UNL A   1      43.218  27.461  27.723  1.00  0.00    -0.248 NA
ATOM     47  C   UNL A   1      43.154  25.277  26.904  1.00  0.00     0.031 C 
ATOM     48  C   UNL A   1      39.024  26.924  29.245  1.00  0.00     0.029 A 
ATOM     49  N   UNL A   1      40.732  28.359  29.072  1.00  0.00    -0.354 N 
ATOM     50  C   UNL A   1      44.424  27.161  27.102  1.00  0.00     0.074 A 
ATOM     51  C   UNL A   1      44.345  25.792  26.648  1.00  0.00     0.031 C 
ATOM     52  C   UNL A   1      38.657  28.067  29.853  1.00  0.00     0.029 A 
ATOM     53  C   UNL A   1      39.767  29.016  29.795  1.00  0.00     0.049 A 
ATOM     54  H   UNL A   1      41.589  28.771  28.816  1.00  0.00     0.167 HD
ATOM     55  C   UNL A   1      45.496  27.963  26.908  1.00  0.00     0.034 A 
ATOM     56  C   UNL A   1      39.795  30.237  30.364  1.00  0.00     0.034 A 
ATOM     57  C   UNL A   1      45.562  29.322  27.364  1.00  0.00     0.049 A 
ATOM     58  C   UNL A   1      41.017  31.098  30.165  1.00  0.00     0.074 A 
ATOM     59  C   UNL A   1      46.594  30.231  27.218  1.00  0.00     0.029 A 
ATOM     60  N   UNL A   1      44.554  29.967  28.067  1.00  0.00    -0.354 N 
ATOM     61  N   UNL A   1      42.116  30.834  29.500  1.00  0.00    -0.248 NA
ATOM     62  C   UNL A   1      40.983  32.442  30.759  1.00  0.00     0.031 C 
ATOM     63  C   UNL A   1      46.219  31.418  27.858  1.00  0.00     0.029 A 
ATOM     64  C   UNL A   1      44.939  31.261  28.365  1.00  0.00     0.049 A 
ATOM     65  H   UNL A   1      43.692  29.562  28.316  1.00  0.00     0.167 HD
ATOM     66  C   UNL A   1      42.890  31.987  29.567  1.00  0.00     0.074 A 
ATOM     67  C   UNL A   1      42.117  32.961  30.313  1.00  0.00     0.031 C 
ATOM     68  C   UNL A   1      44.131  32.222  29.072  1.00  0.00     0.034 A 
BRANCH  55  69
ATOM     69  C   UNL A   1      46.668  27.389  26.156  1.00  0.00     0.023 A 
ATOM     70  C   UNL A   1      46.715  27.494  24.750  1.00  0.00     0.012 A 
ATOM     71  C   UNL A   1      47.736  26.779  26.839  1.00  0.00     0.148 A 
ATOM     72  C   UNL A   1      47.793  26.976  24.034  1.00  0.00     0.002 A 
ATOM     73  C   UNL A   1      48.829  26.307  26.122  1.00  0.00     0.091 A 
ATOM     74  F   UNL A   1      47.659  26.664  28.172  1.00  0.00    -0.205 F 
ATOM     75  C   UNL A   1      48.854  26.393  24.721  1.00  0.00     0.022 A 
BRANCH  73  76
ATOM     76  S   UNL A   1      50.281  25.608  26.916  1.00  0.00     0.127 S 
ATOM     77  O   UNL A   1      50.694  26.704  27.791  1.00  0.00    -0.237 OA
ATOM     78  O   UNL A   1      49.720  24.449  27.612  1.00  0.00    -0.237 OA
ATOM     79  O   UNL A   1      51.212  25.285  25.843  1.00  0.00    -0.744 OA
ENDBRANCH  73  76
ENDBRANCH  55  69
BRANCH  56  80
ATOM     80  C   UNL A   1      38.635  30.718  31.166  1.00  0.00     0.023 A 
ATOM     81  C   UNL A   1      38.626  30.558  32.565  1.00  0.00     0.012 A 
ATOM     82  C   UNL A   1      37.534  31.335  30.540  1.00  0.00     0.148 A 
ATOM     83  C   UNL A   1      37.526  30.967  33.320  1.00  0.00     0.002 A 
ATOM     84  C   UNL A   1      36.469  31.794  31.305  1.00  0.00     0.091 A 
ATOM     85  F   UNL A   1      37.553  31.463  29.206  1.00  0.00    -0.205 F 
ATOM     86  C   UNL A   1      36.453  31.593  32.692  1.00  0.00     0.022 A 
BRANCH  84  87
ATOM     87  S   UNL A   1      35.111  32.729  30.592  1.00  0.00     0.127 S 
ATOM     88  O   UNL A   1      34.773  31.921  29.424  1.00  0.00    -0.237 OA
ATOM     89  O   UNL A   1      34.124  32.695  31.673  1.00  0.00    -0.237 OA
ATOM     90  O   UNL A   1      35.649  34.053  30.315  1.00  0.00    -0.744 OA
ENDBRANCH  84  87
ENDBRANCH  56  80
BRANCH  68  91
ATOM     91  C   UNL A   1      44.710  33.597  29.280  1.00  0.00     0.023 A 
ATOM     92  C   UNL A   1      45.383  33.906  30.479  1.00  0.00     0.012 A 
ATOM     93  C   UNL A   1      44.626  34.568  28.263  1.00  0.00     0.148 A 
ATOM     94  C   UNL A   1      45.920  35.177  30.681  1.00  0.00     0.002 A 
ATOM     95  C   UNL A   1      45.214  35.814  28.449  1.00  0.00     0.091 A 
ATOM     96  F   UNL A   1      43.970  34.259  27.135  1.00  0.00    -0.205 F 
ATOM     97  C   UNL A   1      45.844  36.125  29.664  1.00  0.00     0.022 A 
BRANCH  95  98
ATOM     98  S   UNL A   1      45.253  37.059  27.157  1.00  0.00     0.127 S 
ATOM     99  O   UNL A   1      46.010  36.377  26.109  1.00  0.00    -0.237 OA
ATOM    100  O   UNL A   1      43.832  37.243  26.861  1.00  0.00    -0.237 OA
ATOM    101  O   UNL A   1      45.903  38.225  27.741  1.00  0.00    -0.744 OA
ENDBRANCH  95  98
ENDBRANCH  68  91
ENDBRANCH  42  43
ENDBRANCH  35  37
ENDBRANCH  34  35
ENDBRANCH  33  34
ENDBRANCH  32  33
ENDBRANCH   1  32
TORSDOF 22
ENDMDL
