MODEL 1
REMARK VINA RESULT:     -12.8      0.000      0.000
REMARK SMILES O=C(OCCOCCOC(=O)c1ccc(-c2c3nc(c(-c4cccc(S(=O)(=O)[O-])c4F)c4ccc([nH]4)c(-c4cccc(S(=O)(=O)[O-])c4F)c4nc(c(-c5cccc(S(=O)(=O)[O-])c5F)c5ccc2[nH]5)C=C4)C=C3)cc1)C1=Cc2cc(C(F)(F)F)ccc2O[C@@H]1C(F)(F)F
REMARK SMILES IDX 7 1 6 2 5 3 4 4 3 5 2 6 1 7 75 8 76 9 88 10 77 11 87 12
REMARK SMILES IDX 78 13 86 14 79 15 85 16 84 17 89 18 90 19 91 20 92 21 80 22
REMARK SMILES IDX 81 23 82 24 83 25 8 26 9 27 10 28 11 29 12 30 13 31 74 32
REMARK SMILES IDX 14 33 73 34 15 35 16 36 17 37 67 38 18 39 72 40 66 41 68 42
REMARK SMILES IDX 19 43 71 44 65 45 64 46 20 48 52 49 32 50 51 51 33 52 36 53
REMARK SMILES IDX 50 54 69 55 34 56 35 57 49 59 70 60 37 61 21 62 22 63 30 64
REMARK SMILES IDX 23 65 25 66 31 67 24 68 26 69 27 70 28 71 29 72 53 73 54 74
REMARK SMILES IDX 62 75 55 76 57 77 63 78 56 79 58 80 59 81 60 82 61 83 38 84
REMARK SMILES IDX 39 85 47 86 40 87 42 88 48 89 41 90 43 91 44 92 45 93 46 94
REMARK H PARENT 68 47 36 58
REMARK Flexibility Score: inf
ROOT
ATOM      1  C   UNL A   1      31.475  29.081  25.855  1.00  0.00     0.202 C 
ENDROOT
BRANCH   1   2
ATOM      2  O   UNL A   1      31.214  29.073  24.438  1.00  0.00    -0.374 OA
BRANCH   2   3
ATOM      3  C   UNL A   1      30.640  27.942  23.424  1.00  0.00     0.202 C 
BRANCH   3   4
ATOM      4  C   UNL A   1      31.677  26.549  22.096  1.00  0.00     0.261 C 
BRANCH   4   5
ATOM      5  O   UNL A   1      31.595  25.012  22.148  1.00  0.00    -0.460 OA
BRANCH   5   6
ATOM      6  C   UNL A   1      32.793  24.435  22.277  1.00  0.00     0.338 C 
ATOM      7  O   UNL A   1      33.585  24.102  21.434  1.00  0.00    -0.246 OA
BRANCH   6   8
ATOM      8  C   UNL A   1      32.613  24.028  23.652  1.00  0.00     0.087 C 
ATOM      9  C   UNL A   1      32.160  22.624  23.749  1.00  0.00     0.027 C 
ATOM     10  C   UNL A   1      34.318  24.687  24.289  1.00  0.00     0.316 C 
ATOM     11  C   UNL A   1      33.226  21.266  24.277  1.00  0.00     0.018 A 
ATOM     12  O   UNL A   1      35.502  23.240  24.788  1.00  0.00    -0.475 OA
ATOM     13  C   UNL A   1      32.743  19.988  24.266  1.00  0.00     0.025 A 
ATOM     14  C   UNL A   1      34.889  21.520  24.699  1.00  0.00     0.128 A 
ATOM     15  C   UNL A   1      33.677  18.973  24.586  1.00  0.00     0.056 A 
ATOM     16  C   UNL A   1      35.762  20.487  24.845  1.00  0.00     0.048 A 
ATOM     17  C   UNL A   1      35.111  19.220  24.802  1.00  0.00     0.017 A 
BRANCH  10  18
ATOM     18  C   UNL A   1      33.749  25.924  25.122  1.00  0.00     0.430 C 
ATOM     19  F   UNL A   1      32.561  25.732  25.726  1.00  0.00    -0.167 F 
ATOM     20  F   UNL A   1      34.621  26.149  26.153  1.00  0.00    -0.167 F 
ATOM     21  F   UNL A   1      33.709  27.099  24.455  1.00  0.00    -0.167 F 
ENDBRANCH  10  18
BRANCH  15  22
ATOM     22  C   UNL A   1      33.102  17.567  24.728  1.00  0.00     0.416 C 
ATOM     23  F   UNL A   1      33.351  16.813  23.616  1.00  0.00    -0.166 F 
ATOM     24  F   UNL A   1      33.662  16.879  25.761  1.00  0.00    -0.166 F 
ATOM     25  F   UNL A   1      31.759  17.523  24.913  1.00  0.00    -0.166 F 
ENDBRANCH  15  22
ENDBRANCH   6   8
ENDBRANCH   5   6
ENDBRANCH   4   5
ENDBRANCH   3   4
ENDBRANCH   2   3
ENDBRANCH   1   2
BRANCH   1  26
ATOM     26  C   UNL A   1      31.849  30.413  26.494  1.00  0.00     0.261 C 
BRANCH  26  27
ATOM     27  O   UNL A   1      33.240  30.675  26.437  1.00  0.00    -0.460 OA
BRANCH  27  28
ATOM     28  C   UNL A   1      33.646  31.576  27.357  1.00  0.00     0.338 C 
ATOM     29  O   UNL A   1      33.050  32.565  27.747  1.00  0.00    -0.246 OA
BRANCH  28  30
ATOM     30  C   UNL A   1      34.976  31.177  27.838  1.00  0.00     0.060 A 
ATOM     31  C   UNL A   1      35.228  29.807  27.948  1.00  0.00     0.016 A 
ATOM     32  C   UNL A   1      35.962  32.124  28.154  1.00  0.00     0.016 A 
ATOM     33  C   UNL A   1      36.478  29.375  28.360  1.00  0.00     0.010 A 
ATOM     34  C   UNL A   1      37.207  31.693  28.591  1.00  0.00     0.010 A 
ATOM     35  C   UNL A   1      37.451  30.318  28.713  1.00  0.00    -0.014 A 
BRANCH  35  36
ATOM     36  C   UNL A   1      38.631  29.843  29.445  1.00  0.00     0.031 A 
ATOM     37  C   UNL A   1      38.780  30.289  30.865  1.00  0.00     0.074 A 
ATOM     38  C   UNL A   1      39.494  28.992  28.870  1.00  0.00     0.049 A 
ATOM     39  N   UNL A   1      39.669  29.939  31.749  1.00  0.00    -0.248 NA
ATOM     40  C   UNL A   1      37.779  31.254  31.358  1.00  0.00     0.031 C 
ATOM     41  C   UNL A   1      39.404  28.490  27.499  1.00  0.00     0.029 A 
ATOM     42  N   UNL A   1      40.618  28.402  29.378  1.00  0.00    -0.354 N 
ATOM     43  C   UNL A   1      39.346  30.645  32.899  1.00  0.00     0.074 A 
ATOM     44  C   UNL A   1      38.190  31.457  32.599  1.00  0.00     0.031 C 
ATOM     45  C   UNL A   1      40.444  27.668  27.271  1.00  0.00     0.029 A 
ATOM     46  C   UNL A   1      41.278  27.611  28.470  1.00  0.00     0.049 A 
ATOM     47  H   UNL A   1      40.926  28.534  30.303  1.00  0.00     0.167 HD
ATOM     48  C   UNL A   1      39.961  30.612  34.101  1.00  0.00     0.034 A 
ATOM     49  C   UNL A   1      42.434  26.935  28.604  1.00  0.00     0.034 A 
ATOM     50  C   UNL A   1      41.131  29.826  34.367  1.00  0.00     0.049 A 
ATOM     51  C   UNL A   1      43.139  26.975  29.936  1.00  0.00     0.074 A 
ATOM     52  C   UNL A   1      41.837  29.706  35.548  1.00  0.00     0.029 A 
ATOM     53  N   UNL A   1      41.791  29.053  33.421  1.00  0.00    -0.354 N 
ATOM     54  N   UNL A   1      42.774  27.568  31.048  1.00  0.00    -0.248 NA
ATOM     55  C   UNL A   1      44.398  26.227  30.040  1.00  0.00     0.031 C 
ATOM     56  C   UNL A   1      42.960  28.912  35.299  1.00  0.00     0.029 A 
ATOM     57  C   UNL A   1      42.912  28.474  33.984  1.00  0.00     0.049 A 
ATOM     58  H   UNL A   1      41.501  28.935  32.487  1.00  0.00     0.167 HD
ATOM     59  C   UNL A   1      43.732  27.226  31.996  1.00  0.00     0.074 A 
ATOM     60  C   UNL A   1      44.684  26.362  31.327  1.00  0.00     0.031 C 
ATOM     61  C   UNL A   1      43.822  27.590  33.300  1.00  0.00     0.034 A 
BRANCH  48  62
ATOM     62  C   UNL A   1      39.397  31.487  35.187  1.00  0.00     0.023 A 
ATOM     63  C   UNL A   1      38.419  30.985  36.072  1.00  0.00     0.012 A 
ATOM     64  C   UNL A   1      39.838  32.815  35.325  1.00  0.00     0.148 A 
ATOM     65  C   UNL A   1      37.859  31.808  37.049  1.00  0.00     0.002 A 
ATOM     66  C   UNL A   1      39.316  33.612  36.334  1.00  0.00     0.091 A 
ATOM     67  F   UNL A   1      40.744  33.280  34.453  1.00  0.00    -0.205 F 
ATOM     68  C   UNL A   1      38.315  33.116  37.185  1.00  0.00     0.022 A 
BRANCH  66  69
ATOM     69  S   UNL A   1      39.893  35.283  36.637  1.00  0.00     0.127 S 
ATOM     70  O   UNL A   1      39.286  35.572  37.937  1.00  0.00    -0.237 OA
ATOM     71  O   UNL A   1      41.344  35.102  36.667  1.00  0.00    -0.237 OA
ATOM     72  O   UNL A   1      39.401  36.090  35.530  1.00  0.00    -0.744 OA
ENDBRANCH  66  69
ENDBRANCH  48  62
BRANCH  49  73
ATOM     73  C   UNL A   1      42.988  26.152  27.464  1.00  0.00     0.023 A 
ATOM     74  C   UNL A   1      43.921  26.747  26.592  1.00  0.00     0.012 A 
ATOM     75  C   UNL A   1      42.581  24.825  27.234  1.00  0.00     0.148 A 
ATOM     76  C   UNL A   1      44.406  26.047  25.487  1.00  0.00     0.002 A 
ATOM     77  C   UNL A   1      43.109  24.114  26.164  1.00  0.00     0.091 A 
ATOM     78  F   UNL A   1      41.688  24.281  28.072  1.00  0.00    -0.205 F 
ATOM     79  C   UNL A   1      44.006  24.729  25.276  1.00  0.00     0.022 A 
BRANCH  77  80
ATOM     80  S   UNL A   1      42.738  22.381  25.879  1.00  0.00     0.127 S 
ATOM     81  O   UNL A   1      41.278  22.388  25.853  1.00  0.00    -0.237 OA
ATOM     82  O   UNL A   1      43.378  22.149  24.583  1.00  0.00    -0.237 OA
ATOM     83  O   UNL A   1      43.343  21.657  26.988  1.00  0.00    -0.744 OA
ENDBRANCH  77  80
ENDBRANCH  49  73
BRANCH  61  84
ATOM     84  C   UNL A   1      44.950  27.005  34.109  1.00  0.00     0.023 A 
ATOM     85  C   UNL A   1      46.209  27.636  34.146  1.00  0.00     0.012 A 
ATOM     86  C   UNL A   1      44.732  25.850  34.890  1.00  0.00     0.148 A 
ATOM     87  C   UNL A   1      47.246  27.099  34.909  1.00  0.00     0.002 A 
ATOM     88  C   UNL A   1      45.750  25.359  35.695  1.00  0.00     0.091 A 
ATOM     89  F   UNL A   1      43.531  25.258  34.831  1.00  0.00    -0.205 F 
ATOM     90  C   UNL A   1      47.013  25.970  35.691  1.00  0.00     0.022 A 
BRANCH  88  91
ATOM     91  S   UNL A   1      45.507  23.978  36.815  1.00  0.00     0.127 S 
ATOM     92  O   UNL A   1      46.869  23.738  37.290  1.00  0.00    -0.237 OA
ATOM     93  O   UNL A   1      44.603  24.547  37.814  1.00  0.00    -0.237 OA
ATOM     94  O   UNL A   1      44.930  22.905  36.016  1.00  0.00    -0.744 OA
ENDBRANCH  88  91
ENDBRANCH  61  84
ENDBRANCH  35  36
ENDBRANCH  28  30
ENDBRANCH  27  28
ENDBRANCH  26  27
ENDBRANCH   1  26
TORSDOF 19
ENDMDL
MODEL 2
REMARK VINA RESULT:     -12.1      1.419      7.567
REMARK SMILES O=C(OCCOCCOC(=O)c1ccc(-c2c3nc(c(-c4cccc(S(=O)(=O)[O-])c4F)c4ccc([nH]4)c(-c4cccc(S(=O)(=O)[O-])c4F)c4nc(c(-c5cccc(S(=O)(=O)[O-])c5F)c5ccc2[nH]5)C=C4)C=C3)cc1)C1=Cc2cc(C(F)(F)F)ccc2O[C@@H]1C(F)(F)F
REMARK SMILES IDX 7 1 6 2 5 3 4 4 3 5 2 6 1 7 75 8 76 9 88 10 77 11 87 12
REMARK SMILES IDX 78 13 86 14 79 15 85 16 84 17 89 18 90 19 91 20 92 21 80 22
REMARK SMILES IDX 81 23 82 24 83 25 8 26 9 27 10 28 11 29 12 30 13 31 74 32
REMARK SMILES IDX 14 33 73 34 15 35 16 36 17 37 67 38 18 39 72 40 66 41 68 42
REMARK SMILES IDX 19 43 71 44 65 45 64 46 20 48 52 49 32 50 51 51 33 52 36 53
REMARK SMILES IDX 50 54 69 55 34 56 35 57 49 59 70 60 37 61 21 62 22 63 30 64
REMARK SMILES IDX 23 65 25 66 31 67 24 68 26 69 27 70 28 71 29 72 53 73 54 74
REMARK SMILES IDX 62 75 55 76 57 77 63 78 56 79 58 80 59 81 60 82 61 83 38 84
REMARK SMILES IDX 39 85 47 86 40 87 42 88 48 89 41 90 43 91 44 92 45 93 46 94
REMARK H PARENT 68 47 36 58
REMARK Flexibility Score: inf
ROOT
ATOM      1  C   UNL A   1      31.259  29.639  25.436  1.00  0.00     0.202 C 
ENDROOT
BRANCH   1   2
ATOM      2  O   UNL A   1      30.666  29.724  24.126  1.00  0.00    -0.374 OA
BRANCH   2   3
ATOM      3  C   UNL A   1      30.260  28.608  23.019  1.00  0.00     0.202 C 
BRANCH   3   4
ATOM      4  C   UNL A   1      31.449  27.044  22.060  1.00  0.00     0.261 C 
BRANCH   4   5
ATOM      5  O   UNL A   1      31.435  25.545  22.413  1.00  0.00    -0.460 OA
BRANCH   5   6
ATOM      6  C   UNL A   1      32.661  25.042  22.580  1.00  0.00     0.338 C 
ATOM      7  O   UNL A   1      33.529  24.836  21.771  1.00  0.00    -0.246 OA
BRANCH   6   8
ATOM      8  C   UNL A   1      32.423  24.510  23.902  1.00  0.00     0.087 C 
ATOM      9  C   UNL A   1      32.028  23.086  23.852  1.00  0.00     0.027 C 
ATOM     10  C   UNL A   1      34.059  25.176  24.694  1.00  0.00     0.316 C 
ATOM     11  C   UNL A   1      33.122  21.730  24.325  1.00  0.00     0.018 A 
ATOM     12  O   UNL A   1      35.276  23.739  25.137  1.00  0.00    -0.475 OA
ATOM     13  C   UNL A   1      32.697  20.440  24.176  1.00  0.00     0.025 A 
ATOM     14  C   UNL A   1      34.745  22.010  24.865  1.00  0.00     0.128 A 
ATOM     15  C   UNL A   1      33.655  19.438  24.464  1.00  0.00     0.056 A 
ATOM     16  C   UNL A   1      35.654  21.004  24.974  1.00  0.00     0.048 A 
ATOM     17  C   UNL A   1      35.063  19.721  24.785  1.00  0.00     0.017 A 
BRANCH  10  18
ATOM     18  C   UNL A   1      33.389  26.312  25.594  1.00  0.00     0.430 C 
ATOM     19  F   UNL A   1      32.587  25.883  26.585  1.00  0.00    -0.167 F 
ATOM     20  F   UNL A   1      34.406  26.964  26.238  1.00  0.00    -0.167 F 
ATOM     21  F   UNL A   1      32.747  27.286  24.910  1.00  0.00    -0.167 F 
ENDBRANCH  10  18
BRANCH  15  22
ATOM     22  C   UNL A   1      33.137  18.003  24.451  1.00  0.00     0.416 C 
ATOM     23  F   UNL A   1      33.464  17.366  23.287  1.00  0.00    -0.166 F 
ATOM     24  F   UNL A   1      33.682  17.245  25.441  1.00  0.00    -0.166 F 
ATOM     25  F   UNL A   1      31.790  17.890  24.569  1.00  0.00    -0.166 F 
ENDBRANCH  15  22
ENDBRANCH   6   8
ENDBRANCH   5   6
ENDBRANCH   4   5
ENDBRANCH   3   4
ENDBRANCH   2   3
ENDBRANCH   1   2
BRANCH   1  26
ATOM     26  C   UNL A   1      31.687  30.942  26.101  1.00  0.00     0.261 C 
BRANCH  26  27
ATOM     27  O   UNL A   1      32.644  30.742  27.127  1.00  0.00    -0.460 OA
BRANCH  27  28
ATOM     28  C   UNL A   1      33.337  31.861  27.428  1.00  0.00     0.338 C 
ATOM     29  O   UNL A   1      32.993  33.019  27.264  1.00  0.00    -0.246 OA
BRANCH  28  30
ATOM     30  C   UNL A   1      34.629  31.464  28.004  1.00  0.00     0.060 A 
ATOM     31  C   UNL A   1      34.777  30.123  28.367  1.00  0.00     0.016 A 
ATOM     32  C   UNL A   1      35.679  32.380  28.164  1.00  0.00     0.016 A 
ATOM     33  C   UNL A   1      35.988  29.686  28.879  1.00  0.00     0.010 A 
ATOM     34  C   UNL A   1      36.885  31.948  28.700  1.00  0.00     0.010 A 
ATOM     35  C   UNL A   1      37.025  30.606  29.076  1.00  0.00    -0.014 A 
BRANCH  35  36
ATOM     36  C   UNL A   1      38.160  30.189  29.908  1.00  0.00     0.031 A 
ATOM     37  C   UNL A   1      39.117  29.203  29.316  1.00  0.00     0.074 A 
ATOM     38  C   UNL A   1      38.353  30.730  31.120  1.00  0.00     0.049 A 
ATOM     39  N   UNL A   1      40.238  28.752  29.798  1.00  0.00    -0.248 NA
ATOM     40  C   UNL A   1      38.764  28.662  27.989  1.00  0.00     0.031 C 
ATOM     41  C   UNL A   1      37.481  31.716  31.757  1.00  0.00     0.029 A 
ATOM     42  N   UNL A   1      39.352  30.519  32.029  1.00  0.00    -0.354 N 
ATOM     43  C   UNL A   1      40.722  27.867  28.845  1.00  0.00     0.074 A 
ATOM     44  C   UNL A   1      39.766  27.830  27.762  1.00  0.00     0.031 C 
ATOM     45  C   UNL A   1      37.983  32.020  32.967  1.00  0.00     0.029 A 
ATOM     46  C   UNL A   1      39.193  31.231  33.192  1.00  0.00     0.049 A 
ATOM     47  H   UNL A   1      40.111  29.914  31.867  1.00  0.00     0.167 HD
ATOM     48  C   UNL A   1      41.868  27.152  28.872  1.00  0.00     0.034 A 
ATOM     49  C   UNL A   1      39.942  31.224  34.311  1.00  0.00     0.034 A 
ATOM     50  C   UNL A   1      42.785  27.176  29.975  1.00  0.00     0.049 A 
ATOM     51  C   UNL A   1      41.177  30.360  34.341  1.00  0.00     0.074 A 
ATOM     52  C   UNL A   1      43.982  26.500  30.113  1.00  0.00     0.029 A 
ATOM     53  N   UNL A   1      42.585  27.888  31.149  1.00  0.00    -0.354 N 
ATOM     54  N   UNL A   1      41.680  29.599  33.398  1.00  0.00    -0.248 NA
ATOM     55  C   UNL A   1      41.964  30.378  35.580  1.00  0.00     0.031 C 
ATOM     56  C   UNL A   1      44.474  26.754  31.396  1.00  0.00     0.029 A 
ATOM     57  C   UNL A   1      43.623  27.648  32.029  1.00  0.00     0.049 A 
ATOM     58  H   UNL A   1      41.817  28.478  31.328  1.00  0.00     0.167 HD
ATOM     59  C   UNL A   1      42.866  29.087  33.910  1.00  0.00     0.074 A 
ATOM     60  C   UNL A   1      43.011  29.636  35.243  1.00  0.00     0.031 C 
ATOM     61  C   UNL A   1      43.757  28.239  33.338  1.00  0.00     0.034 A 
BRANCH  48  62
ATOM     62  C   UNL A   1      42.151  26.261  27.694  1.00  0.00     0.023 A 
ATOM     63  C   UNL A   1      42.838  26.762  26.569  1.00  0.00     0.012 A 
ATOM     64  C   UNL A   1      41.730  24.919  27.707  1.00  0.00     0.148 A 
ATOM     65  C   UNL A   1      43.059  25.952  25.456  1.00  0.00     0.002 A 
ATOM     66  C   UNL A   1      42.001  24.103  26.617  1.00  0.00     0.091 A 
ATOM     67  F   UNL A   1      41.051  24.473  28.773  1.00  0.00    -0.205 F 
ATOM     68  C   UNL A   1      42.651  24.622  25.485  1.00  0.00     0.022 A 
BRANCH  66  69
ATOM     69  S   UNL A   1      41.583  22.359  26.592  1.00  0.00     0.127 S 
ATOM     70  O   UNL A   1      42.202  21.926  25.340  1.00  0.00    -0.237 OA
ATOM     71  O   UNL A   1      42.245  21.871  27.802  1.00  0.00    -0.237 OA
ATOM     72  O   UNL A   1      40.130  22.290  26.622  1.00  0.00    -0.744 OA
ENDBRANCH  66  69
ENDBRANCH  48  62
BRANCH  49  73
ATOM     73  C   UNL A   1      39.564  32.067  35.479  1.00  0.00     0.023 A 
ATOM     74  C   UNL A   1      40.080  33.371  35.599  1.00  0.00     0.012 A 
ATOM     75  C   UNL A   1      38.704  31.573  36.478  1.00  0.00     0.148 A 
ATOM     76  C   UNL A   1      39.782  34.153  36.716  1.00  0.00     0.002 A 
ATOM     77  C   UNL A   1      38.366  32.376  37.559  1.00  0.00     0.091 A 
ATOM     78  F   UNL A   1      38.229  30.327  36.346  1.00  0.00    -0.205 F 
ATOM     79  C   UNL A   1      38.920  33.659  37.692  1.00  0.00     0.022 A 
BRANCH  77  80
ATOM     80  S   UNL A   1      37.179  31.866  38.806  1.00  0.00     0.127 S 
ATOM     81  O   UNL A   1      36.025  32.700  38.481  1.00  0.00    -0.237 OA
ATOM     82  O   UNL A   1      37.020  30.444  38.501  1.00  0.00    -0.237 OA
ATOM     83  O   UNL A   1      37.810  32.140  40.090  1.00  0.00    -0.744 OA
ENDBRANCH  77  80
ENDBRANCH  49  73
BRANCH  61  84
ATOM     84  C   UNL A   1      45.000  27.903  34.120  1.00  0.00     0.023 A 
ATOM     85  C   UNL A   1      46.139  28.729  34.045  1.00  0.00     0.012 A 
ATOM     86  C   UNL A   1      45.008  26.790  34.985  1.00  0.00     0.148 A 
ATOM     87  C   UNL A   1      47.282  28.423  34.783  1.00  0.00     0.002 A 
ATOM     88  C   UNL A   1      46.127  26.529  35.764  1.00  0.00     0.091 A 
ATOM     89  F   UNL A   1      43.918  26.010  35.032  1.00  0.00    -0.205 F 
ATOM     90  C   UNL A   1      47.272  27.332  35.650  1.00  0.00     0.022 A 
BRANCH  88  91
ATOM     91  S   UNL A   1      46.163  25.213  36.984  1.00  0.00     0.127 S 
ATOM     92  O   UNL A   1      44.758  24.812  37.030  1.00  0.00    -0.237 OA
ATOM     93  O   UNL A   1      47.056  24.238  36.358  1.00  0.00    -0.237 OA
ATOM     94  O   UNL A   1      46.679  25.810  38.208  1.00  0.00    -0.744 OA
ENDBRANCH  88  91
ENDBRANCH  61  84
ENDBRANCH  35  36
ENDBRANCH  28  30
ENDBRANCH  27  28
ENDBRANCH  26  27
ENDBRANCH   1  26
TORSDOF 19
ENDMDL
MODEL 3
REMARK VINA RESULT:     -12.0      4.507      9.458
REMARK SMILES O=C(OCCOCCOC(=O)c1ccc(-c2c3nc(c(-c4cccc(S(=O)(=O)[O-])c4F)c4ccc([nH]4)c(-c4cccc(S(=O)(=O)[O-])c4F)c4nc(c(-c5cccc(S(=O)(=O)[O-])c5F)c5ccc2[nH]5)C=C4)C=C3)cc1)C1=Cc2cc(C(F)(F)F)ccc2O[C@@H]1C(F)(F)F
REMARK SMILES IDX 7 1 6 2 5 3 4 4 3 5 2 6 1 7 75 8 76 9 88 10 77 11 87 12
REMARK SMILES IDX 78 13 86 14 79 15 85 16 84 17 89 18 90 19 91 20 92 21 80 22
REMARK SMILES IDX 81 23 82 24 83 25 8 26 9 27 10 28 11 29 12 30 13 31 74 32
REMARK SMILES IDX 14 33 73 34 15 35 16 36 17 37 67 38 18 39 72 40 66 41 68 42
REMARK SMILES IDX 19 43 71 44 65 45 64 46 20 48 52 49 32 50 51 51 33 52 36 53
REMARK SMILES IDX 50 54 69 55 34 56 35 57 49 59 70 60 37 61 21 62 22 63 30 64
REMARK SMILES IDX 23 65 25 66 31 67 24 68 26 69 27 70 28 71 29 72 53 73 54 74
REMARK SMILES IDX 62 75 55 76 57 77 63 78 56 79 58 80 59 81 60 82 61 83 38 84
REMARK SMILES IDX 39 85 47 86 40 87 42 88 48 89 41 90 43 91 44 92 45 93 46 94
REMARK H PARENT 68 47 36 58
REMARK Flexibility Score: inf
ROOT
ATOM      1  C   UNL A   1      36.469  20.316  24.940  1.00  0.00     0.202 C 
ENDROOT
BRANCH   1   2
ATOM      2  O   UNL A   1      35.950  21.435  25.685  1.00  0.00    -0.374 OA
BRANCH   2   3
ATOM      3  C   UNL A   1      36.127  23.042  25.535  1.00  0.00     0.202 C 
BRANCH   3   4
ATOM      4  C   UNL A   1      35.332  24.438  24.053  1.00  0.00     0.261 C 
BRANCH   4   5
ATOM      5  O   UNL A   1      34.103  24.207  23.153  1.00  0.00    -0.460 OA
BRANCH   5   6
ATOM      6  C   UNL A   1      33.305  25.276  23.084  1.00  0.00     0.338 C 
ATOM      7  O   UNL A   1      33.580  26.449  23.112  1.00  0.00    -0.246 OA
BRANCH   6   8
ATOM      8  C   UNL A   1      32.078  24.562  23.350  1.00  0.00     0.087 C 
ATOM      9  C   UNL A   1      32.136  23.174  22.846  1.00  0.00     0.027 C 
ATOM     10  C   UNL A   1      31.952  25.055  25.218  1.00  0.00     0.316 C 
ATOM     11  C   UNL A   1      32.322  21.730  23.914  1.00  0.00     0.018 A 
ATOM     12  O   UNL A   1      32.225  23.532  26.380  1.00  0.00    -0.475 OA
ATOM     13  C   UNL A   1      32.441  20.490  23.355  1.00  0.00     0.025 A 
ATOM     14  C   UNL A   1      32.465  21.879  25.636  1.00  0.00     0.128 A 
ATOM     15  C   UNL A   1      32.696  19.428  24.256  1.00  0.00     0.056 A 
ATOM     16  C   UNL A   1      32.862  20.842  26.420  1.00  0.00     0.048 A 
ATOM     17  C   UNL A   1      32.948  19.619  25.693  1.00  0.00     0.017 A 
BRANCH  10  18
ATOM     18  C   UNL A   1      30.724  26.066  25.068  1.00  0.00     0.430 C 
ATOM     19  F   UNL A   1      29.640  25.587  24.431  1.00  0.00    -0.167 F 
ATOM     20  F   UNL A   1      30.279  26.345  26.332  1.00  0.00    -0.167 F 
ATOM     21  F   UNL A   1      31.033  27.275  24.547  1.00  0.00    -0.167 F 
ENDBRANCH  10  18
BRANCH  15  22
ATOM     22  C   UNL A   1      32.671  18.027  23.653  1.00  0.00     0.416 C 
ATOM     23  F   UNL A   1      32.030  17.142  24.473  1.00  0.00    -0.166 F 
ATOM     24  F   UNL A   1      31.991  17.982  22.474  1.00  0.00    -0.166 F 
ATOM     25  F   UNL A   1      33.896  17.494  23.416  1.00  0.00    -0.166 F 
ENDBRANCH  15  22
ENDBRANCH   6   8
ENDBRANCH   5   6
ENDBRANCH   4   5
ENDBRANCH   3   4
ENDBRANCH   2   3
ENDBRANCH   1   2
BRANCH   1  26
ATOM     26  C   UNL A   1      37.945  19.979  25.113  1.00  0.00     0.261 C 
BRANCH  26  27
ATOM     27  O   UNL A   1      38.744  21.127  25.339  1.00  0.00    -0.460 OA
BRANCH  27  28
ATOM     28  C   UNL A   1      39.742  20.910  26.222  1.00  0.00     0.338 C 
ATOM     29  O   UNL A   1      40.236  19.843  26.543  1.00  0.00    -0.246 OA
BRANCH  28  30
ATOM     30  C   UNL A   1      40.163  22.206  26.771  1.00  0.00     0.060 A 
ATOM     31  C   UNL A   1      39.519  23.345  26.278  1.00  0.00     0.016 A 
ATOM     32  C   UNL A   1      41.151  22.303  27.763  1.00  0.00     0.016 A 
ATOM     33  C   UNL A   1      39.850  24.589  26.788  1.00  0.00     0.010 A 
ATOM     34  C   UNL A   1      41.500  23.553  28.257  1.00  0.00     0.010 A 
ATOM     35  C   UNL A   1      40.862  24.693  27.750  1.00  0.00    -0.014 A 
BRANCH  35  36
ATOM     36  C   UNL A   1      41.409  26.026  28.027  1.00  0.00     0.031 A 
ATOM     37  C   UNL A   1      42.777  26.327  27.501  1.00  0.00     0.074 A 
ATOM     38  C   UNL A   1      40.674  26.946  28.670  1.00  0.00     0.049 A 
ATOM     39  N   UNL A   1      43.441  27.447  27.525  1.00  0.00    -0.248 NA
ATOM     40  C   UNL A   1      43.488  25.213  26.845  1.00  0.00     0.031 C 
ATOM     41  C   UNL A   1      39.324  26.738  29.192  1.00  0.00     0.029 A 
ATOM     42  N   UNL A   1      40.970  28.242  28.990  1.00  0.00    -0.354 N 
ATOM     43  C   UNL A   1      44.649  27.174  26.900  1.00  0.00     0.074 A 
ATOM     44  C   UNL A   1      44.638  25.781  26.522  1.00  0.00     0.031 C 
ATOM     45  C   UNL A   1      38.908  27.874  29.779  1.00  0.00     0.029 A 
ATOM     46  C   UNL A   1      39.973  28.872  29.694  1.00  0.00     0.049 A 
ATOM     47  H   UNL A   1      41.815  28.680  28.743  1.00  0.00     0.167 HD
ATOM     48  C   UNL A   1      45.676  28.019  26.661  1.00  0.00     0.034 A 
ATOM     49  C   UNL A   1      39.945  30.112  30.217  1.00  0.00     0.034 A 
ATOM     50  C   UNL A   1      45.681  29.392  27.079  1.00  0.00     0.049 A 
ATOM     51  C   UNL A   1      41.137  31.009  29.997  1.00  0.00     0.074 A 
ATOM     52  C   UNL A   1      46.662  30.345  26.886  1.00  0.00     0.029 A 
ATOM     53  N   UNL A   1      44.668  29.995  27.810  1.00  0.00    -0.354 N 
ATOM     54  N   UNL A   1      42.237  30.775  29.321  1.00  0.00    -0.248 NA
ATOM     55  C   UNL A   1      41.069  32.353  30.586  1.00  0.00     0.031 C 
ATOM     56  C   UNL A   1      46.269  31.507  27.556  1.00  0.00     0.029 A 
ATOM     57  C   UNL A   1      45.010  31.302  28.101  1.00  0.00     0.049 A 
ATOM     58  H   UNL A   1      43.829  29.556  28.081  1.00  0.00     0.167 HD
ATOM     59  C   UNL A   1      42.970  31.956  29.362  1.00  0.00     0.074 A 
ATOM     60  C   UNL A   1      42.179  32.906  30.119  1.00  0.00     0.031 C 
ATOM     61  C   UNL A   1      44.185  32.235  28.827  1.00  0.00     0.034 A 
BRANCH  48  62
ATOM     62  C   UNL A   1      46.881  27.456  25.958  1.00  0.00     0.023 A 
ATOM     63  C   UNL A   1      47.001  27.556  24.556  1.00  0.00     0.012 A 
ATOM     64  C   UNL A   1      47.896  26.821  26.696  1.00  0.00     0.148 A 
ATOM     65  C   UNL A   1      48.093  26.993  23.897  1.00  0.00     0.002 A 
ATOM     66  C   UNL A   1      49.006  26.310  26.039  1.00  0.00     0.091 A 
ATOM     67  F   UNL A   1      47.745  26.708  28.023  1.00  0.00    -0.205 F 
ATOM     68  C   UNL A   1      49.099  26.380  24.639  1.00  0.00     0.022 A 
BRANCH  66  69
ATOM     69  S   UNL A   1      50.388  25.571  26.913  1.00  0.00     0.127 S 
ATOM     70  O   UNL A   1      50.791  26.662  27.800  1.00  0.00    -0.237 OA
ATOM     71  O   UNL A   1      49.750  24.440  27.586  1.00  0.00    -0.237 OA
ATOM     72  O   UNL A   1      51.363  25.205  25.896  1.00  0.00    -0.744 OA
ENDBRANCH  66  69
ENDBRANCH  48  62
BRANCH  49  73
ATOM     73  C   UNL A   1      38.755  30.586  30.976  1.00  0.00     0.023 A 
ATOM     74  C   UNL A   1      38.684  30.380  32.368  1.00  0.00     0.012 A 
ATOM     75  C   UNL A   1      37.687  31.226  30.320  1.00  0.00     0.148 A 
ATOM     76  C   UNL A   1      37.551  30.766  33.085  1.00  0.00     0.002 A 
ATOM     77  C   UNL A   1      36.587  31.658  31.048  1.00  0.00     0.091 A 
ATOM     78  F   UNL A   1      37.774  31.406  28.995  1.00  0.00    -0.205 F 
ATOM     79  C   UNL A   1      36.506  31.411  32.427  1.00  0.00     0.022 A 
BRANCH  77  80
ATOM     80  S   UNL A   1      35.245  32.594  30.307  1.00  0.00     0.127 S 
ATOM     81  O   UNL A   1      34.323  32.737  31.430  1.00  0.00    -0.237 OA
ATOM     82  O   UNL A   1      35.928  33.824  29.905  1.00  0.00    -0.237 OA
ATOM     83  O   UNL A   1      34.762  31.783  29.197  1.00  0.00    -0.744 OA
ENDBRANCH  77  80
ENDBRANCH  49  73
BRANCH  61  84
ATOM     84  C   UNL A   1      44.708  33.639  28.982  1.00  0.00     0.023 A 
ATOM     85  C   UNL A   1      44.399  34.628  28.028  1.00  0.00     0.012 A 
ATOM     86  C   UNL A   1      45.460  33.988  30.123  1.00  0.00     0.148 A 
ATOM     87  C   UNL A   1      44.873  35.931  28.183  1.00  0.00     0.002 A 
ATOM     88  C   UNL A   1      45.873  35.301  30.301  1.00  0.00     0.091 A 
ATOM     89  F   UNL A   1      45.753  33.030  31.013  1.00  0.00    -0.205 F 
ATOM     90  C   UNL A   1      45.597  36.270  29.323  1.00  0.00     0.022 A 
BRANCH  88  91
ATOM     91  S   UNL A   1      46.716  35.850  31.788  1.00  0.00     0.127 S 
ATOM     92  O   UNL A   1      47.740  36.737  31.238  1.00  0.00    -0.237 OA
ATOM     93  O   UNL A   1      45.645  36.531  32.515  1.00  0.00    -0.237 OA
ATOM     94  O   UNL A   1      47.219  34.646  32.436  1.00  0.00    -0.744 OA
ENDBRANCH  88  91
ENDBRANCH  61  84
ENDBRANCH  35  36
ENDBRANCH  28  30
ENDBRANCH  27  28
ENDBRANCH  26  27
ENDBRANCH   1  26
TORSDOF 19
ENDMDL
