MODEL 1
REMARK VINA RESULT:     -11.4      0.000      0.000
REMARK SMILES C[C@H](O)[C@H](C)[N@H+]1Cc2ccccc2C[C@@H]1C(=O)OCCOCCOC(=O)c1ccc(-c2c3nc(c(-c4cccc(S(=O)(=O)[O-])c4F)c4ccc([nH]4)c(-c4cccc(S(=O)(=O)[O-])c4F)c4nc(c(-c5cccc(S(=O)(=O)[O-])c5F)c5ccc2[nH]5)C=C4)C=C3)cc1
REMARK SMILES IDX 21 1 20 2 19 3 18 4 16 5 17 6 15 7 6 8 7 9 8 11 14 12 9 13
REMARK SMILES IDX 13 14 10 15 12 16 11 17 4 18 5 19 2 20 1 21 3 22 22 24 23 25
REMARK SMILES IDX 24 26 25 27 26 28 27 29 28 30 89 31 29 32 88 33 30 34 31 35
REMARK SMILES IDX 32 36 82 37 33 38 87 39 81 40 83 41 34 42 86 43 80 44 79 45
REMARK SMILES IDX 35 47 67 48 47 49 66 50 48 51 51 52 65 53 84 54 49 55 50 56
REMARK SMILES IDX 64 58 85 59 52 60 36 61 37 62 45 63 38 64 40 65 46 66 39 67
REMARK SMILES IDX 41 68 42 69 43 70 44 71 68 72 69 73 77 74 70 75 72 76 78 77
REMARK SMILES IDX 71 78 73 79 74 80 75 81 76 82 53 83 54 84 62 85 55 86 57 87
REMARK SMILES IDX 63 88 56 89 58 90 59 91 60 92 61 93
REMARK H PARENT 6 10 3 23 83 46 51 57
REMARK Flexibility Score: inf
ROOT
ATOM      1  O   UNL A   1      31.839  29.970  27.341  1.00  0.00    -0.374 OA
ENDROOT
BRANCH   1   2
ATOM      2  C   UNL A   1      32.740  28.892  27.082  1.00  0.00     0.202 C 
BRANCH   2   3
ATOM      3  C   UNL A   1      32.149  27.479  26.981  1.00  0.00     0.261 C 
BRANCH   3   4
ATOM      4  O   UNL A   1      30.935  27.417  26.198  1.00  0.00    -0.459 OA
BRANCH   4   5
ATOM      5  C   UNL A   1      30.561  26.169  25.800  1.00  0.00     0.365 C 
ATOM      6  O   UNL A   1      30.195  25.290  26.581  1.00  0.00    -0.245 OA
BRANCH   5   7
ATOM      7  C   UNL A   1      30.593  25.900  24.277  1.00  0.00     0.300 C 
ATOM      8  N   UNL A   1      31.686  26.542  23.523  1.00  0.00    -0.315 N 
ATOM      9  C   UNL A   1      31.406  27.702  22.685  1.00  0.00     0.300 C 
ATOM     10  H   UNL A   1      31.957  26.976  24.406  1.00  0.00     0.349 HD
ATOM     11  C   UNL A   1      30.035  28.315  22.773  1.00  0.00     0.010 A 
ATOM     12  C   UNL A   1      29.182  26.172  23.718  1.00  0.00     0.113 C 
ATOM     13  C   UNL A   1      29.809  29.586  22.220  1.00  0.00     0.010 A 
ATOM     14  C   UNL A   1      28.960  27.597  23.298  1.00  0.00    -0.033 A 
ATOM     15  C   UNL A   1      28.545  30.169  22.274  1.00  0.00     0.001 A 
ATOM     16  C   UNL A   1      27.689  28.183  23.347  1.00  0.00     0.004 A 
ATOM     17  C   UNL A   1      27.489  29.473  22.853  1.00  0.00     0.000 A 
BRANCH   8  18
ATOM     18  C   UNL A   1      32.958  25.829  23.253  1.00  0.00     0.210 C 
ATOM     19  C   UNL A   1      34.042  26.033  24.333  1.00  0.00     0.078 C 
BRANCH  18  20
ATOM     20  C   UNL A   1      32.840  24.275  23.016  1.00  0.00     0.169 C 
ATOM     21  C   UNL A   1      34.099  23.454  23.299  1.00  0.00     0.045 C 
BRANCH  20  22
ATOM     22  O   UNL A   1      32.392  24.000  21.683  1.00  0.00    -0.387 OA
ATOM     23  H   UNL A   1      33.055  24.315  21.048  1.00  0.00     0.211 HD
ENDBRANCH  20  22
ENDBRANCH  18  20
ENDBRANCH   8  18
ENDBRANCH   5   7
ENDBRANCH   4   5
ENDBRANCH   3   4
ENDBRANCH   2   3
ENDBRANCH   1   2
BRANCH   1  24
ATOM     24  C   UNL A   1      31.841  31.042  26.401  1.00  0.00     0.202 C 
BRANCH  24  25
ATOM     25  C   UNL A   1      31.782  32.468  26.955  1.00  0.00     0.261 C 
BRANCH  25  26
ATOM     26  O   UNL A   1      33.016  33.174  26.830  1.00  0.00    -0.460 OA
BRANCH  26  27
ATOM     27  C   UNL A   1      33.494  33.642  28.002  1.00  0.00     0.338 C 
ATOM     28  O   UNL A   1      32.957  34.428  28.772  1.00  0.00    -0.246 OA
BRANCH  27  29
ATOM     29  C   UNL A   1      34.730  32.927  28.329  1.00  0.00     0.060 A 
ATOM     30  C   UNL A   1      34.608  31.591  28.727  1.00  0.00     0.016 A 
ATOM     31  C   UNL A   1      35.974  33.562  28.286  1.00  0.00     0.016 A 
ATOM     32  C   UNL A   1      35.731  30.901  29.156  1.00  0.00     0.010 A 
ATOM     33  C   UNL A   1      37.100  32.866  28.718  1.00  0.00     0.010 A 
ATOM     34  C   UNL A   1      36.970  31.550  29.197  1.00  0.00    -0.014 A 
BRANCH  34  35
ATOM     35  C   UNL A   1      38.096  30.899  29.895  1.00  0.00     0.031 A 
ATOM     36  C   UNL A   1      38.373  31.278  31.321  1.00  0.00     0.074 A 
ATOM     37  C   UNL A   1      38.833  29.971  29.263  1.00  0.00     0.049 A 
ATOM     38  N   UNL A   1      39.298  30.834  32.128  1.00  0.00    -0.248 NA
ATOM     39  C   UNL A   1      37.493  32.298  31.917  1.00  0.00     0.031 C 
ATOM     40  C   UNL A   1      38.633  29.533  27.882  1.00  0.00     0.029 A 
ATOM     41  N   UNL A   1      39.907  29.242  29.698  1.00  0.00    -0.354 N 
ATOM     42  C   UNL A   1      39.130  31.536  33.315  1.00  0.00     0.074 A 
ATOM     43  C   UNL A   1      38.028  32.450  33.119  1.00  0.00     0.031 C 
ATOM     44  C   UNL A   1      39.568  28.618  27.577  1.00  0.00     0.029 A 
ATOM     45  C   UNL A   1      40.445  28.430  28.730  1.00  0.00     0.049 A 
ATOM     46  H   UNL A   1      40.259  29.294  30.616  1.00  0.00     0.167 HD
ATOM     47  C   UNL A   1      39.824  31.416  34.471  1.00  0.00     0.034 A 
ATOM     48  C   UNL A   1      41.534  27.640  28.773  1.00  0.00     0.034 A 
ATOM     49  C   UNL A   1      40.908  30.490  34.652  1.00  0.00     0.049 A 
ATOM     50  C   UNL A   1      42.310  27.550  30.060  1.00  0.00     0.074 A 
ATOM     51  C   UNL A   1      41.651  30.246  35.792  1.00  0.00     0.029 A 
ATOM     52  N   UNL A   1      41.414  29.666  33.658  1.00  0.00    -0.354 N 
ATOM     53  N   UNL A   1      42.069  28.131  31.212  1.00  0.00    -0.248 NA
ATOM     54  C   UNL A   1      43.489  26.674  30.063  1.00  0.00     0.031 C 
ATOM     55  C   UNL A   1      42.633  29.301  35.475  1.00  0.00     0.029 A 
ATOM     56  C   UNL A   1      42.476  28.928  34.149  1.00  0.00     0.049 A 
ATOM     57  H   UNL A   1      41.070  29.614  32.738  1.00  0.00     0.167 HD
ATOM     58  C   UNL A   1      43.045  27.664  32.086  1.00  0.00     0.074 A 
ATOM     59  C   UNL A   1      43.867  26.738  31.334  1.00  0.00     0.031 C 
ATOM     60  C   UNL A   1      43.251  27.979  33.390  1.00  0.00     0.034 A 
BRANCH  47  61
ATOM     61  C   UNL A   1      39.421  32.298  35.623  1.00  0.00     0.023 A 
ATOM     62  C   UNL A   1      38.504  31.826  36.584  1.00  0.00     0.012 A 
ATOM     63  C   UNL A   1      39.976  33.584  35.773  1.00  0.00     0.148 A 
ATOM     64  C   UNL A   1      38.115  32.633  37.653  1.00  0.00     0.002 A 
ATOM     65  C   UNL A   1      39.619  34.365  36.866  1.00  0.00     0.091 A 
ATOM     66  F   UNL A   1      40.826  34.027  34.837  1.00  0.00    -0.205 F 
ATOM     67  C   UNL A   1      38.680  33.897  37.799  1.00  0.00     0.022 A 
BRANCH  65  68
ATOM     68  S   UNL A   1      40.348  35.975  37.184  1.00  0.00     0.127 S 
ATOM     69  O   UNL A   1      39.783  36.774  36.096  1.00  0.00    -0.237 OA
ATOM     70  O   UNL A   1      39.820  36.295  38.511  1.00  0.00    -0.237 OA
ATOM     71  O   UNL A   1      41.790  35.782  37.133  1.00  0.00    -0.744 OA
ENDBRANCH  65  68
ENDBRANCH  47  61
BRANCH  48  72
ATOM     72  C   UNL A   1      41.929  26.851  27.574  1.00  0.00     0.023 A 
ATOM     73  C   UNL A   1      42.570  27.494  26.498  1.00  0.00     0.012 A 
ATOM     74  C   UNL A   1      41.698  25.462  27.505  1.00  0.00     0.148 A 
ATOM     75  C   UNL A   1      42.948  26.776  25.363  1.00  0.00     0.002 A 
ATOM     76  C   UNL A   1      42.126  24.743  26.395  1.00  0.00     0.091 A 
ATOM     77  F   UNL A   1      41.076  24.871  28.534  1.00  0.00    -0.205 F 
ATOM     78  C   UNL A   1      42.735  25.400  25.315  1.00  0.00     0.022 A 
BRANCH  76  79
ATOM     79  S   UNL A   1      42.009  22.953  26.304  1.00  0.00     0.127 S 
ATOM     80  O   UNL A   1      42.716  22.545  27.516  1.00  0.00    -0.237 OA
ATOM     81  O   UNL A   1      40.562  22.743  26.333  1.00  0.00    -0.237 OA
ATOM     82  O   UNL A   1      42.645  22.580  25.047  1.00  0.00    -0.744 OA
ENDBRANCH  76  79
ENDBRANCH  48  72
BRANCH  60  83
ATOM     83  C   UNL A   1      44.390  27.295  34.099  1.00  0.00     0.023 A 
ATOM     84  C   UNL A   1      45.656  27.909  34.149  1.00  0.00     0.012 A 
ATOM     85  C   UNL A   1      44.179  26.082  34.784  1.00  0.00     0.148 A 
ATOM     86  C   UNL A   1      46.705  27.311  34.845  1.00  0.00     0.002 A 
ATOM     87  C   UNL A   1      45.214  25.519  35.519  1.00  0.00     0.091 A 
ATOM     88  F   UNL A   1      42.970  25.507  34.709  1.00  0.00    -0.205 F 
ATOM     89  C   UNL A   1      46.481  26.124  35.539  1.00  0.00     0.022 A 
BRANCH  87  90
ATOM     90  S   UNL A   1      44.993  24.049  36.527  1.00  0.00     0.127 S 
ATOM     91  O   UNL A   1      46.375  23.622  36.739  1.00  0.00    -0.237 OA
ATOM     92  O   UNL A   1      44.330  24.587  37.715  1.00  0.00    -0.237 OA
ATOM     93  O   UNL A   1      44.175  23.138  35.738  1.00  0.00    -0.744 OA
ENDBRANCH  87  90
ENDBRANCH  60  83
ENDBRANCH  34  35
ENDBRANCH  27  29
ENDBRANCH  26  27
ENDBRANCH  25  26
ENDBRANCH  24  25
ENDBRANCH   1  24
TORSDOF 20
ENDMDL
MODEL 2
REMARK VINA RESULT:     -11.1      4.918      7.820
REMARK SMILES C[C@H](O)[C@H](C)[N@H+]1Cc2ccccc2C[C@@H]1C(=O)OCCOCCOC(=O)c1ccc(-c2c3nc(c(-c4cccc(S(=O)(=O)[O-])c4F)c4ccc([nH]4)c(-c4cccc(S(=O)(=O)[O-])c4F)c4nc(c(-c5cccc(S(=O)(=O)[O-])c5F)c5ccc2[nH]5)C=C4)C=C3)cc1
REMARK SMILES IDX 21 1 20 2 19 3 18 4 16 5 17 6 15 7 6 8 7 9 8 11 14 12 9 13
REMARK SMILES IDX 13 14 10 15 12 16 11 17 4 18 5 19 2 20 1 21 3 22 22 24 23 25
REMARK SMILES IDX 24 26 25 27 26 28 27 29 28 30 89 31 29 32 88 33 30 34 31 35
REMARK SMILES IDX 32 36 82 37 33 38 87 39 81 40 83 41 34 42 86 43 80 44 79 45
REMARK SMILES IDX 35 47 67 48 47 49 66 50 48 51 51 52 65 53 84 54 49 55 50 56
REMARK SMILES IDX 64 58 85 59 52 60 36 61 37 62 45 63 38 64 40 65 46 66 39 67
REMARK SMILES IDX 41 68 42 69 43 70 44 71 68 72 69 73 77 74 70 75 72 76 78 77
REMARK SMILES IDX 71 78 73 79 74 80 75 81 76 82 53 83 54 84 62 85 55 86 57 87
REMARK SMILES IDX 63 88 56 89 58 90 59 91 60 92 61 93
REMARK H PARENT 6 10 3 23 83 46 51 57
REMARK Flexibility Score: inf
ROOT
ATOM      1  O   UNL A   1      34.701  21.467  27.159  1.00  0.00    -0.374 OA
ENDROOT
BRANCH   1   2
ATOM      2  C   UNL A   1      33.319  21.823  27.206  1.00  0.00     0.202 C 
BRANCH   2   3
ATOM      3  C   UNL A   1      32.973  23.298  27.453  1.00  0.00     0.261 C 
BRANCH   3   4
ATOM      4  O   UNL A   1      31.559  23.583  27.352  1.00  0.00    -0.459 OA
BRANCH   4   5
ATOM      5  C   UNL A   1      30.961  23.168  26.202  1.00  0.00     0.365 C 
ATOM      6  O   UNL A   1      30.350  22.103  26.102  1.00  0.00    -0.245 OA
BRANCH   5   7
ATOM      7  C   UNL A   1      31.064  24.129  24.993  1.00  0.00     0.300 C 
ATOM      8  N   UNL A   1      32.368  24.178  24.307  1.00  0.00    -0.315 N 
ATOM      9  C   UNL A   1      33.248  25.324  24.502  1.00  0.00     0.300 C 
ATOM     10  H   UNL A   1      32.698  23.529  25.022  1.00  0.00     0.349 HD
ATOM     11  C   UNL A   1      32.866  26.330  25.554  1.00  0.00     0.010 A 
ATOM     12  C   UNL A   1      30.517  25.503  25.433  1.00  0.00     0.113 C 
ATOM     13  C   UNL A   1      33.811  27.278  25.980  1.00  0.00     0.010 A 
ATOM     14  C   UNL A   1      31.558  26.404  26.034  1.00  0.00    -0.033 A 
ATOM     15  C   UNL A   1      33.477  28.230  26.942  1.00  0.00     0.001 A 
ATOM     16  C   UNL A   1      31.223  27.366  26.996  1.00  0.00     0.004 A 
ATOM     17  C   UNL A   1      32.187  28.262  27.462  1.00  0.00     0.000 A 
BRANCH   8  18
ATOM     18  C   UNL A   1      32.647  23.331  23.123  1.00  0.00     0.210 C 
ATOM     19  C   UNL A   1      34.149  23.107  22.843  1.00  0.00     0.078 C 
BRANCH  18  20
ATOM     20  C   UNL A   1      31.967  21.908  23.117  1.00  0.00     0.169 C 
ATOM     21  C   UNL A   1      32.732  20.795  23.834  1.00  0.00     0.045 C 
BRANCH  20  22
ATOM     22  O   UNL A   1      31.680  21.491  21.776  1.00  0.00    -0.387 OA
ATOM     23  H   UNL A   1      31.403  20.561  21.781  1.00  0.00     0.211 HD
ENDBRANCH  20  22
ENDBRANCH  18  20
ENDBRANCH   8  18
ENDBRANCH   5   7
ENDBRANCH   4   5
ENDBRANCH   3   4
ENDBRANCH   2   3
ENDBRANCH   1   2
BRANCH   1  24
ATOM     24  C   UNL A   1      35.451  21.967  26.055  1.00  0.00     0.202 C 
BRANCH  24  25
ATOM     25  C   UNL A   1      36.445  21.015  25.384  1.00  0.00     0.261 C 
BRANCH  25  26
ATOM     26  O   UNL A   1      37.673  21.644  25.021  1.00  0.00    -0.460 OA
BRANCH  26  27
ATOM     27  C   UNL A   1      38.722  21.264  25.780  1.00  0.00     0.338 C 
ATOM     28  O   UNL A   1      39.245  20.157  25.840  1.00  0.00    -0.246 OA
BRANCH  27  29
ATOM     29  C   UNL A   1      39.286  22.446  26.436  1.00  0.00     0.060 A 
ATOM     30  C   UNL A   1      38.746  23.689  26.083  1.00  0.00     0.016 A 
ATOM     31  C   UNL A   1      40.345  22.344  27.342  1.00  0.00     0.016 A 
ATOM     32  C   UNL A   1      39.316  24.848  26.585  1.00  0.00     0.010 A 
ATOM     33  C   UNL A   1      40.914  23.511  27.845  1.00  0.00     0.010 A 
ATOM     34  C   UNL A   1      40.429  24.764  27.429  1.00  0.00    -0.014 A 
BRANCH  34  35
ATOM     35  C   UNL A   1      41.182  25.994  27.745  1.00  0.00     0.031 A 
ATOM     36  C   UNL A   1      40.494  27.078  28.523  1.00  0.00     0.074 A 
ATOM     37  C   UNL A   1      42.462  26.117  27.358  1.00  0.00     0.049 A 
ATOM     38  N   UNL A   1      40.958  28.233  28.918  1.00  0.00    -0.248 NA
ATOM     39  C   UNL A   1      39.093  26.830  28.906  1.00  0.00     0.031 C 
ATOM     40  C   UNL A   1      43.216  25.114  26.606  1.00  0.00     0.029 A 
ATOM     41  N   UNL A   1      43.348  27.145  27.534  1.00  0.00    -0.354 N 
ATOM     42  C   UNL A   1      39.903  28.859  29.569  1.00  0.00     0.074 A 
ATOM     43  C   UNL A   1      38.768  27.967  29.502  1.00  0.00     0.031 C 
ATOM     44  C   UNL A   1      44.451  25.585  26.370  1.00  0.00     0.029 A 
ATOM     45  C   UNL A   1      44.563  26.930  26.930  1.00  0.00     0.049 A 
ATOM     46  H   UNL A   1      43.136  27.960  28.045  1.00  0.00     0.167 HD
ATOM     47  C   UNL A   1      39.889  30.065  30.184  1.00  0.00     0.034 A 
ATOM     48  C   UNL A   1      45.634  27.740  26.830  1.00  0.00     0.034 A 
ATOM     49  C   UNL A   1      41.033  30.933  30.254  1.00  0.00     0.049 A 
ATOM     50  C   UNL A   1      45.581  29.091  27.492  1.00  0.00     0.074 A 
ATOM     51  C   UNL A   1      41.150  32.153  30.891  1.00  0.00     0.029 A 
ATOM     52  N   UNL A   1      42.255  30.675  29.650  1.00  0.00    -0.354 N 
ATOM     53  N   UNL A   1      44.617  29.623  28.207  1.00  0.00    -0.248 NA
ATOM     54  C   UNL A   1      46.771  29.941  27.361  1.00  0.00     0.031 C 
ATOM     55  C   UNL A   1      42.433  32.652  30.639  1.00  0.00     0.029 A 
ATOM     56  C   UNL A   1      43.127  31.724  29.878  1.00  0.00     0.049 A 
ATOM     57  H   UNL A   1      42.470  29.866  29.134  1.00  0.00     0.167 HD
ATOM     58  C   UNL A   1      45.097  30.855  28.639  1.00  0.00     0.074 A 
ATOM     59  C   UNL A   1      46.445  30.978  28.122  1.00  0.00     0.031 C 
ATOM     60  C   UNL A   1      44.480  31.802  29.387  1.00  0.00     0.034 A 
BRANCH  47  61
ATOM     61  C   UNL A   1      38.603  30.504  30.832  1.00  0.00     0.023 A 
ATOM     62  C   UNL A   1      38.367  30.215  32.192  1.00  0.00     0.012 A 
ATOM     63  C   UNL A   1      37.641  31.232  30.105  1.00  0.00     0.148 A 
ATOM     64  C   UNL A   1      37.177  30.608  32.807  1.00  0.00     0.002 A 
ATOM     65  C   UNL A   1      36.480  31.661  30.736  1.00  0.00     0.091 A 
ATOM     66  F   UNL A   1      37.871  31.475  28.807  1.00  0.00    -0.205 F 
ATOM     67  C   UNL A   1      36.240  31.339  32.082  1.00  0.00     0.022 A 
BRANCH  65  68
ATOM     68  S   UNL A   1      35.247  32.671  29.910  1.00  0.00     0.127 S 
ATOM     69  O   UNL A   1      34.803  31.779  28.839  1.00  0.00    -0.237 OA
ATOM     70  O   UNL A   1      34.263  32.885  30.972  1.00  0.00    -0.237 OA
ATOM     71  O   UNL A   1      35.940  33.875  29.473  1.00  0.00    -0.744 OA
ENDBRANCH  65  68
ENDBRANCH  47  61
BRANCH  48  72
ATOM     72  C   UNL A   1      46.850  27.280  26.105  1.00  0.00     0.023 A 
ATOM     73  C   UNL A   1      46.973  27.528  24.725  1.00  0.00     0.012 A 
ATOM     74  C   UNL A   1      47.897  26.622  26.782  1.00  0.00     0.148 A 
ATOM     75  C   UNL A   1      48.103  27.104  24.024  1.00  0.00     0.002 A 
ATOM     76  C   UNL A   1      49.044  26.251  26.089  1.00  0.00     0.091 A 
ATOM     77  F   UNL A   1      47.755  26.384  28.093  1.00  0.00    -0.205 F 
ATOM     78  C   UNL A   1      49.142  26.476  24.707  1.00  0.00     0.022 A 
BRANCH  76  79
ATOM     79  S   UNL A   1      50.482  25.554  26.908  1.00  0.00     0.127 S 
ATOM     80  O   UNL A   1      51.402  25.367  25.789  1.00  0.00    -0.237 OA
ATOM     81  O   UNL A   1      50.848  26.623  27.836  1.00  0.00    -0.237 OA
ATOM     82  O   UNL A   1      50.015  24.333  27.552  1.00  0.00    -0.744 OA
ENDBRANCH  76  79
ENDBRANCH  48  72
BRANCH  60  83
ATOM     83  C   UNL A   1      45.263  33.045  29.720  1.00  0.00     0.023 A 
ATOM     84  C   UNL A   1      46.094  33.068  30.856  1.00  0.00     0.012 A 
ATOM     85  C   UNL A   1      45.234  34.159  28.858  1.00  0.00     0.148 A 
ATOM     86  C   UNL A   1      46.862  34.194  31.148  1.00  0.00     0.002 A 
ATOM     87  C   UNL A   1      46.043  35.256  29.126  1.00  0.00     0.091 A 
ATOM     88  F   UNL A   1      44.423  34.121  27.791  1.00  0.00    -0.205 F 
ATOM     89  C   UNL A   1      46.846  35.281  30.277  1.00  0.00     0.022 A 
BRANCH  87  90
ATOM     90  S   UNL A   1      46.166  36.658  28.010  1.00  0.00     0.127 S 
ATOM     91  O   UNL A   1      45.993  36.019  26.707  1.00  0.00    -0.237 OA
ATOM     92  O   UNL A   1      45.042  37.491  28.437  1.00  0.00    -0.237 OA
ATOM     93  O   UNL A   1      47.478  37.246  28.245  1.00  0.00    -0.744 OA
ENDBRANCH  87  90
ENDBRANCH  60  83
ENDBRANCH  34  35
ENDBRANCH  27  29
ENDBRANCH  26  27
ENDBRANCH  25  26
ENDBRANCH  24  25
ENDBRANCH   1  24
TORSDOF 20
ENDMDL
MODEL 3
REMARK VINA RESULT:     -11.0      2.472      8.502
REMARK SMILES C[C@H](O)[C@H](C)[N@H+]1Cc2ccccc2C[C@@H]1C(=O)OCCOCCOC(=O)c1ccc(-c2c3nc(c(-c4cccc(S(=O)(=O)[O-])c4F)c4ccc([nH]4)c(-c4cccc(S(=O)(=O)[O-])c4F)c4nc(c(-c5cccc(S(=O)(=O)[O-])c5F)c5ccc2[nH]5)C=C4)C=C3)cc1
REMARK SMILES IDX 21 1 20 2 19 3 18 4 16 5 17 6 15 7 6 8 7 9 8 11 14 12 9 13
REMARK SMILES IDX 13 14 10 15 12 16 11 17 4 18 5 19 2 20 1 21 3 22 22 24 23 25
REMARK SMILES IDX 24 26 25 27 26 28 27 29 28 30 89 31 29 32 88 33 30 34 31 35
REMARK SMILES IDX 32 36 82 37 33 38 87 39 81 40 83 41 34 42 86 43 80 44 79 45
REMARK SMILES IDX 35 47 67 48 47 49 66 50 48 51 51 52 65 53 84 54 49 55 50 56
REMARK SMILES IDX 64 58 85 59 52 60 36 61 37 62 45 63 38 64 40 65 46 66 39 67
REMARK SMILES IDX 41 68 42 69 43 70 44 71 68 72 69 73 77 74 70 75 72 76 78 77
REMARK SMILES IDX 71 78 73 79 74 80 75 81 76 82 53 83 54 84 62 85 55 86 57 87
REMARK SMILES IDX 63 88 56 89 58 90 59 91 60 92 61 93
REMARK H PARENT 6 10 3 23 83 46 51 57
REMARK Flexibility Score: inf
ROOT
ATOM      1  O   UNL A   1      33.086  29.308  24.809  1.00  0.00    -0.374 OA
ENDROOT
BRANCH   1   2
ATOM      2  C   UNL A   1      33.256  29.156  23.399  1.00  0.00     0.202 C 
BRANCH   2   3
ATOM      3  C   UNL A   1      32.670  27.897  22.745  1.00  0.00     0.261 C 
BRANCH   3   4
ATOM      4  O   UNL A   1      33.216  26.666  23.270  1.00  0.00    -0.459 OA
BRANCH   4   5
ATOM      5  C   UNL A   1      33.191  25.605  22.417  1.00  0.00     0.365 C 
ATOM      6  O   UNL A   1      33.461  25.692  21.218  1.00  0.00    -0.245 OA
BRANCH   5   7
ATOM      7  C   UNL A   1      32.819  24.238  23.039  1.00  0.00     0.300 C 
ATOM      8  N   UNL A   1      32.404  24.255  24.453  1.00  0.00    -0.315 N 
ATOM      9  C   UNL A   1      33.317  23.775  25.483  1.00  0.00     0.300 C 
ATOM     10  H   UNL A   1      32.605  25.255  24.436  1.00  0.00     0.349 HD
ATOM     11  C   UNL A   1      34.729  23.456  25.074  1.00  0.00     0.010 A 
ATOM     12  C   UNL A   1      33.955  23.245  22.714  1.00  0.00     0.113 C 
ATOM     13  C   UNL A   1      35.712  23.277  26.062  1.00  0.00     0.010 A 
ATOM     14  C   UNL A   1      35.055  23.229  23.736  1.00  0.00    -0.033 A 
ATOM     15  C   UNL A   1      37.024  22.966  25.709  1.00  0.00     0.001 A 
ATOM     16  C   UNL A   1      36.373  22.911  23.385  1.00  0.00     0.004 A 
ATOM     17  C   UNL A   1      37.357  22.799  24.369  1.00  0.00     0.000 A 
BRANCH   8  18
ATOM     18  C   UNL A   1      30.974  24.345  24.835  1.00  0.00     0.210 C 
ATOM     19  C   UNL A   1      30.616  23.599  26.138  1.00  0.00     0.078 C 
BRANCH  18  20
ATOM     20  C   UNL A   1      30.387  25.802  24.971  1.00  0.00     0.169 C 
ATOM     21  C   UNL A   1      30.751  26.557  26.251  1.00  0.00     0.045 C 
BRANCH  20  22
ATOM     22  O   UNL A   1      28.962  25.789  24.824  1.00  0.00    -0.387 OA
ATOM     23  H   UNL A   1      28.644  24.873  24.851  1.00  0.00     0.211 HD
ENDBRANCH  20  22
ENDBRANCH  18  20
ENDBRANCH   8  18
ENDBRANCH   5   7
ENDBRANCH   4   5
ENDBRANCH   3   4
ENDBRANCH   2   3
ENDBRANCH   1   2
BRANCH   1  24
ATOM     24  C   UNL A   1      31.830  29.820  25.248  1.00  0.00     0.202 C 
BRANCH  24  25
ATOM     25  C   UNL A   1      31.845  30.872  26.360  1.00  0.00     0.261 C 
BRANCH  25  26
ATOM     26  O   UNL A   1      32.873  30.659  27.326  1.00  0.00    -0.460 OA
BRANCH  26  27
ATOM     27  C   UNL A   1      33.610  31.759  27.587  1.00  0.00     0.338 C 
ATOM     28  O   UNL A   1      33.233  32.923  27.627  1.00  0.00    -0.246 OA
BRANCH  27  29
ATOM     29  C   UNL A   1      34.953  31.343  27.996  1.00  0.00     0.060 A 
ATOM     30  C   UNL A   1      35.131  29.994  28.324  1.00  0.00     0.016 A 
ATOM     31  C   UNL A   1      36.003  32.259  28.096  1.00  0.00     0.016 A 
ATOM     32  C   UNL A   1      36.351  29.567  28.826  1.00  0.00     0.010 A 
ATOM     33  C   UNL A   1      37.227  31.828  28.600  1.00  0.00     0.010 A 
ATOM     34  C   UNL A   1      37.386  30.491  29.009  1.00  0.00    -0.014 A 
BRANCH  34  35
ATOM     35  C   UNL A   1      38.578  30.087  29.779  1.00  0.00     0.031 A 
ATOM     36  C   UNL A   1      39.510  29.073  29.181  1.00  0.00     0.074 A 
ATOM     37  C   UNL A   1      38.824  30.640  30.978  1.00  0.00     0.049 A 
ATOM     38  N   UNL A   1      40.614  28.577  29.670  1.00  0.00    -0.248 NA
ATOM     39  C   UNL A   1      39.148  28.543  27.855  1.00  0.00     0.031 C 
ATOM     40  C   UNL A   1      37.981  31.638  31.635  1.00  0.00     0.029 A 
ATOM     41  N   UNL A   1      39.849  30.429  31.860  1.00  0.00    -0.354 N 
ATOM     42  C   UNL A   1      41.064  27.660  28.728  1.00  0.00     0.074 A 
ATOM     43  C   UNL A   1      40.105  27.651  27.647  1.00  0.00     0.031 C 
ATOM     44  C   UNL A   1      38.516  31.942  32.829  1.00  0.00     0.029 A 
ATOM     45  C   UNL A   1      39.721  31.141  33.028  1.00  0.00     0.049 A 
ATOM     46  H   UNL A   1      40.605  29.825  31.676  1.00  0.00     0.167 HD
ATOM     47  C   UNL A   1      42.187  26.904  28.757  1.00  0.00     0.034 A 
ATOM     48  C   UNL A   1      40.486  31.127  34.136  1.00  0.00     0.034 A 
ATOM     49  C   UNL A   1      43.137  26.938  29.835  1.00  0.00     0.049 A 
ATOM     50  C   UNL A   1      41.710  30.252  34.157  1.00  0.00     0.074 A 
ATOM     51  C   UNL A   1      44.333  26.255  29.949  1.00  0.00     0.029 A 
ATOM     52  N   UNL A   1      42.989  27.686  30.993  1.00  0.00    -0.354 N 
ATOM     53  N   UNL A   1      42.188  29.477  33.211  1.00  0.00    -0.248 NA
ATOM     54  C   UNL A   1      42.518  30.270  35.384  1.00  0.00     0.031 C 
ATOM     55  C   UNL A   1      44.889  26.560  31.196  1.00  0.00     0.029 A 
ATOM     56  C   UNL A   1      44.059  27.465  31.841  1.00  0.00     0.049 A 
ATOM     57  H   UNL A   1      42.233  28.285  31.185  1.00  0.00     0.167 HD
ATOM     58  C   UNL A   1      43.369  28.943  33.715  1.00  0.00     0.074 A 
ATOM     59  C   UNL A   1      43.542  29.500  35.042  1.00  0.00     0.031 C 
ATOM     60  C   UNL A   1      44.229  28.066  33.140  1.00  0.00     0.034 A 
BRANCH  47  61
ATOM     61  C   UNL A   1      42.446  25.993  27.587  1.00  0.00     0.023 A 
ATOM     62  C   UNL A   1      43.166  26.469  26.471  1.00  0.00     0.012 A 
ATOM     63  C   UNL A   1      42.006  24.655  27.605  1.00  0.00     0.148 A 
ATOM     64  C   UNL A   1      43.408  25.639  25.376  1.00  0.00     0.002 A 
ATOM     65  C   UNL A   1      42.292  23.822  26.530  1.00  0.00     0.091 A 
ATOM     66  F   UNL A   1      41.301  24.228  28.662  1.00  0.00    -0.205 F 
ATOM     67  C   UNL A   1      42.980  24.315  25.410  1.00  0.00     0.022 A 
BRANCH  65  68
ATOM     68  S   UNL A   1      41.850  22.081  26.511  1.00  0.00     0.127 S 
ATOM     69  O   UNL A   1      42.479  21.631  25.270  1.00  0.00    -0.237 OA
ATOM     70  O   UNL A   1      42.488  21.589  27.732  1.00  0.00    -0.237 OA
ATOM     71  O   UNL A   1      40.394  22.035  26.525  1.00  0.00    -0.744 OA
ENDBRANCH  65  68
ENDBRANCH  47  61
BRANCH  48  72
ATOM     72  C   UNL A   1      40.133  31.993  35.295  1.00  0.00     0.023 A 
ATOM     73  C   UNL A   1      40.800  33.219  35.475  1.00  0.00     0.012 A 
ATOM     74  C   UNL A   1      39.121  31.621  36.202  1.00  0.00     0.148 A 
ATOM     75  C   UNL A   1      40.488  34.046  36.555  1.00  0.00     0.002 A 
ATOM     76  C   UNL A   1      38.778  32.474  37.244  1.00  0.00     0.091 A 
ATOM     77  F   UNL A   1      38.507  30.444  36.020  1.00  0.00    -0.205 F 
ATOM     78  C   UNL A   1      39.471  33.679  37.433  1.00  0.00     0.022 A 
BRANCH  76  79
ATOM     79  S   UNL A   1      37.397  32.143  38.345  1.00  0.00     0.127 S 
ATOM     80  O   UNL A   1      37.279  30.690  38.249  1.00  0.00    -0.237 OA
ATOM     81  O   UNL A   1      37.907  32.637  39.624  1.00  0.00    -0.237 OA
ATOM     82  O   UNL A   1      36.276  32.904  37.811  1.00  0.00    -0.744 OA
ENDBRANCH  76  79
ENDBRANCH  48  72
BRANCH  60  83
ATOM     83  C   UNL A   1      45.452  27.674  33.926  1.00  0.00     0.023 A 
ATOM     84  C   UNL A   1      45.415  26.545  34.766  1.00  0.00     0.012 A 
ATOM     85  C   UNL A   1      46.661  28.379  33.764  1.00  0.00     0.148 A 
ATOM     86  C   UNL A   1      46.555  26.142  35.460  1.00  0.00     0.002 A 
ATOM     87  C   UNL A   1      47.806  27.940  34.417  1.00  0.00     0.091 A 
ATOM     88  F   UNL A   1      46.669  29.460  32.971  1.00  0.00    -0.205 F 
ATOM     89  C   UNL A   1      47.751  26.831  35.276  1.00  0.00     0.022 A 
BRANCH  87  90
ATOM     90  S   UNL A   1      49.413  28.700  34.163  1.00  0.00     0.127 S 
ATOM     91  O   UNL A   1      49.298  29.916  34.965  1.00  0.00    -0.237 OA
ATOM     92  O   UNL A   1      50.321  27.691  34.708  1.00  0.00    -0.237 OA
ATOM     93  O   UNL A   1      49.536  28.912  32.727  1.00  0.00    -0.744 OA
ENDBRANCH  87  90
ENDBRANCH  60  83
ENDBRANCH  34  35
ENDBRANCH  27  29
ENDBRANCH  26  27
ENDBRANCH  25  26
ENDBRANCH  24  25
ENDBRANCH   1  24
TORSDOF 20
ENDMDL
