MODEL 1
REMARK VINA RESULT:     -10.1      0.000      0.000
REMARK SMILES CCC[C@@H](C)C[C@H](C(=O)OCCOCCOC(=O)c1ccc(-c2c3nc(c(-c4cccc(S(=O)(=O)[O-])c4F)c4ccc([nH]4)c(-c4cccc(S(=O)(=O)[O-])c4F)c4nc(c(-c5cccc(S(=O)(=O)[O-])c5F)c5ccc2[nH]5)C=C4)C=C3)cc1)c1ccccc1C
REMARK SMILES IDX 12 1 11 2 10 3 8 4 9 5 7 6 6 7 4 8 5 9 3 10 2 11 1 12 82 13
REMARK SMILES IDX 83 14 87 15 84 16 86 17 88 18 85 19 13 20 14 21 15 22 16 23
REMARK SMILES IDX 17 24 18 25 19 26 20 27 81 28 21 29 80 30 22 31 23 32 24 33
REMARK SMILES IDX 74 34 25 35 79 36 73 37 75 38 26 39 78 40 72 41 71 42 27 44
REMARK SMILES IDX 59 45 39 46 58 47 40 48 43 49 57 50 76 51 41 52 42 53 56 55
REMARK SMILES IDX 77 56 44 57 28 58 29 59 37 60 30 61 32 62 38 63 31 64 33 65
REMARK SMILES IDX 34 66 35 67 36 68 60 69 61 70 69 71 62 72 64 73 70 74 63 75
REMARK SMILES IDX 65 76 66 77 67 78 68 79 45 80 46 81 54 82 47 83 49 84 55 85
REMARK SMILES IDX 48 86 50 87 51 88 52 89 53 90
REMARK H PARENT 75 43 43 54
REMARK Flexibility Score: inf
ROOT
ATOM      1  C   UNL A   1      33.353  27.869  25.206  1.00  0.00     0.202 C 
ENDROOT
BRANCH   1   2
ATOM      2  C   UNL A   1      33.904  26.463  24.947  1.00  0.00     0.261 C 
BRANCH   2   3
ATOM      3  O   UNL A   1      33.944  26.072  23.570  1.00  0.00    -0.463 OA
BRANCH   3   4
ATOM      4  C   UNL A   1      33.828  24.725  23.356  1.00  0.00     0.313 C 
ATOM      5  O   UNL A   1      34.458  24.095  22.513  1.00  0.00    -0.252 OA
BRANCH   4   6
ATOM      6  C   UNL A   1      32.758  24.125  24.265  1.00  0.00     0.130 C 
BRANCH   6   7
ATOM      7  C   UNL A   1      31.328  24.341  23.688  1.00  0.00     0.023 C 
BRANCH   7   8
ATOM      8  C   UNL A   1      30.202  24.617  24.726  1.00  0.00    -0.013 C 
ATOM      9  C   UNL A   1      29.621  26.017  24.480  1.00  0.00     0.007 C 
BRANCH   8  10
ATOM     10  C   UNL A   1      30.719  24.537  26.182  1.00  0.00     0.003 C 
BRANCH  10  11
ATOM     11  C   UNL A   1      30.614  23.179  26.886  1.00  0.00    -0.003 C 
ATOM     12  C   UNL A   1      29.205  22.772  27.287  1.00  0.00     0.004 C 
ENDBRANCH  10  11
ENDBRANCH   8  10
ENDBRANCH   7   8
ENDBRANCH   6   7
BRANCH   6  13
ATOM     13  C   UNL A   1      33.093  22.643  24.523  1.00  0.00    -0.031 A 
ATOM     14  C   UNL A   1      32.455  21.669  23.719  1.00  0.00     0.005 A 
ATOM     15  C   UNL A   1      34.090  22.203  25.424  1.00  0.00    -0.047 A 
ATOM     16  C   UNL A   1      32.782  20.315  23.792  1.00  0.00     0.000 A 
ATOM     17  C   UNL A   1      34.407  20.827  25.482  1.00  0.00     0.004 A 
ATOM     18  C   UNL A   1      34.887  23.092  26.342  1.00  0.00     0.044 C 
ATOM     19  C   UNL A   1      33.765  19.893  24.672  1.00  0.00     0.000 A 
ENDBRANCH   6  13
ENDBRANCH   4   6
ENDBRANCH   3   4
ENDBRANCH   2   3
ENDBRANCH   1   2
BRANCH   1  20
ATOM     20  O   UNL A   1      31.944  28.031  25.266  1.00  0.00    -0.374 OA
BRANCH  20  21
ATOM     21  C   UNL A   1      31.431  29.228  25.854  1.00  0.00     0.202 C 
BRANCH  21  22
ATOM     22  C   UNL A   1      32.394  30.410  26.006  1.00  0.00     0.261 C 
BRANCH  22  23
ATOM     23  O   UNL A   1      32.756  30.660  27.380  1.00  0.00    -0.460 OA
BRANCH  23  24
ATOM     24  C   UNL A   1      33.588  31.713  27.557  1.00  0.00     0.338 C 
ATOM     25  O   UNL A   1      33.276  32.898  27.603  1.00  0.00    -0.246 OA
BRANCH  24  26
ATOM     26  C   UNL A   1      34.963  31.272  27.842  1.00  0.00     0.060 A 
ATOM     27  C   UNL A   1      35.192  29.896  27.975  1.00  0.00     0.016 A 
ATOM     28  C   UNL A   1      35.961  32.194  28.165  1.00  0.00     0.016 A 
ATOM     29  C   UNL A   1      36.397  29.439  28.506  1.00  0.00     0.010 A 
ATOM     30  C   UNL A   1      37.168  31.733  28.702  1.00  0.00     0.010 A 
ATOM     31  C   UNL A   1      37.368  30.359  28.924  1.00  0.00    -0.014 A 
BRANCH  31  32
ATOM     32  C   UNL A   1      38.516  29.889  29.739  1.00  0.00     0.031 A 
ATOM     33  C   UNL A   1      38.692  30.425  31.136  1.00  0.00     0.074 A 
ATOM     34  C   UNL A   1      39.389  28.994  29.246  1.00  0.00     0.049 A 
ATOM     35  N   UNL A   1      39.619  30.152  32.017  1.00  0.00    -0.248 NA
ATOM     36  C   UNL A   1      37.691  31.400  31.601  1.00  0.00     0.031 C 
ATOM     37  C   UNL A   1      39.329  28.407  27.909  1.00  0.00     0.029 A 
ATOM     38  N   UNL A   1      40.510  28.439  29.809  1.00  0.00    -0.354 N 
ATOM     39  C   UNL A   1      39.330  30.934  33.129  1.00  0.00     0.074 A 
ATOM     40  C   UNL A   1      38.148  31.704  32.808  1.00  0.00     0.031 C 
ATOM     41  C   UNL A   1      40.387  27.595  27.743  1.00  0.00     0.029 A 
ATOM     42  C   UNL A   1      41.204  27.616  28.955  1.00  0.00     0.049 A 
ATOM     43  H   UNL A   1      40.791  28.614  30.737  1.00  0.00     0.167 HD
ATOM     44  C   UNL A   1      39.977  30.994  34.317  1.00  0.00     0.034 A 
ATOM     45  C   UNL A   1      42.372  26.965  29.128  1.00  0.00     0.034 A 
ATOM     46  C   UNL A   1      41.133  30.207  34.647  1.00  0.00     0.049 A 
ATOM     47  C   UNL A   1      43.074  27.050  30.458  1.00  0.00     0.074 A 
ATOM     48  C   UNL A   1      41.825  30.153  35.846  1.00  0.00     0.029 A 
ATOM     49  N   UNL A   1      41.776  29.342  33.776  1.00  0.00    -0.354 N 
ATOM     50  N   UNL A   1      42.711  27.687  31.545  1.00  0.00    -0.248 NA
ATOM     51  C   UNL A   1      44.331  26.299  30.597  1.00  0.00     0.031 C 
ATOM     52  C   UNL A   1      42.895  29.265  35.693  1.00  0.00     0.029 A 
ATOM     53  C   UNL A   1      42.862  28.758  34.404  1.00  0.00     0.049 A 
ATOM     54  H   UNL A   1      41.501  29.170  32.847  1.00  0.00     0.167 HD
ATOM     55  C   UNL A   1      43.672  27.388  32.504  1.00  0.00     0.074 A 
ATOM     56  C   UNL A   1      44.625  26.496  31.876  1.00  0.00     0.031 C 
ATOM     57  C   UNL A   1      43.769  27.826  33.784  1.00  0.00     0.034 A 
BRANCH  44  58
ATOM     58  C   UNL A   1      39.418  31.912  35.371  1.00  0.00     0.023 A 
ATOM     59  C   UNL A   1      38.424  31.433  36.249  1.00  0.00     0.012 A 
ATOM     60  C   UNL A   1      39.914  33.220  35.535  1.00  0.00     0.148 A 
ATOM     61  C   UNL A   1      37.913  32.251  37.257  1.00  0.00     0.002 A 
ATOM     62  C   UNL A   1      39.425  34.016  36.564  1.00  0.00     0.091 A 
ATOM     63  F   UNL A   1      40.840  33.666  34.674  1.00  0.00    -0.205 F 
ATOM     64  C   UNL A   1      38.420  33.537  37.420  1.00  0.00     0.022 A 
BRANCH  62  65
ATOM     65  S   UNL A   1      40.064  35.663  36.895  1.00  0.00     0.127 S 
ATOM     66  O   UNL A   1      39.419  35.978  38.169  1.00  0.00    -0.237 OA
ATOM     67  O   UNL A   1      41.505  35.427  36.983  1.00  0.00    -0.237 OA
ATOM     68  O   UNL A   1      39.654  36.483  35.763  1.00  0.00    -0.744 OA
ENDBRANCH  62  65
ENDBRANCH  44  58
BRANCH  45  69
ATOM     69  C   UNL A   1      42.923  26.132  28.023  1.00  0.00     0.023 A 
ATOM     70  C   UNL A   1      43.870  26.687  27.141  1.00  0.00     0.012 A 
ATOM     71  C   UNL A   1      42.541  24.786  27.863  1.00  0.00     0.148 A 
ATOM     72  C   UNL A   1      44.411  25.923  26.107  1.00  0.00     0.002 A 
ATOM     73  C   UNL A   1      43.123  24.015  26.864  1.00  0.00     0.091 A 
ATOM     74  F   UNL A   1      41.620  24.281  28.698  1.00  0.00    -0.205 F 
ATOM     75  C   UNL A   1      44.047  24.585  25.975  1.00  0.00     0.022 A 
BRANCH  73  76
ATOM     76  S   UNL A   1      42.808  22.252  26.713  1.00  0.00     0.127 S 
ATOM     77  O   UNL A   1      43.989  21.797  25.986  1.00  0.00    -0.237 OA
ATOM     78  O   UNL A   1      42.746  21.832  28.114  1.00  0.00    -0.237 OA
ATOM     79  O   UNL A   1      41.540  22.145  26.004  1.00  0.00    -0.744 OA
ENDBRANCH  73  76
ENDBRANCH  45  69
BRANCH  57  80
ATOM     80  C   UNL A   1      44.931  27.335  34.607  1.00  0.00     0.023 A 
ATOM     81  C   UNL A   1      46.162  28.016  34.546  1.00  0.00     0.012 A 
ATOM     82  C   UNL A   1      44.780  26.256  35.500  1.00  0.00     0.148 A 
ATOM     83  C   UNL A   1      47.234  27.615  35.343  1.00  0.00     0.002 A 
ATOM     84  C   UNL A   1      45.841  25.889  36.322  1.00  0.00     0.091 A 
ATOM     85  F   UNL A   1      43.607  25.606  35.530  1.00  0.00    -0.205 F 
ATOM     86  C   UNL A   1      47.070  26.561  36.238  1.00  0.00     0.022 A 
BRANCH  84  87
ATOM     87  S   UNL A   1      45.685  24.601  37.566  1.00  0.00     0.127 S 
ATOM     88  O   UNL A   1      47.018  24.600  38.164  1.00  0.00    -0.237 OA
ATOM     89  O   UNL A   1      44.628  25.126  38.432  1.00  0.00    -0.237 OA
ATOM     90  O   UNL A   1      45.319  23.393  36.839  1.00  0.00    -0.744 OA
ENDBRANCH  84  87
ENDBRANCH  57  80
ENDBRANCH  31  32
ENDBRANCH  24  26
ENDBRANCH  23  24
ENDBRANCH  22  23
ENDBRANCH  21  22
ENDBRANCH  20  21
ENDBRANCH   1  20
TORSDOF 22
ENDMDL
MODEL 2
REMARK VINA RESULT:      -9.6      2.440      8.039
REMARK SMILES CCC[C@@H](C)C[C@H](C(=O)OCCOCCOC(=O)c1ccc(-c2c3nc(c(-c4cccc(S(=O)(=O)[O-])c4F)c4ccc([nH]4)c(-c4cccc(S(=O)(=O)[O-])c4F)c4nc(c(-c5cccc(S(=O)(=O)[O-])c5F)c5ccc2[nH]5)C=C4)C=C3)cc1)c1ccccc1C
REMARK SMILES IDX 12 1 11 2 10 3 8 4 9 5 7 6 6 7 4 8 5 9 3 10 2 11 1 12 82 13
REMARK SMILES IDX 83 14 87 15 84 16 86 17 88 18 85 19 13 20 14 21 15 22 16 23
REMARK SMILES IDX 17 24 18 25 19 26 20 27 81 28 21 29 80 30 22 31 23 32 24 33
REMARK SMILES IDX 74 34 25 35 79 36 73 37 75 38 26 39 78 40 72 41 71 42 27 44
REMARK SMILES IDX 59 45 39 46 58 47 40 48 43 49 57 50 76 51 41 52 42 53 56 55
REMARK SMILES IDX 77 56 44 57 28 58 29 59 37 60 30 61 32 62 38 63 31 64 33 65
REMARK SMILES IDX 34 66 35 67 36 68 60 69 61 70 69 71 62 72 64 73 70 74 63 75
REMARK SMILES IDX 65 76 66 77 67 78 68 79 45 80 46 81 54 82 47 83 49 84 55 85
REMARK SMILES IDX 48 86 50 87 51 88 52 89 53 90
REMARK H PARENT 75 43 43 54
REMARK Flexibility Score: inf
ROOT
ATOM      1  C   UNL A   1      33.052  28.397  26.539  1.00  0.00     0.202 C 
ENDROOT
BRANCH   1   2
ATOM      2  C   UNL A   1      32.272  27.097  26.762  1.00  0.00     0.261 C 
BRANCH   2   3
ATOM      3  O   UNL A   1      32.870  25.928  26.191  1.00  0.00    -0.463 OA
BRANCH   3   4
ATOM      4  C   UNL A   1      32.059  24.825  26.171  1.00  0.00     0.313 C 
ATOM      5  O   UNL A   1      31.443  24.393  27.140  1.00  0.00    -0.252 OA
BRANCH   4   6
ATOM      6  C   UNL A   1      32.080  24.166  24.794  1.00  0.00     0.130 C 
BRANCH   6   7
ATOM      7  C   UNL A   1      32.723  25.095  23.723  1.00  0.00     0.023 C 
BRANCH   7   8
ATOM      8  C   UNL A   1      31.741  25.792  22.737  1.00  0.00    -0.013 C 
ATOM      9  C   UNL A   1      32.319  25.723  21.316  1.00  0.00     0.007 C 
BRANCH   8  10
ATOM     10  C   UNL A   1      31.496  27.274  23.109  1.00  0.00     0.003 C 
BRANCH  10  11
ATOM     11  C   UNL A   1      30.186  27.603  23.834  1.00  0.00    -0.003 C 
ATOM     12  C   UNL A   1      29.133  28.288  22.976  1.00  0.00     0.004 C 
ENDBRANCH  10  11
ENDBRANCH   8  10
ENDBRANCH   7   8
ENDBRANCH   6   7
BRANCH   6  13
ATOM     13  C   UNL A   1      32.774  22.795  24.905  1.00  0.00    -0.031 A 
ATOM     14  C   UNL A   1      31.964  21.635  24.860  1.00  0.00     0.005 A 
ATOM     15  C   UNL A   1      34.177  22.618  24.922  1.00  0.00    -0.047 A 
ATOM     16  C   UNL A   1      32.507  20.351  24.829  1.00  0.00     0.000 A 
ATOM     17  C   UNL A   1      34.706  21.308  24.888  1.00  0.00     0.004 A 
ATOM     18  C   UNL A   1      35.194  23.728  24.949  1.00  0.00     0.044 C 
ATOM     19  C   UNL A   1      33.882  20.187  24.838  1.00  0.00     0.000 A 
ENDBRANCH   6  13
ENDBRANCH   4   6
ENDBRANCH   3   4
ENDBRANCH   2   3
ENDBRANCH   1   2
BRANCH   1  20
ATOM     20  O   UNL A   1      32.951  29.412  27.528  1.00  0.00    -0.374 OA
BRANCH  20  21
ATOM     21  C   UNL A   1      32.881  30.770  27.090  1.00  0.00     0.202 C 
BRANCH  21  22
ATOM     22  C   UNL A   1      33.903  31.753  27.669  1.00  0.00     0.261 C 
BRANCH  22  23
ATOM     23  O   UNL A   1      33.654  33.116  27.269  1.00  0.00    -0.460 OA
BRANCH  23  24
ATOM     24  C   UNL A   1      33.464  33.977  28.296  1.00  0.00     0.338 C 
ATOM     25  O   UNL A   1      32.507  34.724  28.463  1.00  0.00    -0.246 OA
BRANCH  24  26
ATOM     26  C   UNL A   1      34.506  33.827  29.325  1.00  0.00     0.060 A 
ATOM     27  C   UNL A   1      35.812  34.211  28.992  1.00  0.00     0.016 A 
ATOM     28  C   UNL A   1      34.246  33.146  30.516  1.00  0.00     0.016 A 
ATOM     29  C   UNL A   1      36.876  33.846  29.815  1.00  0.00     0.010 A 
ATOM     30  C   UNL A   1      35.317  32.776  31.338  1.00  0.00     0.010 A 
ATOM     31  C   UNL A   1      36.639  33.078  30.962  1.00  0.00    -0.014 A 
BRANCH  31  32
ATOM     32  C   UNL A   1      37.783  32.456  31.675  1.00  0.00     0.031 A 
ATOM     33  C   UNL A   1      38.506  31.302  31.032  1.00  0.00     0.074 A 
ATOM     34  C   UNL A   1      38.177  32.915  32.875  1.00  0.00     0.049 A 
ATOM     35  N   UNL A   1      39.527  30.614  31.476  1.00  0.00    -0.248 NA
ATOM     36  C   UNL A   1      38.014  30.862  29.716  1.00  0.00     0.031 C 
ATOM     37  C   UNL A   1      37.554  34.020  33.600  1.00  0.00     0.029 A 
ATOM     38  N   UNL A   1      39.184  32.490  33.704  1.00  0.00    -0.354 N 
ATOM     39  C   UNL A   1      39.785  29.648  30.510  1.00  0.00     0.074 A 
ATOM     40  C   UNL A   1      38.806  29.829  29.460  1.00  0.00     0.031 C 
ATOM     41  C   UNL A   1      38.175  34.167  34.783  1.00  0.00     0.029 A 
ATOM     42  C   UNL A   1      39.228  33.161  34.903  1.00  0.00     0.049 A 
ATOM     43  H   UNL A   1      39.815  31.774  33.463  1.00  0.00     0.167 HD
ATOM     44  C   UNL A   1      40.759  28.709  30.487  1.00  0.00     0.034 A 
ATOM     45  C   UNL A   1      40.018  32.973  35.978  1.00  0.00     0.034 A 
ATOM     46  C   UNL A   1      41.751  28.548  31.515  1.00  0.00     0.049 A 
ATOM     47  C   UNL A   1      41.092  31.918  35.930  1.00  0.00     0.074 A 
ATOM     48  C   UNL A   1      42.815  27.664  31.555  1.00  0.00     0.029 A 
ATOM     49  N   UNL A   1      41.797  29.282  32.690  1.00  0.00    -0.354 N 
ATOM     50  N   UNL A   1      41.409  31.107  34.950  1.00  0.00    -0.248 NA
ATOM     51  C   UNL A   1      41.941  31.776  37.123  1.00  0.00     0.031 C 
ATOM     52  C   UNL A   1      43.496  27.854  32.761  1.00  0.00     0.029 A 
ATOM     53  C   UNL A   1      42.864  28.865  33.466  1.00  0.00     0.049 A 
ATOM     54  H   UNL A   1      41.165  29.995  32.935  1.00  0.00     0.167 HD
ATOM     55  C   UNL A   1      42.511  30.383  35.394  1.00  0.00     0.074 A 
ATOM     56  C   UNL A   1      42.820  30.866  36.724  1.00  0.00     0.031 C 
ATOM     57  C   UNL A   1      43.195  29.395  34.764  1.00  0.00     0.034 A 
BRANCH  44  58
ATOM     58  C   UNL A   1      40.831  27.806  29.285  1.00  0.00     0.023 A 
ATOM     59  C   UNL A   1      40.020  26.653  29.237  1.00  0.00     0.012 A 
ATOM     60  C   UNL A   1      41.648  28.124  28.182  1.00  0.00     0.148 A 
ATOM     61  C   UNL A   1      40.041  25.817  28.121  1.00  0.00     0.002 A 
ATOM     62  C   UNL A   1      41.636  27.304  27.060  1.00  0.00     0.091 A 
ATOM     63  F   UNL A   1      42.431  29.210  28.258  1.00  0.00    -0.205 F 
ATOM     64  C   UNL A   1      40.840  26.148  27.030  1.00  0.00     0.022 A 
BRANCH  62  65
ATOM     65  S   UNL A   1      42.581  27.684  25.579  1.00  0.00     0.127 S 
ATOM     66  O   UNL A   1      43.947  27.717  26.101  1.00  0.00    -0.237 OA
ATOM     67  O   UNL A   1      42.286  26.540  24.717  1.00  0.00    -0.237 OA
ATOM     68  O   UNL A   1      42.063  28.956  25.093  1.00  0.00    -0.744 OA
ENDBRANCH  62  65
ENDBRANCH  44  58
BRANCH  45  69
ATOM     69  C   UNL A   1      39.853  33.843  37.176  1.00  0.00     0.023 A 
ATOM     70  C   UNL A   1      40.367  35.154  37.159  1.00  0.00     0.012 A 
ATOM     71  C   UNL A   1      39.161  33.391  38.317  1.00  0.00     0.148 A 
ATOM     72  C   UNL A   1      40.214  35.992  38.265  1.00  0.00     0.002 A 
ATOM     73  C   UNL A   1      38.965  34.249  39.393  1.00  0.00     0.091 A 
ATOM     74  F   UNL A   1      38.699  32.132  38.324  1.00  0.00    -0.205 F 
ATOM     75  C   UNL A   1      39.504  35.544  39.376  1.00  0.00     0.022 A 
BRANCH  73  76
ATOM     76  S   UNL A   1      37.948  33.794  40.803  1.00  0.00     0.127 S 
ATOM     77  O   UNL A   1      37.744  35.083  41.455  1.00  0.00    -0.237 OA
ATOM     78  O   UNL A   1      36.761  33.234  40.156  1.00  0.00    -0.237 OA
ATOM     79  O   UNL A   1      38.734  32.818  41.548  1.00  0.00    -0.744 OA
ENDBRANCH  73  76
ENDBRANCH  45  69
BRANCH  57  80
ATOM     80  C   UNL A   1      44.362  28.778  35.490  1.00  0.00     0.023 A 
ATOM     81  C   UNL A   1      45.654  29.306  35.302  1.00  0.00     0.012 A 
ATOM     82  C   UNL A   1      44.168  27.736  36.418  1.00  0.00     0.148 A 
ATOM     83  C   UNL A   1      46.740  28.789  36.007  1.00  0.00     0.002 A 
ATOM     84  C   UNL A   1      45.250  27.255  37.149  1.00  0.00     0.091 A 
ATOM     85  F   UNL A   1      42.935  27.232  36.569  1.00  0.00    -0.205 F 
ATOM     86  C   UNL A   1      46.536  27.773  36.938  1.00  0.00     0.022 A 
BRANCH  84  87
ATOM     87  S   UNL A   1      45.058  26.010  38.431  1.00  0.00     0.127 S 
ATOM     88  O   UNL A   1      44.115  26.659  39.339  1.00  0.00    -0.237 OA
ATOM     89  O   UNL A   1      44.509  24.875  37.689  1.00  0.00    -0.237 OA
ATOM     90  O   UNL A   1      46.395  25.785  38.966  1.00  0.00    -0.744 OA
ENDBRANCH  84  87
ENDBRANCH  57  80
ENDBRANCH  31  32
ENDBRANCH  24  26
ENDBRANCH  23  24
ENDBRANCH  22  23
ENDBRANCH  21  22
ENDBRANCH  20  21
ENDBRANCH   1  20
TORSDOF 22
ENDMDL
MODEL 3
REMARK VINA RESULT:      -9.6      1.639      2.154
REMARK SMILES CCC[C@@H](C)C[C@H](C(=O)OCCOCCOC(=O)c1ccc(-c2c3nc(c(-c4cccc(S(=O)(=O)[O-])c4F)c4ccc([nH]4)c(-c4cccc(S(=O)(=O)[O-])c4F)c4nc(c(-c5cccc(S(=O)(=O)[O-])c5F)c5ccc2[nH]5)C=C4)C=C3)cc1)c1ccccc1C
REMARK SMILES IDX 12 1 11 2 10 3 8 4 9 5 7 6 6 7 4 8 5 9 3 10 2 11 1 12 82 13
REMARK SMILES IDX 83 14 87 15 84 16 86 17 88 18 85 19 13 20 14 21 15 22 16 23
REMARK SMILES IDX 17 24 18 25 19 26 20 27 81 28 21 29 80 30 22 31 23 32 24 33
REMARK SMILES IDX 74 34 25 35 79 36 73 37 75 38 26 39 78 40 72 41 71 42 27 44
REMARK SMILES IDX 59 45 39 46 58 47 40 48 43 49 57 50 76 51 41 52 42 53 56 55
REMARK SMILES IDX 77 56 44 57 28 58 29 59 37 60 30 61 32 62 38 63 31 64 33 65
REMARK SMILES IDX 34 66 35 67 36 68 60 69 61 70 69 71 62 72 64 73 70 74 63 75
REMARK SMILES IDX 65 76 66 77 67 78 68 79 45 80 46 81 54 82 47 83 49 84 55 85
REMARK SMILES IDX 48 86 50 87 51 88 52 89 53 90
REMARK H PARENT 75 43 43 54
REMARK Flexibility Score: inf
ROOT
ATOM      1  C   UNL A   1      32.869  28.240  25.695  1.00  0.00     0.202 C 
ENDROOT
BRANCH   1   2
ATOM      2  C   UNL A   1      33.293  26.778  25.873  1.00  0.00     0.261 C 
BRANCH   2   3
ATOM      3  O   UNL A   1      34.350  26.345  25.010  1.00  0.00    -0.463 OA
BRANCH   3   4
ATOM      4  C   UNL A   1      34.344  25.005  24.730  1.00  0.00     0.313 C 
ATOM      5  O   UNL A   1      35.254  24.230  25.005  1.00  0.00    -0.252 OA
BRANCH   4   6
ATOM      6  C   UNL A   1      33.079  24.620  23.967  1.00  0.00     0.130 C 
BRANCH   6   7
ATOM      7  C   UNL A   1      33.247  24.831  22.433  1.00  0.00     0.023 C 
BRANCH   7   8
ATOM      8  C   UNL A   1      32.071  25.545  21.705  1.00  0.00    -0.013 C 
ATOM      9  C   UNL A   1      32.485  25.851  20.258  1.00  0.00     0.007 C 
BRANCH   8  10
ATOM     10  C   UNL A   1      31.670  26.866  22.403  1.00  0.00     0.003 C 
BRANCH  10  11
ATOM     11  C   UNL A   1      30.198  27.027  22.798  1.00  0.00    -0.003 C 
ATOM     12  C   UNL A   1      29.860  26.580  24.211  1.00  0.00     0.004 C 
ENDBRANCH  10  11
ENDBRANCH   8  10
ENDBRANCH   7   8
ENDBRANCH   6   7
BRANCH   6  13
ATOM     13  C   UNL A   1      32.687  23.177  24.342  1.00  0.00    -0.031 A 
ATOM     14  C   UNL A   1      33.165  22.126  23.526  1.00  0.00     0.005 A 
ATOM     15  C   UNL A   1      31.986  22.830  25.521  1.00  0.00    -0.047 A 
ATOM     16  C   UNL A   1      32.968  20.784  23.851  1.00  0.00     0.000 A 
ATOM     17  C   UNL A   1      31.799  21.464  25.832  1.00  0.00     0.004 A 
ATOM     18  C   UNL A   1      31.423  23.807  26.519  1.00  0.00     0.044 C 
ATOM     19  C   UNL A   1      32.287  20.452  25.011  1.00  0.00     0.000 A 
ENDBRANCH   6  13
ENDBRANCH   4   6
ENDBRANCH   3   4
ENDBRANCH   2   3
ENDBRANCH   1   2
BRANCH   1  20
ATOM     20  O   UNL A   1      31.602  28.632  26.202  1.00  0.00    -0.374 OA
BRANCH  20  21
ATOM     21  C   UNL A   1      31.487  29.929  26.789  1.00  0.00     0.202 C 
BRANCH  21  22
ATOM     22  C   UNL A   1      32.666  30.892  26.611  1.00  0.00     0.261 C 
BRANCH  22  23
ATOM     23  O   UNL A   1      33.534  30.928  27.762  1.00  0.00    -0.460 OA
BRANCH  23  24
ATOM     24  C   UNL A   1      34.464  31.911  27.732  1.00  0.00     0.338 C 
ATOM     25  O   UNL A   1      34.258  33.117  27.662  1.00  0.00    -0.246 OA
BRANCH  24  26
ATOM     26  C   UNL A   1      35.820  31.378  27.942  1.00  0.00     0.060 A 
ATOM     27  C   UNL A   1      35.995  29.990  27.857  1.00  0.00     0.016 A 
ATOM     28  C   UNL A   1      36.852  32.198  28.402  1.00  0.00     0.016 A 
ATOM     29  C   UNL A   1      37.180  29.409  28.307  1.00  0.00     0.010 A 
ATOM     30  C   UNL A   1      38.038  31.612  28.857  1.00  0.00     0.010 A 
ATOM     31  C   UNL A   1      38.184  30.213  28.861  1.00  0.00    -0.014 A 
BRANCH  31  32
ATOM     32  C   UNL A   1      39.310  29.577  29.590  1.00  0.00     0.031 A 
ATOM     33  C   UNL A   1      39.659  30.068  30.971  1.00  0.00     0.074 A 
ATOM     34  C   UNL A   1      40.010  28.573  29.034  1.00  0.00     0.049 A 
ATOM     35  N   UNL A   1      40.600  29.656  31.782  1.00  0.00    -0.248 NA
ATOM     36  C   UNL A   1      38.843  31.168  31.509  1.00  0.00     0.031 C 
ATOM     37  C   UNL A   1      39.771  28.016  27.704  1.00  0.00     0.029 A 
ATOM     38  N   UNL A   1      41.079  27.860  29.513  1.00  0.00    -0.354 N 
ATOM     39  C   UNL A   1      40.505  30.459  32.913  1.00  0.00     0.074 A 
ATOM     40  C   UNL A   1      39.423  31.391  32.680  1.00  0.00     0.031 C 
ATOM     41  C   UNL A   1      40.690  27.066  27.461  1.00  0.00     0.029 A 
ATOM     42  C   UNL A   1      41.586  26.957  28.610  1.00  0.00     0.049 A 
ATOM     43  H   UNL A   1      41.447  27.983  30.418  1.00  0.00     0.167 HD
ATOM     44  C   UNL A   1      41.237  30.413  34.050  1.00  0.00     0.034 A 
ATOM     45  C   UNL A   1      42.660  26.147  28.697  1.00  0.00     0.034 A 
ATOM     46  C   UNL A   1      42.292  29.467  34.295  1.00  0.00     0.049 A 
ATOM     47  C   UNL A   1      43.461  26.117  29.972  1.00  0.00     0.074 A 
ATOM     48  C   UNL A   1      43.053  29.303  35.440  1.00  0.00     0.029 A 
ATOM     49  N   UNL A   1      42.742  28.531  33.378  1.00  0.00    -0.354 N 
ATOM     50  N   UNL A   1      43.270  26.786  31.083  1.00  0.00    -0.248 NA
ATOM     51  C   UNL A   1      44.606  25.195  30.018  1.00  0.00     0.031 C 
ATOM     52  C   UNL A   1      43.973  28.276  35.208  1.00  0.00     0.029 A 
ATOM     53  C   UNL A   1      43.777  27.793  33.925  1.00  0.00     0.049 A 
ATOM     54  H   UNL A   1      42.379  28.410  32.471  1.00  0.00     0.167 HD
ATOM     55  C   UNL A   1      44.247  26.344  31.970  1.00  0.00     0.074 A 
ATOM     56  C   UNL A   1      45.016  25.334  31.272  1.00  0.00     0.031 C 
ATOM     57  C   UNL A   1      44.496  26.750  33.239  1.00  0.00     0.034 A 
BRANCH  44  58
ATOM     58  C   UNL A   1      40.892  31.389  35.144  1.00  0.00     0.023 A 
ATOM     59  C   UNL A   1      41.783  32.440  35.439  1.00  0.00     0.012 A 
ATOM     60  C   UNL A   1      39.667  31.304  35.835  1.00  0.00     0.148 A 
ATOM     61  C   UNL A   1      41.473  33.378  36.424  1.00  0.00     0.002 A 
ATOM     62  C   UNL A   1      39.350  32.264  36.789  1.00  0.00     0.091 A 
ATOM     63  F   UNL A   1      38.845  30.283  35.558  1.00  0.00    -0.205 F 
ATOM     64  C   UNL A   1      40.253  33.296  37.090  1.00  0.00     0.022 A 
BRANCH  62  65
ATOM     65  S   UNL A   1      37.774  32.280  37.653  1.00  0.00     0.127 S 
ATOM     66  O   UNL A   1      38.094  33.077  38.836  1.00  0.00    -0.237 OA
ATOM     67  O   UNL A   1      36.896  32.944  36.689  1.00  0.00    -0.237 OA
ATOM     68  O   UNL A   1      37.446  30.883  37.906  1.00  0.00    -0.744 OA
ENDBRANCH  62  65
ENDBRANCH  44  58
BRANCH  45  69
ATOM     69  C   UNL A   1      43.007  25.257  27.554  1.00  0.00     0.023 A 
ATOM     70  C   UNL A   1      43.968  25.676  26.614  1.00  0.00     0.012 A 
ATOM     71  C   UNL A   1      42.417  23.986  27.412  1.00  0.00     0.148 A 
ATOM     72  C   UNL A   1      44.320  24.855  25.542  1.00  0.00     0.002 A 
ATOM     73  C   UNL A   1      42.811  23.151  26.373  1.00  0.00     0.091 A 
ATOM     74  F   UNL A   1      41.486  23.613  28.303  1.00  0.00    -0.205 F 
ATOM     75  C   UNL A   1      43.750  23.589  25.428  1.00  0.00     0.022 A 
BRANCH  73  76
ATOM     76  S   UNL A   1      42.224  21.458  26.234  1.00  0.00     0.127 S 
ATOM     77  O   UNL A   1      43.066  20.936  25.162  1.00  0.00    -0.237 OA
ATOM     78  O   UNL A   1      42.516  20.923  27.565  1.00  0.00    -0.237 OA
ATOM     79  O   UNL A   1      40.802  21.565  25.936  1.00  0.00    -0.744 OA
ENDBRANCH  73  76
ENDBRANCH  45  69
BRANCH  57  80
ATOM     80  C   UNL A   1      45.633  26.090  33.975  1.00  0.00     0.023 A 
ATOM     81  C   UNL A   1      46.925  26.648  33.900  1.00  0.00     0.012 A 
ATOM     82  C   UNL A   1      45.408  24.975  34.805  1.00  0.00     0.148 A 
ATOM     83  C   UNL A   1      47.981  26.089  34.619  1.00  0.00     0.002 A 
ATOM     84  C   UNL A   1      46.458  24.449  35.552  1.00  0.00     0.091 A 
ATOM     85  F   UNL A   1      44.177  24.445  34.849  1.00  0.00    -0.205 F 
ATOM     86  C   UNL A   1      47.745  24.999  35.453  1.00  0.00     0.022 A 
BRANCH  84  87
ATOM     87  S   UNL A   1      46.219  23.103  36.719  1.00  0.00     0.127 S 
ATOM     88  O   UNL A   1      47.580  22.884  37.204  1.00  0.00    -0.237 OA
ATOM     89  O   UNL A   1      45.310  23.694  37.701  1.00  0.00    -0.237 OA
ATOM     90  O   UNL A   1      45.640  22.010  35.948  1.00  0.00    -0.744 OA
ENDBRANCH  84  87
ENDBRANCH  57  80
ENDBRANCH  31  32
ENDBRANCH  24  26
ENDBRANCH  23  24
ENDBRANCH  22  23
ENDBRANCH  21  22
ENDBRANCH  20  21
ENDBRANCH   1  20
TORSDOF 22
ENDMDL
