MODEL 1
REMARK VINA RESULT:     -11.9      0.000      0.000
REMARK SMILES C[C@@H]1CC[C@H](C)[N@H+]1Cc1cc2c(cc1Cl)C=C(C(=O)OCCOCCOC(=O)c1ccc(-c3c4nc(c(-c5cccc(S(=O)(=O)[O-])c5F)c5ccc([nH]5)c(-c5cccc(S(=O)(=O)[O-])c5F)c5nc(c(-c6cccc(S(=O)(=O)[O-])c6F)c6ccc3[nH]6)C=C5)C=C4)cc1)[C@@H](C(F)(F)F)O2
REMARK SMILES IDX 24 1 23 2 22 3 21 4 20 5 18 6 19 7 17 8 9 9 10 10 14 11
REMARK SMILES IDX 11 12 13 13 15 14 12 15 97 16 16 17 92 18 8 19 7 20 6 21
REMARK SMILES IDX 5 22 4 23 3 24 2 25 1 27 93 28 94 29 95 30 96 31 25 32 26 33
REMARK SMILES IDX 27 34 28 35 29 36 30 37 91 38 31 39 90 40 32 41 33 42 34 43
REMARK SMILES IDX 84 44 35 45 89 46 83 47 85 48 36 49 88 50 82 51 81 52 37 54
REMARK SMILES IDX 69 55 49 56 68 57 50 58 53 59 67 60 86 61 51 62 52 63 66 65
REMARK SMILES IDX 87 66 54 67 38 68 39 69 47 70 40 71 42 72 48 73 41 74 43 75
REMARK SMILES IDX 44 76 45 77 46 78 70 79 71 80 79 81 72 82 74 83 80 84 73 85
REMARK SMILES IDX 75 86 76 87 77 88 78 89 55 90 56 91 64 92 57 93 59 94 65 95
REMARK SMILES IDX 58 96 60 97 61 98 62 99 63 100
REMARK H PARENT 7 26 85 53 53 64
REMARK Flexibility Score: inf
ROOT
ATOM      1  C   UNL A   1      31.222  31.863  26.509  1.00  0.00     0.202 C 
ENDROOT
BRANCH   1   2
ATOM      2  O   UNL A   1      31.701  30.523  26.621  1.00  0.00    -0.374 OA
BRANCH   2   3
ATOM      3  C   UNL A   1      31.736  29.704  25.455  1.00  0.00     0.202 C 
BRANCH   3   4
ATOM      4  C   UNL A   1      30.706  29.970  24.352  1.00  0.00     0.261 C 
BRANCH   4   5
ATOM      5  O   UNL A   1      30.099  28.760  23.875  1.00  0.00    -0.460 OA
BRANCH   5   6
ATOM      6  C   UNL A   1      30.411  28.469  22.592  1.00  0.00     0.338 C 
ATOM      7  O   UNL A   1      30.222  29.176  21.614  1.00  0.00    -0.246 OA
BRANCH   6   8
ATOM      8  C   UNL A   1      31.177  27.215  22.522  1.00  0.00     0.087 C 
ATOM      9  C   UNL A   1      33.005  22.791  23.993  1.00  0.00     0.029 A 
ATOM     10  C   UNL A   1      33.403  23.733  23.011  1.00  0.00     0.058 A 
ATOM     11  C   UNL A   1      31.829  23.059  24.714  1.00  0.00     0.050 A 
ATOM     12  C   UNL A   1      32.630  24.869  22.744  1.00  0.00     0.128 A 
ATOM     13  C   UNL A   1      30.991  24.107  24.343  1.00  0.00     0.033 A 
ATOM     14  Cl  UNL A   1      31.406  22.270  26.195  1.00  0.00    -0.084 Cl
ATOM     15  C   UNL A   1      31.399  25.016  23.372  1.00  0.00     0.019 A 
ATOM     16  O   UNL A   1      33.127  25.800  21.870  1.00  0.00    -0.475 OA
ATOM     17  C   UNL A   1      30.588  26.186  23.138  1.00  0.00     0.027 C 
ATOM     18  C   UNL A   1      32.549  27.149  21.913  1.00  0.00     0.316 C 
BRANCH   9  19
ATOM     19  C   UNL A   1      33.871  21.566  24.243  1.00  0.00     0.301 C 
BRANCH  19  20
ATOM     20  N   UNL A   1      35.074  21.741  25.077  1.00  0.00    -0.327 N 
ATOM     21  C   UNL A   1      34.549  22.371  27.412  1.00  0.00     0.075 C 
ATOM     22  C   UNL A   1      35.029  22.846  26.048  1.00  0.00     0.181 C 
ATOM     23  C   UNL A   1      36.461  23.376  26.115  1.00  0.00     0.071 C 
ATOM     24  C   UNL A   1      36.977  23.122  24.717  1.00  0.00     0.071 C 
ATOM     25  C   UNL A   1      36.352  21.782  24.358  1.00  0.00     0.181 C 
ATOM     26  H   UNL A   1      35.042  20.867  25.602  1.00  0.00     0.348 HD
ATOM     27  C   UNL A   1      37.224  20.597  24.775  1.00  0.00     0.075 C 
ENDBRANCH  19  20
ENDBRANCH   9  19
BRANCH  18  28
ATOM     28  C   UNL A   1      33.518  28.123  22.604  1.00  0.00     0.430 C 
ATOM     29  F   UNL A   1      33.094  29.404  22.494  1.00  0.00    -0.167 F 
ATOM     30  F   UNL A   1      33.624  27.855  23.927  1.00  0.00    -0.167 F 
ATOM     31  F   UNL A   1      34.761  28.058  22.076  1.00  0.00    -0.167 F 
ENDBRANCH  18  28
ENDBRANCH   6   8
ENDBRANCH   5   6
ENDBRANCH   4   5
ENDBRANCH   3   4
ENDBRANCH   2   3
ENDBRANCH   1   2
BRANCH   1  32
ATOM     32  C   UNL A   1      32.060  33.011  27.084  1.00  0.00     0.261 C 
BRANCH  32  33
ATOM     33  O   UNL A   1      33.191  32.559  27.845  1.00  0.00    -0.460 OA
BRANCH  33  34
ATOM     34  C   UNL A   1      34.202  33.460  27.951  1.00  0.00     0.338 C 
ATOM     35  O   UNL A   1      34.116  34.675  27.859  1.00  0.00    -0.246 OA
BRANCH  34  36
ATOM     36  C   UNL A   1      35.416  32.765  28.413  1.00  0.00     0.060 A 
ATOM     37  C   UNL A   1      36.654  33.407  28.409  1.00  0.00     0.016 A 
ATOM     38  C   UNL A   1      35.293  31.452  28.888  1.00  0.00     0.016 A 
ATOM     39  C   UNL A   1      37.772  32.733  28.906  1.00  0.00     0.010 A 
ATOM     40  C   UNL A   1      36.412  30.780  29.379  1.00  0.00     0.010 A 
ATOM     41  C   UNL A   1      37.656  31.423  29.409  1.00  0.00    -0.014 A 
BRANCH  41  42
ATOM     42  C   UNL A   1      38.808  30.787  30.091  1.00  0.00     0.031 A 
ATOM     43  C   UNL A   1      39.228  31.189  31.473  1.00  0.00     0.074 A 
ATOM     44  C   UNL A   1      39.498  29.841  29.425  1.00  0.00     0.049 A 
ATOM     45  N   UNL A   1      40.163  30.668  32.225  1.00  0.00    -0.248 NA
ATOM     46  C   UNL A   1      38.518  32.318  32.093  1.00  0.00     0.031 C 
ATOM     47  C   UNL A   1      39.224  29.415  28.050  1.00  0.00     0.029 A 
ATOM     48  N   UNL A   1      40.565  29.069  29.806  1.00  0.00    -0.354 N 
ATOM     49  C   UNL A   1      40.160  31.400  33.403  1.00  0.00     0.074 A 
ATOM     50  C   UNL A   1      39.142  32.421  33.261  1.00  0.00     0.031 C 
ATOM     51  C   UNL A   1      40.083  28.442  27.713  1.00  0.00     0.029 A 
ATOM     52  C   UNL A   1      40.982  28.190  28.836  1.00  0.00     0.049 A 
ATOM     53  H   UNL A   1      40.992  29.139  30.691  1.00  0.00     0.167 HD
ATOM     54  C   UNL A   1      40.920  31.220  34.508  1.00  0.00     0.034 A 
ATOM     55  C   UNL A   1      41.971  27.276  28.845  1.00  0.00     0.034 A 
ATOM     56  C   UNL A   1      41.921  30.196  34.649  1.00  0.00     0.049 A 
ATOM     57  C   UNL A   1      42.795  27.094  30.087  1.00  0.00     0.074 A 
ATOM     58  C   UNL A   1      42.694  29.903  35.760  1.00  0.00     0.029 A 
ATOM     59  N   UNL A   1      42.302  29.313  33.652  1.00  0.00    -0.354 N 
ATOM     60  N   UNL A   1      42.685  27.707  31.240  1.00  0.00    -0.248 NA
ATOM     61  C   UNL A   1      43.859  26.081  30.040  1.00  0.00     0.031 C 
ATOM     62  C   UNL A   1      43.557  28.856  35.427  1.00  0.00     0.029 A 
ATOM     63  C   UNL A   1      43.306  28.482  34.118  1.00  0.00     0.049 A 
ATOM     64  H   UNL A   1      41.916  29.281  32.747  1.00  0.00     0.167 HD
ATOM     65  C   UNL A   1      43.650  27.142  32.063  1.00  0.00     0.074 A 
ATOM     66  C   UNL A   1      44.328  26.128  31.283  1.00  0.00     0.031 C 
ATOM     67  C   UNL A   1      43.950  27.448  33.348  1.00  0.00     0.034 A 
BRANCH  54  68
ATOM     68  C   UNL A   1      40.669  32.106  35.697  1.00  0.00     0.023 A 
ATOM     69  C   UNL A   1      41.517  33.208  35.920  1.00  0.00     0.012 A 
ATOM     70  C   UNL A   1      39.530  31.930  36.506  1.00  0.00     0.148 A 
ATOM     71  C   UNL A   1      41.239  34.123  36.934  1.00  0.00     0.002 A 
ATOM     72  C   UNL A   1      39.243  32.862  37.498  1.00  0.00     0.091 A 
ATOM     73  F   UNL A   1      38.742  30.870  36.277  1.00  0.00    -0.205 F 
ATOM     74  C   UNL A   1      40.097  33.956  37.713  1.00  0.00     0.022 A 
BRANCH  72  75
ATOM     75  S   UNL A   1      37.774  32.769  38.527  1.00  0.00     0.127 S 
ATOM     76  O   UNL A   1      36.710  32.888  37.531  1.00  0.00    -0.237 OA
ATOM     77  O   UNL A   1      37.904  31.441  39.126  1.00  0.00    -0.237 OA
ATOM     78  O   UNL A   1      37.866  33.879  39.465  1.00  0.00    -0.744 OA
ENDBRANCH  72  75
ENDBRANCH  54  68
BRANCH  55  79
ATOM     79  C   UNL A   1      42.175  26.418  27.648  1.00  0.00     0.023 A 
ATOM     80  C   UNL A   1      42.914  26.920  26.560  1.00  0.00     0.012 A 
ATOM     81  C   UNL A   1      41.712  25.089  27.620  1.00  0.00     0.148 A 
ATOM     82  C   UNL A   1      43.186  26.110  25.458  1.00  0.00     0.002 A 
ATOM     83  C   UNL A   1      42.017  24.277  26.535  1.00  0.00     0.091 A 
ATOM     84  F   UNL A   1      41.016  24.640  28.673  1.00  0.00    -0.205 F 
ATOM     85  C   UNL A   1      42.747  24.787  25.450  1.00  0.00     0.022 A 
BRANCH  83  86
ATOM     86  S   UNL A   1      41.577  22.538  26.472  1.00  0.00     0.127 S 
ATOM     87  O   UNL A   1      40.122  22.604  26.359  1.00  0.00    -0.237 OA
ATOM     88  O   UNL A   1      42.271  22.101  25.261  1.00  0.00    -0.237 OA
ATOM     89  O   UNL A   1      42.080  21.954  27.708  1.00  0.00    -0.744 OA
ENDBRANCH  83  86
ENDBRANCH  55  79
BRANCH  67  90
ATOM     90  C   UNL A   1      45.053  26.683  34.023  1.00  0.00     0.023 A 
ATOM     91  C   UNL A   1      46.372  27.175  33.968  1.00  0.00     0.012 A 
ATOM     92  C   UNL A   1      44.763  25.559  34.821  1.00  0.00     0.148 A 
ATOM     93  C   UNL A   1      47.387  26.555  34.697  1.00  0.00     0.002 A 
ATOM     94  C   UNL A   1      45.771  24.968  35.571  1.00  0.00     0.091 A 
ATOM     95  F   UNL A   1      43.499  25.109  34.852  1.00  0.00    -0.205 F 
ATOM     96  C   UNL A   1      47.085  25.463  35.508  1.00  0.00     0.022 A 
BRANCH  94  97
ATOM     97  S   UNL A   1      45.472  23.600  36.696  1.00  0.00     0.127 S 
ATOM     98  O   UNL A   1      46.834  23.201  37.049  1.00  0.00    -0.237 OA
ATOM     99  O   UNL A   1      44.726  24.246  37.775  1.00  0.00    -0.237 OA
ATOM    100  O   UNL A   1      44.717  22.610  35.939  1.00  0.00    -0.744 OA
ENDBRANCH  94  97
ENDBRANCH  67  90
ENDBRANCH  41  42
ENDBRANCH  34  36
ENDBRANCH  33  34
ENDBRANCH  32  33
ENDBRANCH   1  32
TORSDOF 20
ENDMDL
MODEL 2
REMARK VINA RESULT:     -11.1      1.160      7.301
REMARK SMILES C[C@@H]1CC[C@H](C)[N@H+]1Cc1cc2c(cc1Cl)C=C(C(=O)OCCOCCOC(=O)c1ccc(-c3c4nc(c(-c5cccc(S(=O)(=O)[O-])c5F)c5ccc([nH]5)c(-c5cccc(S(=O)(=O)[O-])c5F)c5nc(c(-c6cccc(S(=O)(=O)[O-])c6F)c6ccc3[nH]6)C=C5)C=C4)cc1)[C@@H](C(F)(F)F)O2
REMARK SMILES IDX 24 1 23 2 22 3 21 4 20 5 18 6 19 7 17 8 9 9 10 10 14 11
REMARK SMILES IDX 11 12 13 13 15 14 12 15 97 16 16 17 92 18 8 19 7 20 6 21
REMARK SMILES IDX 5 22 4 23 3 24 2 25 1 27 93 28 94 29 95 30 96 31 25 32 26 33
REMARK SMILES IDX 27 34 28 35 29 36 30 37 91 38 31 39 90 40 32 41 33 42 34 43
REMARK SMILES IDX 84 44 35 45 89 46 83 47 85 48 36 49 88 50 82 51 81 52 37 54
REMARK SMILES IDX 69 55 49 56 68 57 50 58 53 59 67 60 86 61 51 62 52 63 66 65
REMARK SMILES IDX 87 66 54 67 38 68 39 69 47 70 40 71 42 72 48 73 41 74 43 75
REMARK SMILES IDX 44 76 45 77 46 78 70 79 71 80 79 81 72 82 74 83 80 84 73 85
REMARK SMILES IDX 75 86 76 87 77 88 78 89 55 90 56 91 64 92 57 93 59 94 65 95
REMARK SMILES IDX 58 96 60 97 61 98 62 99 63 100
REMARK H PARENT 7 26 85 53 53 64
REMARK Flexibility Score: inf
ROOT
ATOM      1  C   UNL A   1      31.104  32.076  26.422  1.00  0.00     0.202 C 
ENDROOT
BRANCH   1   2
ATOM      2  O   UNL A   1      31.670  30.773  26.557  1.00  0.00    -0.374 OA
BRANCH   2   3
ATOM      3  C   UNL A   1      31.700  29.914  25.420  1.00  0.00     0.202 C 
BRANCH   3   4
ATOM      4  C   UNL A   1      30.651  30.126  24.324  1.00  0.00     0.261 C 
BRANCH   4   5
ATOM      5  O   UNL A   1      30.040  28.894  23.913  1.00  0.00    -0.460 OA
BRANCH   5   6
ATOM      6  C   UNL A   1      30.306  28.561  22.631  1.00  0.00     0.338 C 
ATOM      7  O   UNL A   1      30.090  29.239  21.637  1.00  0.00    -0.246 OA
BRANCH   6   8
ATOM      8  C   UNL A   1      31.059  27.298  22.574  1.00  0.00     0.087 C 
ATOM      9  C   UNL A   1      32.893  22.901  24.118  1.00  0.00     0.029 A 
ATOM     10  C   UNL A   1      33.268  23.811  23.098  1.00  0.00     0.058 A 
ATOM     11  C   UNL A   1      31.741  23.201  24.866  1.00  0.00     0.050 A 
ATOM     12  C   UNL A   1      32.498  24.945  22.821  1.00  0.00     0.128 A 
ATOM     13  C   UNL A   1      30.901  24.245  24.489  1.00  0.00     0.033 A 
ATOM     14  Cl  UNL A   1      31.355  22.459  26.381  1.00  0.00    -0.084 Cl
ATOM     15  C   UNL A   1      31.288  25.123  23.481  1.00  0.00     0.019 A 
ATOM     16  O   UNL A   1      32.977  25.846  21.906  1.00  0.00    -0.475 OA
ATOM     17  C   UNL A   1      30.480  26.293  23.237  1.00  0.00     0.027 C 
ATOM     18  C   UNL A   1      32.412  27.202  21.927  1.00  0.00     0.316 C 
BRANCH   9  19
ATOM     19  C   UNL A   1      33.754  21.675  24.378  1.00  0.00     0.301 C 
BRANCH  19  20
ATOM     20  N   UNL A   1      34.997  21.868  25.148  1.00  0.00    -0.327 N 
ATOM     21  C   UNL A   1      34.587  22.607  27.475  1.00  0.00     0.075 C 
ATOM     22  C   UNL A   1      35.011  23.015  26.070  1.00  0.00     0.181 C 
ATOM     23  C   UNL A   1      36.452  23.525  26.051  1.00  0.00     0.071 C 
ATOM     24  C   UNL A   1      36.901  23.202  24.643  1.00  0.00     0.071 C 
ATOM     25  C   UNL A   1      36.242  21.858  24.372  1.00  0.00     0.181 C 
ATOM     26  H   UNL A   1      34.976  21.018  25.712  1.00  0.00     0.348 HD
ATOM     27  C   UNL A   1      37.115  20.679  24.802  1.00  0.00     0.075 C 
ENDBRANCH  19  20
ENDBRANCH   9  19
BRANCH  18  28
ATOM     28  C   UNL A   1      33.409  28.186  22.560  1.00  0.00     0.430 C 
ATOM     29  F   UNL A   1      33.000  29.468  22.412  1.00  0.00    -0.167 F 
ATOM     30  F   UNL A   1      33.540  27.965  23.890  1.00  0.00    -0.167 F 
ATOM     31  F   UNL A   1      34.640  28.083  22.008  1.00  0.00    -0.167 F 
ENDBRANCH  18  28
ENDBRANCH   6   8
ENDBRANCH   5   6
ENDBRANCH   4   5
ENDBRANCH   3   4
ENDBRANCH   2   3
ENDBRANCH   1   2
BRANCH   1  32
ATOM     32  C   UNL A   1      31.889  33.292  26.931  1.00  0.00     0.261 C 
BRANCH  32  33
ATOM     33  O   UNL A   1      32.991  32.938  27.780  1.00  0.00    -0.460 OA
BRANCH  33  34
ATOM     34  C   UNL A   1      34.109  33.689  27.604  1.00  0.00     0.338 C 
ATOM     35  O   UNL A   1      34.162  34.851  27.229  1.00  0.00    -0.246 OA
BRANCH  34  36
ATOM     36  C   UNL A   1      35.268  32.957  28.144  1.00  0.00     0.060 A 
ATOM     37  C   UNL A   1      36.482  33.604  28.368  1.00  0.00     0.016 A 
ATOM     38  C   UNL A   1      35.112  31.599  28.456  1.00  0.00     0.016 A 
ATOM     39  C   UNL A   1      37.541  32.888  28.931  1.00  0.00     0.010 A 
ATOM     40  C   UNL A   1      36.173  30.886  29.014  1.00  0.00     0.010 A 
ATOM     41  C   UNL A   1      37.389  31.530  29.273  1.00  0.00    -0.014 A 
BRANCH  41  42
ATOM     42  C   UNL A   1      38.458  30.833  30.027  1.00  0.00     0.031 A 
ATOM     43  C   UNL A   1      39.277  29.741  29.408  1.00  0.00     0.074 A 
ATOM     44  C   UNL A   1      38.668  31.189  31.309  1.00  0.00     0.049 A 
ATOM     45  N   UNL A   1      40.296  29.098  29.917  1.00  0.00    -0.248 NA
ATOM     46  C   UNL A   1      38.911  29.309  28.050  1.00  0.00     0.031 C 
ATOM     47  C   UNL A   1      37.888  32.191  32.039  1.00  0.00     0.029 A 
ATOM     48  N   UNL A   1      39.591  30.754  32.225  1.00  0.00    -0.354 N 
ATOM     49  C   UNL A   1      40.694  28.185  28.951  1.00  0.00     0.074 A 
ATOM     50  C   UNL A   1      39.792  28.340  27.828  1.00  0.00     0.031 C 
ATOM     51  C   UNL A   1      38.382  32.312  33.281  1.00  0.00     0.029 A 
ATOM     52  C   UNL A   1      39.496  31.382  33.442  1.00  0.00     0.049 A 
ATOM     53  H   UNL A   1      40.258  30.057  32.028  1.00  0.00     0.167 HD
ATOM     54  C   UNL A   1      41.731  27.316  28.991  1.00  0.00     0.034 A 
ATOM     55  C   UNL A   1      40.226  31.237  34.565  1.00  0.00     0.034 A 
ATOM     56  C   UNL A   1      42.632  27.174  30.103  1.00  0.00     0.049 A 
ATOM     57  C   UNL A   1      41.373  30.269  34.579  1.00  0.00     0.074 A 
ATOM     58  C   UNL A   1      43.749  26.361  30.201  1.00  0.00     0.029 A 
ATOM     59  N   UNL A   1      42.515  27.841  31.312  1.00  0.00    -0.354 N 
ATOM     60  N   UNL A   1      41.817  29.512  33.606  1.00  0.00    -0.248 NA
ATOM     61  C   UNL A   1      42.135  30.154  35.830  1.00  0.00     0.031 C 
ATOM     62  C   UNL A   1      44.295  26.521  31.477  1.00  0.00     0.029 A 
ATOM     63  C   UNL A   1      43.532  27.450  32.165  1.00  0.00     0.049 A 
ATOM     64  H   UNL A   1      41.813  28.495  31.531  1.00  0.00     0.167 HD
ATOM     65  C   UNL A   1      42.921  28.845  34.119  1.00  0.00     0.074 A 
ATOM     66  C   UNL A   1      43.089  29.296  35.485  1.00  0.00     0.031 C 
ATOM     67  C   UNL A   1      43.716  27.932  33.510  1.00  0.00     0.034 A 
BRANCH  54  68
ATOM     68  C   UNL A   1      42.005  26.479  27.771  1.00  0.00     0.023 A 
ATOM     69  C   UNL A   1      42.828  27.001  26.755  1.00  0.00     0.012 A 
ATOM     70  C   UNL A   1      41.566  25.142  27.694  1.00  0.00     0.148 A 
ATOM     71  C   UNL A   1      43.209  26.208  25.674  1.00  0.00     0.002 A 
ATOM     72  C   UNL A   1      41.973  24.349  26.627  1.00  0.00     0.091 A 
ATOM     73  F   UNL A   1      40.780  24.671  28.672  1.00  0.00    -0.205 F 
ATOM     74  C   UNL A   1      42.792  24.880  25.617  1.00  0.00     0.022 A 
BRANCH  72  75
ATOM     75  S   UNL A   1      41.533  22.613  26.480  1.00  0.00     0.127 S 
ATOM     76  O   UNL A   1      42.271  22.225  25.279  1.00  0.00    -0.237 OA
ATOM     77  O   UNL A   1      42.060  22.058  27.726  1.00  0.00    -0.237 OA
ATOM     78  O   UNL A   1      40.083  22.572  26.352  1.00  0.00    -0.744 OA
ENDBRANCH  72  75
ENDBRANCH  54  68
BRANCH  55  79
ATOM     79  C   UNL A   1      39.920  32.093  35.742  1.00  0.00     0.023 A 
ATOM     80  C   UNL A   1      39.088  31.592  36.760  1.00  0.00     0.012 A 
ATOM     81  C   UNL A   1      40.515  33.360  35.891  1.00  0.00     0.148 A 
ATOM     82  C   UNL A   1      38.848  32.343  37.910  1.00  0.00     0.002 A 
ATOM     83  C   UNL A   1      40.301  34.088  37.055  1.00  0.00     0.091 A 
ATOM     84  F   UNL A   1      41.306  33.808  34.907  1.00  0.00    -0.205 F 
ATOM     85  C   UNL A   1      39.462  33.585  38.062  1.00  0.00     0.022 A 
BRANCH  83  86
ATOM     86  S   UNL A   1      41.117  35.652  37.384  1.00  0.00     0.127 S 
ATOM     87  O   UNL A   1      41.110  35.691  38.844  1.00  0.00    -0.237 OA
ATOM     88  O   UNL A   1      42.431  35.434  36.779  1.00  0.00    -0.237 OA
ATOM     89  O   UNL A   1      40.306  36.670  36.730  1.00  0.00    -0.744 OA
ENDBRANCH  83  86
ENDBRANCH  55  79
BRANCH  67  90
ATOM     90  C   UNL A   1      44.859  27.349  34.293  1.00  0.00     0.023 A 
ATOM     91  C   UNL A   1      46.093  28.026  34.326  1.00  0.00     0.012 A 
ATOM     92  C   UNL A   1      44.668  26.210  35.100  1.00  0.00     0.148 A 
ATOM     93  C   UNL A   1      47.123  27.575  35.151  1.00  0.00     0.002 A 
ATOM     94  C   UNL A   1      45.686  25.786  35.945  1.00  0.00     0.091 A 
ATOM     95  F   UNL A   1      43.484  25.581  35.046  1.00  0.00    -0.205 F 
ATOM     96  C   UNL A   1      46.916  26.466  35.969  1.00  0.00     0.022 A 
BRANCH  94  97
ATOM     97  S   UNL A   1      45.495  24.411  37.084  1.00  0.00     0.127 S 
ATOM     98  O   UNL A   1      46.819  24.351  37.703  1.00  0.00    -0.237 OA
ATOM     99  O   UNL A   1      44.431  24.887  37.966  1.00  0.00    -0.237 OA
ATOM    100  O   UNL A   1      45.143  23.256  36.270  1.00  0.00    -0.744 OA
ENDBRANCH  94  97
ENDBRANCH  67  90
ENDBRANCH  41  42
ENDBRANCH  34  36
ENDBRANCH  33  34
ENDBRANCH  32  33
ENDBRANCH   1  32
TORSDOF 20
ENDMDL
MODEL 3
REMARK VINA RESULT:     -11.0      1.416      2.053
REMARK SMILES C[C@@H]1CC[C@H](C)[N@H+]1Cc1cc2c(cc1Cl)C=C(C(=O)OCCOCCOC(=O)c1ccc(-c3c4nc(c(-c5cccc(S(=O)(=O)[O-])c5F)c5ccc([nH]5)c(-c5cccc(S(=O)(=O)[O-])c5F)c5nc(c(-c6cccc(S(=O)(=O)[O-])c6F)c6ccc3[nH]6)C=C5)C=C4)cc1)[C@@H](C(F)(F)F)O2
REMARK SMILES IDX 24 1 23 2 22 3 21 4 20 5 18 6 19 7 17 8 9 9 10 10 14 11
REMARK SMILES IDX 11 12 13 13 15 14 12 15 97 16 16 17 92 18 8 19 7 20 6 21
REMARK SMILES IDX 5 22 4 23 3 24 2 25 1 27 93 28 94 29 95 30 96 31 25 32 26 33
REMARK SMILES IDX 27 34 28 35 29 36 30 37 91 38 31 39 90 40 32 41 33 42 34 43
REMARK SMILES IDX 84 44 35 45 89 46 83 47 85 48 36 49 88 50 82 51 81 52 37 54
REMARK SMILES IDX 69 55 49 56 68 57 50 58 53 59 67 60 86 61 51 62 52 63 66 65
REMARK SMILES IDX 87 66 54 67 38 68 39 69 47 70 40 71 42 72 48 73 41 74 43 75
REMARK SMILES IDX 44 76 45 77 46 78 70 79 71 80 79 81 72 82 74 83 80 84 73 85
REMARK SMILES IDX 75 86 76 87 77 88 78 89 55 90 56 91 64 92 57 93 59 94 65 95
REMARK SMILES IDX 58 96 60 97 61 98 62 99 63 100
REMARK H PARENT 7 26 85 53 53 64
REMARK Flexibility Score: inf
ROOT
ATOM      1  C   UNL A   1      32.219  30.392  26.297  1.00  0.00     0.202 C 
ENDROOT
BRANCH   1   2
ATOM      2  O   UNL A   1      31.404  29.437  26.975  1.00  0.00    -0.374 OA
BRANCH   2   3
ATOM      3  C   UNL A   1      31.907  28.118  27.171  1.00  0.00     0.202 C 
BRANCH   3   4
ATOM      4  C   UNL A   1      31.252  26.970  26.397  1.00  0.00     0.261 C 
BRANCH   4   5
ATOM      5  O   UNL A   1      30.936  27.338  25.046  1.00  0.00    -0.460 OA
BRANCH   5   6
ATOM      6  C   UNL A   1      30.125  26.455  24.422  1.00  0.00     0.338 C 
ATOM      7  O   UNL A   1      28.989  26.660  24.020  1.00  0.00    -0.246 OA
BRANCH   6   8
ATOM      8  C   UNL A   1      30.850  25.208  24.131  1.00  0.00     0.087 C 
ATOM      9  C   UNL A   1      33.830  21.264  24.934  1.00  0.00     0.029 A 
ATOM     10  C   UNL A   1      33.371  21.919  23.763  1.00  0.00     0.058 A 
ATOM     11  C   UNL A   1      33.352  21.732  26.171  1.00  0.00     0.050 A 
ATOM     12  C   UNL A   1      32.446  22.965  23.835  1.00  0.00     0.128 A 
ATOM     13  C   UNL A   1      32.323  22.668  26.227  1.00  0.00     0.033 A 
ATOM     14  Cl  UNL A   1      34.083  21.353  27.693  1.00  0.00    -0.084 Cl
ATOM     15  C   UNL A   1      31.884  23.293  25.063  1.00  0.00     0.019 A 
ATOM     16  O   UNL A   1      32.133  23.633  22.680  1.00  0.00    -0.475 OA
ATOM     17  C   UNL A   1      30.945  24.382  25.177  1.00  0.00     0.027 C 
ATOM     18  C   UNL A   1      31.519  24.962  22.809  1.00  0.00     0.316 C 
BRANCH   9  19
ATOM     19  C   UNL A   1      34.829  20.125  24.809  1.00  0.00     0.301 C 
BRANCH  19  20
ATOM     20  N   UNL A   1      34.294  18.751  24.775  1.00  0.00    -0.327 N 
ATOM     21  C   UNL A   1      35.986  17.039  25.349  1.00  0.00     0.075 C 
ATOM     22  C   UNL A   1      35.198  17.721  24.239  1.00  0.00     0.181 C 
ATOM     23  C   UNL A   1      34.289  16.730  23.513  1.00  0.00     0.071 C 
ATOM     24  C   UNL A   1      33.163  17.610  23.020  1.00  0.00     0.071 C 
ATOM     25  C   UNL A   1      32.969  18.594  24.164  1.00  0.00     0.181 C 
ATOM     26  H   UNL A   1      34.195  18.586  25.776  1.00  0.00     0.348 HD
ATOM     27  C   UNL A   1      31.971  18.091  25.208  1.00  0.00     0.075 C 
ENDBRANCH  19  20
ENDBRANCH   9  19
BRANCH  18  28
ATOM     28  C   UNL A   1      32.547  26.058  22.486  1.00  0.00     0.430 C 
ATOM     29  F   UNL A   1      31.941  27.208  22.108  1.00  0.00    -0.167 F 
ATOM     30  F   UNL A   1      33.310  26.351  23.566  1.00  0.00    -0.167 F 
ATOM     31  F   UNL A   1      33.382  25.689  21.487  1.00  0.00    -0.167 F 
ENDBRANCH  18  28
ENDBRANCH   6   8
ENDBRANCH   5   6
ENDBRANCH   4   5
ENDBRANCH   3   4
ENDBRANCH   2   3
ENDBRANCH   1   2
BRANCH   1  32
ATOM     32  C   UNL A   1      32.096  31.877  26.661  1.00  0.00     0.261 C 
BRANCH  32  33
ATOM     33  O   UNL A   1      32.747  32.212  27.897  1.00  0.00    -0.460 OA
BRANCH  33  34
ATOM     34  C   UNL A   1      33.772  33.095  27.779  1.00  0.00     0.338 C 
ATOM     35  O   UNL A   1      33.691  34.282  27.503  1.00  0.00    -0.246 OA
BRANCH  34  36
ATOM     36  C   UNL A   1      35.013  32.454  28.250  1.00  0.00     0.060 A 
ATOM     37  C   UNL A   1      36.230  33.133  28.205  1.00  0.00     0.016 A 
ATOM     38  C   UNL A   1      34.936  31.157  28.773  1.00  0.00     0.016 A 
ATOM     39  C   UNL A   1      37.374  32.511  28.709  1.00  0.00     0.010 A 
ATOM     40  C   UNL A   1      36.081  30.537  29.273  1.00  0.00     0.010 A 
ATOM     41  C   UNL A   1      37.305  31.217  29.262  1.00  0.00    -0.014 A 
BRANCH  41  42
ATOM     42  C   UNL A   1      38.485  30.642  29.950  1.00  0.00     0.031 A 
ATOM     43  C   UNL A   1      38.866  31.052  31.341  1.00  0.00     0.074 A 
ATOM     44  C   UNL A   1      39.236  29.746  29.282  1.00  0.00     0.049 A 
ATOM     45  N   UNL A   1      39.821  30.577  32.098  1.00  0.00    -0.248 NA
ATOM     46  C   UNL A   1      38.084  32.131  31.965  1.00  0.00     0.031 C 
ATOM     47  C   UNL A   1      39.002  29.321  27.900  1.00  0.00     0.029 A 
ATOM     48  N   UNL A   1      40.343  29.033  29.667  1.00  0.00    -0.354 N 
ATOM     49  C   UNL A   1      39.763  31.295  33.284  1.00  0.00     0.074 A 
ATOM     50  C   UNL A   1      38.688  32.256  33.141  1.00  0.00     0.031 C 
ATOM     51  C   UNL A   1      39.921  28.403  27.562  1.00  0.00     0.029 A 
ATOM     52  C   UNL A   1      40.821  28.191  28.692  1.00  0.00     0.049 A 
ATOM     53  H   UNL A   1      40.755  29.117  30.557  1.00  0.00     0.167 HD
ATOM     54  C   UNL A   1      40.520  31.146  34.395  1.00  0.00     0.034 A 
ATOM     55  C   UNL A   1      41.861  27.336  28.703  1.00  0.00     0.034 A 
ATOM     56  C   UNL A   1      41.578  30.181  34.537  1.00  0.00     0.049 A 
ATOM     57  C   UNL A   1      42.681  27.188  29.952  1.00  0.00     0.074 A 
ATOM     58  C   UNL A   1      42.354  29.921  35.653  1.00  0.00     0.029 A 
ATOM     59  N   UNL A   1      42.021  29.333  33.535  1.00  0.00    -0.354 N 
ATOM     60  N   UNL A   1      42.523  27.780  31.110  1.00  0.00    -0.248 NA
ATOM     61  C   UNL A   1      43.803  26.240  29.907  1.00  0.00     0.031 C 
ATOM     62  C   UNL A   1      43.281  28.930  35.319  1.00  0.00     0.029 A 
ATOM     63  C   UNL A   1      43.066  28.557  34.003  1.00  0.00     0.049 A 
ATOM     64  H   UNL A   1      41.647  29.289  32.625  1.00  0.00     0.167 HD
ATOM     65  C   UNL A   1      43.510  27.263  31.938  1.00  0.00     0.074 A 
ATOM     66  C   UNL A   1      44.255  26.299  31.154  1.00  0.00     0.031 C 
ATOM     67  C   UNL A   1      43.778  27.572  33.229  1.00  0.00     0.034 A 
BRANCH  54  68
ATOM     68  C   UNL A   1      40.205  32.002  35.591  1.00  0.00     0.023 A 
ATOM     69  C   UNL A   1      40.943  33.184  35.800  1.00  0.00     0.012 A 
ATOM     70  C   UNL A   1      39.105  31.713  36.422  1.00  0.00     0.148 A 
ATOM     71  C   UNL A   1      40.594  34.066  36.820  1.00  0.00     0.002 A 
ATOM     72  C   UNL A   1      38.746  32.611  37.421  1.00  0.00     0.091 A 
ATOM     73  F   UNL A   1      38.424  30.579  36.206  1.00  0.00    -0.205 F 
ATOM     74  C   UNL A   1      39.490  33.785  37.622  1.00  0.00     0.022 A 
BRANCH  72  75
ATOM     75  S   UNL A   1      37.314  32.371  38.479  1.00  0.00     0.127 S 
ATOM     76  O   UNL A   1      36.274  33.071  37.727  1.00  0.00    -0.237 OA
ATOM     77  O   UNL A   1      37.183  30.914  38.491  1.00  0.00    -0.237 OA
ATOM     78  O   UNL A   1      37.654  32.969  39.762  1.00  0.00    -0.744 OA
ENDBRANCH  72  75
ENDBRANCH  54  68
BRANCH  55  79
ATOM     79  C   UNL A   1      42.128  26.506  27.499  1.00  0.00     0.023 A 
ATOM     80  C   UNL A   1      42.826  27.069  26.415  1.00  0.00     0.012 A 
ATOM     81  C   UNL A   1      41.766  25.146  27.460  1.00  0.00     0.148 A 
ATOM     82  C   UNL A   1      43.157  26.291  25.306  1.00  0.00     0.002 A 
ATOM     83  C   UNL A   1      42.130  24.367  26.369  1.00  0.00     0.091 A 
ATOM     84  F   UNL A   1      41.106  24.637  28.510  1.00  0.00    -0.205 F 
ATOM     85  C   UNL A   1      42.818  24.939  25.287  1.00  0.00     0.022 A 
BRANCH  83  86
ATOM     86  S   UNL A   1      41.821  22.601  26.292  1.00  0.00     0.127 S 
ATOM     87  O   UNL A   1      42.571  22.219  25.098  1.00  0.00    -0.237 OA
ATOM     88  O   UNL A   1      42.399  22.144  27.556  1.00  0.00    -0.237 OA
ATOM     89  O   UNL A   1      40.375  22.453  26.194  1.00  0.00    -0.744 OA
ENDBRANCH  83  86
ENDBRANCH  55  79
BRANCH  67  90
ATOM     90  C   UNL A   1      44.917  26.864  33.909  1.00  0.00     0.023 A 
ATOM     91  C   UNL A   1      46.220  27.387  33.802  1.00  0.00     0.012 A 
ATOM     92  C   UNL A   1      44.674  25.767  34.760  1.00  0.00     0.148 A 
ATOM     93  C   UNL A   1      47.268  26.825  34.532  1.00  0.00     0.002 A 
ATOM     94  C   UNL A   1      45.716  25.235  35.509  1.00  0.00     0.091 A 
ATOM     95  F   UNL A   1      43.424  25.287  34.839  1.00  0.00    -0.205 F 
ATOM     96  C   UNL A   1      47.014  25.760  35.394  1.00  0.00     0.022 A 
BRANCH  94  97
ATOM     97  S   UNL A   1      45.479  23.908  36.697  1.00  0.00     0.127 S 
ATOM     98  O   UNL A   1      46.764  23.901  37.395  1.00  0.00    -0.237 OA
ATOM     99  O   UNL A   1      44.355  24.402  37.491  1.00  0.00    -0.237 OA
ATOM    100  O   UNL A   1      45.196  22.711  35.916  1.00  0.00    -0.744 OA
ENDBRANCH  94  97
ENDBRANCH  67  90
ENDBRANCH  41  42
ENDBRANCH  34  36
ENDBRANCH  33  34
ENDBRANCH  32  33
ENDBRANCH   1  32
TORSDOF 20
ENDMDL
