MODEL 1
REMARK VINA RESULT:     -11.9      0.000      0.000
REMARK SMILES COc1ccc(NC(=O)N[C@@H]2C=C[C@H](C(=O)OCCOCCOC(=O)c3ccc(-c4c5nc(c(-c6cccc(S(=O)(=O)[O-])c6F)c6ccc([nH]6)c(-c6cccc(S(=O)(=O)[O-])c6F)c6nc(c(-c7cccc(S(=O)(=O)[O-])c7F)c7ccc4[nH]7)C=C6)C=C5)cc3)C2)c(C)c1
REMARK SMILES IDX 20 1 19 2 18 3 17 4 15 5 16 6 14 7 11 8 12 9 89 10 13 11
REMARK SMILES IDX 10 12 7 13 8 14 9 16 6 18 3 19 4 20 92 21 5 22 90 23 91 24
REMARK SMILES IDX 2 25 1 26 21 27 22 28 23 29 24 30 25 31 26 32 27 33 88 34
REMARK SMILES IDX 28 35 87 36 29 37 30 38 31 39 81 40 32 41 86 42 80 43 82 44
REMARK SMILES IDX 33 45 85 46 79 47 78 48 34 50 66 51 46 52 65 53 47 54 50 55
REMARK SMILES IDX 64 56 83 57 48 58 49 59 63 61 84 62 51 63 35 64 36 65 44 66
REMARK SMILES IDX 37 67 39 68 45 69 38 70 40 71 41 72 42 73 43 74 67 75 68 76
REMARK SMILES IDX 76 77 69 78 71 79 77 80 70 81 72 82 73 83 74 84 75 85 52 86
REMARK SMILES IDX 53 87 61 88 54 89 56 90 62 91 55 92 57 93 58 94 59 95 60 96
REMARK H PARENT 7 15 10 17 82 49 50 60
REMARK Flexibility Score: inf
ROOT
ATOM      1  O   UNL A   1      32.199  30.055  27.050  1.00  0.00    -0.374 OA
ENDROOT
BRANCH   1   2
ATOM      2  C   UNL A   1      31.721  30.135  25.725  1.00  0.00     0.202 C 
BRANCH   2   3
ATOM      3  C   UNL A   1      32.505  29.144  24.896  1.00  0.00     0.261 C 
BRANCH   3   4
ATOM      4  O   UNL A   1      31.671  28.072  24.421  1.00  0.00    -0.463 OA
BRANCH   4   5
ATOM      5  C   UNL A   1      31.993  26.775  24.646  1.00  0.00     0.312 C 
ATOM      6  O   UNL A   1      32.320  26.254  25.704  1.00  0.00    -0.252 OA
BRANCH   5   7
ATOM      7  C   UNL A   1      31.786  25.935  23.404  1.00  0.00     0.124 C 
ATOM      8  C   UNL A   1      30.744  23.760  23.834  1.00  0.00     0.107 C 
ATOM      9  C   UNL A   1      32.119  23.623  23.363  1.00  0.00    -0.006 C 
ATOM     10  C   UNL A   1      30.472  25.164  23.269  1.00  0.00     0.048 C 
ATOM     11  C   UNL A   1      32.747  24.802  23.316  1.00  0.00    -0.014 C 
BRANCH   8  12
ATOM     12  N   UNL A   1      30.626  23.697  25.297  1.00  0.00    -0.332 N 
ATOM     13  N   UNL A   1      32.027  22.227  26.657  1.00  0.00    -0.308 N 
ATOM     14  C   UNL A   1      30.965  23.016  26.391  1.00  0.00     0.319 C 
ATOM     15  H   UNL A   1      31.911  21.705  27.484  1.00  0.00     0.171 HD
ATOM     16  O   UNL A   1      30.231  23.225  27.373  1.00  0.00    -0.248 OA
ATOM     17  H   UNL A   1      30.078  24.463  25.583  1.00  0.00     0.165 HD
BRANCH  13  18
ATOM     18  C   UNL A   1      33.261  21.975  26.028  1.00  0.00     0.046 A 
ATOM     19  C   UNL A   1      35.852  21.208  25.348  1.00  0.00     0.119 A 
ATOM     20  C   UNL A   1      35.611  22.499  25.786  1.00  0.00     0.048 A 
ATOM     21  C   UNL A   1      34.777  20.444  24.920  1.00  0.00     0.052 A 
ATOM     22  C   UNL A   1      34.297  22.892  26.088  1.00  0.00     0.030 A 
ATOM     23  C   UNL A   1      33.455  20.854  25.202  1.00  0.00    -0.024 A 
ATOM     24  C   UNL A   1      32.325  20.131  24.519  1.00  0.00     0.047 C 
BRANCH  19  25
ATOM     25  O   UNL A   1      37.125  20.716  25.242  1.00  0.00    -0.497 OA
ATOM     26  C   UNL A   1      38.094  21.752  25.476  1.00  0.00     0.278 C 
ENDBRANCH  19  25
ENDBRANCH  13  18
ENDBRANCH   8  12
ENDBRANCH   5   7
ENDBRANCH   4   5
ENDBRANCH   3   4
ENDBRANCH   2   3
ENDBRANCH   1   2
BRANCH   1  27
ATOM     27  C   UNL A   1      33.588  30.002  27.264  1.00  0.00     0.202 C 
BRANCH  27  28
ATOM     28  C   UNL A   1      34.202  31.390  27.433  1.00  0.00     0.261 C 
BRANCH  28  29
ATOM     29  O   UNL A   1      33.299  32.272  28.137  1.00  0.00    -0.460 OA
BRANCH  29  30
ATOM     30  C   UNL A   1      33.799  33.503  28.440  1.00  0.00     0.338 C 
ATOM     31  O   UNL A   1      33.344  34.548  27.987  1.00  0.00    -0.246 OA
BRANCH  30  32
ATOM     32  C   UNL A   1      35.041  33.388  29.259  1.00  0.00     0.060 A 
ATOM     33  C   UNL A   1      36.293  33.713  28.710  1.00  0.00     0.016 A 
ATOM     34  C   UNL A   1      34.980  32.683  30.459  1.00  0.00     0.016 A 
ATOM     35  C   UNL A   1      37.466  33.177  29.262  1.00  0.00     0.010 A 
ATOM     36  C   UNL A   1      36.123  32.054  30.914  1.00  0.00     0.010 A 
ATOM     37  C   UNL A   1      37.374  32.265  30.304  1.00  0.00    -0.014 A 
BRANCH  37  38
ATOM     38  C   UNL A   1      38.462  31.442  30.847  1.00  0.00     0.031 A 
ATOM     39  C   UNL A   1      38.757  30.160  30.163  1.00  0.00     0.074 A 
ATOM     40  C   UNL A   1      39.439  31.974  31.621  1.00  0.00     0.049 A 
ATOM     41  N   UNL A   1      39.765  29.409  30.439  1.00  0.00    -0.248 NA
ATOM     42  C   UNL A   1      37.897  29.592  29.130  1.00  0.00     0.031 C 
ATOM     43  C   UNL A   1      40.864  31.665  31.514  1.00  0.00     0.029 A 
ATOM     44  N   UNL A   1      39.372  32.835  32.717  1.00  0.00    -0.354 N 
ATOM     45  C   UNL A   1      39.894  28.503  29.418  1.00  0.00     0.074 A 
ATOM     46  C   UNL A   1      38.631  28.552  28.729  1.00  0.00     0.031 C 
ATOM     47  C   UNL A   1      41.505  32.138  32.583  1.00  0.00     0.029 A 
ATOM     48  C   UNL A   1      40.515  32.665  33.503  1.00  0.00     0.049 A 
ATOM     49  H   UNL A   1      38.636  33.461  32.906  1.00  0.00     0.167 HD
ATOM     50  C   UNL A   1      41.116  27.938  29.215  1.00  0.00     0.034 A 
ATOM     51  C   UNL A   1      40.580  32.543  34.858  1.00  0.00     0.034 A 
ATOM     52  C   UNL A   1      42.041  28.261  30.330  1.00  0.00     0.049 A 
ATOM     53  C   UNL A   1      41.247  31.231  35.204  1.00  0.00     0.074 A 
ATOM     54  C   UNL A   1      43.188  29.028  30.447  1.00  0.00     0.029 A 
ATOM     55  N   UNL A   1      41.669  27.928  31.637  1.00  0.00    -0.354 N 
ATOM     56  N   UNL A   1      41.521  30.344  34.288  1.00  0.00    -0.248 NA
ATOM     57  C   UNL A   1      41.701  30.795  36.517  1.00  0.00     0.031 C 
ATOM     58  C   UNL A   1      43.480  29.177  31.837  1.00  0.00     0.029 A 
ATOM     59  C   UNL A   1      42.540  28.467  32.572  1.00  0.00     0.049 A 
ATOM     60  H   UNL A   1      40.886  27.378  31.865  1.00  0.00     0.167 HD
ATOM     61  C   UNL A   1      42.116  29.248  34.812  1.00  0.00     0.074 A 
ATOM     62  C   UNL A   1      42.219  29.582  36.226  1.00  0.00     0.031 C 
ATOM     63  C   UNL A   1      42.397  28.175  34.009  1.00  0.00     0.034 A 
BRANCH  50  64
ATOM     64  C   UNL A   1      41.561  27.212  27.947  1.00  0.00     0.023 A 
ATOM     65  C   UNL A   1      41.708  27.993  26.778  1.00  0.00     0.012 A 
ATOM     66  C   UNL A   1      41.786  25.819  27.780  1.00  0.00     0.148 A 
ATOM     67  C   UNL A   1      42.046  27.439  25.535  1.00  0.00     0.002 A 
ATOM     68  C   UNL A   1      42.179  25.272  26.553  1.00  0.00     0.091 A 
ATOM     69  F   UNL A   1      41.554  24.971  28.780  1.00  0.00    -0.205 F 
ATOM     70  C   UNL A   1      42.297  26.080  25.423  1.00  0.00     0.022 A 
BRANCH  68  71
ATOM     71  S   UNL A   1      42.548  23.516  26.339  1.00  0.00     0.127 S 
ATOM     72  O   UNL A   1      41.230  22.903  26.513  1.00  0.00    -0.237 OA
ATOM     73  O   UNL A   1      43.063  23.468  24.972  1.00  0.00    -0.237 OA
ATOM     74  O   UNL A   1      43.521  23.165  27.367  1.00  0.00    -0.744 OA
ENDBRANCH  68  71
ENDBRANCH  50  64
BRANCH  51  75
ATOM     75  C   UNL A   1      39.495  33.271  35.570  1.00  0.00     0.023 A 
ATOM     76  C   UNL A   1      38.404  32.480  36.010  1.00  0.00     0.012 A 
ATOM     77  C   UNL A   1      39.824  34.429  36.291  1.00  0.00     0.148 A 
ATOM     78  C   UNL A   1      37.798  32.722  37.246  1.00  0.00     0.002 A 
ATOM     79  C   UNL A   1      39.264  34.622  37.554  1.00  0.00     0.091 A 
ATOM     80  F   UNL A   1      40.807  35.209  35.824  1.00  0.00    -0.205 F 
ATOM     81  C   UNL A   1      38.275  33.754  38.046  1.00  0.00     0.022 A 
BRANCH  79  82
ATOM     82  S   UNL A   1      40.026  35.774  38.709  1.00  0.00     0.127 S 
ATOM     83  O   UNL A   1      41.433  35.403  38.622  1.00  0.00    -0.237 OA
ATOM     84  O   UNL A   1      39.686  37.074  38.126  1.00  0.00    -0.237 OA
ATOM     85  O   UNL A   1      39.354  35.505  39.971  1.00  0.00    -0.744 OA
ENDBRANCH  79  82
ENDBRANCH  51  75
BRANCH  63  86
ATOM     86  C   UNL A   1      42.552  26.753  34.510  1.00  0.00     0.023 A 
ATOM     87  C   UNL A   1      41.557  26.115  35.273  1.00  0.00     0.012 A 
ATOM     88  C   UNL A   1      43.634  25.938  34.082  1.00  0.00     0.148 A 
ATOM     89  C   UNL A   1      41.635  24.767  35.629  1.00  0.00     0.002 A 
ATOM     90  C   UNL A   1      43.649  24.571  34.337  1.00  0.00     0.091 A 
ATOM     91  F   UNL A   1      44.674  26.479  33.436  1.00  0.00    -0.205 F 
ATOM     92  C   UNL A   1      42.667  23.987  35.137  1.00  0.00     0.022 A 
BRANCH  90  93
ATOM     93  S   UNL A   1      44.831  23.478  33.538  1.00  0.00     0.127 S 
ATOM     94  O   UNL A   1      46.101  24.012  34.022  1.00  0.00    -0.237 OA
ATOM     95  O   UNL A   1      44.465  22.173  34.093  1.00  0.00    -0.237 OA
ATOM     96  O   UNL A   1      44.583  23.611  32.109  1.00  0.00    -0.744 OA
ENDBRANCH  90  93
ENDBRANCH  63  86
ENDBRANCH  37  38
ENDBRANCH  30  32
ENDBRANCH  29  30
ENDBRANCH  28  29
ENDBRANCH  27  28
ENDBRANCH   1  27
TORSDOF 20
ENDMDL
MODEL 2
REMARK VINA RESULT:     -11.6      4.745     10.662
REMARK SMILES COc1ccc(NC(=O)N[C@@H]2C=C[C@H](C(=O)OCCOCCOC(=O)c3ccc(-c4c5nc(c(-c6cccc(S(=O)(=O)[O-])c6F)c6ccc([nH]6)c(-c6cccc(S(=O)(=O)[O-])c6F)c6nc(c(-c7cccc(S(=O)(=O)[O-])c7F)c7ccc4[nH]7)C=C6)C=C5)cc3)C2)c(C)c1
REMARK SMILES IDX 20 1 19 2 18 3 17 4 15 5 16 6 14 7 11 8 12 9 89 10 13 11
REMARK SMILES IDX 10 12 7 13 8 14 9 16 6 18 3 19 4 20 92 21 5 22 90 23 91 24
REMARK SMILES IDX 2 25 1 26 21 27 22 28 23 29 24 30 25 31 26 32 27 33 88 34
REMARK SMILES IDX 28 35 87 36 29 37 30 38 31 39 81 40 32 41 86 42 80 43 82 44
REMARK SMILES IDX 33 45 85 46 79 47 78 48 34 50 66 51 46 52 65 53 47 54 50 55
REMARK SMILES IDX 64 56 83 57 48 58 49 59 63 61 84 62 51 63 35 64 36 65 44 66
REMARK SMILES IDX 37 67 39 68 45 69 38 70 40 71 41 72 42 73 43 74 67 75 68 76
REMARK SMILES IDX 76 77 69 78 71 79 77 80 70 81 72 82 73 83 74 84 75 85 52 86
REMARK SMILES IDX 53 87 61 88 54 89 56 90 62 91 55 92 57 93 58 94 59 95 60 96
REMARK H PARENT 7 15 10 17 82 49 50 60
REMARK Flexibility Score: inf
ROOT
ATOM      1  O   UNL A   1      37.402  22.752  25.978  1.00  0.00    -0.374 OA
ENDROOT
BRANCH   1   2
ATOM      2  C   UNL A   1      36.540  21.678  25.670  1.00  0.00     0.202 C 
BRANCH   2   3
ATOM      3  C   UNL A   1      36.013  21.903  24.271  1.00  0.00     0.261 C 
BRANCH   3   4
ATOM      4  O   UNL A   1      34.600  22.170  24.273  1.00  0.00    -0.463 OA
BRANCH   4   5
ATOM      5  C   UNL A   1      34.114  23.393  24.594  1.00  0.00     0.312 C 
ATOM      6  O   UNL A   1      34.695  24.470  24.546  1.00  0.00    -0.252 OA
BRANCH   5   7
ATOM      7  C   UNL A   1      32.639  23.327  24.933  1.00  0.00     0.124 C 
ATOM      8  C   UNL A   1      31.172  24.196  23.176  1.00  0.00     0.107 C 
ATOM      9  C   UNL A   1      31.130  25.021  24.381  1.00  0.00    -0.006 C 
ATOM     10  C   UNL A   1      31.667  22.898  23.833  1.00  0.00     0.048 C 
ATOM     11  C   UNL A   1      32.069  24.662  25.260  1.00  0.00    -0.014 C 
BRANCH   8  12
ATOM     12  N   UNL A   1      32.094  24.713  22.155  1.00  0.00    -0.332 N 
ATOM     13  N   UNL A   1      32.609  27.092  21.945  1.00  0.00    -0.308 N 
ATOM     14  C   UNL A   1      32.539  25.807  21.539  1.00  0.00     0.319 C 
ATOM     15  H   UNL A   1      32.806  27.711  21.205  1.00  0.00     0.171 HD
ATOM     16  O   UNL A   1      33.079  25.593  20.439  1.00  0.00    -0.248 OA
ATOM     17  H   UNL A   1      32.574  23.943  21.773  1.00  0.00     0.165 HD
BRANCH  13  18
ATOM     18  C   UNL A   1      32.466  27.755  23.179  1.00  0.00     0.046 A 
ATOM     19  C   UNL A   1      32.478  29.547  25.313  1.00  0.00     0.119 A 
ATOM     20  C   UNL A   1      33.475  28.590  25.213  1.00  0.00     0.048 A 
ATOM     21  C   UNL A   1      31.320  29.372  24.571  1.00  0.00     0.052 A 
ATOM     22  C   UNL A   1      33.441  27.664  24.159  1.00  0.00     0.030 A 
ATOM     23  C   UNL A   1      31.279  28.422  23.527  1.00  0.00    -0.024 A 
ATOM     24  C   UNL A   1      29.944  28.098  22.913  1.00  0.00     0.047 C 
BRANCH  19  25
ATOM     25  O   UNL A   1      32.578  30.593  26.191  1.00  0.00    -0.497 OA
ATOM     26  C   UNL A   1      31.352  31.343  26.232  1.00  0.00     0.278 C 
ENDBRANCH  19  25
ENDBRANCH  13  18
ENDBRANCH   8  12
ENDBRANCH   5   7
ENDBRANCH   4   5
ENDBRANCH   3   4
ENDBRANCH   2   3
ENDBRANCH   1   2
BRANCH   1  27
ATOM     27  C   UNL A   1      38.772  22.489  26.152  1.00  0.00     0.202 C 
BRANCH  27  28
ATOM     28  C   UNL A   1      39.125  21.033  25.861  1.00  0.00     0.261 C 
BRANCH  28  29
ATOM     29  O   UNL A   1      40.136  20.553  26.775  1.00  0.00    -0.460 OA
BRANCH  29  30
ATOM     30  C   UNL A   1      41.404  20.509  26.276  1.00  0.00     0.338 C 
ATOM     31  O   UNL A   1      41.820  19.599  25.566  1.00  0.00    -0.246 OA
BRANCH  30  32
ATOM     32  C   UNL A   1      42.234  21.621  26.826  1.00  0.00     0.060 A 
ATOM     33  C   UNL A   1      42.122  21.995  28.175  1.00  0.00     0.016 A 
ATOM     34  C   UNL A   1      42.890  22.463  25.931  1.00  0.00     0.016 A 
ATOM     35  C   UNL A   1      42.502  23.283  28.584  1.00  0.00     0.010 A 
ATOM     36  C   UNL A   1      43.135  23.768  26.313  1.00  0.00     0.010 A 
ATOM     37  C   UNL A   1      42.914  24.205  27.633  1.00  0.00    -0.014 A 
BRANCH  37  38
ATOM     38  C   UNL A   1      43.129  25.643  27.841  1.00  0.00     0.031 A 
ATOM     39  C   UNL A   1      41.928  26.510  27.918  1.00  0.00     0.074 A 
ATOM     40  C   UNL A   1      44.277  26.122  28.380  1.00  0.00     0.049 A 
ATOM     41  N   UNL A   1      41.956  27.757  28.235  1.00  0.00    -0.248 NA
ATOM     42  C   UNL A   1      40.585  26.041  27.590  1.00  0.00     0.031 C 
ATOM     43  C   UNL A   1      44.362  27.177  29.387  1.00  0.00     0.029 A 
ATOM     44  N   UNL A   1      45.611  25.834  28.092  1.00  0.00    -0.354 N 
ATOM     45  C   UNL A   1      40.669  28.139  28.512  1.00  0.00     0.074 A 
ATOM     46  C   UNL A   1      39.851  27.099  27.943  1.00  0.00     0.031 C 
ATOM     47  C   UNL A   1      45.625  27.592  29.494  1.00  0.00     0.029 A 
ATOM     48  C   UNL A   1      46.406  26.920  28.472  1.00  0.00     0.049 A 
ATOM     49  H   UNL A   1      45.941  25.000  27.685  1.00  0.00     0.167 HD
ATOM     50  C   UNL A   1      40.482  29.221  29.316  1.00  0.00     0.034 A 
ATOM     51  C   UNL A   1      47.408  27.505  27.759  1.00  0.00     0.034 A 
ATOM     52  C   UNL A   1      41.763  29.933  29.553  1.00  0.00     0.049 A 
ATOM     53  C   UNL A   1      47.084  28.969  27.562  1.00  0.00     0.074 A 
ATOM     54  C   UNL A   1      42.576  30.124  30.658  1.00  0.00     0.029 A 
ATOM     55  N   UNL A   1      42.500  30.386  28.454  1.00  0.00    -0.354 N 
ATOM     56  N   UNL A   1      45.925  29.462  27.900  1.00  0.00    -0.248 NA
ATOM     57  C   UNL A   1      47.967  30.002  27.040  1.00  0.00     0.031 C 
ATOM     58  C   UNL A   1      43.817  30.667  30.205  1.00  0.00     0.029 A 
ATOM     59  C   UNL A   1      43.752  30.848  28.830  1.00  0.00     0.049 A 
ATOM     60  H   UNL A   1      42.171  30.377  27.527  1.00  0.00     0.167 HD
ATOM     61  C   UNL A   1      45.847  30.787  27.640  1.00  0.00     0.074 A 
ATOM     62  C   UNL A   1      47.168  31.088  27.104  1.00  0.00     0.031 C 
ATOM     63  C   UNL A   1      44.671  31.455  27.851  1.00  0.00     0.034 A 
BRANCH  50  64
ATOM     64  C   UNL A   1      39.183  29.585  30.032  1.00  0.00     0.023 A 
ATOM     65  C   UNL A   1      38.769  28.734  31.082  1.00  0.00     0.012 A 
ATOM     66  C   UNL A   1      38.294  30.650  29.727  1.00  0.00     0.148 A 
ATOM     67  C   UNL A   1      37.563  28.917  31.776  1.00  0.00     0.002 A 
ATOM     68  C   UNL A   1      37.118  30.869  30.454  1.00  0.00     0.091 A 
ATOM     69  F   UNL A   1      38.517  31.439  28.677  1.00  0.00    -0.205 F 
ATOM     70  C   UNL A   1      36.744  29.994  31.473  1.00  0.00     0.022 A 
BRANCH  68  71
ATOM     71  S   UNL A   1      36.016  32.264  30.134  1.00  0.00     0.127 S 
ATOM     72  O   UNL A   1      34.920  32.010  31.072  1.00  0.00    -0.237 OA
ATOM     73  O   UNL A   1      36.854  33.412  30.477  1.00  0.00    -0.237 OA
ATOM     74  O   UNL A   1      35.640  32.186  28.727  1.00  0.00    -0.744 OA
ENDBRANCH  68  71
ENDBRANCH  50  64
BRANCH  51  75
ATOM     75  C   UNL A   1      48.119  26.561  26.854  1.00  0.00     0.023 A 
ATOM     76  C   UNL A   1      47.576  26.426  25.552  1.00  0.00     0.012 A 
ATOM     77  C   UNL A   1      49.496  26.365  27.037  1.00  0.00     0.148 A 
ATOM     78  C   UNL A   1      48.413  26.308  24.438  1.00  0.00     0.002 A 
ATOM     79  C   UNL A   1      50.328  26.319  25.918  1.00  0.00     0.091 A 
ATOM     80  F   UNL A   1      49.985  26.421  28.283  1.00  0.00    -0.205 F 
ATOM     81  C   UNL A   1      49.791  26.320  24.620  1.00  0.00     0.022 A 
BRANCH  79  82
ATOM     82  S   UNL A   1      52.097  26.593  26.101  1.00  0.00     0.127 S 
ATOM     83  O   UNL A   1      52.549  26.586  24.715  1.00  0.00    -0.237 OA
ATOM     84  O   UNL A   1      52.147  27.895  26.767  1.00  0.00    -0.237 OA
ATOM     85  O   UNL A   1      52.540  25.489  26.940  1.00  0.00    -0.744 OA
ENDBRANCH  79  82
ENDBRANCH  51  75
BRANCH  63  86
ATOM     86  C   UNL A   1      44.279  32.737  27.143  1.00  0.00     0.023 A 
ATOM     87  C   UNL A   1      44.157  32.811  25.743  1.00  0.00     0.012 A 
ATOM     88  C   UNL A   1      43.847  33.876  27.873  1.00  0.00     0.148 A 
ATOM     89  C   UNL A   1      43.675  33.950  25.093  1.00  0.00     0.002 A 
ATOM     90  C   UNL A   1      43.257  34.960  27.230  1.00  0.00     0.091 A 
ATOM     91  F   UNL A   1      44.016  33.934  29.199  1.00  0.00    -0.205 F 
ATOM     92  C   UNL A   1      43.198  35.014  25.838  1.00  0.00     0.022 A 
BRANCH  90  93
ATOM     93  S   UNL A   1      42.419  36.256  28.151  1.00  0.00     0.127 S 
ATOM     94  O   UNL A   1      41.953  37.128  27.076  1.00  0.00    -0.237 OA
ATOM     95  O   UNL A   1      41.361  35.509  28.835  1.00  0.00    -0.237 OA
ATOM     96  O   UNL A   1      43.426  36.817  29.041  1.00  0.00    -0.744 OA
ENDBRANCH  90  93
ENDBRANCH  63  86
ENDBRANCH  37  38
ENDBRANCH  30  32
ENDBRANCH  29  30
ENDBRANCH  28  29
ENDBRANCH  27  28
ENDBRANCH   1  27
TORSDOF 20
ENDMDL
MODEL 3
REMARK VINA RESULT:     -11.5      1.091      1.795
REMARK SMILES COc1ccc(NC(=O)N[C@@H]2C=C[C@H](C(=O)OCCOCCOC(=O)c3ccc(-c4c5nc(c(-c6cccc(S(=O)(=O)[O-])c6F)c6ccc([nH]6)c(-c6cccc(S(=O)(=O)[O-])c6F)c6nc(c(-c7cccc(S(=O)(=O)[O-])c7F)c7ccc4[nH]7)C=C6)C=C5)cc3)C2)c(C)c1
REMARK SMILES IDX 20 1 19 2 18 3 17 4 15 5 16 6 14 7 11 8 12 9 89 10 13 11
REMARK SMILES IDX 10 12 7 13 8 14 9 16 6 18 3 19 4 20 92 21 5 22 90 23 91 24
REMARK SMILES IDX 2 25 1 26 21 27 22 28 23 29 24 30 25 31 26 32 27 33 88 34
REMARK SMILES IDX 28 35 87 36 29 37 30 38 31 39 81 40 32 41 86 42 80 43 82 44
REMARK SMILES IDX 33 45 85 46 79 47 78 48 34 50 66 51 46 52 65 53 47 54 50 55
REMARK SMILES IDX 64 56 83 57 48 58 49 59 63 61 84 62 51 63 35 64 36 65 44 66
REMARK SMILES IDX 37 67 39 68 45 69 38 70 40 71 41 72 42 73 43 74 67 75 68 76
REMARK SMILES IDX 76 77 69 78 71 79 77 80 70 81 72 82 73 83 74 84 75 85 52 86
REMARK SMILES IDX 53 87 61 88 54 89 56 90 62 91 55 92 57 93 58 94 59 95 60 96
REMARK H PARENT 7 15 10 17 82 49 50 60
REMARK Flexibility Score: inf
ROOT
ATOM      1  O   UNL A   1      31.306  30.183  25.891  1.00  0.00    -0.374 OA
ENDROOT
BRANCH   1   2
ATOM      2  C   UNL A   1      32.006  28.973  26.079  1.00  0.00     0.202 C 
BRANCH   2   3
ATOM      3  C   UNL A   1      31.652  28.058  24.929  1.00  0.00     0.261 C 
BRANCH   3   4
ATOM      4  O   UNL A   1      32.250  26.758  25.082  1.00  0.00    -0.463 OA
BRANCH   4   5
ATOM      5  C   UNL A   1      31.512  25.626  24.977  1.00  0.00     0.312 C 
ATOM      6  O   UNL A   1      31.033  25.132  23.966  1.00  0.00    -0.252 OA
BRANCH   5   7
ATOM      7  C   UNL A   1      31.421  24.906  26.306  1.00  0.00     0.124 C 
ATOM      8  C   UNL A   1      31.790  22.489  26.156  1.00  0.00     0.107 C 
ATOM      9  C   UNL A   1      30.420  22.809  26.549  1.00  0.00    -0.006 C 
ATOM     10  C   UNL A   1      32.444  23.808  26.600  1.00  0.00     0.048 C 
ATOM     11  C   UNL A   1      30.166  24.116  26.441  1.00  0.00    -0.014 C 
BRANCH   8  12
ATOM     12  N   UNL A   1      31.932  22.232  24.717  1.00  0.00    -0.332 N 
ATOM     13  N   UNL A   1      34.060  22.505  23.546  1.00  0.00    -0.308 N 
ATOM     14  C   UNL A   1      32.720  22.384  23.653  1.00  0.00     0.319 C 
ATOM     15  H   UNL A   1      34.341  22.796  22.648  1.00  0.00     0.171 HD
ATOM     16  O   UNL A   1      32.130  22.295  22.561  1.00  0.00    -0.248 OA
ATOM     17  H   UNL A   1      31.122  21.757  24.419  1.00  0.00     0.165 HD
BRANCH  13  18
ATOM     18  C   UNL A   1      35.149  22.312  24.416  1.00  0.00     0.046 A 
ATOM     19  C   UNL A   1      37.638  21.884  25.594  1.00  0.00     0.119 A 
ATOM     20  C   UNL A   1      36.774  20.817  25.405  1.00  0.00     0.048 A 
ATOM     21  C   UNL A   1      37.122  23.170  25.529  1.00  0.00     0.052 A 
ATOM     22  C   UNL A   1      35.505  21.046  24.850  1.00  0.00     0.030 A 
ATOM     23  C   UNL A   1      35.835  23.395  24.993  1.00  0.00    -0.024 A 
ATOM     24  C   UNL A   1      35.224  24.760  25.160  1.00  0.00     0.047 C 
BRANCH  19  25
ATOM     25  O   UNL A   1      38.950  21.689  25.933  1.00  0.00    -0.497 OA
ATOM     26  C   UNL A   1      39.490  22.857  26.573  1.00  0.00     0.278 C 
ENDBRANCH  19  25
ENDBRANCH  13  18
ENDBRANCH   8  12
ENDBRANCH   5   7
ENDBRANCH   4   5
ENDBRANCH   3   4
ENDBRANCH   2   3
ENDBRANCH   1   2
BRANCH   1  27
ATOM     27  C   UNL A   1      31.725  31.323  26.600  1.00  0.00     0.202 C 
BRANCH  27  28
ATOM     28  C   UNL A   1      33.081  31.121  27.273  1.00  0.00     0.261 C 
BRANCH  28  29
ATOM     29  O   UNL A   1      33.915  32.291  27.117  1.00  0.00    -0.460 OA
BRANCH  29  30
ATOM     30  C   UNL A   1      33.868  33.185  28.146  1.00  0.00     0.338 C 
ATOM     31  O   UNL A   1      32.981  34.023  28.273  1.00  0.00    -0.246 OA
BRANCH  30  32
ATOM     32  C   UNL A   1      35.097  33.097  28.986  1.00  0.00     0.060 A 
ATOM     33  C   UNL A   1      36.357  33.397  28.443  1.00  0.00     0.016 A 
ATOM     34  C   UNL A   1      35.017  32.438  30.211  1.00  0.00     0.016 A 
ATOM     35  C   UNL A   1      37.522  32.879  29.032  1.00  0.00     0.010 A 
ATOM     36  C   UNL A   1      36.151  31.823  30.705  1.00  0.00     0.010 A 
ATOM     37  C   UNL A   1      37.411  32.007  30.105  1.00  0.00    -0.014 A 
BRANCH  37  38
ATOM     38  C   UNL A   1      38.489  31.202  30.695  1.00  0.00     0.031 A 
ATOM     39  C   UNL A   1      38.786  29.892  30.066  1.00  0.00     0.074 A 
ATOM     40  C   UNL A   1      39.459  31.759  31.459  1.00  0.00     0.049 A 
ATOM     41  N   UNL A   1      39.787  29.148  30.384  1.00  0.00    -0.248 NA
ATOM     42  C   UNL A   1      37.936  29.288  29.045  1.00  0.00     0.031 C 
ATOM     43  C   UNL A   1      40.883  31.441  31.382  1.00  0.00     0.029 A 
ATOM     44  N   UNL A   1      39.382  32.664  32.519  1.00  0.00    -0.354 N 
ATOM     45  C   UNL A   1      39.924  28.202  29.401  1.00  0.00     0.074 A 
ATOM     46  C   UNL A   1      38.670  28.229  28.695  1.00  0.00     0.031 C 
ATOM     47  C   UNL A   1      41.513  31.954  32.439  1.00  0.00     0.029 A 
ATOM     48  C   UNL A   1      40.514  32.521  33.326  1.00  0.00     0.049 A 
ATOM     49  H   UNL A   1      38.647  33.300  32.674  1.00  0.00     0.167 HD
ATOM     50  C   UNL A   1      41.146  27.624  29.236  1.00  0.00     0.034 A 
ATOM     51  C   UNL A   1      40.562  32.452  34.685  1.00  0.00     0.034 A 
ATOM     52  C   UNL A   1      42.059  27.987  30.349  1.00  0.00     0.049 A 
ATOM     53  C   UNL A   1      41.219  31.152  35.091  1.00  0.00     0.074 A 
ATOM     54  C   UNL A   1      43.207  28.754  30.450  1.00  0.00     0.029 A 
ATOM     55  N   UNL A   1      41.669  27.708  31.663  1.00  0.00    -0.354 N 
ATOM     56  N   UNL A   1      41.500  30.228  34.214  1.00  0.00    -0.248 NA
ATOM     57  C   UNL A   1      41.654  30.767  36.426  1.00  0.00     0.031 C 
ATOM     58  C   UNL A   1      43.484  28.956  31.836  1.00  0.00     0.029 A 
ATOM     59  C   UNL A   1      42.530  28.280  32.587  1.00  0.00     0.049 A 
ATOM     60  H   UNL A   1      40.880  27.171  31.903  1.00  0.00     0.167 HD
ATOM     61  C   UNL A   1      42.083  29.152  34.789  1.00  0.00     0.074 A 
ATOM     62  C   UNL A   1      42.170  29.541  36.190  1.00  0.00     0.031 C 
ATOM     63  C   UNL A   1      42.369  28.047  34.033  1.00  0.00     0.034 A 
BRANCH  50  64
ATOM     64  C   UNL A   1      41.603  26.846  28.004  1.00  0.00     0.023 A 
ATOM     65  C   UNL A   1      41.215  27.355  26.743  1.00  0.00     0.012 A 
ATOM     66  C   UNL A   1      42.325  25.623  27.970  1.00  0.00     0.148 A 
ATOM     67  C   UNL A   1      41.513  26.701  25.539  1.00  0.00     0.002 A 
ATOM     68  C   UNL A   1      42.672  24.998  26.767  1.00  0.00     0.091 A 
ATOM     69  F   UNL A   1      42.632  24.987  29.098  1.00  0.00    -0.205 F 
ATOM     70  C   UNL A   1      42.255  25.530  25.547  1.00  0.00     0.022 A 
BRANCH  68  71
ATOM     71  S   UNL A   1      43.657  23.486  26.699  1.00  0.00     0.127 S 
ATOM     72  O   UNL A   1      43.742  23.239  25.259  1.00  0.00    -0.237 OA
ATOM     73  O   UNL A   1      44.915  23.902  27.318  1.00  0.00    -0.237 OA
ATOM     74  O   UNL A   1      42.921  22.473  27.447  1.00  0.00    -0.744 OA
ENDBRANCH  68  71
ENDBRANCH  50  64
BRANCH  51  75
ATOM     75  C   UNL A   1      39.472  33.213  35.354  1.00  0.00     0.023 A 
ATOM     76  C   UNL A   1      38.350  32.451  35.767  1.00  0.00     0.012 A 
ATOM     77  C   UNL A   1      39.804  34.372  36.071  1.00  0.00     0.148 A 
ATOM     78  C   UNL A   1      37.712  32.721  36.981  1.00  0.00     0.002 A 
ATOM     79  C   UNL A   1      39.209  34.593  37.314  1.00  0.00     0.091 A 
ATOM     80  F   UNL A   1      40.819  35.124  35.626  1.00  0.00    -0.205 F 
ATOM     81  C   UNL A   1      38.186  33.753  37.784  1.00  0.00     0.022 A 
BRANCH  79  82
ATOM     82  S   UNL A   1      39.960  35.742  38.478  1.00  0.00     0.127 S 
ATOM     83  O   UNL A   1      39.552  37.032  37.936  1.00  0.00    -0.237 OA
ATOM     84  O   UNL A   1      39.326  35.367  39.743  1.00  0.00    -0.237 OA
ATOM     85  O   UNL A   1      41.380  35.427  38.419  1.00  0.00    -0.744 OA
ENDBRANCH  79  82
ENDBRANCH  51  75
BRANCH  63  86
ATOM     86  C   UNL A   1      42.511  26.644  34.591  1.00  0.00     0.023 A 
ATOM     87  C   UNL A   1      41.505  26.044  35.371  1.00  0.00     0.012 A 
ATOM     88  C   UNL A   1      43.591  25.807  34.205  1.00  0.00     0.148 A 
ATOM     89  C   UNL A   1      41.573  24.711  35.782  1.00  0.00     0.002 A 
ATOM     90  C   UNL A   1      43.595  24.451  34.516  1.00  0.00     0.091 A 
ATOM     91  F   UNL A   1      44.640  26.315  33.547  1.00  0.00    -0.205 F 
ATOM     92  C   UNL A   1      42.604  23.905  35.330  1.00  0.00     0.022 A 
BRANCH  90  93
ATOM     93  S   UNL A   1      44.777  23.320  33.771  1.00  0.00     0.127 S 
ATOM     94  O   UNL A   1      44.457  23.451  32.351  1.00  0.00    -0.237 OA
ATOM     95  O   UNL A   1      46.057  23.911  34.166  1.00  0.00    -0.237 OA
ATOM     96  O   UNL A   1      44.507  22.021  34.371  1.00  0.00    -0.744 OA
ENDBRANCH  90  93
ENDBRANCH  63  86
ENDBRANCH  37  38
ENDBRANCH  30  32
ENDBRANCH  29  30
ENDBRANCH  28  29
ENDBRANCH  27  28
ENDBRANCH   1  27
TORSDOF 20
ENDMDL
