MODEL 1
REMARK VINA RESULT:     -11.1      0.000      0.000
REMARK SMILES CN(C)S(=O)(=O)c1c[nH]c(C(=O)OCCOCCOC(=O)c2ccc(-c3c4nc(c(-c5cccc(S(=O)(=O)[O-])c5F)c5ccc([nH]5)c(-c5cccc(S(=O)(=O)[O-])c5F)c5nc(c(-c6cccc(S(=O)(=O)[O-])c6F)c6ccc3[nH]6)C=C5)C=C4)cc2)c1
REMARK SMILES IDX 17 1 16 2 15 3 14 4 13 5 11 6 12 7 10 8 7 9 8 10 85 11 9 12
REMARK SMILES IDX 4 14 5 15 6 16 2 17 1 18 3 19 18 20 19 21 20 22 21 23 22 24
REMARK SMILES IDX 23 25 84 26 24 27 83 28 25 29 26 30 27 31 77 32 28 33 82 34
REMARK SMILES IDX 76 35 78 36 29 37 81 38 75 39 74 40 30 42 62 43 42 44 61 45
REMARK SMILES IDX 43 46 46 47 60 48 79 49 44 50 45 51 59 53 80 54 47 55 31 56
REMARK SMILES IDX 32 57 40 58 33 59 35 60 41 61 34 62 36 63 37 64 38 65 39 66
REMARK SMILES IDX 63 67 64 68 72 69 65 70 67 71 73 72 66 73 68 74 69 75 70 76
REMARK SMILES IDX 71 77 48 78 49 79 57 80 50 81 52 82 58 83 51 84 53 85 54 86
REMARK SMILES IDX 55 87 56 88
REMARK H PARENT 9 13 78 41 46 52
REMARK Flexibility Score: inf
ROOT
ATOM      1  C   UNL A   1      34.797  33.155  28.378  1.00  0.00     0.202 C 
ENDROOT
BRANCH   1   2
ATOM      2  O   UNL A   1      33.975  33.914  29.258  1.00  0.00    -0.374 OA
BRANCH   2   3
ATOM      3  C   UNL A   1      33.442  35.150  28.775  1.00  0.00     0.202 C 
BRANCH   3   4
ATOM      4  C   UNL A   1      33.331  36.275  29.806  1.00  0.00     0.261 C 
BRANCH   4   5
ATOM      5  O   UNL A   1      32.314  36.002  30.780  1.00  0.00    -0.459 OA
BRANCH   5   6
ATOM      6  C   UNL A   1      32.673  36.261  32.072  1.00  0.00     0.354 C 
ATOM      7  O   UNL A   1      32.164  37.073  32.805  1.00  0.00    -0.244 OA
BRANCH   6   8
ATOM      8  C   UNL A   1      33.693  35.321  32.489  1.00  0.00     0.126 A 
ATOM      9  C   UNL A   1      35.451  34.219  33.390  1.00  0.00     0.100 A 
ATOM     10  C   UNL A   1      34.566  33.287  32.882  1.00  0.00     0.105 A 
ATOM     11  C   UNL A   1      34.958  35.498  33.023  1.00  0.00     0.057 A 
ATOM     12  N   UNL A   1      33.510  33.964  32.341  1.00  0.00    -0.354 N 
ATOM     13  H   UNL A   1      32.732  33.544  31.908  1.00  0.00     0.166 HD
BRANCH   9  14
ATOM     14  S   UNL A   1      36.879  33.863  34.305  1.00  0.00     0.244 S 
ATOM     15  O   UNL A   1      36.389  33.380  35.575  1.00  0.00    -0.207 OA
ATOM     16  O   UNL A   1      37.657  35.083  34.202  1.00  0.00    -0.207 OA
BRANCH  14  17
ATOM     17  N   UNL A   1      37.768  32.616  33.529  1.00  0.00    -0.204 NA
ATOM     18  C   UNL A   1      39.161  33.021  33.230  1.00  0.00     0.124 C 
ATOM     19  C   UNL A   1      37.733  31.296  34.198  1.00  0.00     0.124 C 
ENDBRANCH  14  17
ENDBRANCH   9  14
ENDBRANCH   6   8
ENDBRANCH   5   6
ENDBRANCH   4   5
ENDBRANCH   3   4
ENDBRANCH   2   3
ENDBRANCH   1   2
BRANCH   1  20
ATOM     20  C   UNL A   1      35.056  31.683  28.674  1.00  0.00     0.261 C 
BRANCH  20  21
ATOM     21  O   UNL A   1      36.371  31.231  28.382  1.00  0.00    -0.460 OA
BRANCH  21  22
ATOM     22  C   UNL A   1      36.357  30.039  27.742  1.00  0.00     0.338 C 
ATOM     23  O   UNL A   1      35.400  29.516  27.194  1.00  0.00    -0.246 OA
BRANCH  22  24
ATOM     24  C   UNL A   1      37.622  29.335  27.939  1.00  0.00     0.060 A 
ATOM     25  C   UNL A   1      37.869  28.820  29.215  1.00  0.00     0.016 A 
ATOM     26  C   UNL A   1      38.616  29.383  26.957  1.00  0.00     0.016 A 
ATOM     27  C   UNL A   1      39.144  28.397  29.535  1.00  0.00     0.010 A 
ATOM     28  C   UNL A   1      39.900  29.001  27.293  1.00  0.00     0.010 A 
ATOM     29  C   UNL A   1      40.158  28.502  28.574  1.00  0.00    -0.014 A 
BRANCH  29  30
ATOM     30  C   UNL A   1      41.423  27.793  28.838  1.00  0.00     0.031 A 
ATOM     31  C   UNL A   1      41.246  26.286  28.451  1.00  0.00     0.074 A 
ATOM     32  C   UNL A   1      42.431  28.549  29.390  1.00  0.00     0.049 A 
ATOM     33  N   UNL A   1      41.850  25.221  28.885  1.00  0.00    -0.248 NA
ATOM     34  C   UNL A   1      40.148  25.888  27.508  1.00  0.00     0.031 C 
ATOM     35  C   UNL A   1      42.385  30.021  29.607  1.00  0.00     0.029 A 
ATOM     36  N   UNL A   1      43.692  28.268  29.877  1.00  0.00    -0.354 N 
ATOM     37  C   UNL A   1      41.432  24.134  28.067  1.00  0.00     0.074 A 
ATOM     38  C   UNL A   1      40.274  24.569  27.367  1.00  0.00     0.031 C 
ATOM     39  C   UNL A   1      43.490  30.462  30.259  1.00  0.00     0.029 A 
ATOM     40  C   UNL A   1      44.391  29.349  30.498  1.00  0.00     0.049 A 
ATOM     41  H   UNL A   1      44.090  27.371  29.798  1.00  0.00     0.167 HD
ATOM     42  C   UNL A   1      42.191  23.013  27.878  1.00  0.00     0.034 A 
ATOM     43  C   UNL A   1      45.587  29.319  31.181  1.00  0.00     0.034 A 
ATOM     44  C   UNL A   1      43.348  23.113  28.698  1.00  0.00     0.049 A 
ATOM     45  C   UNL A   1      46.122  27.987  30.887  1.00  0.00     0.074 A 
ATOM     46  C   UNL A   1      43.533  22.984  30.047  1.00  0.00     0.029 A 
ATOM     47  N   UNL A   1      44.403  23.788  28.132  1.00  0.00    -0.354 N 
ATOM     48  N   UNL A   1      46.601  27.632  29.731  1.00  0.00    -0.248 NA
ATOM     49  C   UNL A   1      45.981  26.935  31.899  1.00  0.00     0.031 C 
ATOM     50  C   UNL A   1      44.448  24.016  30.322  1.00  0.00     0.029 A 
ATOM     51  C   UNL A   1      44.995  24.509  29.130  1.00  0.00     0.049 A 
ATOM     52  H   UNL A   1      44.679  23.757  27.187  1.00  0.00     0.167 HD
ATOM     53  C   UNL A   1      46.440  26.273  29.776  1.00  0.00     0.074 A 
ATOM     54  C   UNL A   1      46.418  25.909  31.177  1.00  0.00     0.031 C 
ATOM     55  C   UNL A   1      45.814  25.631  28.755  1.00  0.00     0.034 A 
BRANCH  42  56
ATOM     56  C   UNL A   1      42.229  21.917  26.836  1.00  0.00     0.023 A 
ATOM     57  C   UNL A   1      41.140  20.997  26.902  1.00  0.00     0.012 A 
ATOM     58  C   UNL A   1      43.360  21.523  26.106  1.00  0.00     0.148 A 
ATOM     59  C   UNL A   1      41.246  19.683  26.456  1.00  0.00     0.002 A 
ATOM     60  C   UNL A   1      43.431  20.222  25.594  1.00  0.00     0.091 A 
ATOM     61  F   UNL A   1      44.388  22.366  25.973  1.00  0.00    -0.205 F 
ATOM     62  C   UNL A   1      42.407  19.289  25.823  1.00  0.00     0.022 A 
BRANCH  60  63
ATOM     63  S   UNL A   1      44.822  19.621  24.629  1.00  0.00     0.127 S 
ATOM     64  O   UNL A   1      45.938  20.365  25.207  1.00  0.00    -0.237 OA
ATOM     65  O   UNL A   1      44.812  18.193  24.957  1.00  0.00    -0.237 OA
ATOM     66  O   UNL A   1      44.497  19.914  23.240  1.00  0.00    -0.744 OA
ENDBRANCH  60  63
ENDBRANCH  42  56
BRANCH  43  67
ATOM     67  C   UNL A   1      46.414  30.162  32.145  1.00  0.00     0.023 A 
ATOM     68  C   UNL A   1      46.664  29.850  33.487  1.00  0.00     0.012 A 
ATOM     69  C   UNL A   1      47.101  31.326  31.656  1.00  0.00     0.148 A 
ATOM     70  C   UNL A   1      47.617  30.579  34.243  1.00  0.00     0.002 A 
ATOM     71  C   UNL A   1      48.143  31.939  32.343  1.00  0.00     0.091 A 
ATOM     72  F   UNL A   1      46.706  31.904  30.518  1.00  0.00    -0.205 F 
ATOM     73  C   UNL A   1      48.399  31.578  33.657  1.00  0.00     0.022 A 
BRANCH  71  74
ATOM     74  S   UNL A   1      49.293  33.066  31.518  1.00  0.00     0.127 S 
ATOM     75  O   UNL A   1      49.483  32.429  30.217  1.00  0.00    -0.237 OA
ATOM     76  O   UNL A   1      48.515  34.305  31.487  1.00  0.00    -0.237 OA
ATOM     77  O   UNL A   1      50.484  33.126  32.356  1.00  0.00    -0.744 OA
ENDBRANCH  71  74
ENDBRANCH  43  67
BRANCH  55  78
ATOM     78  C   UNL A   1      45.872  26.336  27.397  1.00  0.00     0.023 A 
ATOM     79  C   UNL A   1      44.686  26.977  26.985  1.00  0.00     0.012 A 
ATOM     80  C   UNL A   1      46.953  26.333  26.477  1.00  0.00     0.148 A 
ATOM     81  C   UNL A   1      44.560  27.571  25.726  1.00  0.00     0.002 A 
ATOM     82  C   UNL A   1      46.818  26.911  25.203  1.00  0.00     0.091 A 
ATOM     83  F   UNL A   1      48.109  25.778  26.843  1.00  0.00    -0.205 F 
ATOM     84  C   UNL A   1      45.622  27.536  24.834  1.00  0.00     0.022 A 
BRANCH  82  85
ATOM     85  S   UNL A   1      48.086  26.865  23.916  1.00  0.00     0.127 S 
ATOM     86  O   UNL A   1      49.296  27.247  24.648  1.00  0.00    -0.237 OA
ATOM     87  O   UNL A   1      48.057  25.466  23.498  1.00  0.00    -0.237 OA
ATOM     88  O   UNL A   1      47.671  27.825  22.904  1.00  0.00    -0.744 OA
ENDBRANCH  82  85
ENDBRANCH  55  78
ENDBRANCH  29  30
ENDBRANCH  22  24
ENDBRANCH  21  22
ENDBRANCH  20  21
ENDBRANCH   1  20
TORSDOF 19
ENDMDL
MODEL 2
REMARK VINA RESULT:     -10.8      3.930      6.487
REMARK SMILES CN(C)S(=O)(=O)c1c[nH]c(C(=O)OCCOCCOC(=O)c2ccc(-c3c4nc(c(-c5cccc(S(=O)(=O)[O-])c5F)c5ccc([nH]5)c(-c5cccc(S(=O)(=O)[O-])c5F)c5nc(c(-c6cccc(S(=O)(=O)[O-])c6F)c6ccc3[nH]6)C=C5)C=C4)cc2)c1
REMARK SMILES IDX 17 1 16 2 15 3 14 4 13 5 11 6 12 7 10 8 7 9 8 10 85 11 9 12
REMARK SMILES IDX 4 14 5 15 6 16 2 17 1 18 3 19 18 20 19 21 20 22 21 23 22 24
REMARK SMILES IDX 23 25 84 26 24 27 83 28 25 29 26 30 27 31 77 32 28 33 82 34
REMARK SMILES IDX 76 35 78 36 29 37 81 38 75 39 74 40 30 42 62 43 42 44 61 45
REMARK SMILES IDX 43 46 46 47 60 48 79 49 44 50 45 51 59 53 80 54 47 55 31 56
REMARK SMILES IDX 32 57 40 58 33 59 35 60 41 61 34 62 36 63 37 64 38 65 39 66
REMARK SMILES IDX 63 67 64 68 72 69 65 70 67 71 73 72 66 73 68 74 69 75 70 76
REMARK SMILES IDX 71 77 48 78 49 79 57 80 50 81 52 82 58 83 51 84 53 85 54 86
REMARK SMILES IDX 55 87 56 88
REMARK H PARENT 9 13 78 41 46 52
REMARK Flexibility Score: inf
ROOT
ATOM      1  C   UNL A   1      33.381  28.598  27.256  1.00  0.00     0.202 C 
ENDROOT
BRANCH   1   2
ATOM      2  O   UNL A   1      33.425  27.615  26.227  1.00  0.00    -0.374 OA
BRANCH   2   3
ATOM      3  C   UNL A   1      33.362  28.064  24.871  1.00  0.00     0.202 C 
BRANCH   3   4
ATOM      4  C   UNL A   1      32.776  27.070  23.866  1.00  0.00     0.261 C 
BRANCH   4   5
ATOM      5  O   UNL A   1      33.805  26.392  23.132  1.00  0.00    -0.459 OA
BRANCH   5   6
ATOM      6  C   UNL A   1      33.352  25.527  22.176  1.00  0.00     0.354 C 
ATOM      7  O   UNL A   1      33.333  25.726  20.986  1.00  0.00    -0.244 OA
BRANCH   6   8
ATOM      8  C   UNL A   1      33.001  24.265  22.792  1.00  0.00     0.126 A 
ATOM      9  C   UNL A   1      32.788  22.406  24.063  1.00  0.00     0.100 A 
ATOM     10  C   UNL A   1      31.665  22.519  23.265  1.00  0.00     0.105 A 
ATOM     11  C   UNL A   1      33.681  23.434  23.666  1.00  0.00     0.057 A 
ATOM     12  N   UNL A   1      31.805  23.644  22.502  1.00  0.00    -0.354 N 
ATOM     13  H   UNL A   1      31.148  23.964  21.843  1.00  0.00     0.166 HD
BRANCH   9  14
ATOM     14  S   UNL A   1      33.028  21.227  25.310  1.00  0.00     0.244 S 
ATOM     15  O   UNL A   1      34.358  20.716  25.080  1.00  0.00    -0.207 OA
ATOM     16  O   UNL A   1      31.856  20.379  25.202  1.00  0.00    -0.207 OA
BRANCH  14  17
ATOM     17  N   UNL A   1      32.973  21.991  26.847  1.00  0.00    -0.204 NA
ATOM     18  C   UNL A   1      34.300  22.491  27.275  1.00  0.00     0.124 C 
ATOM     19  C   UNL A   1      31.938  23.039  27.003  1.00  0.00     0.124 C 
ENDBRANCH  14  17
ENDBRANCH   9  14
ENDBRANCH   6   8
ENDBRANCH   5   6
ENDBRANCH   4   5
ENDBRANCH   3   4
ENDBRANCH   2   3
ENDBRANCH   1   2
BRANCH   1  20
ATOM     20  C   UNL A   1      34.261  29.837  27.148  1.00  0.00     0.261 C 
BRANCH  20  21
ATOM     21  O   UNL A   1      35.658  29.583  27.098  1.00  0.00    -0.460 OA
BRANCH  21  22
ATOM     22  C   UNL A   1      36.272  29.948  28.247  1.00  0.00     0.338 C 
ATOM     23  O   UNL A   1      35.914  30.821  29.021  1.00  0.00    -0.246 OA
BRANCH  22  24
ATOM     24  C   UNL A   1      37.562  29.274  28.377  1.00  0.00     0.060 A 
ATOM     25  C   UNL A   1      37.882  28.754  29.635  1.00  0.00     0.016 A 
ATOM     26  C   UNL A   1      38.508  29.358  27.350  1.00  0.00     0.016 A 
ATOM     27  C   UNL A   1      39.181  28.361  29.890  1.00  0.00     0.010 A 
ATOM     28  C   UNL A   1      39.816  29.007  27.622  1.00  0.00     0.010 A 
ATOM     29  C   UNL A   1      40.146  28.502  28.885  1.00  0.00    -0.014 A 
BRANCH  29  30
ATOM     30  C   UNL A   1      41.439  27.823  29.082  1.00  0.00     0.031 A 
ATOM     31  C   UNL A   1      41.274  26.309  28.719  1.00  0.00     0.074 A 
ATOM     32  C   UNL A   1      42.460  28.607  29.568  1.00  0.00     0.049 A 
ATOM     33  N   UNL A   1      41.926  25.262  29.127  1.00  0.00    -0.248 NA
ATOM     34  C   UNL A   1      40.133  25.877  27.844  1.00  0.00     0.031 C 
ATOM     35  C   UNL A   1      42.394  30.079  29.775  1.00  0.00     0.029 A 
ATOM     36  N   UNL A   1      43.753  28.359  29.984  1.00  0.00    -0.354 N 
ATOM     37  C   UNL A   1      41.486  24.158  28.344  1.00  0.00     0.074 A 
ATOM     38  C   UNL A   1      40.281  24.560  27.708  1.00  0.00     0.031 C 
ATOM     39  C   UNL A   1      43.524  30.552  30.358  1.00  0.00     0.029 A 
ATOM     40  C   UNL A   1      44.461  29.461  30.555  1.00  0.00     0.049 A 
ATOM     41  H   UNL A   1      44.166  27.470  29.890  1.00  0.00     0.167 HD
ATOM     42  C   UNL A   1      42.259  23.052  28.122  1.00  0.00     0.034 A 
ATOM     43  C   UNL A   1      45.695  29.464  31.168  1.00  0.00     0.034 A 
ATOM     44  C   UNL A   1      43.458  23.186  28.874  1.00  0.00     0.049 A 
ATOM     45  C   UNL A   1      46.242  28.141  30.856  1.00  0.00     0.074 A 
ATOM     46  C   UNL A   1      43.723  23.074  30.210  1.00  0.00     0.029 A 
ATOM     47  N   UNL A   1      44.463  23.878  28.241  1.00  0.00    -0.354 N 
ATOM     48  N   UNL A   1      46.662  27.786  29.677  1.00  0.00    -0.248 NA
ATOM     49  C   UNL A   1      46.183  27.097  31.883  1.00  0.00     0.031 C 
ATOM     50  C   UNL A   1      44.628  24.129  30.423  1.00  0.00     0.029 A 
ATOM     51  C   UNL A   1      45.096  24.622  29.197  1.00  0.00     0.049 A 
ATOM     52  H   UNL A   1      44.685  23.843  27.283  1.00  0.00     0.167 HD
ATOM     53  C   UNL A   1      46.535  26.423  29.744  1.00  0.00     0.074 A 
ATOM     54  C   UNL A   1      46.601  26.073  31.147  1.00  0.00     0.031 C 
ATOM     55  C   UNL A   1      45.866  25.758  28.767  1.00  0.00     0.034 A 
BRANCH  42  56
ATOM     56  C   UNL A   1      42.261  21.947  27.090  1.00  0.00     0.023 A 
ATOM     57  C   UNL A   1      41.245  20.961  27.272  1.00  0.00     0.012 A 
ATOM     58  C   UNL A   1      43.337  21.615  26.251  1.00  0.00     0.148 A 
ATOM     59  C   UNL A   1      41.390  19.651  26.826  1.00  0.00     0.002 A 
ATOM     60  C   UNL A   1      43.439  20.314  25.744  1.00  0.00     0.091 A 
ATOM     61  F   UNL A   1      44.289  22.519  26.009  1.00  0.00    -0.205 F 
ATOM     62  C   UNL A   1      42.504  19.322  26.082  1.00  0.00     0.022 A 
BRANCH  60  63
ATOM     63  S   UNL A   1      44.761  19.788  24.647  1.00  0.00     0.127 S 
ATOM     64  O   UNL A   1      44.458  18.372  24.463  1.00  0.00    -0.237 OA
ATOM     65  O   UNL A   1      44.510  20.620  23.467  1.00  0.00    -0.237 OA
ATOM     66  O   UNL A   1      46.001  20.101  25.342  1.00  0.00    -0.744 OA
ENDBRANCH  60  63
ENDBRANCH  42  56
BRANCH  43  67
ATOM     67  C   UNL A   1      46.557  30.335  32.075  1.00  0.00     0.023 A 
ATOM     68  C   UNL A   1      47.943  30.504  31.961  1.00  0.00     0.012 A 
ATOM     69  C   UNL A   1      45.929  31.150  33.078  1.00  0.00     0.148 A 
ATOM     70  C   UNL A   1      48.624  31.496  32.711  1.00  0.00     0.002 A 
ATOM     71  C   UNL A   1      46.565  32.223  33.695  1.00  0.00     0.091 A 
ATOM     72  F   UNL A   1      44.695  30.856  33.500  1.00  0.00    -0.205 F 
ATOM     73  C   UNL A   1      47.930  32.394  33.527  1.00  0.00     0.022 A 
BRANCH  71  74
ATOM     74  S   UNL A   1      45.634  33.508  34.564  1.00  0.00     0.127 S 
ATOM     75  O   UNL A   1      46.545  34.649  34.514  1.00  0.00    -0.237 OA
ATOM     76  O   UNL A   1      44.448  33.632  33.717  1.00  0.00    -0.237 OA
ATOM     77  O   UNL A   1      45.367  32.989  35.900  1.00  0.00    -0.744 OA
ENDBRANCH  71  74
ENDBRANCH  43  67
BRANCH  55  78
ATOM     78  C   UNL A   1      45.830  26.450  27.401  1.00  0.00     0.023 A 
ATOM     79  C   UNL A   1      44.568  26.919  26.981  1.00  0.00     0.012 A 
ATOM     80  C   UNL A   1      46.904  26.586  26.482  1.00  0.00     0.148 A 
ATOM     81  C   UNL A   1      44.366  27.477  25.716  1.00  0.00     0.002 A 
ATOM     82  C   UNL A   1      46.694  27.126  25.202  1.00  0.00     0.091 A 
ATOM     83  F   UNL A   1      48.124  26.197  26.855  1.00  0.00    -0.205 F 
ATOM     84  C   UNL A   1      45.425  27.577  24.825  1.00  0.00     0.022 A 
BRANCH  82  85
ATOM     85  S   UNL A   1      47.959  27.241  23.916  1.00  0.00     0.127 S 
ATOM     86  O   UNL A   1      47.339  28.141  22.940  1.00  0.00    -0.237 OA
ATOM     87  O   UNL A   1      49.086  27.828  24.638  1.00  0.00    -0.237 OA
ATOM     88  O   UNL A   1      48.169  25.886  23.432  1.00  0.00    -0.744 OA
ENDBRANCH  82  85
ENDBRANCH  55  78
ENDBRANCH  29  30
ENDBRANCH  22  24
ENDBRANCH  21  22
ENDBRANCH  20  21
ENDBRANCH   1  20
TORSDOF 19
ENDMDL
MODEL 3
REMARK VINA RESULT:     -10.6      3.789      6.201
REMARK SMILES CN(C)S(=O)(=O)c1c[nH]c(C(=O)OCCOCCOC(=O)c2ccc(-c3c4nc(c(-c5cccc(S(=O)(=O)[O-])c5F)c5ccc([nH]5)c(-c5cccc(S(=O)(=O)[O-])c5F)c5nc(c(-c6cccc(S(=O)(=O)[O-])c6F)c6ccc3[nH]6)C=C5)C=C4)cc2)c1
REMARK SMILES IDX 17 1 16 2 15 3 14 4 13 5 11 6 12 7 10 8 7 9 8 10 85 11 9 12
REMARK SMILES IDX 4 14 5 15 6 16 2 17 1 18 3 19 18 20 19 21 20 22 21 23 22 24
REMARK SMILES IDX 23 25 84 26 24 27 83 28 25 29 26 30 27 31 77 32 28 33 82 34
REMARK SMILES IDX 76 35 78 36 29 37 81 38 75 39 74 40 30 42 62 43 42 44 61 45
REMARK SMILES IDX 43 46 46 47 60 48 79 49 44 50 45 51 59 53 80 54 47 55 31 56
REMARK SMILES IDX 32 57 40 58 33 59 35 60 41 61 34 62 36 63 37 64 38 65 39 66
REMARK SMILES IDX 63 67 64 68 72 69 65 70 67 71 73 72 66 73 68 74 69 75 70 76
REMARK SMILES IDX 71 77 48 78 49 79 57 80 50 81 52 82 58 83 51 84 53 85 54 86
REMARK SMILES IDX 55 87 56 88
REMARK H PARENT 9 13 78 41 46 52
REMARK Flexibility Score: inf
ROOT
ATOM      1  C   UNL A   1      33.417  28.811  27.130  1.00  0.00     0.202 C 
ENDROOT
BRANCH   1   2
ATOM      2  O   UNL A   1      33.391  28.020  25.947  1.00  0.00    -0.374 OA
BRANCH   2   3
ATOM      3  C   UNL A   1      33.509  28.692  24.690  1.00  0.00     0.202 C 
BRANCH   3   4
ATOM      4  C   UNL A   1      32.191  29.085  24.020  1.00  0.00     0.261 C 
BRANCH   4   5
ATOM      5  O   UNL A   1      32.070  28.506  22.713  1.00  0.00    -0.459 OA
BRANCH   5   6
ATOM      6  C   UNL A   1      30.918  27.800  22.504  1.00  0.00     0.354 C 
ATOM      7  O   UNL A   1      29.857  28.255  22.155  1.00  0.00    -0.244 OA
BRANCH   6   8
ATOM      8  C   UNL A   1      31.185  26.384  22.646  1.00  0.00     0.126 A 
ATOM      9  C   UNL A   1      32.048  24.299  22.792  1.00  0.00     0.100 A 
ATOM     10  C   UNL A   1      30.779  24.283  23.336  1.00  0.00     0.105 A 
ATOM     11  C   UNL A   1      32.246  25.592  22.243  1.00  0.00     0.057 A 
ATOM     12  N   UNL A   1      30.267  25.546  23.242  1.00  0.00    -0.354 N 
ATOM     13  H   UNL A   1      29.374  25.819  23.554  1.00  0.00     0.166 HD
BRANCH   9  14
ATOM     14  S   UNL A   1      33.169  22.977  22.802  1.00  0.00     0.244 S 
ATOM     15  O   UNL A   1      34.218  23.379  21.895  1.00  0.00    -0.207 OA
ATOM     16  O   UNL A   1      32.331  21.823  22.535  1.00  0.00    -0.207 OA
BRANCH  14  17
ATOM     17  N   UNL A   1      33.825  22.786  24.377  1.00  0.00    -0.204 NA
ATOM     18  C   UNL A   1      33.981  21.362  24.753  1.00  0.00     0.124 C 
ATOM     19  C   UNL A   1      35.068  23.543  24.647  1.00  0.00     0.124 C 
ENDBRANCH  14  17
ENDBRANCH   9  14
ENDBRANCH   6   8
ENDBRANCH   5   6
ENDBRANCH   4   5
ENDBRANCH   3   4
ENDBRANCH   2   3
ENDBRANCH   1   2
BRANCH   1  20
ATOM     20  C   UNL A   1      34.375  29.992  27.223  1.00  0.00     0.261 C 
BRANCH  20  21
ATOM     21  O   UNL A   1      35.755  29.654  27.197  1.00  0.00    -0.460 OA
BRANCH  21  22
ATOM     22  C   UNL A   1      36.369  29.977  28.358  1.00  0.00     0.338 C 
ATOM     23  O   UNL A   1      36.014  30.827  29.159  1.00  0.00    -0.246 OA
BRANCH  22  24
ATOM     24  C   UNL A   1      37.655  29.293  28.467  1.00  0.00     0.060 A 
ATOM     25  C   UNL A   1      38.001  28.791  29.726  1.00  0.00     0.016 A 
ATOM     26  C   UNL A   1      38.576  29.351  27.416  1.00  0.00     0.016 A 
ATOM     27  C   UNL A   1      39.302  28.390  29.955  1.00  0.00     0.010 A 
ATOM     28  C   UNL A   1      39.886  28.991  27.662  1.00  0.00     0.010 A 
ATOM     29  C   UNL A   1      40.243  28.504  28.924  1.00  0.00    -0.014 A 
BRANCH  29  30
ATOM     30  C   UNL A   1      41.534  27.816  29.101  1.00  0.00     0.031 A 
ATOM     31  C   UNL A   1      41.354  26.304  28.736  1.00  0.00     0.074 A 
ATOM     32  C   UNL A   1      42.567  28.591  29.576  1.00  0.00     0.049 A 
ATOM     33  N   UNL A   1      42.004  25.251  29.131  1.00  0.00    -0.248 NA
ATOM     34  C   UNL A   1      40.198  25.883  27.875  1.00  0.00     0.031 C 
ATOM     35  C   UNL A   1      42.514  30.063  29.788  1.00  0.00     0.029 A 
ATOM     36  N   UNL A   1      43.864  28.333  29.973  1.00  0.00    -0.354 N 
ATOM     37  C   UNL A   1      41.546  24.153  28.351  1.00  0.00     0.074 A 
ATOM     38  C   UNL A   1      40.335  24.565  27.733  1.00  0.00     0.031 C 
ATOM     39  C   UNL A   1      43.655  30.526  30.357  1.00  0.00     0.029 A 
ATOM     40  C   UNL A   1      44.588  29.428  30.537  1.00  0.00     0.049 A 
ATOM     41  H   UNL A   1      44.269  27.442  29.870  1.00  0.00     0.167 HD
ATOM     42  C   UNL A   1      42.308  23.043  28.114  1.00  0.00     0.034 A 
ATOM     43  C   UNL A   1      45.830  29.421  31.133  1.00  0.00     0.034 A 
ATOM     44  C   UNL A   1      43.519  23.166  28.849  1.00  0.00     0.049 A 
ATOM     45  C   UNL A   1      46.364  28.095  30.809  1.00  0.00     0.074 A 
ATOM     46  C   UNL A   1      43.801  23.048  30.182  1.00  0.00     0.029 A 
ATOM     47  N   UNL A   1      44.520  23.853  28.205  1.00  0.00    -0.354 N 
ATOM     48  N   UNL A   1      46.765  27.741  29.623  1.00  0.00    -0.248 NA
ATOM     49  C   UNL A   1      46.312  27.048  31.833  1.00  0.00     0.031 C 
ATOM     50  C   UNL A   1      44.717  24.096  30.386  1.00  0.00     0.029 A 
ATOM     51  C   UNL A   1      45.170  24.590  29.154  1.00  0.00     0.049 A 
ATOM     52  H   UNL A   1      44.728  23.820  27.243  1.00  0.00     0.167 HD
ATOM     53  C   UNL A   1      46.629  26.379  29.687  1.00  0.00     0.074 A 
ATOM     54  C   UNL A   1      46.712  26.024  31.088  1.00  0.00     0.031 C 
ATOM     55  C   UNL A   1      45.942  25.722  28.717  1.00  0.00     0.034 A 
BRANCH  42  56
ATOM     56  C   UNL A   1      42.288  21.941  27.078  1.00  0.00     0.023 A 
ATOM     57  C   UNL A   1      41.309  20.928  27.306  1.00  0.00     0.012 A 
ATOM     58  C   UNL A   1      43.329  21.640  26.186  1.00  0.00     0.148 A 
ATOM     59  C   UNL A   1      41.466  19.623  26.848  1.00  0.00     0.002 A 
ATOM     60  C   UNL A   1      43.441  20.344  25.669  1.00  0.00     0.091 A 
ATOM     61  F   UNL A   1      44.245  22.570  25.901  1.00  0.00    -0.205 F 
ATOM     62  C   UNL A   1      42.550  19.327  26.048  1.00  0.00     0.022 A 
BRANCH  60  63
ATOM     63  S   UNL A   1      44.720  19.857  24.506  1.00  0.00     0.127 S 
ATOM     64  O   UNL A   1      45.937  20.079  25.281  1.00  0.00    -0.237 OA
ATOM     65  O   UNL A   1      44.393  18.447  24.283  1.00  0.00    -0.237 OA
ATOM     66  O   UNL A   1      44.534  20.702  23.335  1.00  0.00    -0.744 OA
ENDBRANCH  60  63
ENDBRANCH  42  56
BRANCH  43  67
ATOM     67  C   UNL A   1      46.711  30.283  32.031  1.00  0.00     0.023 A 
ATOM     68  C   UNL A   1      46.346  30.780  33.289  1.00  0.00     0.012 A 
ATOM     69  C   UNL A   1      48.070  30.546  31.647  1.00  0.00     0.148 A 
ATOM     70  C   UNL A   1      47.302  31.389  34.140  1.00  0.00     0.002 A 
ATOM     71  C   UNL A   1      49.039  30.997  32.538  1.00  0.00     0.091 A 
ATOM     72  F   UNL A   1      48.440  30.412  30.369  1.00  0.00    -0.205 F 
ATOM     73  C   UNL A   1      48.655  31.441  33.794  1.00  0.00     0.022 A 
BRANCH  71  74
ATOM     74  S   UNL A   1      50.805  30.856  32.173  1.00  0.00     0.127 S 
ATOM     75  O   UNL A   1      51.404  30.837  33.506  1.00  0.00    -0.237 OA
ATOM     76  O   UNL A   1      50.854  29.579  31.461  1.00  0.00    -0.237 OA
ATOM     77  O   UNL A   1      51.151  32.012  31.357  1.00  0.00    -0.744 OA
ENDBRANCH  71  74
ENDBRANCH  43  67
BRANCH  55  78
ATOM     78  C   UNL A   1      45.892  26.419  27.354  1.00  0.00     0.023 A 
ATOM     79  C   UNL A   1      44.629  26.905  26.957  1.00  0.00     0.012 A 
ATOM     80  C   UNL A   1      46.952  26.544  26.417  1.00  0.00     0.148 A 
ATOM     81  C   UNL A   1      44.412  27.469  25.697  1.00  0.00     0.002 A 
ATOM     82  C   UNL A   1      46.727  27.091  25.143  1.00  0.00     0.091 A 
ATOM     83  F   UNL A   1      48.173  26.139  26.769  1.00  0.00    -0.205 F 
ATOM     84  C   UNL A   1      45.457  27.560  24.789  1.00  0.00     0.022 A 
BRANCH  82  85
ATOM     85  S   UNL A   1      47.972  27.195  23.837  1.00  0.00     0.127 S 
ATOM     86  O   UNL A   1      47.296  28.002  22.818  1.00  0.00    -0.237 OA
ATOM     87  O   UNL A   1      49.074  27.880  24.508  1.00  0.00    -0.237 OA
ATOM     88  O   UNL A   1      48.247  25.826  23.429  1.00  0.00    -0.744 OA
ENDBRANCH  82  85
ENDBRANCH  55  78
ENDBRANCH  29  30
ENDBRANCH  22  24
ENDBRANCH  21  22
ENDBRANCH  20  21
ENDBRANCH   1  20
TORSDOF 19
ENDMDL
