MODEL 1
REMARK VINA RESULT:     -12.1      0.000      0.000
REMARK SMILES O=C(OCCOCCOC(=O)[C@H]1CCCCN1c1cc(-c2ccccc2)nc(-c2cccc(Cl)c2)n1)c1ccc(-c2c3nc(c(-c4cccc(S(=O)(=O)[O-])c4F)c4ccc([nH]4)c(-c4cccc(S(=O)(=O)[O-])c4F)c4nc(c(-c5cccc(S(=O)(=O)[O-])c5F)c5ccc2[nH]5)C=C4)C=C3)cc1
REMARK SMILES IDX 5 1 4 2 3 3 2 4 1 5 37 6 38 7 99 8 39 9 98 10 40 11 41 12
REMARK SMILES IDX 42 13 92 14 43 15 97 16 91 17 93 18 44 19 96 20 90 21 89 22
REMARK SMILES IDX 45 24 77 25 57 26 76 27 58 28 61 29 75 30 94 31 59 32 60 33
REMARK SMILES IDX 74 35 95 36 62 37 46 38 47 39 55 40 48 41 50 42 56 43 49 44
REMARK SMILES IDX 51 45 52 46 53 47 54 48 78 49 79 50 87 51 80 52 82 53 88 54
REMARK SMILES IDX 81 55 83 56 84 57 85 58 86 59 63 60 64 61 72 62 65 63 67 64
REMARK SMILES IDX 73 65 66 66 68 67 69 68 70 69 71 70 6 71 7 72 8 73 9 74
REMARK SMILES IDX 10 75 11 76 12 77 13 78 17 79 14 80 16 81 15 82 18 83 19 84
REMARK SMILES IDX 36 85 20 86 28 87 27 88 21 89 22 90 26 91 23 92 25 93 24 94
REMARK SMILES IDX 29 95 30 96 35 97 31 98 33 99 32 100 34 101
REMARK H PARENT 93 23 61 34
REMARK Flexibility Score: inf
ROOT
ATOM      1  C   UNL A   1      31.821  29.120  25.398  1.00  0.00     0.202 C 
ENDROOT
BRANCH   1   2
ATOM      2  C   UNL A   1      32.034  30.448  26.123  1.00  0.00     0.261 C 
BRANCH   2   3
ATOM      3  O   UNL A   1      33.420  30.651  26.418  1.00  0.00    -0.460 OA
BRANCH   3   4
ATOM      4  C   UNL A   1      33.940  31.476  27.359  1.00  0.00     0.338 C 
ATOM      5  O   UNL A   1      33.322  32.505  27.631  1.00  0.00    -0.246 OA
BRANCH   4   6
ATOM      6  C   UNL A   1      35.192  31.183  28.128  1.00  0.00     0.060 A 
ATOM      7  C   UNL A   1      36.263  32.064  28.304  1.00  0.00     0.016 A 
ATOM      8  C   UNL A   1      35.240  29.953  28.805  1.00  0.00     0.016 A 
ATOM      9  C   UNL A   1      37.350  31.745  29.104  1.00  0.00     0.010 A 
ATOM     10  C   UNL A   1      36.315  29.634  29.640  1.00  0.00     0.010 A 
ATOM     11  C   UNL A   1      37.371  30.538  29.792  1.00  0.00    -0.014 A 
BRANCH  11  12
ATOM     12  C   UNL A   1      38.536  30.248  30.642  1.00  0.00     0.031 A 
ATOM     13  C   UNL A   1      39.594  29.332  30.119  1.00  0.00     0.074 A 
ATOM     14  C   UNL A   1      38.653  30.877  31.826  1.00  0.00     0.049 A 
ATOM     15  N   UNL A   1      40.673  28.903  30.710  1.00  0.00    -0.248 NA
ATOM     16  C   UNL A   1      39.423  28.844  28.739  1.00  0.00     0.031 C 
ATOM     17  C   UNL A   1      37.695  31.850  32.361  1.00  0.00     0.029 A 
ATOM     18  N   UNL A   1      39.622  30.801  32.789  1.00  0.00    -0.354 N 
ATOM     19  C   UNL A   1      41.280  28.047  29.802  1.00  0.00     0.074 A 
ATOM     20  C   UNL A   1      40.469  28.043  28.605  1.00  0.00     0.031 C 
ATOM     21  C   UNL A   1      38.125  32.275  33.560  1.00  0.00     0.029 A 
ATOM     22  C   UNL A   1      39.349  31.563  33.902  1.00  0.00     0.049 A 
ATOM     23  H   UNL A   1      40.436  30.253  32.695  1.00  0.00     0.167 HD
ATOM     24  C   UNL A   1      42.409  27.324  29.970  1.00  0.00     0.034 A 
ATOM     25  C   UNL A   1      40.002  31.636  35.077  1.00  0.00     0.034 A 
ATOM     26  C   UNL A   1      43.197  27.365  31.169  1.00  0.00     0.049 A 
ATOM     27  C   UNL A   1      41.238  30.794  35.242  1.00  0.00     0.074 A 
ATOM     28  C   UNL A   1      44.347  26.662  31.470  1.00  0.00     0.029 A 
ATOM     29  N   UNL A   1      42.904  28.155  32.272  1.00  0.00    -0.354 N 
ATOM     30  N   UNL A   1      41.827  30.015  34.364  1.00  0.00    -0.248 NA
ATOM     31  C   UNL A   1      41.907  30.842  36.547  1.00  0.00     0.031 C 
ATOM     32  C   UNL A   1      44.738  27.013  32.766  1.00  0.00     0.029 A 
ATOM     33  C   UNL A   1      43.844  27.952  33.263  1.00  0.00     0.049 A 
ATOM     34  H   UNL A   1      42.138  28.770  32.339  1.00  0.00     0.167 HD
ATOM     35  C   UNL A   1      42.942  29.493  35.004  1.00  0.00     0.074 A 
ATOM     36  C   UNL A   1      42.966  30.073  36.333  1.00  0.00     0.031 C 
ATOM     37  C   UNL A   1      43.853  28.594  34.552  1.00  0.00     0.034 A 
BRANCH  24  38
ATOM     38  C   UNL A   1      42.822  26.415  28.848  1.00  0.00     0.023 A 
ATOM     39  C   UNL A   1      42.279  25.118  28.752  1.00  0.00     0.012 A 
ATOM     40  C   UNL A   1      43.746  26.854  27.880  1.00  0.00     0.148 A 
ATOM     41  C   UNL A   1      42.670  24.263  27.722  1.00  0.00     0.002 A 
ATOM     42  C   UNL A   1      44.105  26.010  26.838  1.00  0.00     0.091 A 
ATOM     43  F   UNL A   1      44.267  28.082  28.009  1.00  0.00    -0.205 F 
ATOM     44  C   UNL A   1      43.576  24.711  26.762  1.00  0.00     0.022 A 
BRANCH  42  45
ATOM     45  S   UNL A   1      45.228  26.505  25.527  1.00  0.00     0.127 S 
ATOM     46  O   UNL A   1      45.290  25.289  24.717  1.00  0.00    -0.237 OA
ATOM     47  O   UNL A   1      44.501  27.614  24.908  1.00  0.00    -0.237 OA
ATOM     48  O   UNL A   1      46.474  26.878  26.181  1.00  0.00    -0.744 OA
ENDBRANCH  42  45
ENDBRANCH  24  38
BRANCH  25  49
ATOM     49  C   UNL A   1      39.499  32.513  36.175  1.00  0.00     0.023 A 
ATOM     50  C   UNL A   1      38.433  32.077  36.987  1.00  0.00     0.012 A 
ATOM     51  C   UNL A   1      40.074  33.775  36.429  1.00  0.00     0.148 A 
ATOM     52  C   UNL A   1      37.931  32.892  38.004  1.00  0.00     0.002 A 
ATOM     53  C   UNL A   1      39.608  34.556  37.481  1.00  0.00     0.091 A 
ATOM     54  F   UNL A   1      41.068  34.196  35.633  1.00  0.00    -0.205 F 
ATOM     55  C   UNL A   1      38.524  34.126  38.258  1.00  0.00     0.022 A 
BRANCH  53  56
ATOM     56  S   UNL A   1      40.417  36.093  37.949  1.00  0.00     0.127 S 
ATOM     57  O   UNL A   1      39.276  36.965  38.209  1.00  0.00    -0.237 OA
ATOM     58  O   UNL A   1      41.173  35.697  39.138  1.00  0.00    -0.237 OA
ATOM     59  O   UNL A   1      41.249  36.446  36.807  1.00  0.00    -0.744 OA
ENDBRANCH  53  56
ENDBRANCH  25  49
BRANCH  37  60
ATOM     60  C   UNL A   1      44.956  28.206  35.496  1.00  0.00     0.023 A 
ATOM     61  C   UNL A   1      46.208  28.842  35.399  1.00  0.00     0.012 A 
ATOM     62  C   UNL A   1      44.718  27.284  36.531  1.00  0.00     0.148 A 
ATOM     63  C   UNL A   1      47.219  28.546  36.309  1.00  0.00     0.002 A 
ATOM     64  C   UNL A   1      45.713  27.031  37.464  1.00  0.00     0.091 A 
ATOM     65  F   UNL A   1      43.524  26.676  36.586  1.00  0.00    -0.205 F 
ATOM     66  C   UNL A   1      46.968  27.653  37.349  1.00  0.00     0.022 A 
BRANCH  64  67
ATOM     67  S   UNL A   1      45.436  25.980  38.892  1.00  0.00     0.127 S 
ATOM     68  O   UNL A   1      46.725  26.060  39.576  1.00  0.00    -0.237 OA
ATOM     69  O   UNL A   1      44.339  26.665  39.577  1.00  0.00    -0.237 OA
ATOM     70  O   UNL A   1      45.087  24.669  38.361  1.00  0.00    -0.744 OA
ENDBRANCH  64  67
ENDBRANCH  37  60
ENDBRANCH  11  12
ENDBRANCH   4   6
ENDBRANCH   3   4
ENDBRANCH   2   3
ENDBRANCH   1   2
BRANCH   1  71
ATOM     71  O   UNL A   1      32.096  29.197  24.002  1.00  0.00    -0.374 OA
BRANCH  71  72
ATOM     72  C   UNL A   1      33.447  28.935  23.629  1.00  0.00     0.202 C 
BRANCH  72  73
ATOM     73  C   UNL A   1      33.464  27.999  22.422  1.00  0.00     0.261 C 
BRANCH  73  74
ATOM     74  O   UNL A   1      32.637  26.855  22.709  1.00  0.00    -0.462 OA
BRANCH  74  75
ATOM     75  C   UNL A   1      33.237  25.645  22.464  1.00  0.00     0.328 C 
ATOM     76  O   UNL A   1      33.638  25.279  21.372  1.00  0.00    -0.250 OA
BRANCH  75  77
ATOM     77  C   UNL A   1      33.340  24.824  23.771  1.00  0.00     0.193 C 
ATOM     78  C   UNL A   1      32.436  25.451  24.832  1.00  0.00     0.037 C 
ATOM     79  N   UNL A   1      32.973  23.402  23.551  1.00  0.00    -0.343 N 
ATOM     80  C   UNL A   1      30.954  25.218  24.533  1.00  0.00     0.005 C 
ATOM     81  C   UNL A   1      31.573  23.110  23.235  1.00  0.00     0.119 C 
ATOM     82  C   UNL A   1      30.656  23.739  24.289  1.00  0.00     0.022 C 
BRANCH  79  83
ATOM     83  C   UNL A   1      33.768  22.403  24.090  1.00  0.00     0.134 A 
ATOM     84  C   UNL A   1      33.293  21.102  24.184  1.00  0.00     0.076 A 
ATOM     85  N   UNL A   1      35.021  22.701  24.462  1.00  0.00    -0.211 NA
ATOM     86  C   UNL A   1      34.165  20.123  24.624  1.00  0.00     0.076 A 
ATOM     87  C   UNL A   1      35.783  21.696  24.933  1.00  0.00     0.162 A 
ATOM     88  N   UNL A   1      35.420  20.407  25.013  1.00  0.00    -0.228 NA
BRANCH  86  89
ATOM     89  C   UNL A   1      33.798  18.703  24.675  1.00  0.00     0.000 A 
ATOM     90  C   UNL A   1      32.858  18.234  25.607  1.00  0.00     0.010 A 
ATOM     91  C   UNL A   1      34.396  17.766  23.815  1.00  0.00     0.010 A 
ATOM     92  C   UNL A   1      32.515  16.879  25.663  1.00  0.00     0.001 A 
ATOM     93  C   UNL A   1      34.059  16.411  23.874  1.00  0.00     0.001 A 
ATOM     94  C   UNL A   1      33.114  15.969  24.795  1.00  0.00     0.000 A 
ENDBRANCH  86  89
BRANCH  87  95
ATOM     95  C   UNL A   1      37.098  22.042  25.471  1.00  0.00     0.021 A 
ATOM     96  C   UNL A   1      38.152  21.111  25.434  1.00  0.00     0.012 A 
ATOM     97  C   UNL A   1      37.355  23.317  26.002  1.00  0.00     0.032 A 
ATOM     98  C   UNL A   1      39.426  21.443  25.900  1.00  0.00     0.002 A 
ATOM     99  C   UNL A   1      38.623  23.639  26.485  1.00  0.00     0.041 A 
ATOM    100  C   UNL A   1      39.661  22.709  26.430  1.00  0.00     0.020 A 
ATOM    101  Cl  UNL A   1      38.915  25.197  27.155  1.00  0.00    -0.084 Cl
ENDBRANCH  87  95
ENDBRANCH  79  83
ENDBRANCH  75  77
ENDBRANCH  74  75
ENDBRANCH  73  74
ENDBRANCH  72  73
ENDBRANCH  71  72
ENDBRANCH   1  71
TORSDOF 20
ENDMDL
MODEL 2
REMARK VINA RESULT:     -11.7      2.221      7.626
REMARK SMILES O=C(OCCOCCOC(=O)[C@H]1CCCCN1c1cc(-c2ccccc2)nc(-c2cccc(Cl)c2)n1)c1ccc(-c2c3nc(c(-c4cccc(S(=O)(=O)[O-])c4F)c4ccc([nH]4)c(-c4cccc(S(=O)(=O)[O-])c4F)c4nc(c(-c5cccc(S(=O)(=O)[O-])c5F)c5ccc2[nH]5)C=C4)C=C3)cc1
REMARK SMILES IDX 5 1 4 2 3 3 2 4 1 5 37 6 38 7 99 8 39 9 98 10 40 11 41 12
REMARK SMILES IDX 42 13 92 14 43 15 97 16 91 17 93 18 44 19 96 20 90 21 89 22
REMARK SMILES IDX 45 24 77 25 57 26 76 27 58 28 61 29 75 30 94 31 59 32 60 33
REMARK SMILES IDX 74 35 95 36 62 37 46 38 47 39 55 40 48 41 50 42 56 43 49 44
REMARK SMILES IDX 51 45 52 46 53 47 54 48 78 49 79 50 87 51 80 52 82 53 88 54
REMARK SMILES IDX 81 55 83 56 84 57 85 58 86 59 63 60 64 61 72 62 65 63 67 64
REMARK SMILES IDX 73 65 66 66 68 67 69 68 70 69 71 70 6 71 7 72 8 73 9 74
REMARK SMILES IDX 10 75 11 76 12 77 13 78 17 79 14 80 16 81 15 82 18 83 19 84
REMARK SMILES IDX 36 85 20 86 28 87 27 88 21 89 22 90 26 91 23 92 25 93 24 94
REMARK SMILES IDX 29 95 30 96 35 97 31 98 33 99 32 100 34 101
REMARK H PARENT 93 23 61 34
REMARK Flexibility Score: inf
ROOT
ATOM      1  C   UNL A   1      31.827  28.975  25.703  1.00  0.00     0.202 C 
ENDROOT
BRANCH   1   2
ATOM      2  C   UNL A   1      31.838  30.336  26.398  1.00  0.00     0.261 C 
BRANCH   2   3
ATOM      3  O   UNL A   1      33.139  30.931  26.332  1.00  0.00    -0.460 OA
BRANCH   3   4
ATOM      4  C   UNL A   1      33.739  31.684  27.285  1.00  0.00     0.338 C 
ATOM      5  O   UNL A   1      33.128  32.661  27.719  1.00  0.00    -0.246 OA
BRANCH   4   6
ATOM      6  C   UNL A   1      35.075  31.366  27.884  1.00  0.00     0.060 A 
ATOM      7  C   UNL A   1      36.113  32.280  28.085  1.00  0.00     0.016 A 
ATOM      8  C   UNL A   1      35.252  30.059  28.367  1.00  0.00     0.016 A 
ATOM      9  C   UNL A   1      37.290  31.923  28.726  1.00  0.00     0.010 A 
ATOM     10  C   UNL A   1      36.421  29.696  29.043  1.00  0.00     0.010 A 
ATOM     11  C   UNL A   1      37.441  30.635  29.226  1.00  0.00    -0.014 A 
BRANCH  11  12
ATOM     12  C   UNL A   1      38.699  30.303  29.912  1.00  0.00     0.031 A 
ATOM     13  C   UNL A   1      38.889  30.763  31.321  1.00  0.00     0.074 A 
ATOM     14  C   UNL A   1      39.602  29.530  29.283  1.00  0.00     0.049 A 
ATOM     15  N   UNL A   1      39.927  30.627  32.095  1.00  0.00    -0.248 NA
ATOM     16  C   UNL A   1      37.751  31.457  31.949  1.00  0.00     0.031 C 
ATOM     17  C   UNL A   1      39.442  28.975  27.934  1.00  0.00     0.029 A 
ATOM     18  N   UNL A   1      40.826  29.071  29.687  1.00  0.00    -0.354 N 
ATOM     19  C   UNL A   1      39.596  31.269  33.280  1.00  0.00     0.074 A 
ATOM     20  C   UNL A   1      38.246  31.767  33.138  1.00  0.00     0.031 C 
ATOM     21  C   UNL A   1      40.532  28.255  27.624  1.00  0.00     0.029 A 
ATOM     22  C   UNL A   1      41.486  28.347  28.721  1.00  0.00     0.049 A 
ATOM     23  H   UNL A   1      41.198  29.242  30.583  1.00  0.00     0.167 HD
ATOM     24  C   UNL A   1      40.366  31.434  34.378  1.00  0.00     0.034 A 
ATOM     25  C   UNL A   1      42.740  27.856  28.718  1.00  0.00     0.034 A 
ATOM     26  C   UNL A   1      41.698  30.913  34.489  1.00  0.00     0.049 A 
ATOM     27  C   UNL A   1      43.581  28.084  29.946  1.00  0.00     0.074 A 
ATOM     28  C   UNL A   1      42.588  31.033  35.539  1.00  0.00     0.029 A 
ATOM     29  N   UNL A   1      42.335  30.174  33.500  1.00  0.00    -0.354 N 
ATOM     30  N   UNL A   1      43.247  28.661  31.077  1.00  0.00    -0.248 NA
ATOM     31  C   UNL A   1      44.962  27.592  29.907  1.00  0.00     0.031 C 
ATOM     32  C   UNL A   1      43.771  30.383  35.176  1.00  0.00     0.029 A 
ATOM     33  C   UNL A   1      43.610  29.838  33.909  1.00  0.00     0.049 A 
ATOM     34  H   UNL A   1      41.936  29.926  32.635  1.00  0.00     0.167 HD
ATOM     35  C   UNL A   1      44.369  28.588  31.889  1.00  0.00     0.074 A 
ATOM     36  C   UNL A   1      45.382  27.877  31.132  1.00  0.00     0.031 C 
ATOM     37  C   UNL A   1      44.564  29.083  33.137  1.00  0.00     0.034 A 
BRANCH  24  38
ATOM     38  C   UNL A   1      39.791  32.234  35.512  1.00  0.00     0.023 A 
ATOM     39  C   UNL A   1      38.879  31.639  36.407  1.00  0.00     0.012 A 
ATOM     40  C   UNL A   1      40.165  33.580  35.695  1.00  0.00     0.148 A 
ATOM     41  C   UNL A   1      38.329  32.381  37.452  1.00  0.00     0.002 A 
ATOM     42  C   UNL A   1      39.640  34.302  36.758  1.00  0.00     0.091 A 
ATOM     43  F   UNL A   1      41.014  34.128  34.814  1.00  0.00    -0.205 F 
ATOM     44  C   UNL A   1      38.715  33.707  37.632  1.00  0.00     0.022 A 
BRANCH  42  45
ATOM     45  S   UNL A   1      40.106  36.001  37.103  1.00  0.00     0.127 S 
ATOM     46  O   UNL A   1      39.342  36.274  38.320  1.00  0.00    -0.237 OA
ATOM     47  O   UNL A   1      41.551  35.885  37.304  1.00  0.00    -0.237 OA
ATOM     48  O   UNL A   1      39.710  36.775  35.936  1.00  0.00    -0.744 OA
ENDBRANCH  42  45
ENDBRANCH  24  38
BRANCH  25  49
ATOM     49  C   UNL A   1      43.270  27.126  27.530  1.00  0.00     0.023 A 
ATOM     50  C   UNL A   1      43.616  27.840  26.366  1.00  0.00     0.012 A 
ATOM     51  C   UNL A   1      43.444  25.727  27.544  1.00  0.00     0.148 A 
ATOM     52  C   UNL A   1      44.091  27.175  25.234  1.00  0.00     0.002 A 
ATOM     53  C   UNL A   1      43.973  25.077  26.435  1.00  0.00     0.091 A 
ATOM     54  F   UNL A   1      43.084  25.050  28.645  1.00  0.00    -0.205 F 
ATOM     55  C   UNL A   1      44.280  25.796  25.271  1.00  0.00     0.022 A 
BRANCH  53  56
ATOM     56  S   UNL A   1      44.370  23.324  26.465  1.00  0.00     0.127 S 
ATOM     57  O   UNL A   1      43.059  22.723  26.694  1.00  0.00    -0.237 OA
ATOM     58  O   UNL A   1      44.921  23.106  25.127  1.00  0.00    -0.237 OA
ATOM     59  O   UNL A   1      45.342  23.173  27.539  1.00  0.00    -0.744 OA
ENDBRANCH  53  56
ENDBRANCH  25  49
BRANCH  37  60
ATOM     60  C   UNL A   1      45.911  28.853  33.761  1.00  0.00     0.023 A 
ATOM     61  C   UNL A   1      46.134  27.690  34.524  1.00  0.00     0.012 A 
ATOM     62  C   UNL A   1      46.974  29.740  33.512  1.00  0.00     0.148 A 
ATOM     63  C   UNL A   1      47.395  27.426  35.051  1.00  0.00     0.002 A 
ATOM     64  C   UNL A   1      48.240  29.444  33.997  1.00  0.00     0.091 A 
ATOM     65  F   UNL A   1      46.730  30.850  32.801  1.00  0.00    -0.205 F 
ATOM     66  C   UNL A   1      48.451  28.293  34.776  1.00  0.00     0.022 A 
BRANCH  64  67
ATOM     67  S   UNL A   1      49.672  30.449  33.599  1.00  0.00     0.127 S 
ATOM     68  O   UNL A   1      50.700  29.856  34.452  1.00  0.00    -0.237 OA
ATOM     69  O   UNL A   1      49.846  30.195  32.168  1.00  0.00    -0.237 OA
ATOM     70  O   UNL A   1      49.301  31.820  33.924  1.00  0.00    -0.744 OA
ENDBRANCH  64  67
ENDBRANCH  37  60
ENDBRANCH  11  12
ENDBRANCH   4   6
ENDBRANCH   3   4
ENDBRANCH   2   3
ENDBRANCH   1   2
BRANCH   1  71
ATOM     71  O   UNL A   1      32.070  29.063  24.302  1.00  0.00    -0.374 OA
BRANCH  71  72
ATOM     72  C   UNL A   1      33.443  29.093  23.920  1.00  0.00     0.202 C 
BRANCH  72  73
ATOM     73  C   UNL A   1      33.652  28.179  22.713  1.00  0.00     0.261 C 
BRANCH  73  74
ATOM     74  O   UNL A   1      32.705  27.094  22.783  1.00  0.00    -0.462 OA
BRANCH  74  75
ATOM     75  C   UNL A   1      33.237  25.858  22.513  1.00  0.00     0.328 C 
ATOM     76  O   UNL A   1      33.605  25.489  21.410  1.00  0.00    -0.250 OA
BRANCH  75  77
ATOM     77  C   UNL A   1      33.310  25.012  23.806  1.00  0.00     0.193 C 
ATOM     78  C   UNL A   1      32.329  25.576  24.832  1.00  0.00     0.037 C 
ATOM     79  N   UNL A   1      33.016  23.582  23.537  1.00  0.00    -0.343 N 
ATOM     80  C   UNL A   1      30.875  25.288  24.454  1.00  0.00     0.005 C 
ATOM     81  C   UNL A   1      31.647  23.239  23.146  1.00  0.00     0.119 C 
ATOM     82  C   UNL A   1      30.653  23.804  24.165  1.00  0.00     0.022 C 
BRANCH  79  83
ATOM     83  C   UNL A   1      33.825  22.605  24.094  1.00  0.00     0.134 A 
ATOM     84  C   UNL A   1      33.377  21.295  24.197  1.00  0.00     0.076 A 
ATOM     85  N   UNL A   1      35.068  22.932  24.476  1.00  0.00    -0.211 NA
ATOM     86  C   UNL A   1      34.264  20.339  24.656  1.00  0.00     0.076 A 
ATOM     87  C   UNL A   1      35.846  21.947  24.965  1.00  0.00     0.162 A 
ATOM     88  N   UNL A   1      35.508  20.653  25.054  1.00  0.00    -0.228 NA
BRANCH  86  89
ATOM     89  C   UNL A   1      33.924  18.912  24.718  1.00  0.00     0.000 A 
ATOM     90  C   UNL A   1      32.692  18.485  25.237  1.00  0.00     0.010 A 
ATOM     91  C   UNL A   1      34.833  17.929  24.288  1.00  0.00     0.010 A 
ATOM     92  C   UNL A   1      32.373  17.125  25.306  1.00  0.00     0.001 A 
ATOM     93  C   UNL A   1      34.518  16.570  24.362  1.00  0.00     0.001 A 
ATOM     94  C   UNL A   1      33.285  16.169  24.867  1.00  0.00     0.000 A 
ENDBRANCH  86  89
BRANCH  87  95
ATOM     95  C   UNL A   1      37.148  22.326  25.512  1.00  0.00     0.021 A 
ATOM     96  C   UNL A   1      37.382  23.643  25.950  1.00  0.00     0.012 A 
ATOM     97  C   UNL A   1      38.183  21.386  25.650  1.00  0.00     0.032 A 
ATOM     98  C   UNL A   1      38.604  24.009  26.519  1.00  0.00     0.002 A 
ATOM     99  C   UNL A   1      39.408  21.759  26.200  1.00  0.00     0.041 A 
ATOM    100  C   UNL A   1      39.621  23.065  26.640  1.00  0.00     0.020 A 
ATOM    101  Cl  UNL A   1      40.673  20.601  26.339  1.00  0.00    -0.084 Cl
ENDBRANCH  87  95
ENDBRANCH  79  83
ENDBRANCH  75  77
ENDBRANCH  74  75
ENDBRANCH  73  74
ENDBRANCH  72  73
ENDBRANCH  71  72
ENDBRANCH   1  71
TORSDOF 20
ENDMDL
MODEL 3
REMARK VINA RESULT:     -11.7      1.893      7.483
REMARK SMILES O=C(OCCOCCOC(=O)[C@H]1CCCCN1c1cc(-c2ccccc2)nc(-c2cccc(Cl)c2)n1)c1ccc(-c2c3nc(c(-c4cccc(S(=O)(=O)[O-])c4F)c4ccc([nH]4)c(-c4cccc(S(=O)(=O)[O-])c4F)c4nc(c(-c5cccc(S(=O)(=O)[O-])c5F)c5ccc2[nH]5)C=C4)C=C3)cc1
REMARK SMILES IDX 5 1 4 2 3 3 2 4 1 5 37 6 38 7 99 8 39 9 98 10 40 11 41 12
REMARK SMILES IDX 42 13 92 14 43 15 97 16 91 17 93 18 44 19 96 20 90 21 89 22
REMARK SMILES IDX 45 24 77 25 57 26 76 27 58 28 61 29 75 30 94 31 59 32 60 33
REMARK SMILES IDX 74 35 95 36 62 37 46 38 47 39 55 40 48 41 50 42 56 43 49 44
REMARK SMILES IDX 51 45 52 46 53 47 54 48 78 49 79 50 87 51 80 52 82 53 88 54
REMARK SMILES IDX 81 55 83 56 84 57 85 58 86 59 63 60 64 61 72 62 65 63 67 64
REMARK SMILES IDX 73 65 66 66 68 67 69 68 70 69 71 70 6 71 7 72 8 73 9 74
REMARK SMILES IDX 10 75 11 76 12 77 13 78 17 79 14 80 16 81 15 82 18 83 19 84
REMARK SMILES IDX 36 85 20 86 28 87 27 88 21 89 22 90 26 91 23 92 25 93 24 94
REMARK SMILES IDX 29 95 30 96 35 97 31 98 33 99 32 100 34 101
REMARK H PARENT 93 23 61 34
REMARK Flexibility Score: inf
ROOT
ATOM      1  C   UNL A   1      31.760  28.908  25.767  1.00  0.00     0.202 C 
ENDROOT
BRANCH   1   2
ATOM      2  C   UNL A   1      31.862  30.236  26.517  1.00  0.00     0.261 C 
BRANCH   2   3
ATOM      3  O   UNL A   1      33.197  30.749  26.466  1.00  0.00    -0.460 OA
BRANCH   3   4
ATOM      4  C   UNL A   1      33.792  31.564  27.370  1.00  0.00     0.338 C 
ATOM      5  O   UNL A   1      33.167  32.552  27.757  1.00  0.00    -0.246 OA
BRANCH   4   6
ATOM      6  C   UNL A   1      35.140  31.304  27.971  1.00  0.00     0.060 A 
ATOM      7  C   UNL A   1      36.140  32.261  28.166  1.00  0.00     0.016 A 
ATOM      8  C   UNL A   1      35.369  30.009  28.463  1.00  0.00     0.016 A 
ATOM      9  C   UNL A   1      37.331  31.955  28.808  1.00  0.00     0.010 A 
ATOM     10  C   UNL A   1      36.552  29.698  29.141  1.00  0.00     0.010 A 
ATOM     11  C   UNL A   1      37.533  30.678  29.317  1.00  0.00    -0.014 A 
BRANCH  11  12
ATOM     12  C   UNL A   1      38.804  30.402  30.005  1.00  0.00     0.031 A 
ATOM     13  C   UNL A   1      38.975  30.879  31.411  1.00  0.00     0.074 A 
ATOM     14  C   UNL A   1      39.737  29.661  29.381  1.00  0.00     0.049 A 
ATOM     15  N   UNL A   1      40.018  30.790  32.186  1.00  0.00    -0.248 NA
ATOM     16  C   UNL A   1      37.810  31.531  32.034  1.00  0.00     0.031 C 
ATOM     17  C   UNL A   1      39.600  29.092  28.036  1.00  0.00     0.029 A 
ATOM     18  N   UNL A   1      40.979  29.256  29.788  1.00  0.00    -0.354 N 
ATOM     19  C   UNL A   1      39.661  31.427  33.366  1.00  0.00     0.074 A 
ATOM     20  C   UNL A   1      38.292  31.869  33.221  1.00  0.00     0.031 C 
ATOM     21  C   UNL A   1      40.717  28.414  27.731  1.00  0.00     0.029 A 
ATOM     22  C   UNL A   1      41.667  28.552  28.826  1.00  0.00     0.049 A 
ATOM     23  H   UNL A   1      41.343  29.447  30.683  1.00  0.00     0.167 HD
ATOM     24  C   UNL A   1      40.424  31.630  34.462  1.00  0.00     0.034 A 
ATOM     25  C   UNL A   1      42.940  28.112  28.827  1.00  0.00     0.034 A 
ATOM     26  C   UNL A   1      41.776  31.164  34.576  1.00  0.00     0.049 A 
ATOM     27  C   UNL A   1      43.771  28.382  30.053  1.00  0.00     0.074 A 
ATOM     28  C   UNL A   1      42.660  31.327  35.626  1.00  0.00     0.029 A 
ATOM     29  N   UNL A   1      42.442  30.445  33.593  1.00  0.00    -0.354 N 
ATOM     30  N   UNL A   1      43.414  28.953  31.180  1.00  0.00    -0.248 NA
ATOM     31  C   UNL A   1      45.171  27.945  30.017  1.00  0.00     0.031 C 
ATOM     32  C   UNL A   1      43.869  30.723  35.266  1.00  0.00     0.029 A 
ATOM     33  C   UNL A   1      43.730  30.163  34.004  1.00  0.00     0.049 A 
ATOM     34  H   UNL A   1      42.053  30.175  32.730  1.00  0.00     0.167 HD
ATOM     35  C   UNL A   1      44.539  28.930  31.992  1.00  0.00     0.074 A 
ATOM     36  C   UNL A   1      45.579  28.256  31.239  1.00  0.00     0.031 C 
ATOM     37  C   UNL A   1      44.714  29.442  33.237  1.00  0.00     0.034 A 
BRANCH  24  38
ATOM     38  C   UNL A   1      39.817  32.414  35.592  1.00  0.00     0.023 A 
ATOM     39  C   UNL A   1      40.074  33.794  35.713  1.00  0.00     0.012 A 
ATOM     40  C   UNL A   1      38.982  31.778  36.531  1.00  0.00     0.148 A 
ATOM     41  C   UNL A   1      39.527  34.525  36.768  1.00  0.00     0.002 A 
ATOM     42  C   UNL A   1      38.413  32.518  37.559  1.00  0.00     0.091 A 
ATOM     43  F   UNL A   1      38.775  30.459  36.408  1.00  0.00    -0.205 F 
ATOM     44  C   UNL A   1      38.692  33.889  37.684  1.00  0.00     0.022 A 
BRANCH  42  45
ATOM     45  S   UNL A   1      37.290  31.805  38.764  1.00  0.00     0.127 S 
ATOM     46  O   UNL A   1      36.138  32.700  38.658  1.00  0.00    -0.237 OA
ATOM     47  O   UNL A   1      37.072  30.464  38.220  1.00  0.00    -0.237 OA
ATOM     48  O   UNL A   1      37.988  31.843  40.041  1.00  0.00    -0.744 OA
ENDBRANCH  42  45
ENDBRANCH  24  38
BRANCH  25  49
ATOM     49  C   UNL A   1      43.499  27.395  27.643  1.00  0.00     0.023 A 
ATOM     50  C   UNL A   1      43.940  28.129  26.525  1.00  0.00     0.012 A 
ATOM     51  C   UNL A   1      43.606  25.990  27.619  1.00  0.00     0.148 A 
ATOM     52  C   UNL A   1      44.444  27.478  25.397  1.00  0.00     0.002 A 
ATOM     53  C   UNL A   1      44.164  25.351  26.517  1.00  0.00     0.091 A 
ATOM     54  F   UNL A   1      43.157  25.296  28.675  1.00  0.00    -0.205 F 
ATOM     55  C   UNL A   1      44.567  26.091  25.396  1.00  0.00     0.022 A 
BRANCH  53  56
ATOM     56  S   UNL A   1      44.477  23.581  26.507  1.00  0.00     0.127 S 
ATOM     57  O   UNL A   1      43.126  23.036  26.608  1.00  0.00    -0.237 OA
ATOM     58  O   UNL A   1      45.124  23.386  25.209  1.00  0.00    -0.237 OA
ATOM     59  O   UNL A   1      45.352  23.343  27.647  1.00  0.00    -0.744 OA
ENDBRANCH  53  56
ENDBRANCH  25  49
BRANCH  37  60
ATOM     60  C   UNL A   1      46.069  29.270  33.862  1.00  0.00     0.023 A 
ATOM     61  C   UNL A   1      47.046  30.269  33.687  1.00  0.00     0.012 A 
ATOM     62  C   UNL A   1      46.336  28.169  34.695  1.00  0.00     0.148 A 
ATOM     63  C   UNL A   1      48.282  30.161  34.317  1.00  0.00     0.002 A 
ATOM     64  C   UNL A   1      47.552  28.093  35.359  1.00  0.00     0.091 A 
ATOM     65  F   UNL A   1      45.397  27.221  34.826  1.00  0.00    -0.205 F 
ATOM     66  C   UNL A   1      48.531  29.082  35.164  1.00  0.00     0.022 A 
BRANCH  64  67
ATOM     67  S   UNL A   1      47.909  26.797  36.548  1.00  0.00     0.127 S 
ATOM     68  O   UNL A   1      46.567  26.405  36.974  1.00  0.00    -0.237 OA
ATOM     69  O   UNL A   1      48.603  25.803  35.728  1.00  0.00    -0.237 OA
ATOM     70  O   UNL A   1      48.739  27.413  37.574  1.00  0.00    -0.744 OA
ENDBRANCH  64  67
ENDBRANCH  37  60
ENDBRANCH  11  12
ENDBRANCH   4   6
ENDBRANCH   3   4
ENDBRANCH   2   3
ENDBRANCH   1   2
BRANCH   1  71
ATOM     71  O   UNL A   1      31.791  29.065  24.351  1.00  0.00    -0.374 OA
BRANCH  71  72
ATOM     72  C   UNL A   1      33.079  28.949  23.751  1.00  0.00     0.202 C 
BRANCH  72  73
ATOM     73  C   UNL A   1      32.967  28.119  22.473  1.00  0.00     0.261 C 
BRANCH  73  74
ATOM     74  O   UNL A   1      32.371  26.848  22.795  1.00  0.00    -0.462 OA
BRANCH  74  75
ATOM     75  C   UNL A   1      33.192  25.767  22.590  1.00  0.00     0.328 C 
ATOM     76  O   UNL A   1      33.786  25.537  21.550  1.00  0.00    -0.250 OA
BRANCH  75  77
ATOM     77  C   UNL A   1      33.260  24.897  23.866  1.00  0.00     0.193 C 
ATOM     78  C   UNL A   1      32.233  25.405  24.878  1.00  0.00     0.037 C 
ATOM     79  N   UNL A   1      33.022  23.463  23.561  1.00  0.00    -0.343 N 
ATOM     80  C   UNL A   1      30.801  25.076  24.455  1.00  0.00     0.005 C 
ATOM     81  C   UNL A   1      31.677  23.083  23.126  1.00  0.00     0.119 C 
ATOM     82  C   UNL A   1      30.638  23.592  24.129  1.00  0.00     0.022 C 
BRANCH  79  83
ATOM     83  C   UNL A   1      33.850  22.502  24.119  1.00  0.00     0.134 A 
ATOM     84  C   UNL A   1      33.423  21.186  24.231  1.00  0.00     0.076 A 
ATOM     85  N   UNL A   1      35.089  22.851  24.494  1.00  0.00    -0.211 NA
ATOM     86  C   UNL A   1      34.328  20.247  24.690  1.00  0.00     0.076 A 
ATOM     87  C   UNL A   1      35.885  21.882  24.984  1.00  0.00     0.162 A 
ATOM     88  N   UNL A   1      35.568  20.583  25.082  1.00  0.00    -0.228 NA
BRANCH  86  89
ATOM     89  C   UNL A   1      34.012  18.815  24.761  1.00  0.00     0.000 A 
ATOM     90  C   UNL A   1      32.759  18.373  25.214  1.00  0.00     0.010 A 
ATOM     91  C   UNL A   1      34.963  17.843  24.406  1.00  0.00     0.010 A 
ATOM     92  C   UNL A   1      32.462  17.009  25.292  1.00  0.00     0.001 A 
ATOM     93  C   UNL A   1      34.670  16.479  24.489  1.00  0.00     0.001 A 
ATOM     94  C   UNL A   1      33.417  16.063  24.927  1.00  0.00     0.000 A 
ENDBRANCH  86  89
BRANCH  87  95
ATOM     95  C   UNL A   1      37.183  22.286  25.524  1.00  0.00     0.021 A 
ATOM     96  C   UNL A   1      37.395  23.606  25.961  1.00  0.00     0.012 A 
ATOM     97  C   UNL A   1      38.236  21.365  25.656  1.00  0.00     0.032 A 
ATOM     98  C   UNL A   1      38.613  23.995  26.523  1.00  0.00     0.002 A 
ATOM     99  C   UNL A   1      39.457  21.761  26.199  1.00  0.00     0.041 A 
ATOM    100  C   UNL A   1      39.648  23.070  26.638  1.00  0.00     0.020 A 
ATOM    101  Cl  UNL A   1      40.745  20.626  26.330  1.00  0.00    -0.084 Cl
ENDBRANCH  87  95
ENDBRANCH  79  83
ENDBRANCH  75  77
ENDBRANCH  74  75
ENDBRANCH  73  74
ENDBRANCH  72  73
ENDBRANCH  71  72
ENDBRANCH   1  71
TORSDOF 20
ENDMDL
