MODEL 1
REMARK VINA RESULT:      -9.3      0.000      0.000
REMARK SMILES O=C(OCCOCCOC(=O)[C@]1(CCc2cccnc2)CCC[NH2+]C1)c1ccc(-c2c3nc(c(-c4cccc(S(=O)(=O)[O-])c4F)c4ccc([nH]4)c(-c4cccc(S(=O)(=O)[O-])c4F)c4nc(c(-c5cccc(S(=O)(=O)[O-])c5F)c5ccc2[nH]5)C=C4)C=C3)cc1
REMARK SMILES IDX 6 1 5 2 4 3 3 4 2 5 1 6 26 7 27 8 88 9 28 10 87 11 29 12
REMARK SMILES IDX 30 13 31 14 81 15 32 16 86 17 80 18 82 19 33 20 85 21 79 22
REMARK SMILES IDX 78 23 34 25 66 26 46 27 65 28 47 29 50 30 64 31 83 32 48 33
REMARK SMILES IDX 49 34 63 36 84 37 51 38 35 39 36 40 44 41 37 42 39 43 45 44
REMARK SMILES IDX 38 45 40 46 41 47 42 48 43 49 67 50 68 51 76 52 69 53 71 54
REMARK SMILES IDX 77 55 70 56 72 57 73 58 74 59 75 60 52 61 53 62 61 63 54 64
REMARK SMILES IDX 56 65 62 66 55 67 57 68 58 69 59 70 60 71 7 72 8 73 9 74
REMARK SMILES IDX 10 75 11 76 12 77 21 78 25 79 22 80 24 81 23 82 13 85 14 86
REMARK SMILES IDX 15 87 16 88 20 89 17 90 19 91 18 92
REMARK H PARENT 82 24 50 35 24 83 24 84
REMARK Flexibility Score: inf
ROOT
ATOM      1  O   UNL A   1      45.407  23.083  27.718  1.00  0.00    -0.374 OA
ENDROOT
BRANCH   1   2
ATOM      2  C   UNL A   1      45.299  22.479  26.189  1.00  0.00     0.202 C 
BRANCH   2   3
ATOM      3  C   UNL A   1      44.053  20.872  25.360  1.00  0.00     0.261 C 
BRANCH   3   4
ATOM      4  O   UNL A   1      42.283  20.861  25.437  1.00  0.00    -0.460 OA
BRANCH   4   5
ATOM      5  C   UNL A   1      41.442  20.474  26.496  1.00  0.00     0.338 C 
ATOM      6  O   UNL A   1      40.970  19.356  26.650  1.00  0.00    -0.246 OA
BRANCH   5   7
ATOM      7  C   UNL A   1      41.087  21.658  27.402  1.00  0.00     0.060 A 
ATOM      8  C   UNL A   1      40.045  22.490  27.003  1.00  0.00     0.016 A 
ATOM      9  C   UNL A   1      41.978  22.174  28.333  1.00  0.00     0.016 A 
ATOM     10  C   UNL A   1      40.248  23.875  27.041  1.00  0.00     0.010 A 
ATOM     11  C   UNL A   1      41.963  23.560  28.634  1.00  0.00     0.010 A 
ATOM     12  C   UNL A   1      41.217  24.470  27.855  1.00  0.00    -0.014 A 
BRANCH  12  13
ATOM     13  C   UNL A   1      41.533  25.955  27.787  1.00  0.00     0.031 A 
ATOM     14  C   UNL A   1      42.774  26.451  27.043  1.00  0.00     0.074 A 
ATOM     15  C   UNL A   1      40.725  26.903  28.327  1.00  0.00     0.049 A 
ATOM     16  N   UNL A   1      43.438  27.573  27.183  1.00  0.00    -0.248 NA
ATOM     17  C   UNL A   1      43.353  25.566  26.013  1.00  0.00     0.031 C 
ATOM     18  C   UNL A   1      39.422  26.677  28.957  1.00  0.00     0.029 A 
ATOM     19  N   UNL A   1      40.892  28.272  28.458  1.00  0.00    -0.354 N 
ATOM     20  C   UNL A   1      44.564  27.471  26.366  1.00  0.00     0.074 A 
ATOM     21  C   UNL A   1      44.479  26.193  25.697  1.00  0.00     0.031 C 
ATOM     22  C   UNL A   1      38.893  27.835  29.362  1.00  0.00     0.029 A 
ATOM     23  C   UNL A   1      39.907  28.858  29.229  1.00  0.00     0.049 A 
ATOM     24  H   UNL A   1      41.634  28.773  28.047  1.00  0.00     0.167 HD
ATOM     25  C   UNL A   1      45.585  28.353  26.207  1.00  0.00     0.034 A 
ATOM     26  C   UNL A   1      39.857  30.026  29.902  1.00  0.00     0.034 A 
ATOM     27  C   UNL A   1      45.617  29.649  26.836  1.00  0.00     0.049 A 
ATOM     28  C   UNL A   1      41.035  30.943  29.813  1.00  0.00     0.074 A 
ATOM     29  C   UNL A   1      46.604  30.617  26.778  1.00  0.00     0.029 A 
ATOM     30  N   UNL A   1      44.603  30.162  27.633  1.00  0.00    -0.354 N 
ATOM     31  N   UNL A   1      42.143  30.791  29.132  1.00  0.00    -0.248 NA
ATOM     32  C   UNL A   1      40.955  32.192  30.578  1.00  0.00     0.031 C 
ATOM     33  C   UNL A   1      46.208  31.695  27.577  1.00  0.00     0.029 A 
ATOM     34  C   UNL A   1      44.945  31.427  28.079  1.00  0.00     0.049 A 
ATOM     35  H   UNL A   1      43.764  29.696  27.848  1.00  0.00     0.167 HD
ATOM     36  C   UNL A   1      42.881  31.944  29.356  1.00  0.00     0.074 A 
ATOM     37  C   UNL A   1      42.078  32.793  30.214  1.00  0.00     0.031 C 
ATOM     38  C   UNL A   1      44.115  32.268  28.902  1.00  0.00     0.034 A 
BRANCH  25  39
ATOM     39  C   UNL A   1      46.772  27.942  25.363  1.00  0.00     0.023 A 
ATOM     40  C   UNL A   1      46.759  28.112  23.963  1.00  0.00     0.012 A 
ATOM     41  C   UNL A   1      47.937  27.430  25.978  1.00  0.00     0.148 A 
ATOM     42  C   UNL A   1      47.862  27.741  23.190  1.00  0.00     0.002 A 
ATOM     43  C   UNL A   1      49.049  27.110  25.206  1.00  0.00     0.091 A 
ATOM     44  F   UNL A   1      47.935  27.268  27.308  1.00  0.00    -0.205 F 
ATOM     45  C   UNL A   1      49.009  27.250  23.811  1.00  0.00     0.022 A 
BRANCH  43  46
ATOM     46  S   UNL A   1      50.600  26.539  25.917  1.00  0.00     0.127 S 
ATOM     47  O   UNL A   1      50.955  27.661  26.786  1.00  0.00    -0.237 OA
ATOM     48  O   UNL A   1      50.183  25.329  26.626  1.00  0.00    -0.237 OA
ATOM     49  O   UNL A   1      51.502  26.316  24.796  1.00  0.00    -0.744 OA
ENDBRANCH  43  46
ENDBRANCH  25  39
BRANCH  26  50
ATOM     50  C   UNL A   1      38.705  30.329  30.809  1.00  0.00     0.023 A 
ATOM     51  C   UNL A   1      38.708  29.859  32.136  1.00  0.00     0.012 A 
ATOM     52  C   UNL A   1      37.605  31.095  30.360  1.00  0.00     0.148 A 
ATOM     53  C   UNL A   1      37.629  30.115  32.984  1.00  0.00     0.002 A 
ATOM     54  C   UNL A   1      36.570  31.409  31.232  1.00  0.00     0.091 A 
ATOM     55  F   UNL A   1      37.601  31.520  29.089  1.00  0.00    -0.205 F 
ATOM     56  C   UNL A   1      36.568  30.901  32.539  1.00  0.00     0.022 A 
BRANCH  54  57
ATOM     57  S   UNL A   1      35.238  32.530  30.784  1.00  0.00     0.127 S 
ATOM     58  O   UNL A   1      34.344  32.406  31.933  1.00  0.00    -0.237 OA
ATOM     59  O   UNL A   1      35.941  33.810  30.686  1.00  0.00    -0.237 OA
ATOM     60  O   UNL A   1      34.714  32.036  29.518  1.00  0.00    -0.744 OA
ENDBRANCH  54  57
ENDBRANCH  26  50
BRANCH  38  61
ATOM     61  C   UNL A   1      44.631  33.632  29.261  1.00  0.00     0.023 A 
ATOM     62  C   UNL A   1      44.358  34.741  28.437  1.00  0.00     0.012 A 
ATOM     63  C   UNL A   1      45.384  33.808  30.438  1.00  0.00     0.148 A 
ATOM     64  C   UNL A   1      44.874  35.997  28.752  1.00  0.00     0.002 A 
ATOM     65  C   UNL A   1      45.838  35.072  30.779  1.00  0.00     0.091 A 
ATOM     66  F   UNL A   1      45.648  32.732  31.194  1.00  0.00    -0.205 F 
ATOM     67  C   UNL A   1      45.603  36.164  29.928  1.00  0.00     0.022 A 
BRANCH  65  68
ATOM     68  S   UNL A   1      46.693  35.399  32.322  1.00  0.00     0.127 S 
ATOM     69  O   UNL A   1      47.918  34.618  32.154  1.00  0.00    -0.237 OA
ATOM     70  O   UNL A   1      46.879  36.849  32.266  1.00  0.00    -0.237 OA
ATOM     71  O   UNL A   1      45.805  34.941  33.382  1.00  0.00    -0.744 OA
ENDBRANCH  65  68
ENDBRANCH  38  61
ENDBRANCH  12  13
ENDBRANCH   5   7
ENDBRANCH   4   5
ENDBRANCH   3   4
ENDBRANCH   2   3
ENDBRANCH   1   2
BRANCH   1  72
ATOM     72  C   UNL A   1      45.945  24.331  28.220  1.00  0.00     0.202 C 
BRANCH  72  73
ATOM     73  C   UNL A   1      45.607  24.800  29.640  1.00  0.00     0.261 C 
BRANCH  73  74
ATOM     74  O   UNL A   1      45.459  26.213  29.720  1.00  0.00    -0.463 OA
BRANCH  74  75
ATOM     75  C   UNL A   1      46.218  26.696  30.736  1.00  0.00     0.317 C 
ATOM     76  O   UNL A   1      47.417  26.933  30.640  1.00  0.00    -0.251 OA
BRANCH  75  77
ATOM     77  C   UNL A   1      45.446  26.798  32.039  1.00  0.00     0.117 C 
ATOM     78  C   UNL A   1      43.981  27.112  31.645  1.00  0.00     0.030 C 
ATOM     79  C   UNL A   1      46.028  28.025  32.782  1.00  0.00     0.279 C 
ATOM     80  C   UNL A   1      43.839  28.478  30.932  1.00  0.00     0.063 C 
ATOM     81  N   UNL A   1      46.007  29.233  31.967  1.00  0.00    -0.345 N 
ATOM     82  C   UNL A   1      44.653  29.605  31.575  1.00  0.00     0.260 C 
ATOM     83  H   UNL A   1      46.417  29.997  32.503  1.00  0.00     0.346 HD
ATOM     84  H   UNL A   1      46.542  29.047  31.119  1.00  0.00     0.346 HD
BRANCH  77  85
ATOM     85  C   UNL A   1      45.613  25.574  33.003  1.00  0.00     0.029 C 
BRANCH  85  86
ATOM     86  C   UNL A   1      45.576  25.745  34.525  1.00  0.00     0.038 C 
BRANCH  86  87
ATOM     87  C   UNL A   1      44.236  25.933  35.195  1.00  0.00    -0.030 A 
ATOM     88  C   UNL A   1      43.017  24.739  34.729  1.00  0.00     0.007 A 
ATOM     89  C   UNL A   1      43.989  26.873  36.648  1.00  0.00     0.114 A 
ATOM     90  C   UNL A   1      41.580  24.414  35.667  1.00  0.00     0.020 A 
ATOM     91  N   UNL A   1      42.532  26.551  37.641  1.00  0.00    -0.264 NA
ATOM     92  C   UNL A   1      41.339  25.298  37.132  1.00  0.00     0.111 A 
ENDBRANCH  86  87
ENDBRANCH  85  86
ENDBRANCH  77  85
ENDBRANCH  75  77
ENDBRANCH  74  75
ENDBRANCH  73  74
ENDBRANCH  72  73
ENDBRANCH   1  72
TORSDOF 20
ENDMDL
MODEL 2
REMARK VINA RESULT:      -9.2      5.594      9.466
REMARK SMILES O=C(OCCOCCOC(=O)[C@]1(CCc2cccnc2)CCC[NH2+]C1)c1ccc(-c2c3nc(c(-c4cccc(S(=O)(=O)[O-])c4F)c4ccc([nH]4)c(-c4cccc(S(=O)(=O)[O-])c4F)c4nc(c(-c5cccc(S(=O)(=O)[O-])c5F)c5ccc2[nH]5)C=C4)C=C3)cc1
REMARK SMILES IDX 6 1 5 2 4 3 3 4 2 5 1 6 26 7 27 8 88 9 28 10 87 11 29 12
REMARK SMILES IDX 30 13 31 14 81 15 32 16 86 17 80 18 82 19 33 20 85 21 79 22
REMARK SMILES IDX 78 23 34 25 66 26 46 27 65 28 47 29 50 30 64 31 83 32 48 33
REMARK SMILES IDX 49 34 63 36 84 37 51 38 35 39 36 40 44 41 37 42 39 43 45 44
REMARK SMILES IDX 38 45 40 46 41 47 42 48 43 49 67 50 68 51 76 52 69 53 71 54
REMARK SMILES IDX 77 55 70 56 72 57 73 58 74 59 75 60 52 61 53 62 61 63 54 64
REMARK SMILES IDX 56 65 62 66 55 67 57 68 58 69 59 70 60 71 7 72 8 73 9 74
REMARK SMILES IDX 10 75 11 76 12 77 21 78 25 79 22 80 24 81 23 82 13 85 14 86
REMARK SMILES IDX 15 87 16 88 20 89 17 90 19 91 18 92
REMARK H PARENT 82 24 50 35 24 83 24 84
REMARK Flexibility Score: inf
ROOT
ATOM      1  O   UNL A   1      38.743  23.728  26.145  1.00  0.00    -0.374 OA
ENDROOT
BRANCH   1   2
ATOM      2  C   UNL A   1      39.767  22.630  26.822  1.00  0.00     0.202 C 
BRANCH   2   3
ATOM      3  C   UNL A   1      40.136  20.518  26.345  1.00  0.00     0.261 C 
BRANCH   3   4
ATOM      4  O   UNL A   1      41.715  19.732  26.521  1.00  0.00    -0.460 OA
BRANCH   4   5
ATOM      5  C   UNL A   1      42.731  19.557  25.565  1.00  0.00     0.338 C 
ATOM      6  O   UNL A   1      43.025  18.494  25.035  1.00  0.00    -0.246 OA
BRANCH   5   7
ATOM      7  C   UNL A   1      43.519  20.850  25.329  1.00  0.00     0.060 A 
ATOM      8  C   UNL A   1      44.908  20.774  25.346  1.00  0.00     0.016 A 
ATOM      9  C   UNL A   1      42.959  22.106  25.517  1.00  0.00     0.016 A 
ATOM     10  C   UNL A   1      45.617  21.719  26.099  1.00  0.00     0.010 A 
ATOM     11  C   UNL A   1      43.766  23.180  25.970  1.00  0.00     0.010 A 
ATOM     12  C   UNL A   1      45.076  22.961  26.446  1.00  0.00    -0.014 A 
BRANCH  12  13
ATOM     13  C   UNL A   1      45.789  23.923  27.383  1.00  0.00     0.031 A 
ATOM     14  C   UNL A   1      47.065  24.638  26.936  1.00  0.00     0.074 A 
ATOM     15  C   UNL A   1      45.317  24.229  28.619  1.00  0.00     0.049 A 
ATOM     16  N   UNL A   1      48.023  25.163  27.660  1.00  0.00    -0.248 NA
ATOM     17  C   UNL A   1      47.301  24.772  25.486  1.00  0.00     0.031 C 
ATOM     18  C   UNL A   1      44.049  23.781  29.200  1.00  0.00     0.029 A 
ATOM     19  N   UNL A   1      45.868  24.986  29.640  1.00  0.00    -0.354 N 
ATOM     20  C   UNL A   1      49.017  25.566  26.768  1.00  0.00     0.074 A 
ATOM     21  C   UNL A   1      48.533  25.263  25.441  1.00  0.00     0.031 C 
ATOM     22  C   UNL A   1      43.894  24.288  30.426  1.00  0.00     0.029 A 
ATOM     23  C   UNL A   1      45.141  24.909  30.812  1.00  0.00     0.049 A 
ATOM     24  H   UNL A   1      46.690  25.519  29.541  1.00  0.00     0.167 HD
ATOM     25  C   UNL A   1      50.230  26.116  27.035  1.00  0.00     0.034 A 
ATOM     26  C   UNL A   1      45.465  25.156  32.098  1.00  0.00     0.034 A 
ATOM     27  C   UNL A   1      50.666  26.467  28.362  1.00  0.00     0.049 A 
ATOM     28  C   UNL A   1      46.844  25.654  32.394  1.00  0.00     0.074 A 
ATOM     29  C   UNL A   1      51.878  27.000  28.765  1.00  0.00     0.029 A 
ATOM     30  N   UNL A   1      49.893  26.328  29.507  1.00  0.00    -0.354 N 
ATOM     31  N   UNL A   1      47.816  25.925  31.560  1.00  0.00    -0.248 NA
ATOM     32  C   UNL A   1      47.169  25.887  33.806  1.00  0.00     0.031 C 
ATOM     33  C   UNL A   1      51.855  27.140  30.156  1.00  0.00     0.029 A 
ATOM     34  C   UNL A   1      50.604  26.756  30.614  1.00  0.00     0.049 A 
ATOM     35  H   UNL A   1      48.975  25.978  29.527  1.00  0.00     0.167 HD
ATOM     36  C   UNL A   1      48.860  26.396  32.342  1.00  0.00     0.074 A 
ATOM     37  C   UNL A   1      48.387  26.398  33.712  1.00  0.00     0.031 C 
ATOM     38  C   UNL A   1      50.101  26.783  31.963  1.00  0.00     0.034 A 
BRANCH  25  39
ATOM     39  C   UNL A   1      51.194  26.333  25.888  1.00  0.00     0.023 A 
ATOM     40  C   UNL A   1      52.216  25.400  25.614  1.00  0.00     0.012 A 
ATOM     41  C   UNL A   1      51.047  27.452  25.039  1.00  0.00     0.148 A 
ATOM     42  C   UNL A   1      53.096  25.600  24.548  1.00  0.00     0.002 A 
ATOM     43  C   UNL A   1      51.896  27.618  23.949  1.00  0.00     0.091 A 
ATOM     44  F   UNL A   1      50.076  28.335  25.312  1.00  0.00    -0.205 F 
ATOM     45  C   UNL A   1      52.931  26.701  23.711  1.00  0.00     0.022 A 
BRANCH  43  46
ATOM     46  S   UNL A   1      51.720  28.963  22.769  1.00  0.00     0.127 S 
ATOM     47  O   UNL A   1      51.862  30.134  23.635  1.00  0.00    -0.237 OA
ATOM     48  O   UNL A   1      52.852  28.730  21.871  1.00  0.00    -0.237 OA
ATOM     49  O   UNL A   1      50.408  28.801  22.160  1.00  0.00    -0.744 OA
ENDBRANCH  43  46
ENDBRANCH  25  39
BRANCH  26  50
ATOM     50  C   UNL A   1      44.510  24.817  33.199  1.00  0.00     0.023 A 
ATOM     51  C   UNL A   1      44.445  23.503  33.699  1.00  0.00     0.012 A 
ATOM     52  C   UNL A   1      43.666  25.803  33.761  1.00  0.00     0.148 A 
ATOM     53  C   UNL A   1      43.541  23.170  34.710  1.00  0.00     0.002 A 
ATOM     54  C   UNL A   1      42.822  25.480  34.818  1.00  0.00     0.091 A 
ATOM     55  F   UNL A   1      43.719  27.046  33.264  1.00  0.00    -0.205 F 
ATOM     56  C   UNL A   1      42.740  24.159  35.278  1.00  0.00     0.022 A 
BRANCH  54  57
ATOM     57  S   UNL A   1      41.866  26.720  35.700  1.00  0.00     0.127 S 
ATOM     58  O   UNL A   1      42.918  27.557  36.272  1.00  0.00    -0.237 OA
ATOM     59  O   UNL A   1      41.104  27.342  34.616  1.00  0.00    -0.237 OA
ATOM     60  O   UNL A   1      41.052  25.984  36.658  1.00  0.00    -0.744 OA
ENDBRANCH  54  57
ENDBRANCH  26  50
BRANCH  38  61
ATOM     61  C   UNL A   1      51.001  27.318  33.040  1.00  0.00     0.023 A 
ATOM     62  C   UNL A   1      51.868  26.457  33.742  1.00  0.00     0.012 A 
ATOM     63  C   UNL A   1      50.989  28.692  33.344  1.00  0.00     0.148 A 
ATOM     64  C   UNL A   1      52.671  26.950  34.768  1.00  0.00     0.002 A 
ATOM     65  C   UNL A   1      51.839  29.186  34.322  1.00  0.00     0.091 A 
ATOM     66  F   UNL A   1      50.140  29.487  32.676  1.00  0.00    -0.205 F 
ATOM     67  C   UNL A   1      52.665  28.315  35.050  1.00  0.00     0.022 A 
BRANCH  65  68
ATOM     68  S   UNL A   1      51.973  30.940  34.678  1.00  0.00     0.127 S 
ATOM     69  O   UNL A   1      52.562  30.927  36.016  1.00  0.00    -0.237 OA
ATOM     70  O   UNL A   1      52.872  31.397  33.618  1.00  0.00    -0.237 OA
ATOM     71  O   UNL A   1      50.620  31.474  34.600  1.00  0.00    -0.744 OA
ENDBRANCH  65  68
ENDBRANCH  38  61
ENDBRANCH  12  13
ENDBRANCH   5   7
ENDBRANCH   4   5
ENDBRANCH   3   4
ENDBRANCH   2   3
ENDBRANCH   1   2
BRANCH   1  72
ATOM     72  C   UNL A   1      37.347  24.019  26.396  1.00  0.00     0.202 C 
BRANCH  72  73
ATOM     73  C   UNL A   1      36.251  23.219  25.681  1.00  0.00     0.261 C 
BRANCH  73  74
ATOM     74  O   UNL A   1      35.147  24.034  25.306  1.00  0.00    -0.463 OA
BRANCH  74  75
ATOM     75  C   UNL A   1      34.008  23.542  25.857  1.00  0.00     0.317 C 
ATOM     76  O   UNL A   1      33.964  22.977  26.944  1.00  0.00    -0.251 OA
BRANCH  75  77
ATOM     77  C   UNL A   1      32.815  23.662  24.926  1.00  0.00     0.117 C 
ATOM     78  C   UNL A   1      32.850  25.107  24.369  1.00  0.00     0.030 C 
ATOM     79  C   UNL A   1      31.562  23.510  25.821  1.00  0.00     0.279 C 
ATOM     80  C   UNL A   1      32.663  26.172  25.475  1.00  0.00     0.063 C 
ATOM     81  N   UNL A   1      31.557  24.446  26.938  1.00  0.00    -0.345 N 
ATOM     82  C   UNL A   1      31.566  25.834  26.489  1.00  0.00     0.260 C 
ATOM     83  H   UNL A   1      30.718  24.287  27.496  1.00  0.00     0.346 HD
ATOM     84  H   UNL A   1      32.402  24.286  27.484  1.00  0.00     0.346 HD
BRANCH  77  85
ATOM     85  C   UNL A   1      32.717  22.545  23.831  1.00  0.00     0.029 C 
BRANCH  85  86
ATOM     86  C   UNL A   1      32.138  21.162  24.149  1.00  0.00     0.038 C 
BRANCH  86  87
ATOM     87  C   UNL A   1      32.910  19.942  23.708  1.00  0.00    -0.030 A 
ATOM     88  C   UNL A   1      34.377  19.631  24.645  1.00  0.00     0.007 A 
ATOM     89  C   UNL A   1      32.235  18.651  22.739  1.00  0.00     0.114 A 
ATOM     90  C   UNL A   1      35.182  18.082  24.690  1.00  0.00     0.020 A 
ATOM     91  N   UNL A   1      33.029  17.046  22.776  1.00  0.00    -0.264 NA
ATOM     92  C   UNL A   1      34.505  16.779  23.777  1.00  0.00     0.111 A 
ENDBRANCH  86  87
ENDBRANCH  85  86
ENDBRANCH  77  85
ENDBRANCH  75  77
ENDBRANCH  74  75
ENDBRANCH  73  74
ENDBRANCH  72  73
ENDBRANCH   1  72
TORSDOF 20
ENDMDL
MODEL 3
REMARK VINA RESULT:      -9.1      4.965     11.016
REMARK SMILES O=C(OCCOCCOC(=O)[C@]1(CCc2cccnc2)CCC[NH2+]C1)c1ccc(-c2c3nc(c(-c4cccc(S(=O)(=O)[O-])c4F)c4ccc([nH]4)c(-c4cccc(S(=O)(=O)[O-])c4F)c4nc(c(-c5cccc(S(=O)(=O)[O-])c5F)c5ccc2[nH]5)C=C4)C=C3)cc1
REMARK SMILES IDX 6 1 5 2 4 3 3 4 2 5 1 6 26 7 27 8 88 9 28 10 87 11 29 12
REMARK SMILES IDX 30 13 31 14 81 15 32 16 86 17 80 18 82 19 33 20 85 21 79 22
REMARK SMILES IDX 78 23 34 25 66 26 46 27 65 28 47 29 50 30 64 31 83 32 48 33
REMARK SMILES IDX 49 34 63 36 84 37 51 38 35 39 36 40 44 41 37 42 39 43 45 44
REMARK SMILES IDX 38 45 40 46 41 47 42 48 43 49 67 50 68 51 76 52 69 53 71 54
REMARK SMILES IDX 77 55 70 56 72 57 73 58 74 59 75 60 52 61 53 62 61 63 54 64
REMARK SMILES IDX 56 65 62 66 55 67 57 68 58 69 59 70 60 71 7 72 8 73 9 74
REMARK SMILES IDX 10 75 11 76 12 77 21 78 25 79 22 80 24 81 23 82 13 85 14 86
REMARK SMILES IDX 15 87 16 88 20 89 17 90 19 91 18 92
REMARK H PARENT 82 24 50 35 24 83 24 84
REMARK Flexibility Score: inf
ROOT
ATOM      1  O   UNL A   1      48.686  27.417  37.657  1.00  0.00    -0.374 OA
ENDROOT
BRANCH   1   2
ATOM      2  C   UNL A   1      48.020  28.166  38.964  1.00  0.00     0.202 C 
BRANCH   2   3
ATOM      3  C   UNL A   1      45.937  28.287  39.649  1.00  0.00     0.261 C 
BRANCH   3   4
ATOM      4  O   UNL A   1      44.631  27.276  39.008  1.00  0.00    -0.460 OA
BRANCH   4   5
ATOM      5  C   UNL A   1      44.692  25.973  38.482  1.00  0.00     0.338 C 
ATOM      6  O   UNL A   1      44.969  24.967  39.120  1.00  0.00    -0.246 OA
BRANCH   5   7
ATOM      7  C   UNL A   1      44.470  25.962  36.965  1.00  0.00     0.060 A 
ATOM      8  C   UNL A   1      45.199  26.864  36.197  1.00  0.00     0.016 A 
ATOM      9  C   UNL A   1      43.327  25.428  36.386  1.00  0.00     0.016 A 
ATOM     10  C   UNL A   1      44.519  27.620  35.235  1.00  0.00     0.010 A 
ATOM     11  C   UNL A   1      42.809  25.991  35.193  1.00  0.00     0.010 A 
ATOM     12  C   UNL A   1      43.294  27.218  34.693  1.00  0.00    -0.014 A 
BRANCH  12  13
ATOM     13  C   UNL A   1      42.489  28.108  33.759  1.00  0.00     0.031 A 
ATOM     14  C   UNL A   1      41.625  29.239  34.318  1.00  0.00     0.074 A 
ATOM     15  C   UNL A   1      42.531  27.982  32.407  1.00  0.00     0.049 A 
ATOM     16  N   UNL A   1      40.589  29.840  33.783  1.00  0.00    -0.248 NA
ATOM     17  C   UNL A   1      41.960  29.757  35.659  1.00  0.00     0.031 C 
ATOM     18  C   UNL A   1      43.391  27.072  31.647  1.00  0.00     0.029 A 
ATOM     19  N   UNL A   1      41.805  28.615  31.413  1.00  0.00    -0.354 N 
ATOM     20  C   UNL A   1      40.083  30.699  34.759  1.00  0.00     0.074 A 
ATOM     21  C   UNL A   1      40.947  30.576  35.911  1.00  0.00     0.031 C 
ATOM     22  C   UNL A   1      43.187  27.225  30.336  1.00  0.00     0.029 A 
ATOM     23  C   UNL A   1      42.028  28.074  30.162  1.00  0.00     0.049 A 
ATOM     24  H   UNL A   1      41.193  29.369  31.580  1.00  0.00     0.167 HD
ATOM     25  C   UNL A   1      38.986  31.497  34.705  1.00  0.00     0.034 A 
ATOM     26  C   UNL A   1      41.315  28.108  29.018  1.00  0.00     0.034 A 
ATOM     27  C   UNL A   1      38.175  31.651  33.524  1.00  0.00     0.049 A 
ATOM     28  C   UNL A   1      40.046  28.899  29.001  1.00  0.00     0.074 A 
ATOM     29  C   UNL A   1      37.026  32.404  33.352  1.00  0.00     0.029 A 
ATOM     30  N   UNL A   1      38.439  31.045  32.304  1.00  0.00    -0.354 N 
ATOM     31  N   UNL A   1      39.513  29.616  29.959  1.00  0.00    -0.248 NA
ATOM     32  C   UNL A   1      39.283  28.893  27.748  1.00  0.00     0.031 C 
ATOM     33  C   UNL A   1      36.571  32.215  32.043  1.00  0.00     0.029 A 
ATOM     34  C   UNL A   1      37.472  31.398  31.379  1.00  0.00     0.049 A 
ATOM     35  H   UNL A   1      39.202  30.452  32.123  1.00  0.00     0.167 HD
ATOM     36  C   UNL A   1      38.368  30.178  29.413  1.00  0.00     0.074 A 
ATOM     37  C   UNL A   1      38.305  29.738  28.034  1.00  0.00     0.031 C 
ATOM     38  C   UNL A   1      37.448  30.977  30.003  1.00  0.00     0.034 A 
BRANCH  25  39
ATOM     39  C   UNL A   1      38.563  32.232  35.959  1.00  0.00     0.023 A 
ATOM     40  C   UNL A   1      38.742  33.625  36.078  1.00  0.00     0.012 A 
ATOM     41  C   UNL A   1      37.927  31.533  37.011  1.00  0.00     0.148 A 
ATOM     42  C   UNL A   1      38.340  34.300  37.234  1.00  0.00     0.002 A 
ATOM     43  C   UNL A   1      37.485  32.220  38.136  1.00  0.00     0.091 A 
ATOM     44  F   UNL A   1      37.767  30.209  36.889  1.00  0.00    -0.205 F 
ATOM     45  C   UNL A   1      37.704  33.601  38.257  1.00  0.00     0.022 A 
BRANCH  43  46
ATOM     46  S   UNL A   1      36.589  31.424  39.477  1.00  0.00     0.127 S 
ATOM     47  O   UNL A   1      37.678  31.055  40.381  1.00  0.00    -0.237 OA
ATOM     48  O   UNL A   1      35.737  32.510  39.962  1.00  0.00    -0.237 OA
ATOM     49  O   UNL A   1      35.875  30.304  38.880  1.00  0.00    -0.744 OA
ENDBRANCH  43  46
ENDBRANCH  25  39
BRANCH  26  50
ATOM     50  C   UNL A   1      41.723  27.273  27.845  1.00  0.00     0.023 A 
ATOM     51  C   UNL A   1      42.489  27.838  26.808  1.00  0.00     0.012 A 
ATOM     52  C   UNL A   1      41.361  25.909  27.759  1.00  0.00     0.148 A 
ATOM     53  C   UNL A   1      42.856  27.076  25.697  1.00  0.00     0.002 A 
ATOM     54  C   UNL A   1      41.793  25.137  26.687  1.00  0.00     0.091 A 
ATOM     55  F   UNL A   1      40.614  25.385  28.740  1.00  0.00    -0.205 F 
ATOM     56  C   UNL A   1      42.521  25.724  25.642  1.00  0.00     0.022 A 
BRANCH  54  57
ATOM     57  S   UNL A   1      41.529  23.361  26.609  1.00  0.00     0.127 S 
ATOM     58  O   UNL A   1      42.197  22.907  27.826  1.00  0.00    -0.237 OA
ATOM     59  O   UNL A   1      40.068  23.271  26.637  1.00  0.00    -0.237 OA
ATOM     60  O   UNL A   1      42.131  22.926  25.356  1.00  0.00    -0.744 OA
ENDBRANCH  54  57
ENDBRANCH  26  50
BRANCH  38  61
ATOM     61  C   UNL A   1      36.340  31.491  29.128  1.00  0.00     0.023 A 
ATOM     62  C   UNL A   1      36.244  32.863  28.825  1.00  0.00     0.012 A 
ATOM     63  C   UNL A   1      35.395  30.593  28.596  1.00  0.00     0.148 A 
ATOM     64  C   UNL A   1      35.190  33.341  28.047  1.00  0.00     0.002 A 
ATOM     65  C   UNL A   1      34.388  31.066  27.769  1.00  0.00     0.091 A 
ATOM     66  F   UNL A   1      35.497  29.295  28.917  1.00  0.00    -0.205 F 
ATOM     67  C   UNL A   1      34.271  32.441  27.511  1.00  0.00     0.022 A 
BRANCH  65  68
ATOM     68  S   UNL A   1      33.225  29.971  26.952  1.00  0.00     0.127 S 
ATOM     69  O   UNL A   1      32.158  30.898  26.576  1.00  0.00    -0.237 OA
ATOM     70  O   UNL A   1      34.019  29.465  25.833  1.00  0.00    -0.237 OA
ATOM     71  O   UNL A   1      32.854  28.965  27.938  1.00  0.00    -0.744 OA
ENDBRANCH  65  68
ENDBRANCH  38  61
ENDBRANCH  12  13
ENDBRANCH   5   7
ENDBRANCH   4   5
ENDBRANCH   3   4
ENDBRANCH   2   3
ENDBRANCH   1   2
BRANCH   1  72
ATOM     72  C   UNL A   1      49.319  26.122  37.514  1.00  0.00     0.202 C 
BRANCH  72  73
ATOM     73  C   UNL A   1      48.587  24.852  37.964  1.00  0.00     0.261 C 
BRANCH  73  74
ATOM     74  O   UNL A   1      47.661  24.389  36.989  1.00  0.00    -0.463 OA
BRANCH  74  75
ATOM     75  C   UNL A   1      48.092  23.209  36.473  1.00  0.00     0.317 C 
ATOM     76  O   UNL A   1      49.273  22.893  36.384  1.00  0.00    -0.251 OA
BRANCH  75  77
ATOM     77  C   UNL A   1      46.956  22.374  35.910  1.00  0.00     0.117 C 
ATOM     78  C   UNL A   1      45.841  22.386  36.985  1.00  0.00     0.030 C 
ATOM     79  C   UNL A   1      47.508  20.933  35.790  1.00  0.00     0.279 C 
ATOM     80  C   UNL A   1      46.284  21.708  38.304  1.00  0.00     0.063 C 
ATOM     81  N   UNL A   1      48.059  20.441  37.046  1.00  0.00    -0.345 N 
ATOM     82  C   UNL A   1      47.058  20.402  38.105  1.00  0.00     0.260 C 
ATOM     83  H   UNL A   1      48.419  19.498  36.899  1.00  0.00     0.346 HD
ATOM     84  H   UNL A   1      48.800  21.079  37.335  1.00  0.00     0.346 HD
BRANCH  77  85
ATOM     85  C   UNL A   1      46.480  22.789  34.476  1.00  0.00     0.029 C 
BRANCH  85  86
ATOM     86  C   UNL A   1      45.859  24.163  34.205  1.00  0.00     0.038 C 
BRANCH  86  87
ATOM     87  C   UNL A   1      45.480  24.512  32.786  1.00  0.00    -0.030 A 
ATOM     88  C   UNL A   1      46.638  25.565  31.963  1.00  0.00     0.007 A 
ATOM     89  C   UNL A   1      44.324  23.614  31.829  1.00  0.00     0.114 A 
ATOM     90  C   UNL A   1      46.720  25.735  30.226  1.00  0.00     0.020 A 
ATOM     91  N   UNL A   1      44.393  23.755  30.045  1.00  0.00    -0.264 NA
ATOM     92  C   UNL A   1      45.618  24.820  29.259  1.00  0.00     0.111 A 
ENDBRANCH  86  87
ENDBRANCH  85  86
ENDBRANCH  77  85
ENDBRANCH  75  77
ENDBRANCH  74  75
ENDBRANCH  73  74
ENDBRANCH  72  73
ENDBRANCH   1  72
TORSDOF 20
ENDMDL
