MODEL 1
REMARK VINA RESULT:     -11.3      0.000      0.000
REMARK SMILES COc1ccc(NC(=O)c2cnn3c2N=C(C(=O)OCCOCCOC(=O)c2ccc(-c4c5nc(c(-c6cccc(S(=O)(=O)[O-])c6F)c6ccc([nH]6)c(-c6cccc(S(=O)(=O)[O-])c6F)c6nc(c(-c7cccc(S(=O)(=O)[O-])c7F)c7ccc4[nH]7)C=C6)C=C5)cc2)C[C@@H]3c2ccc(OC)cc2)cc1
REMARK SMILES IDX 22 1 21 2 20 3 19 4 17 5 18 6 16 7 10 8 11 9 14 10 12 11
REMARK SMILES IDX 13 12 15 13 92 14 91 15 8 16 7 17 9 19 6 20 3 21 4 22 102 23
REMARK SMILES IDX 5 24 101 25 2 26 1 27 93 28 94 29 100 30 95 31 99 32 96 33
REMARK SMILES IDX 97 34 98 35 23 36 24 37 25 38 26 39 27 40 28 41 29 42 90 43
REMARK SMILES IDX 30 44 89 45 31 46 32 47 33 48 83 49 34 50 88 51 82 52 84 53
REMARK SMILES IDX 35 54 87 55 81 56 80 57 36 59 68 60 48 61 67 62 49 63 52 64
REMARK SMILES IDX 66 65 85 66 50 67 51 68 65 70 86 71 53 72 37 73 38 74 46 75
REMARK SMILES IDX 39 76 41 77 47 78 40 79 42 80 43 81 44 82 45 83 69 84 70 85
REMARK SMILES IDX 78 86 71 87 73 88 79 89 72 90 74 91 75 92 76 93 77 94 54 95
REMARK SMILES IDX 55 96 63 97 56 98 58 99 64 100 57 101 59 102 60 103 61 104
REMARK SMILES IDX 62 105
REMARK H PARENT 7 18 84 58 52 69
REMARK Flexibility Score: inf
ROOT
ATOM      1  O   UNL A   1      40.531  21.167  26.165  1.00  0.00    -0.374 OA
ENDROOT
BRANCH   1   2
ATOM      2  C   UNL A   1      39.144  21.410  26.367  1.00  0.00     0.202 C 
BRANCH   2   3
ATOM      3  C   UNL A   1      38.257  21.708  25.151  1.00  0.00     0.261 C 
BRANCH   3   4
ATOM      4  O   UNL A   1      37.924  23.098  24.995  1.00  0.00    -0.459 OA
BRANCH   4   5
ATOM      5  C   UNL A   1      36.887  23.530  25.737  1.00  0.00     0.352 C 
ATOM      6  O   UNL A   1      36.902  24.356  26.638  1.00  0.00    -0.245 OA
BRANCH   5   7
ATOM      7  C   UNL A   1      35.587  22.908  25.242  1.00  0.00     0.130 C 
ATOM      8  C   UNL A   1      32.767  23.430  23.049  1.00  0.00     0.104 A 
ATOM      9  C   UNL A   1      31.545  22.890  23.509  1.00  0.00     0.151 A 
ATOM     10  C   UNL A   1      33.680  23.089  24.033  1.00  0.00     0.164 A 
ATOM     11  N   UNL A   1      31.708  22.104  24.581  1.00  0.00    -0.178 NA
ATOM     12  N   UNL A   1      33.052  22.090  24.739  1.00  0.00    -0.239 N 
ATOM     13  N   UNL A   1      34.911  23.559  24.345  1.00  0.00    -0.225 NA
ATOM     14  C   UNL A   1      33.744  21.165  25.639  1.00  0.00     0.146 C 
ATOM     15  C   UNL A   1      35.232  21.548  25.778  1.00  0.00     0.096 C 
BRANCH   8  16
ATOM     16  C   UNL A   1      33.016  24.212  21.862  1.00  0.00     0.261 C 
ATOM     17  N   UNL A   1      32.768  25.576  21.893  1.00  0.00    -0.322 N 
ATOM     18  H   UNL A   1      32.699  25.996  21.005  1.00  0.00     0.170 HD
ATOM     19  O   UNL A   1      33.433  23.697  20.825  1.00  0.00    -0.269 OA
BRANCH  17  20
ATOM     20  C   UNL A   1      32.596  26.468  22.976  1.00  0.00     0.041 A 
ATOM     21  C   UNL A   1      32.369  28.345  25.086  1.00  0.00     0.119 A 
ATOM     22  C   UNL A   1      31.273  27.592  24.675  1.00  0.00     0.048 A 
ATOM     23  C   UNL A   1      33.601  28.112  24.482  1.00  0.00     0.048 A 
ATOM     24  C   UNL A   1      31.392  26.650  23.651  1.00  0.00     0.030 A 
ATOM     25  C   UNL A   1      33.714  27.177  23.434  1.00  0.00     0.030 A 
BRANCH  21  26
ATOM     26  O   UNL A   1      32.082  29.238  26.074  1.00  0.00    -0.497 OA
ATOM     27  C   UNL A   1      33.054  29.497  27.075  1.00  0.00     0.278 C 
ENDBRANCH  21  26
ENDBRANCH  17  20
ENDBRANCH   8  16
BRANCH  14  28
ATOM     28  C   UNL A   1      33.630  19.681  25.239  1.00  0.00    -0.023 A 
ATOM     29  C   UNL A   1      34.668  18.947  24.648  1.00  0.00     0.010 A 
ATOM     30  C   UNL A   1      32.421  18.992  25.477  1.00  0.00     0.010 A 
ATOM     31  C   UNL A   1      34.528  17.583  24.372  1.00  0.00     0.047 A 
ATOM     32  C   UNL A   1      32.283  17.622  25.205  1.00  0.00     0.047 A 
ATOM     33  C   UNL A   1      33.345  16.909  24.663  1.00  0.00     0.118 A 
BRANCH  33  34
ATOM     34  O   UNL A   1      33.364  15.582  24.360  1.00  0.00    -0.497 OA
ATOM     35  C   UNL A   1      32.927  14.661  25.353  1.00  0.00     0.278 C 
ENDBRANCH  33  34
ENDBRANCH  14  28
ENDBRANCH   5   7
ENDBRANCH   4   5
ENDBRANCH   3   4
ENDBRANCH   2   3
ENDBRANCH   1   2
BRANCH   1  36
ATOM     36  C   UNL A   1      41.012  19.834  26.198  1.00  0.00     0.202 C 
BRANCH  36  37
ATOM     37  C   UNL A   1      42.406  19.505  25.676  1.00  0.00     0.261 C 
BRANCH  37  38
ATOM     38  O   UNL A   1      43.501  20.246  26.196  1.00  0.00    -0.460 OA
BRANCH  38  39
ATOM     39  C   UNL A   1      43.744  21.353  25.454  1.00  0.00     0.338 C 
ATOM     40  O   UNL A   1      44.361  21.398  24.401  1.00  0.00    -0.246 OA
BRANCH  39  41
ATOM     41  C   UNL A   1      43.369  22.552  26.207  1.00  0.00     0.060 A 
ATOM     42  C   UNL A   1      42.747  23.574  25.487  1.00  0.00     0.016 A 
ATOM     43  C   UNL A   1      43.877  22.756  27.499  1.00  0.00     0.016 A 
ATOM     44  C   UNL A   1      42.749  24.845  26.017  1.00  0.00     0.010 A 
ATOM     45  C   UNL A   1      43.888  24.030  28.022  1.00  0.00     0.010 A 
ATOM     46  C   UNL A   1      43.373  25.069  27.251  1.00  0.00    -0.014 A 
BRANCH  46  47
ATOM     47  C   UNL A   1      43.279  26.404  27.811  1.00  0.00     0.031 A 
ATOM     48  C   UNL A   1      44.481  27.203  27.470  1.00  0.00     0.074 A 
ATOM     49  C   UNL A   1      42.196  26.864  28.466  1.00  0.00     0.049 A 
ATOM     50  N   UNL A   1      45.471  27.497  28.246  1.00  0.00    -0.248 NA
ATOM     51  C   UNL A   1      44.736  27.479  26.046  1.00  0.00     0.031 C 
ATOM     52  C   UNL A   1      40.880  26.222  28.564  1.00  0.00     0.029 A 
ATOM     53  N   UNL A   1      41.998  28.063  29.080  1.00  0.00    -0.354 N 
ATOM     54  C   UNL A   1      46.324  28.262  27.454  1.00  0.00     0.074 A 
ATOM     55  C   UNL A   1      45.976  27.971  26.093  1.00  0.00     0.031 C 
ATOM     56  C   UNL A   1      39.969  27.138  28.965  1.00  0.00     0.029 A 
ATOM     57  C   UNL A   1      40.656  28.376  29.286  1.00  0.00     0.049 A 
ATOM     58  H   UNL A   1      42.735  28.654  29.354  1.00  0.00     0.167 HD
ATOM     59  C   UNL A   1      46.958  29.344  27.985  1.00  0.00     0.034 A 
ATOM     60  C   UNL A   1      40.158  29.593  29.623  1.00  0.00     0.034 A 
ATOM     61  C   UNL A   1      46.901  29.303  29.423  1.00  0.00     0.049 A 
ATOM     62  C   UNL A   1      41.263  30.372  30.217  1.00  0.00     0.074 A 
ATOM     63  C   UNL A   1      47.463  28.560  30.435  1.00  0.00     0.029 A 
ATOM     64  N   UNL A   1      45.787  29.921  29.930  1.00  0.00    -0.354 N 
ATOM     65  N   UNL A   1      41.822  30.062  31.353  1.00  0.00    -0.248 NA
ATOM     66  C   UNL A   1      42.010  31.303  29.381  1.00  0.00     0.031 C 
ATOM     67  C   UNL A   1      46.531  28.602  31.514  1.00  0.00     0.029 A 
ATOM     68  C   UNL A   1      45.455  29.414  31.152  1.00  0.00     0.049 A 
ATOM     69  H   UNL A   1      45.291  30.638  29.472  1.00  0.00     0.167 HD
ATOM     70  C   UNL A   1      43.156  30.371  31.159  1.00  0.00     0.074 A 
ATOM     71  C   UNL A   1      43.179  31.293  30.029  1.00  0.00     0.031 C 
ATOM     72  C   UNL A   1      44.132  29.593  31.706  1.00  0.00     0.034 A 
BRANCH  59  73
ATOM     73  C   UNL A   1      47.133  30.680  27.275  1.00  0.00     0.023 A 
ATOM     74  C   UNL A   1      48.411  31.282  27.361  1.00  0.00     0.012 A 
ATOM     75  C   UNL A   1      46.080  31.506  26.815  1.00  0.00     0.148 A 
ATOM     76  C   UNL A   1      48.613  32.635  27.062  1.00  0.00     0.002 A 
ATOM     77  C   UNL A   1      46.298  32.831  26.452  1.00  0.00     0.091 A 
ATOM     78  F   UNL A   1      44.820  31.075  26.844  1.00  0.00    -0.205 F 
ATOM     79  C   UNL A   1      47.557  33.410  26.603  1.00  0.00     0.022 A 
BRANCH  77  80
ATOM     80  S   UNL A   1      44.963  33.867  25.833  1.00  0.00     0.127 S 
ATOM     81  O   UNL A   1      45.676  35.098  25.510  1.00  0.00    -0.237 OA
ATOM     82  O   UNL A   1      44.500  33.092  24.682  1.00  0.00    -0.237 OA
ATOM     83  O   UNL A   1      43.994  33.960  26.919  1.00  0.00    -0.744 OA
ENDBRANCH  77  80
ENDBRANCH  59  73
BRANCH  60  84
ATOM     84  C   UNL A   1      38.878  30.247  29.256  1.00  0.00     0.023 A 
ATOM     85  C   UNL A   1      38.207  29.865  28.075  1.00  0.00     0.012 A 
ATOM     86  C   UNL A   1      38.166  31.000  30.213  1.00  0.00     0.148 A 
ATOM     87  C   UNL A   1      36.858  30.184  27.874  1.00  0.00     0.002 A 
ATOM     88  C   UNL A   1      36.825  31.313  30.009  1.00  0.00     0.091 A 
ATOM     89  F   UNL A   1      38.776  31.317  31.363  1.00  0.00    -0.205 F 
ATOM     90  C   UNL A   1      36.163  30.896  28.846  1.00  0.00     0.022 A 
BRANCH  88  91
ATOM     91  S   UNL A   1      35.847  32.185  31.240  1.00  0.00     0.127 S 
ATOM     92  O   UNL A   1      35.922  31.276  32.384  1.00  0.00    -0.237 OA
ATOM     93  O   UNL A   1      36.597  33.429  31.393  1.00  0.00    -0.237 OA
ATOM     94  O   UNL A   1      34.517  32.318  30.661  1.00  0.00    -0.744 OA
ENDBRANCH  88  91
ENDBRANCH  60  84
BRANCH  72  95
ATOM     95  C   UNL A   1      43.761  28.749  32.888  1.00  0.00     0.023 A 
ATOM     96  C   UNL A   1      43.342  27.409  32.789  1.00  0.00     0.012 A 
ATOM     97  C   UNL A   1      43.960  29.316  34.156  1.00  0.00     0.148 A 
ATOM     98  C   UNL A   1      43.113  26.653  33.943  1.00  0.00     0.002 A 
ATOM     99  C   UNL A   1      43.781  28.549  35.296  1.00  0.00     0.091 A 
ATOM    100  F   UNL A   1      44.347  30.599  34.221  1.00  0.00    -0.205 F 
ATOM    101  C   UNL A   1      43.348  27.219  35.196  1.00  0.00     0.022 A 
BRANCH  99 102
ATOM    102  S   UNL A   1      44.188  29.193  36.918  1.00  0.00     0.127 S 
ATOM    103  O   UNL A   1      43.116  30.161  37.140  1.00  0.00    -0.237 OA
ATOM    104  O   UNL A   1      44.117  27.995  37.755  1.00  0.00    -0.237 OA
ATOM    105  O   UNL A   1      45.528  29.756  36.802  1.00  0.00    -0.744 OA
ENDBRANCH  99 102
ENDBRANCH  72  95
ENDBRANCH  46  47
ENDBRANCH  39  41
ENDBRANCH  38  39
ENDBRANCH  37  38
ENDBRANCH  36  37
ENDBRANCH   1  36
TORSDOF 22
ENDMDL
MODEL 2
REMARK VINA RESULT:     -11.2      1.834      2.233
REMARK SMILES COc1ccc(NC(=O)c2cnn3c2N=C(C(=O)OCCOCCOC(=O)c2ccc(-c4c5nc(c(-c6cccc(S(=O)(=O)[O-])c6F)c6ccc([nH]6)c(-c6cccc(S(=O)(=O)[O-])c6F)c6nc(c(-c7cccc(S(=O)(=O)[O-])c7F)c7ccc4[nH]7)C=C6)C=C5)cc2)C[C@@H]3c2ccc(OC)cc2)cc1
REMARK SMILES IDX 22 1 21 2 20 3 19 4 17 5 18 6 16 7 10 8 11 9 14 10 12 11
REMARK SMILES IDX 13 12 15 13 92 14 91 15 8 16 7 17 9 19 6 20 3 21 4 22 102 23
REMARK SMILES IDX 5 24 101 25 2 26 1 27 93 28 94 29 100 30 95 31 99 32 96 33
REMARK SMILES IDX 97 34 98 35 23 36 24 37 25 38 26 39 27 40 28 41 29 42 90 43
REMARK SMILES IDX 30 44 89 45 31 46 32 47 33 48 83 49 34 50 88 51 82 52 84 53
REMARK SMILES IDX 35 54 87 55 81 56 80 57 36 59 68 60 48 61 67 62 49 63 52 64
REMARK SMILES IDX 66 65 85 66 50 67 51 68 65 70 86 71 53 72 37 73 38 74 46 75
REMARK SMILES IDX 39 76 41 77 47 78 40 79 42 80 43 81 44 82 45 83 69 84 70 85
REMARK SMILES IDX 78 86 71 87 73 88 79 89 72 90 74 91 75 92 76 93 77 94 54 95
REMARK SMILES IDX 55 96 63 97 56 98 58 99 64 100 57 101 59 102 60 103 61 104
REMARK SMILES IDX 62 105
REMARK H PARENT 7 18 84 58 52 69
REMARK Flexibility Score: inf
ROOT
ATOM      1  O   UNL A   1      41.187  21.568  25.560  1.00  0.00    -0.374 OA
ENDROOT
BRANCH   1   2
ATOM      2  C   UNL A   1      40.265  22.436  26.206  1.00  0.00     0.202 C 
BRANCH   2   3
ATOM      3  C   UNL A   1      38.811  21.977  26.386  1.00  0.00     0.261 C 
BRANCH   3   4
ATOM      4  O   UNL A   1      37.955  22.298  25.277  1.00  0.00    -0.459 OA
BRANCH   4   5
ATOM      5  C   UNL A   1      37.031  23.248  25.518  1.00  0.00     0.352 C 
ATOM      6  O   UNL A   1      37.213  24.381  25.940  1.00  0.00    -0.245 OA
BRANCH   5   7
ATOM      7  C   UNL A   1      35.650  22.763  25.095  1.00  0.00     0.130 C 
ATOM      8  C   UNL A   1      32.811  23.545  23.005  1.00  0.00     0.104 A 
ATOM      9  C   UNL A   1      31.559  23.154  23.530  1.00  0.00     0.151 A 
ATOM     10  C   UNL A   1      33.724  23.127  23.960  1.00  0.00     0.164 A 
ATOM     11  N   UNL A   1      31.681  22.381  24.615  1.00  0.00    -0.178 NA
ATOM     12  N   UNL A   1      33.021  22.221  24.718  1.00  0.00    -0.239 N 
ATOM     13  N   UNL A   1      35.011  23.464  24.209  1.00  0.00    -0.225 NA
ATOM     14  C   UNL A   1      33.646  21.246  25.615  1.00  0.00     0.146 C 
ATOM     15  C   UNL A   1      35.171  21.464  25.682  1.00  0.00     0.096 C 
BRANCH   8  16
ATOM     16  C   UNL A   1      33.093  24.267  21.788  1.00  0.00     0.261 C 
ATOM     17  N   UNL A   1      32.951  25.646  21.778  1.00  0.00    -0.322 N 
ATOM     18  H   UNL A   1      32.895  26.042  20.878  1.00  0.00     0.170 HD
ATOM     19  O   UNL A   1      33.444  23.689  20.761  1.00  0.00    -0.269 OA
BRANCH  17  20
ATOM     20  C   UNL A   1      32.873  26.583  22.834  1.00  0.00     0.041 A 
ATOM     21  C   UNL A   1      32.585  28.387  25.000  1.00  0.00     0.119 A 
ATOM     22  C   UNL A   1      33.839  28.088  24.478  1.00  0.00     0.048 A 
ATOM     23  C   UNL A   1      31.462  27.831  24.394  1.00  0.00     0.048 A 
ATOM     24  C   UNL A   1      33.979  27.217  23.395  1.00  0.00     0.030 A 
ATOM     25  C   UNL A   1      31.606  26.935  23.315  1.00  0.00     0.030 A 
BRANCH  21  26
ATOM     26  O   UNL A   1      32.621  29.228  26.070  1.00  0.00    -0.497 OA
ATOM     27  C   UNL A   1      31.815  28.943  27.202  1.00  0.00     0.278 C 
ENDBRANCH  21  26
ENDBRANCH  17  20
ENDBRANCH   8  16
BRANCH  14  28
ATOM     28  C   UNL A   1      33.351  19.775  25.261  1.00  0.00    -0.023 A 
ATOM     29  C   UNL A   1      33.330  19.273  23.952  1.00  0.00     0.010 A 
ATOM     30  C   UNL A   1      33.091  18.853  26.298  1.00  0.00     0.010 A 
ATOM     31  C   UNL A   1      33.126  17.913  23.698  1.00  0.00     0.047 A 
ATOM     32  C   UNL A   1      32.893  17.487  26.043  1.00  0.00     0.047 A 
ATOM     33  C   UNL A   1      32.924  17.010  24.738  1.00  0.00     0.118 A 
BRANCH  33  34
ATOM     34  O   UNL A   1      32.763  15.719  24.340  1.00  0.00    -0.497 OA
ATOM     35  C   UNL A   1      32.564  14.727  25.341  1.00  0.00     0.278 C 
ENDBRANCH  33  34
ENDBRANCH  14  28
ENDBRANCH   5   7
ENDBRANCH   4   5
ENDBRANCH   3   4
ENDBRANCH   2   3
ENDBRANCH   1   2
BRANCH   1  36
ATOM     36  C   UNL A   1      41.760  20.498  26.293  1.00  0.00     0.202 C 
BRANCH  36  37
ATOM     37  C   UNL A   1      42.828  19.614  25.658  1.00  0.00     0.261 C 
BRANCH  37  38
ATOM     38  O   UNL A   1      44.179  20.047  25.736  1.00  0.00    -0.460 OA
BRANCH  38  39
ATOM     39  C   UNL A   1      44.496  20.862  24.702  1.00  0.00     0.338 C 
ATOM     40  O   UNL A   1      44.807  20.514  23.574  1.00  0.00    -0.246 OA
BRANCH  39  41
ATOM     41  C   UNL A   1      44.652  22.238  25.180  1.00  0.00     0.060 A 
ATOM     42  C   UNL A   1      45.316  22.407  26.396  1.00  0.00     0.016 A 
ATOM     43  C   UNL A   1      43.914  23.273  24.586  1.00  0.00     0.016 A 
ATOM     44  C   UNL A   1      45.134  23.585  27.085  1.00  0.00     0.010 A 
ATOM     45  C   UNL A   1      43.725  24.447  25.282  1.00  0.00     0.010 A 
ATOM     46  C   UNL A   1      44.292  24.568  26.548  1.00  0.00    -0.014 A 
BRANCH  46  47
ATOM     47  C   UNL A   1      44.195  25.825  27.265  1.00  0.00     0.031 A 
ATOM     48  C   UNL A   1      45.372  26.682  26.985  1.00  0.00     0.074 A 
ATOM     49  C   UNL A   1      43.127  26.181  28.004  1.00  0.00     0.049 A 
ATOM     50  N   UNL A   1      46.383  26.902  27.759  1.00  0.00    -0.248 NA
ATOM     51  C   UNL A   1      45.575  27.130  25.597  1.00  0.00     0.031 C 
ATOM     52  C   UNL A   1      41.827  25.506  28.066  1.00  0.00     0.029 A 
ATOM     53  N   UNL A   1      42.931  27.295  28.763  1.00  0.00    -0.354 N 
ATOM     54  C   UNL A   1      47.196  27.773  27.037  1.00  0.00     0.074 A 
ATOM     55  C   UNL A   1      46.808  27.638  25.663  1.00  0.00     0.031 C 
ATOM     56  C   UNL A   1      40.914  26.349  28.602  1.00  0.00     0.029 A 
ATOM     57  C   UNL A   1      41.592  27.555  29.046  1.00  0.00     0.049 A 
ATOM     58  H   UNL A   1      43.667  27.864  29.082  1.00  0.00     0.167 HD
ATOM     59  C   UNL A   1      47.830  28.796  27.673  1.00  0.00     0.034 A 
ATOM     60  C   UNL A   1      41.085  28.712  29.541  1.00  0.00     0.034 A 
ATOM     61  C   UNL A   1      47.822  28.584  29.097  1.00  0.00     0.049 A 
ATOM     62  C   UNL A   1      42.197  29.437  30.189  1.00  0.00     0.074 A 
ATOM     63  C   UNL A   1      48.430  27.738  29.995  1.00  0.00     0.029 A 
ATOM     64  N   UNL A   1      46.715  29.115  29.709  1.00  0.00    -0.354 N 
ATOM     65  N   UNL A   1      42.799  29.006  31.262  1.00  0.00    -0.248 NA
ATOM     66  C   UNL A   1      42.900  30.476  29.447  1.00  0.00     0.031 C 
ATOM     67  C   UNL A   1      47.534  27.633  31.100  1.00  0.00     0.029 A 
ATOM     68  C   UNL A   1      46.433  28.460  30.871  1.00  0.00     0.049 A 
ATOM     69  H   UNL A   1      46.193  29.871  29.355  1.00  0.00     0.167 HD
ATOM     70  C   UNL A   1      44.120  29.363  31.064  1.00  0.00     0.074 A 
ATOM     71  C   UNL A   1      44.090  30.413  30.052  1.00  0.00     0.031 C 
ATOM     72  C   UNL A   1      45.126  28.546  31.484  1.00  0.00     0.034 A 
BRANCH  59  73
ATOM     73  C   UNL A   1      47.959  30.211  27.122  1.00  0.00     0.023 A 
ATOM     74  C   UNL A   1      49.242  30.803  27.190  1.00  0.00     0.012 A 
ATOM     75  C   UNL A   1      46.880  31.082  26.844  1.00  0.00     0.148 A 
ATOM     76  C   UNL A   1      49.428  32.184  27.046  1.00  0.00     0.002 A 
ATOM     77  C   UNL A   1      47.076  32.442  26.631  1.00  0.00     0.091 A 
ATOM     78  F   UNL A   1      45.623  30.644  26.908  1.00  0.00    -0.205 F 
ATOM     79  C   UNL A   1      48.345  33.005  26.762  1.00  0.00     0.022 A 
BRANCH  77  80
ATOM     80  S   UNL A   1      45.704  33.540  26.241  1.00  0.00     0.127 S 
ATOM     81  O   UNL A   1      45.050  32.814  25.157  1.00  0.00    -0.237 OA
ATOM     82  O   UNL A   1      44.976  33.560  27.509  1.00  0.00    -0.237 OA
ATOM     83  O   UNL A   1      46.307  34.817  25.878  1.00  0.00    -0.744 OA
ENDBRANCH  77  80
ENDBRANCH  59  73
BRANCH  60  84
ATOM     84  C   UNL A   1      39.784  29.379  29.295  1.00  0.00     0.023 A 
ATOM     85  C   UNL A   1      39.104  29.166  28.077  1.00  0.00     0.012 A 
ATOM     86  C   UNL A   1      39.067  29.954  30.366  1.00  0.00     0.148 A 
ATOM     87  C   UNL A   1      37.744  29.475  27.943  1.00  0.00     0.002 A 
ATOM     88  C   UNL A   1      37.716  30.257  30.229  1.00  0.00     0.091 A 
ATOM     89  F   UNL A   1      39.686  30.106  31.544  1.00  0.00    -0.205 F 
ATOM     90  C   UNL A   1      37.047  30.008  29.023  1.00  0.00     0.022 A 
BRANCH  88  91
ATOM     91  S   UNL A   1      36.734  30.901  31.591  1.00  0.00     0.127 S 
ATOM     92  O   UNL A   1      35.534  31.373  30.899  1.00  0.00    -0.237 OA
ATOM     93  O   UNL A   1      36.541  29.708  32.410  1.00  0.00    -0.237 OA
ATOM     94  O   UNL A   1      37.540  31.955  32.191  1.00  0.00    -0.744 OA
ENDBRANCH  88  91
ENDBRANCH  60  84
BRANCH  72  95
ATOM     95  C   UNL A   1      44.809  27.560  32.569  1.00  0.00     0.023 A 
ATOM     96  C   UNL A   1      44.427  27.931  33.872  1.00  0.00     0.012 A 
ATOM     97  C   UNL A   1      44.791  26.206  32.204  1.00  0.00     0.148 A 
ATOM     98  C   UNL A   1      44.046  26.956  34.799  1.00  0.00     0.002 A 
ATOM     99  C   UNL A   1      44.365  25.248  33.110  1.00  0.00     0.091 A 
ATOM    100  F   UNL A   1      45.172  25.881  30.960  1.00  0.00    -0.205 F 
ATOM    101  C   UNL A   1      43.999  25.616  34.413  1.00  0.00     0.022 A 
BRANCH  99 102
ATOM    102  S   UNL A   1      44.171  23.534  32.623  1.00  0.00     0.127 S 
ATOM    103  O   UNL A   1      45.501  22.990  32.887  1.00  0.00    -0.237 OA
ATOM    104  O   UNL A   1      43.125  23.069  33.534  1.00  0.00    -0.237 OA
ATOM    105  O   UNL A   1      43.769  23.558  31.221  1.00  0.00    -0.744 OA
ENDBRANCH  99 102
ENDBRANCH  72  95
ENDBRANCH  46  47
ENDBRANCH  39  41
ENDBRANCH  38  39
ENDBRANCH  37  38
ENDBRANCH  36  37
ENDBRANCH   1  36
TORSDOF 22
ENDMDL
MODEL 3
REMARK VINA RESULT:     -10.9      2.066      2.856
REMARK SMILES COc1ccc(NC(=O)c2cnn3c2N=C(C(=O)OCCOCCOC(=O)c2ccc(-c4c5nc(c(-c6cccc(S(=O)(=O)[O-])c6F)c6ccc([nH]6)c(-c6cccc(S(=O)(=O)[O-])c6F)c6nc(c(-c7cccc(S(=O)(=O)[O-])c7F)c7ccc4[nH]7)C=C6)C=C5)cc2)C[C@@H]3c2ccc(OC)cc2)cc1
REMARK SMILES IDX 22 1 21 2 20 3 19 4 17 5 18 6 16 7 10 8 11 9 14 10 12 11
REMARK SMILES IDX 13 12 15 13 92 14 91 15 8 16 7 17 9 19 6 20 3 21 4 22 102 23
REMARK SMILES IDX 5 24 101 25 2 26 1 27 93 28 94 29 100 30 95 31 99 32 96 33
REMARK SMILES IDX 97 34 98 35 23 36 24 37 25 38 26 39 27 40 28 41 29 42 90 43
REMARK SMILES IDX 30 44 89 45 31 46 32 47 33 48 83 49 34 50 88 51 82 52 84 53
REMARK SMILES IDX 35 54 87 55 81 56 80 57 36 59 68 60 48 61 67 62 49 63 52 64
REMARK SMILES IDX 66 65 85 66 50 67 51 68 65 70 86 71 53 72 37 73 38 74 46 75
REMARK SMILES IDX 39 76 41 77 47 78 40 79 42 80 43 81 44 82 45 83 69 84 70 85
REMARK SMILES IDX 78 86 71 87 73 88 79 89 72 90 74 91 75 92 76 93 77 94 54 95
REMARK SMILES IDX 55 96 63 97 56 98 58 99 64 100 57 101 59 102 60 103 61 104
REMARK SMILES IDX 62 105
REMARK H PARENT 7 18 84 58 52 69
REMARK Flexibility Score: inf
ROOT
ATOM      1  O   UNL A   1      41.195  21.880  25.869  1.00  0.00    -0.374 OA
ENDROOT
BRANCH   1   2
ATOM      2  C   UNL A   1      39.946  21.888  26.549  1.00  0.00     0.202 C 
BRANCH   2   3
ATOM      3  C   UNL A   1      38.677  21.502  25.777  1.00  0.00     0.261 C 
BRANCH   3   4
ATOM      4  O   UNL A   1      38.141  22.559  24.964  1.00  0.00    -0.459 OA
BRANCH   4   5
ATOM      5  C   UNL A   1      37.139  23.264  25.522  1.00  0.00     0.352 C 
ATOM      6  O   UNL A   1      37.221  24.278  26.200  1.00  0.00    -0.245 OA
BRANCH   5   7
ATOM      7  C   UNL A   1      35.791  22.680  25.117  1.00  0.00     0.130 C 
ATOM      8  C   UNL A   1      32.855  23.275  23.100  1.00  0.00     0.104 A 
ATOM      9  C   UNL A   1      31.649  22.777  23.642  1.00  0.00     0.151 A 
ATOM     10  C   UNL A   1      33.818  22.912  24.028  1.00  0.00     0.164 A 
ATOM     11  N   UNL A   1      31.854  21.996  24.709  1.00  0.00    -0.178 NA
ATOM     12  N   UNL A   1      33.205  21.940  24.782  1.00  0.00    -0.239 N 
ATOM     13  N   UNL A   1      35.080  23.345  24.258  1.00  0.00    -0.225 NA
ATOM     14  C   UNL A   1      33.923  21.001  25.647  1.00  0.00     0.146 C 
ATOM     15  C   UNL A   1      35.428  21.337  25.687  1.00  0.00     0.096 C 
BRANCH   8  16
ATOM     16  C   UNL A   1      33.053  24.039  21.893  1.00  0.00     0.261 C 
ATOM     17  N   UNL A   1      32.746  25.391  21.896  1.00  0.00    -0.322 N 
ATOM     18  H   UNL A   1      32.646  25.788  21.000  1.00  0.00     0.170 HD
ATOM     19  O   UNL A   1      33.477  23.519  20.861  1.00  0.00    -0.269 OA
BRANCH  17  20
ATOM     20  C   UNL A   1      32.550  26.300  22.961  1.00  0.00     0.041 A 
ATOM     21  C   UNL A   1      32.023  28.044  25.131  1.00  0.00     0.119 A 
ATOM     22  C   UNL A   1      33.327  27.778  24.725  1.00  0.00     0.048 A 
ATOM     23  C   UNL A   1      30.973  27.485  24.408  1.00  0.00     0.048 A 
ATOM     24  C   UNL A   1      33.585  26.938  23.640  1.00  0.00     0.030 A 
ATOM     25  C   UNL A   1      31.237  26.619  23.327  1.00  0.00     0.030 A 
BRANCH  21  26
ATOM     26  O   UNL A   1      31.942  28.859  26.220  1.00  0.00    -0.497 OA
ATOM     27  C   UNL A   1      32.896  28.720  27.260  1.00  0.00     0.278 C 
ENDBRANCH  21  26
ENDBRANCH  17  20
ENDBRANCH   8  16
BRANCH  14  28
ATOM     28  C   UNL A   1      33.737  19.518  25.269  1.00  0.00    -0.023 A 
ATOM     29  C   UNL A   1      34.703  18.753  24.599  1.00  0.00     0.010 A 
ATOM     30  C   UNL A   1      32.535  18.862  25.613  1.00  0.00     0.010 A 
ATOM     31  C   UNL A   1      34.505  17.392  24.346  1.00  0.00     0.047 A 
ATOM     32  C   UNL A   1      32.340  17.495  25.364  1.00  0.00     0.047 A 
ATOM     33  C   UNL A   1      33.333  16.751  24.740  1.00  0.00     0.118 A 
BRANCH  33  34
ATOM     34  O   UNL A   1      33.292  15.422  24.448  1.00  0.00    -0.497 OA
ATOM     35  C   UNL A   1      32.739  14.538  25.416  1.00  0.00     0.278 C 
ENDBRANCH  33  34
ENDBRANCH  14  28
ENDBRANCH   5   7
ENDBRANCH   4   5
ENDBRANCH   3   4
ENDBRANCH   2   3
ENDBRANCH   1   2
BRANCH   1  36
ATOM     36  C   UNL A   1      42.358  21.461  26.563  1.00  0.00     0.202 C 
BRANCH  36  37
ATOM     37  C   UNL A   1      43.679  22.198  26.367  1.00  0.00     0.261 C 
BRANCH  37  38
ATOM     38  O   UNL A   1      43.760  23.545  26.811  1.00  0.00    -0.460 OA
BRANCH  38  39
ATOM     39  C   UNL A   1      43.593  24.413  25.785  1.00  0.00     0.338 C 
ATOM     40  O   UNL A   1      43.755  24.171  24.599  1.00  0.00    -0.246 OA
BRANCH  39  41
ATOM     41  C   UNL A   1      43.417  25.771  26.303  1.00  0.00     0.060 A 
ATOM     42  C   UNL A   1      44.166  26.114  27.430  1.00  0.00     0.016 A 
ATOM     43  C   UNL A   1      42.342  26.557  25.858  1.00  0.00     0.016 A 
ATOM     44  C   UNL A   1      43.754  27.185  28.191  1.00  0.00     0.010 A 
ATOM     45  C   UNL A   1      41.926  27.621  26.627  1.00  0.00     0.010 A 
ATOM     46  C   UNL A   1      42.604  27.889  27.814  1.00  0.00    -0.014 A 
BRANCH  46  47
ATOM     47  C   UNL A   1      42.254  29.060  28.596  1.00  0.00     0.031 A 
ATOM     48  C   UNL A   1      43.147  30.197  28.268  1.00  0.00     0.074 A 
ATOM     49  C   UNL A   1      41.198  29.111  29.430  1.00  0.00     0.049 A 
ATOM     50  N   UNL A   1      44.132  30.647  28.972  1.00  0.00    -0.248 NA
ATOM     51  C   UNL A   1      43.110  30.719  26.891  1.00  0.00     0.031 C 
ATOM     52  C   UNL A   1      40.121  28.124  29.559  1.00  0.00     0.029 A 
ATOM     53  N   UNL A   1      40.793  30.117  30.254  1.00  0.00    -0.354 N 
ATOM     54  C   UNL A   1      44.633  31.716  28.233  1.00  0.00     0.074 A 
ATOM     55  C   UNL A   1      44.176  31.523  26.888  1.00  0.00     0.031 C 
ATOM     56  C   UNL A   1      39.074  28.691  30.202  1.00  0.00     0.029 A 
ATOM     57  C   UNL A   1      39.461  30.017  30.651  1.00  0.00     0.049 A 
ATOM     58  H   UNL A   1      41.386  30.847  30.543  1.00  0.00     0.167 HD
ATOM     59  C   UNL A   1      45.040  32.850  28.867  1.00  0.00     0.034 A 
ATOM     60  C   UNL A   1      38.722  30.993  31.237  1.00  0.00     0.034 A 
ATOM     61  C   UNL A   1      45.209  32.605  30.276  1.00  0.00     0.049 A 
ATOM     62  C   UNL A   1      39.666  31.961  31.833  1.00  0.00     0.074 A 
ATOM     63  C   UNL A   1      46.086  31.919  31.083  1.00  0.00     0.029 A 
ATOM     64  N   UNL A   1      44.061  32.819  30.995  1.00  0.00    -0.354 N 
ATOM     65  N   UNL A   1      40.447  31.669  32.835  1.00  0.00    -0.248 NA
ATOM     66  C   UNL A   1      40.017  33.164  31.090  1.00  0.00     0.031 C 
ATOM     67  C   UNL A   1      45.344  31.558  32.247  1.00  0.00     0.029 A 
ATOM     68  C   UNL A   1      44.054  32.082  32.142  1.00  0.00     0.049 A 
ATOM     69  H   UNL A   1      43.336  33.425  30.718  1.00  0.00     0.167 HD
ATOM     70  C   UNL A   1      41.613  32.358  32.554  1.00  0.00     0.074 A 
ATOM     71  C   UNL A   1      41.232  33.391  31.599  1.00  0.00     0.031 C 
ATOM     72  C   UNL A   1      42.826  31.814  32.857  1.00  0.00     0.034 A 
BRANCH  59  73
ATOM     73  C   UNL A   1      44.760  34.265  28.376  1.00  0.00     0.023 A 
ATOM     74  C   UNL A   1      43.422  34.564  28.032  1.00  0.00     0.012 A 
ATOM     75  C   UNL A   1      45.741  35.190  27.945  1.00  0.00     0.148 A 
ATOM     76  C   UNL A   1      43.089  35.684  27.258  1.00  0.00     0.002 A 
ATOM     77  C   UNL A   1      45.400  36.338  27.238  1.00  0.00     0.091 A 
ATOM     78  F   UNL A   1      47.037  34.919  28.091  1.00  0.00    -0.205 F 
ATOM     79  C   UNL A   1      44.078  36.574  26.864  1.00  0.00     0.022 A 
BRANCH  77  80
ATOM     80  S   UNL A   1      46.647  37.529  26.724  1.00  0.00     0.127 S 
ATOM     81  O   UNL A   1      47.320  37.810  27.988  1.00  0.00    -0.237 OA
ATOM     82  O   UNL A   1      47.422  36.746  25.763  1.00  0.00    -0.237 OA
ATOM     83  O   UNL A   1      45.914  38.643  26.133  1.00  0.00    -0.744 OA
ENDBRANCH  77  80
ENDBRANCH  59  73
BRANCH  60  84
ATOM     84  C   UNL A   1      37.278  31.311  31.124  1.00  0.00     0.023 A 
ATOM     85  C   UNL A   1      36.487  31.411  32.288  1.00  0.00     0.012 A 
ATOM     86  C   UNL A   1      36.758  31.828  29.918  1.00  0.00     0.148 A 
ATOM     87  C   UNL A   1      35.238  32.043  32.262  1.00  0.00     0.002 A 
ATOM     88  C   UNL A   1      35.517  32.458  29.898  1.00  0.00     0.091 A 
ATOM     89  F   UNL A   1      37.525  31.792  28.821  1.00  0.00    -0.205 F 
ATOM     90  C   UNL A   1      34.758  32.579  31.070  1.00  0.00     0.022 A 
BRANCH  88  91
ATOM     91  S   UNL A   1      34.852  33.218  28.411  1.00  0.00     0.127 S 
ATOM     92  O   UNL A   1      33.752  32.313  28.077  1.00  0.00    -0.237 OA
ATOM     93  O   UNL A   1      34.440  34.530  28.903  1.00  0.00    -0.237 OA
ATOM     94  O   UNL A   1      35.945  33.220  27.449  1.00  0.00    -0.744 OA
ENDBRANCH  88  91
ENDBRANCH  60  84
BRANCH  72  95
ATOM     95  C   UNL A   1      42.862  30.751  33.914  1.00  0.00     0.023 A 
ATOM     96  C   UNL A   1      42.698  29.379  33.646  1.00  0.00     0.012 A 
ATOM     97  C   UNL A   1      43.192  31.164  35.213  1.00  0.00     0.148 A 
ATOM     98  C   UNL A   1      42.849  28.437  34.668  1.00  0.00     0.002 A 
ATOM     99  C   UNL A   1      43.390  30.225  36.212  1.00  0.00     0.091 A 
ATOM    100  F   UNL A   1      43.330  32.479  35.442  1.00  0.00    -0.205 F 
ATOM    101  C   UNL A   1      43.210  28.859  35.948  1.00  0.00     0.022 A 
BRANCH  99 102
ATOM    102  S   UNL A   1      43.974  30.709  37.836  1.00  0.00     0.127 S 
ATOM    103  O   UNL A   1      42.756  31.226  38.456  1.00  0.00    -0.237 OA
ATOM    104  O   UNL A   1      44.452  29.439  38.385  1.00  0.00    -0.237 OA
ATOM    105  O   UNL A   1      45.028  31.690  37.607  1.00  0.00    -0.744 OA
ENDBRANCH  99 102
ENDBRANCH  72  95
ENDBRANCH  46  47
ENDBRANCH  39  41
ENDBRANCH  38  39
ENDBRANCH  37  38
ENDBRANCH  36  37
ENDBRANCH   1  36
TORSDOF 22
ENDMDL
