MODEL 1
REMARK VINA RESULT:     -11.9      0.000      0.000
REMARK SMILES Cc1ccccc1OC1(C(=O)OCCOCCOC(=O)c2ccc(-c3c4nc(c(-c5cccc(S(=O)(=O)[O-])c5F)c5ccc([nH]5)c(-c5cccc(S(=O)(=O)[O-])c5F)c5nc(c(-c6cccc(S(=O)(=O)[O-])c6F)c6ccc3[nH]6)C=C5)C=C4)cc2)CCN(C(=O)[C@H]2CCCCO2)CC1
REMARK SMILES IDX 16 1 15 2 14 3 13 4 12 5 10 6 11 7 9 8 84 9 96 10 85 11
REMARK SMILES IDX 95 12 86 13 87 14 88 15 8 16 7 17 1 18 2 19 3 20 4 21 6 22
REMARK SMILES IDX 5 23 89 24 90 25 94 26 91 27 93 28 92 29 17 30 18 31 19 32
REMARK SMILES IDX 20 33 21 34 22 35 83 36 23 37 82 38 24 39 25 40 26 41 76 42
REMARK SMILES IDX 27 43 81 44 75 45 77 46 28 47 80 48 74 49 73 50 29 52 61 53
REMARK SMILES IDX 41 54 60 55 42 56 45 57 59 58 78 59 43 60 44 61 58 63 79 64
REMARK SMILES IDX 46 65 30 66 31 67 39 68 32 69 34 70 40 71 33 72 35 73 36 74
REMARK SMILES IDX 37 75 38 76 62 77 63 78 71 79 64 80 66 81 72 82 65 83 67 84
REMARK SMILES IDX 68 85 69 86 70 87 47 88 48 89 56 90 49 91 51 92 57 93 50 94
REMARK SMILES IDX 52 95 53 96 54 97 55 98
REMARK H PARENT 77 51 45 62
REMARK Flexibility Score: inf
ROOT
ATOM      1  C   UNL A   1      34.103  28.552  26.829  1.00  0.00     0.202 C 
ENDROOT
BRANCH   1   2
ATOM      2  O   UNL A   1      32.821  29.055  26.606  1.00  0.00    -0.374 OA
BRANCH   2   3
ATOM      3  C   UNL A   1      32.065  28.124  25.876  1.00  0.00     0.202 C 
BRANCH   3   4
ATOM      4  C   UNL A   1      31.223  27.060  26.651  1.00  0.00     0.261 C 
BRANCH   4   5
ATOM      5  O   UNL A   1      31.706  25.744  26.778  1.00  0.00    -0.460 OA
BRANCH   5   6
ATOM      6  C   UNL A   1      30.877  24.740  26.441  1.00  0.00     0.350 C 
ATOM      7  O   UNL A   1      29.740  24.621  26.873  1.00  0.00    -0.247 OA
BRANCH   6   8
ATOM      8  C   UNL A   1      31.648  23.798  25.485  1.00  0.00     0.209 C 
ATOM      9  C   UNL A   1      33.156  23.921  25.762  1.00  0.00     0.082 C 
ATOM     10  C   UNL A   1      31.091  22.446  25.878  1.00  0.00     0.082 C 
ATOM     11  C   UNL A   1      33.993  22.659  25.893  1.00  0.00     0.124 C 
ATOM     12  C   UNL A   1      31.914  21.230  25.562  1.00  0.00     0.124 C 
ATOM     13  N   UNL A   1      33.367  21.368  25.647  1.00  0.00    -0.340 N 
ATOM     14  C   UNL A   1      34.259  20.346  25.307  1.00  0.00     0.251 C 
ATOM     15  O   UNL A   1      35.479  20.544  25.316  1.00  0.00    -0.272 OA
BRANCH   8  16
ATOM     16  O   UNL A   1      31.181  24.428  24.288  1.00  0.00    -0.475 OA
BRANCH  16  17
ATOM     17  C   UNL A   1      31.677  24.812  23.103  1.00  0.00     0.123 A 
ATOM     18  C   UNL A   1      33.015  22.783  22.360  1.00  0.00     0.048 C 
ATOM     19  C   UNL A   1      32.459  24.132  22.178  1.00  0.00    -0.009 A 
ATOM     20  C   UNL A   1      32.811  24.730  20.956  1.00  0.00     0.007 A 
ATOM     21  C   UNL A   1      32.440  26.029  20.665  1.00  0.00     0.001 A 
ATOM     22  C   UNL A   1      31.335  26.140  22.803  1.00  0.00     0.047 A 
ATOM     23  C   UNL A   1      31.716  26.748  21.603  1.00  0.00     0.004 A 
ENDBRANCH  16  17
ENDBRANCH   8  16
BRANCH  14  24
ATOM     24  C   UNL A   1      33.681  18.993  24.851  1.00  0.00     0.207 C 
ATOM     25  C   UNL A   1      32.952  19.166  23.511  1.00  0.00     0.042 C 
ATOM     26  O   UNL A   1      34.792  18.100  24.712  1.00  0.00    -0.368 OA
ATOM     27  C   UNL A   1      32.651  17.854  22.810  1.00  0.00     0.006 C 
ATOM     28  C   UNL A   1      34.427  16.828  24.205  1.00  0.00     0.161 C 
ATOM     29  C   UNL A   1      33.882  16.968  22.796  1.00  0.00     0.029 C 
ENDBRANCH  14  24
ENDBRANCH   6   8
ENDBRANCH   5   6
ENDBRANCH   4   5
ENDBRANCH   3   4
ENDBRANCH   2   3
ENDBRANCH   1   2
BRANCH   1  30
ATOM     30  C   UNL A   1      35.200  29.407  27.550  1.00  0.00     0.261 C 
BRANCH  30  31
ATOM     31  O   UNL A   1      35.059  30.817  28.246  1.00  0.00    -0.460 OA
BRANCH  31  32
ATOM     32  C   UNL A   1      34.926  32.000  28.912  1.00  0.00     0.338 C 
ATOM     33  O   UNL A   1      34.053  32.767  28.504  1.00  0.00    -0.246 OA
BRANCH  32  34
ATOM     34  C   UNL A   1      35.797  32.521  30.076  1.00  0.00     0.060 A 
ATOM     35  C   UNL A   1      36.781  33.496  29.880  1.00  0.00     0.016 A 
ATOM     36  C   UNL A   1      35.889  31.947  31.312  1.00  0.00     0.016 A 
ATOM     37  C   UNL A   1      38.077  33.314  30.419  1.00  0.00     0.010 A 
ATOM     38  C   UNL A   1      37.179  31.618  31.720  1.00  0.00     0.010 A 
ATOM     39  C   UNL A   1      38.309  32.149  31.092  1.00  0.00    -0.014 A 
BRANCH  39  40
ATOM     40  C   UNL A   1      39.569  31.434  31.342  1.00  0.00     0.031 A 
ATOM     41  C   UNL A   1      39.679  30.180  30.549  1.00  0.00     0.074 A 
ATOM     42  C   UNL A   1      40.647  31.963  32.009  1.00  0.00     0.049 A 
ATOM     43  N   UNL A   1      40.588  29.293  30.704  1.00  0.00    -0.248 NA
ATOM     44  C   UNL A   1      38.707  29.786  29.515  1.00  0.00     0.031 C 
ATOM     45  C   UNL A   1      42.066  31.609  31.809  1.00  0.00     0.029 A 
ATOM     46  N   UNL A   1      40.749  32.956  32.992  1.00  0.00    -0.354 N 
ATOM     47  C   UNL A   1      40.532  28.461  29.604  1.00  0.00     0.074 A 
ATOM     48  C   UNL A   1      39.263  28.697  28.991  1.00  0.00     0.031 C 
ATOM     49  C   UNL A   1      42.840  32.193  32.743  1.00  0.00     0.029 A 
ATOM     50  C   UNL A   1      41.973  32.884  33.680  1.00  0.00     0.049 A 
ATOM     51  H   UNL A   1      40.050  33.623  33.179  1.00  0.00     0.167 HD
ATOM     52  C   UNL A   1      41.652  27.782  29.259  1.00  0.00     0.034 A 
ATOM     53  C   UNL A   1      42.071  32.702  35.035  1.00  0.00     0.034 A 
ATOM     54  C   UNL A   1      42.672  27.978  30.307  1.00  0.00     0.049 A 
ATOM     55  C   UNL A   1      42.397  31.237  35.315  1.00  0.00     0.074 A 
ATOM     56  C   UNL A   1      43.821  28.742  30.393  1.00  0.00     0.029 A 
ATOM     57  N   UNL A   1      42.332  27.648  31.622  1.00  0.00    -0.354 N 
ATOM     58  N   UNL A   1      42.507  30.359  34.351  1.00  0.00    -0.248 NA
ATOM     59  C   UNL A   1      42.717  30.640  36.608  1.00  0.00     0.031 C 
ATOM     60  C   UNL A   1      44.107  28.939  31.786  1.00  0.00     0.029 A 
ATOM     61  C   UNL A   1      43.153  28.275  32.548  1.00  0.00     0.049 A 
ATOM     62  H   UNL A   1      41.595  27.043  31.863  1.00  0.00     0.167 HD
ATOM     63  C   UNL A   1      42.848  29.138  34.815  1.00  0.00     0.074 A 
ATOM     64  C   UNL A   1      42.997  29.370  36.246  1.00  0.00     0.031 C 
ATOM     65  C   UNL A   1      42.936  28.049  33.988  1.00  0.00     0.034 A 
BRANCH  52  66
ATOM     66  C   UNL A   1      41.897  27.060  27.942  1.00  0.00     0.023 A 
ATOM     67  C   UNL A   1      41.891  27.878  26.795  1.00  0.00     0.012 A 
ATOM     68  C   UNL A   1      42.083  25.664  27.710  1.00  0.00     0.148 A 
ATOM     69  C   UNL A   1      42.064  27.369  25.504  1.00  0.00     0.002 A 
ATOM     70  C   UNL A   1      42.317  25.162  26.421  1.00  0.00     0.091 A 
ATOM     71  F   UNL A   1      41.964  24.789  28.712  1.00  0.00    -0.205 F 
ATOM     72  C   UNL A   1      42.295  26.015  25.316  1.00  0.00     0.022 A 
BRANCH  70  73
ATOM     73  S   UNL A   1      42.682  23.426  26.070  1.00  0.00     0.127 S 
ATOM     74  O   UNL A   1      43.089  23.471  24.664  1.00  0.00    -0.237 OA
ATOM     75  O   UNL A   1      43.775  23.141  27.002  1.00  0.00    -0.237 OA
ATOM     76  O   UNL A   1      41.457  22.683  26.332  1.00  0.00    -0.744 OA
ENDBRANCH  70  73
ENDBRANCH  52  66
BRANCH  53  77
ATOM     77  C   UNL A   1      41.180  33.631  35.794  1.00  0.00     0.023 A 
ATOM     78  C   UNL A   1      41.432  35.023  35.606  1.00  0.00     0.012 A 
ATOM     79  C   UNL A   1      39.883  33.209  36.089  1.00  0.00     0.148 A 
ATOM     80  C   UNL A   1      40.384  35.937  35.477  1.00  0.00     0.002 A 
ATOM     81  C   UNL A   1      38.848  34.111  35.883  1.00  0.00     0.091 A 
ATOM     82  F   UNL A   1      39.669  31.912  36.347  1.00  0.00    -0.205 F 
ATOM     83  C   UNL A   1      39.090  35.466  35.568  1.00  0.00     0.022 A 
BRANCH  81  84
ATOM     84  S   UNL A   1      37.276  33.519  35.279  1.00  0.00     0.127 S 
ATOM     85  O   UNL A   1      37.589  32.217  34.703  1.00  0.00    -0.237 OA
ATOM     86  O   UNL A   1      36.599  33.466  36.571  1.00  0.00    -0.237 OA
ATOM     87  O   UNL A   1      36.795  34.519  34.340  1.00  0.00    -0.744 OA
ENDBRANCH  81  84
ENDBRANCH  53  77
BRANCH  65  88
ATOM     88  C   UNL A   1      42.823  26.635  34.516  1.00  0.00     0.023 A 
ATOM     89  C   UNL A   1      41.640  26.177  35.130  1.00  0.00     0.012 A 
ATOM     90  C   UNL A   1      43.833  25.669  34.290  1.00  0.00     0.148 A 
ATOM     91  C   UNL A   1      41.526  24.889  35.645  1.00  0.00     0.002 A 
ATOM     92  C   UNL A   1      43.643  24.344  34.653  1.00  0.00     0.091 A 
ATOM     93  F   UNL A   1      45.003  26.021  33.742  1.00  0.00    -0.205 F 
ATOM     94  C   UNL A   1      42.524  23.965  35.393  1.00  0.00     0.022 A 
BRANCH  92  95
ATOM     95  S   UNL A   1      44.738  23.044  34.074  1.00  0.00     0.127 S 
ATOM     96  O   UNL A   1      44.531  23.107  32.630  1.00  0.00    -0.237 OA
ATOM     97  O   UNL A   1      46.043  23.525  34.530  1.00  0.00    -0.237 OA
ATOM     98  O   UNL A   1      44.288  21.824  34.731  1.00  0.00    -0.744 OA
ENDBRANCH  92  95
ENDBRANCH  65  88
ENDBRANCH  39  40
ENDBRANCH  32  34
ENDBRANCH  31  32
ENDBRANCH  30  31
ENDBRANCH   1  30
TORSDOF 20
ENDMDL
MODEL 2
REMARK VINA RESULT:     -11.7      2.574      3.820
REMARK SMILES Cc1ccccc1OC1(C(=O)OCCOCCOC(=O)c2ccc(-c3c4nc(c(-c5cccc(S(=O)(=O)[O-])c5F)c5ccc([nH]5)c(-c5cccc(S(=O)(=O)[O-])c5F)c5nc(c(-c6cccc(S(=O)(=O)[O-])c6F)c6ccc3[nH]6)C=C5)C=C4)cc2)CCN(C(=O)[C@H]2CCCCO2)CC1
REMARK SMILES IDX 16 1 15 2 14 3 13 4 12 5 10 6 11 7 9 8 84 9 96 10 85 11
REMARK SMILES IDX 95 12 86 13 87 14 88 15 8 16 7 17 1 18 2 19 3 20 4 21 6 22
REMARK SMILES IDX 5 23 89 24 90 25 94 26 91 27 93 28 92 29 17 30 18 31 19 32
REMARK SMILES IDX 20 33 21 34 22 35 83 36 23 37 82 38 24 39 25 40 26 41 76 42
REMARK SMILES IDX 27 43 81 44 75 45 77 46 28 47 80 48 74 49 73 50 29 52 61 53
REMARK SMILES IDX 41 54 60 55 42 56 45 57 59 58 78 59 43 60 44 61 58 63 79 64
REMARK SMILES IDX 46 65 30 66 31 67 39 68 32 69 34 70 40 71 33 72 35 73 36 74
REMARK SMILES IDX 37 75 38 76 62 77 63 78 71 79 64 80 66 81 72 82 65 83 67 84
REMARK SMILES IDX 68 85 69 86 70 87 47 88 48 89 56 90 49 91 51 92 57 93 50 94
REMARK SMILES IDX 52 95 53 96 54 97 55 98
REMARK H PARENT 77 51 45 62
REMARK Flexibility Score: inf
ROOT
ATOM      1  C   UNL A   1      31.834  33.057  27.336  1.00  0.00     0.202 C 
ENDROOT
BRANCH   1   2
ATOM      2  O   UNL A   1      31.629  32.090  26.350  1.00  0.00    -0.374 OA
BRANCH   2   3
ATOM      3  C   UNL A   1      32.032  30.832  26.827  1.00  0.00     0.202 C 
BRANCH   3   4
ATOM      4  C   UNL A   1      33.229  30.108  26.130  1.00  0.00     0.261 C 
BRANCH   4   5
ATOM      5  O   UNL A   1      33.050  28.818  25.598  1.00  0.00    -0.460 OA
BRANCH   5   6
ATOM      6  C   UNL A   1      33.211  28.662  24.272  1.00  0.00     0.350 C 
ATOM      7  O   UNL A   1      33.753  29.485  23.549  1.00  0.00    -0.247 OA
BRANCH   6   8
ATOM      8  C   UNL A   1      32.552  27.318  23.876  1.00  0.00     0.209 C 
ATOM      9  C   UNL A   1      32.780  27.065  22.376  1.00  0.00     0.082 C 
ATOM     10  C   UNL A   1      33.306  26.342  24.754  1.00  0.00     0.082 C 
ATOM     11  C   UNL A   1      33.254  25.696  21.917  1.00  0.00     0.124 C 
ATOM     12  C   UNL A   1      33.338  24.900  24.332  1.00  0.00     0.124 C 
ATOM     13  N   UNL A   1      33.377  24.627  22.896  1.00  0.00    -0.340 N 
ATOM     14  C   UNL A   1      33.333  23.338  22.357  1.00  0.00     0.251 C 
ATOM     15  O   UNL A   1      33.283  23.167  21.133  1.00  0.00    -0.272 OA
BRANCH   8  16
ATOM     16  O   UNL A   1      31.228  27.716  24.247  1.00  0.00    -0.475 OA
BRANCH  16  17
ATOM     17  C   UNL A   1      30.126  28.194  23.652  1.00  0.00     0.123 A 
ATOM     18  C   UNL A   1      28.463  26.289  23.919  1.00  0.00     0.048 C 
ATOM     19  C   UNL A   1      28.859  27.643  23.502  1.00  0.00    -0.009 A 
ATOM     20  C   UNL A   1      27.828  28.370  22.884  1.00  0.00     0.007 A 
ATOM     21  C   UNL A   1      28.057  29.626  22.358  1.00  0.00     0.001 A 
ATOM     22  C   UNL A   1      30.348  29.459  23.085  1.00  0.00     0.047 A 
ATOM     23  C   UNL A   1      29.331  30.167  22.439  1.00  0.00     0.004 A 
ENDBRANCH  16  17
ENDBRANCH   8  16
BRANCH  14  24
ATOM     24  C   UNL A   1      33.271  22.141  23.325  1.00  0.00     0.207 C 
ATOM     25  C   UNL A   1      34.541  22.106  24.188  1.00  0.00     0.042 C 
ATOM     26  O   UNL A   1      32.110  22.334  24.141  1.00  0.00    -0.368 OA
ATOM     27  C   UNL A   1      34.431  21.191  25.393  1.00  0.00     0.006 C 
ATOM     28  C   UNL A   1      31.968  21.352  25.153  1.00  0.00     0.161 C 
ATOM     29  C   UNL A   1      33.128  21.439  26.127  1.00  0.00     0.029 C 
ENDBRANCH  14  24
ENDBRANCH   6   8
ENDBRANCH   5   6
ENDBRANCH   4   5
ENDBRANCH   3   4
ENDBRANCH   2   3
ENDBRANCH   1   2
BRANCH   1  30
ATOM     30  C   UNL A   1      33.257  33.652  27.611  1.00  0.00     0.261 C 
BRANCH  30  31
ATOM     31  O   UNL A   1      34.500  32.970  28.306  1.00  0.00    -0.460 OA
BRANCH  31  32
ATOM     32  C   UNL A   1      35.592  32.352  28.840  1.00  0.00     0.338 C 
ATOM     33  O   UNL A   1      36.360  33.058  29.495  1.00  0.00    -0.246 OA
BRANCH  32  34
ATOM     34  C   UNL A   1      36.016  30.878  28.655  1.00  0.00     0.060 A 
ATOM     35  C   UNL A   1      36.030  29.976  29.723  1.00  0.00     0.016 A 
ATOM     36  C   UNL A   1      36.639  30.368  27.551  1.00  0.00     0.016 A 
ATOM     37  C   UNL A   1      37.156  29.146  29.937  1.00  0.00     0.010 A 
ATOM     38  C   UNL A   1      37.844  29.715  27.797  1.00  0.00     0.010 A 
ATOM     39  C   UNL A   1      38.208  29.299  29.080  1.00  0.00    -0.014 A 
BRANCH  39  40
ATOM     40  C   UNL A   1      39.635  28.997  29.269  1.00  0.00     0.031 A 
ATOM     41  C   UNL A   1      39.957  27.571  28.989  1.00  0.00     0.074 A 
ATOM     42  C   UNL A   1      40.618  29.942  29.421  1.00  0.00     0.049 A 
ATOM     43  N   UNL A   1      41.079  27.011  29.238  1.00  0.00    -0.248 NA
ATOM     44  C   UNL A   1      38.985  26.615  28.431  1.00  0.00     0.031 C 
ATOM     45  C   UNL A   1      42.038  29.807  29.036  1.00  0.00     0.029 A 
ATOM     46  N   UNL A   1      40.596  31.252  29.919  1.00  0.00    -0.354 N 
ATOM     47  C   UNL A   1      41.088  25.806  28.565  1.00  0.00     0.074 A 
ATOM     48  C   UNL A   1      39.728  25.530  28.227  1.00  0.00     0.031 C 
ATOM     49  C   UNL A   1      42.755  30.855  29.480  1.00  0.00     0.029 A 
ATOM     50  C   UNL A   1      41.880  31.697  30.275  1.00  0.00     0.049 A 
ATOM     51  H   UNL A   1      39.779  31.795  30.008  1.00  0.00     0.167 HD
ATOM     52  C   UNL A   1      42.286  25.265  28.239  1.00  0.00     0.034 A 
ATOM     53  C   UNL A   1      42.216  32.110  31.539  1.00  0.00     0.034 A 
ATOM     54  C   UNL A   1      43.357  26.060  28.870  1.00  0.00     0.049 A 
ATOM     55  C   UNL A   1      42.953  30.978  32.249  1.00  0.00     0.074 A 
ATOM     56  C   UNL A   1      44.264  26.989  28.396  1.00  0.00     0.029 A 
ATOM     57  N   UNL A   1      43.308  26.244  30.254  1.00  0.00    -0.354 N 
ATOM     58  N   UNL A   1      43.151  29.819  31.677  1.00  0.00    -0.248 NA
ATOM     59  C   UNL A   1      43.601  31.037  33.556  1.00  0.00     0.031 C 
ATOM     60  C   UNL A   1      44.684  27.791  29.510  1.00  0.00     0.029 A 
ATOM     61  C   UNL A   1      44.059  27.336  30.664  1.00  0.00     0.049 A 
ATOM     62  H   UNL A   1      42.799  25.666  30.867  1.00  0.00     0.167 HD
ATOM     63  C   UNL A   1      43.865  28.982  32.462  1.00  0.00     0.074 A 
ATOM     64  C   UNL A   1      44.151  29.806  33.629  1.00  0.00     0.031 C 
ATOM     65  C   UNL A   1      44.118  27.687  32.094  1.00  0.00     0.034 A 
BRANCH  52  66
ATOM     66  C   UNL A   1      42.522  24.124  27.260  1.00  0.00     0.023 A 
ATOM     67  C   UNL A   1      43.344  24.435  26.158  1.00  0.00     0.012 A 
ATOM     68  C   UNL A   1      41.985  22.803  27.283  1.00  0.00     0.148 A 
ATOM     69  C   UNL A   1      43.630  23.511  25.147  1.00  0.00     0.002 A 
ATOM     70  C   UNL A   1      42.322  21.859  26.301  1.00  0.00     0.091 A 
ATOM     71  F   UNL A   1      41.083  22.453  28.206  1.00  0.00    -0.205 F 
ATOM     72  C   UNL A   1      43.136  22.218  25.225  1.00  0.00     0.022 A 
BRANCH  70  73
ATOM     73  S   UNL A   1      41.778  20.134  26.336  1.00  0.00     0.127 S 
ATOM     74  O   UNL A   1      42.529  19.548  25.225  1.00  0.00    -0.237 OA
ATOM     75  O   UNL A   1      42.220  19.693  27.660  1.00  0.00    -0.237 OA
ATOM     76  O   UNL A   1      40.331  20.152  26.158  1.00  0.00    -0.744 OA
ENDBRANCH  70  73
ENDBRANCH  52  66
BRANCH  53  77
ATOM     77  C   UNL A   1      41.230  33.086  32.092  1.00  0.00     0.023 A 
ATOM     78  C   UNL A   1      40.844  34.143  31.214  1.00  0.00     0.012 A 
ATOM     79  C   UNL A   1      40.323  32.638  33.054  1.00  0.00     0.148 A 
ATOM     80  C   UNL A   1      39.518  34.572  31.137  1.00  0.00     0.002 A 
ATOM     81  C   UNL A   1      38.995  33.017  32.916  1.00  0.00     0.091 A 
ATOM     82  F   UNL A   1      40.720  31.705  33.928  1.00  0.00    -0.205 F 
ATOM     83  C   UNL A   1      38.586  33.970  31.959  1.00  0.00     0.022 A 
BRANCH  81  84
ATOM     84  S   UNL A   1      37.705  31.865  33.357  1.00  0.00     0.127 S 
ATOM     85  O   UNL A   1      36.501  32.446  32.775  1.00  0.00    -0.237 OA
ATOM     86  O   UNL A   1      38.238  30.717  32.631  1.00  0.00    -0.237 OA
ATOM     87  O   UNL A   1      37.716  31.772  34.808  1.00  0.00    -0.744 OA
ENDBRANCH  81  84
ENDBRANCH  53  77
BRANCH  65  88
ATOM     88  C   UNL A   1      44.458  26.621  33.114  1.00  0.00     0.023 A 
ATOM     89  C   UNL A   1      45.697  25.952  33.087  1.00  0.00     0.012 A 
ATOM     90  C   UNL A   1      43.617  26.351  34.221  1.00  0.00     0.148 A 
ATOM     91  C   UNL A   1      46.017  24.951  34.000  1.00  0.00     0.002 A 
ATOM     92  C   UNL A   1      44.018  25.476  35.221  1.00  0.00     0.091 A 
ATOM     93  F   UNL A   1      42.407  26.915  34.313  1.00  0.00    -0.205 F 
ATOM     94  C   UNL A   1      45.182  24.723  35.079  1.00  0.00     0.022 A 
BRANCH  92  95
ATOM     95  S   UNL A   1      43.149  25.378  36.788  1.00  0.00     0.127 S 
ATOM     96  O   UNL A   1      41.962  24.610  36.418  1.00  0.00    -0.237 OA
ATOM     97  O   UNL A   1      44.112  24.656  37.622  1.00  0.00    -0.237 OA
ATOM     98  O   UNL A   1      42.915  26.755  37.200  1.00  0.00    -0.744 OA
ENDBRANCH  92  95
ENDBRANCH  65  88
ENDBRANCH  39  40
ENDBRANCH  32  34
ENDBRANCH  31  32
ENDBRANCH  30  31
ENDBRANCH   1  30
TORSDOF 20
ENDMDL
MODEL 3
REMARK VINA RESULT:     -11.3      2.847      7.966
REMARK SMILES Cc1ccccc1OC1(C(=O)OCCOCCOC(=O)c2ccc(-c3c4nc(c(-c5cccc(S(=O)(=O)[O-])c5F)c5ccc([nH]5)c(-c5cccc(S(=O)(=O)[O-])c5F)c5nc(c(-c6cccc(S(=O)(=O)[O-])c6F)c6ccc3[nH]6)C=C5)C=C4)cc2)CCN(C(=O)[C@H]2CCCCO2)CC1
REMARK SMILES IDX 16 1 15 2 14 3 13 4 12 5 10 6 11 7 9 8 84 9 96 10 85 11
REMARK SMILES IDX 95 12 86 13 87 14 88 15 8 16 7 17 1 18 2 19 3 20 4 21 6 22
REMARK SMILES IDX 5 23 89 24 90 25 94 26 91 27 93 28 92 29 17 30 18 31 19 32
REMARK SMILES IDX 20 33 21 34 22 35 83 36 23 37 82 38 24 39 25 40 26 41 76 42
REMARK SMILES IDX 27 43 81 44 75 45 77 46 28 47 80 48 74 49 73 50 29 52 61 53
REMARK SMILES IDX 41 54 60 55 42 56 45 57 59 58 78 59 43 60 44 61 58 63 79 64
REMARK SMILES IDX 46 65 30 66 31 67 39 68 32 69 34 70 40 71 33 72 35 73 36 74
REMARK SMILES IDX 37 75 38 76 62 77 63 78 71 79 64 80 66 81 72 82 65 83 67 84
REMARK SMILES IDX 68 85 69 86 70 87 47 88 48 89 56 90 49 91 51 92 57 93 50 94
REMARK SMILES IDX 52 95 53 96 54 97 55 98
REMARK H PARENT 77 51 45 62
REMARK Flexibility Score: inf
ROOT
ATOM      1  C   UNL A   1      31.468  30.579  25.496  1.00  0.00     0.202 C 
ENDROOT
BRANCH   1   2
ATOM      2  O   UNL A   1      31.253  29.221  25.258  1.00  0.00    -0.374 OA
BRANCH   2   3
ATOM      3  C   UNL A   1      31.962  28.455  26.198  1.00  0.00     0.202 C 
BRANCH   3   4
ATOM      4  C   UNL A   1      31.211  27.325  26.973  1.00  0.00     0.261 C 
BRANCH   4   5
ATOM      5  O   UNL A   1      31.579  25.982  26.779  1.00  0.00    -0.460 OA
BRANCH   5   6
ATOM      6  C   UNL A   1      30.625  25.125  26.373  1.00  0.00     0.350 C 
ATOM      7  O   UNL A   1      29.481  25.124  26.803  1.00  0.00    -0.247 OA
BRANCH   6   8
ATOM      8  C   UNL A   1      31.267  24.165  25.342  1.00  0.00     0.209 C 
ATOM      9  C   UNL A   1      32.791  24.373  25.339  1.00  0.00     0.082 C 
ATOM     10  C   UNL A   1      30.863  22.814  25.894  1.00  0.00     0.082 C 
ATOM     11  C   UNL A   1      33.706  23.160  25.380  1.00  0.00     0.124 C 
ATOM     12  C   UNL A   1      31.684  21.620  25.496  1.00  0.00     0.124 C 
ATOM     13  N   UNL A   1      33.119  21.830  25.313  1.00  0.00    -0.340 N 
ATOM     14  C   UNL A   1      33.992  20.831  24.870  1.00  0.00     0.251 C 
ATOM     15  O   UNL A   1      35.182  21.085  24.651  1.00  0.00    -0.272 OA
BRANCH   8  16
ATOM     16  O   UNL A   1      30.562  24.703  24.219  1.00  0.00    -0.475 OA
BRANCH  16  17
ATOM     17  C   UNL A   1      30.394  25.891  23.620  1.00  0.00     0.123 A 
ATOM     18  C   UNL A   1      32.643  26.290  22.504  1.00  0.00     0.048 C 
ATOM     19  C   UNL A   1      31.249  26.636  22.817  1.00  0.00    -0.009 A 
ATOM     20  C   UNL A   1      30.823  27.845  22.242  1.00  0.00     0.007 A 
ATOM     21  C   UNL A   1      29.567  28.357  22.507  1.00  0.00     0.001 A 
ATOM     22  C   UNL A   1      29.134  26.441  23.902  1.00  0.00     0.047 A 
ATOM     23  C   UNL A   1      28.723  27.662  23.360  1.00  0.00     0.004 A 
ENDBRANCH  16  17
ENDBRANCH   8  16
BRANCH  14  24
ATOM     24  C   UNL A   1      33.418  19.429  24.592  1.00  0.00     0.207 C 
ATOM     25  C   UNL A   1      32.697  19.424  23.236  1.00  0.00     0.042 C 
ATOM     26  O   UNL A   1      34.531  18.528  24.577  1.00  0.00    -0.368 OA
ATOM     27  C   UNL A   1      32.401  18.031  22.711  1.00  0.00     0.006 C 
ATOM     28  C   UNL A   1      34.171  17.199  24.238  1.00  0.00     0.161 C 
ATOM     29  C   UNL A   1      33.633  17.153  22.819  1.00  0.00     0.029 C 
ENDBRANCH  14  24
ENDBRANCH   6   8
ENDBRANCH   5   6
ENDBRANCH   4   5
ENDBRANCH   3   4
ENDBRANCH   2   3
ENDBRANCH   1   2
BRANCH   1  30
ATOM     30  C   UNL A   1      31.927  31.098  26.901  1.00  0.00     0.261 C 
BRANCH  30  31
ATOM     31  O   UNL A   1      33.392  31.308  27.451  1.00  0.00    -0.460 OA
BRANCH  31  32
ATOM     32  C   UNL A   1      34.664  31.549  27.880  1.00  0.00     0.338 C 
ATOM     33  O   UNL A   1      35.561  30.907  27.333  1.00  0.00    -0.246 OA
BRANCH  32  34
ATOM     34  C   UNL A   1      35.101  32.483  29.029  1.00  0.00     0.060 A 
ATOM     35  C   UNL A   1      36.152  33.394  28.879  1.00  0.00     0.016 A 
ATOM     36  C   UNL A   1      34.714  32.366  30.334  1.00  0.00     0.016 A 
ATOM     37  C   UNL A   1      37.160  33.483  29.868  1.00  0.00     0.010 A 
ATOM     38  C   UNL A   1      35.753  32.272  31.257  1.00  0.00     0.010 A 
ATOM     39  C   UNL A   1      37.064  32.630  30.929  1.00  0.00    -0.014 A 
BRANCH  39  40
ATOM     40  C   UNL A   1      38.106  32.119  31.831  1.00  0.00     0.031 A 
ATOM     41  C   UNL A   1      38.491  33.108  32.875  1.00  0.00     0.074 A 
ATOM     42  C   UNL A   1      38.503  30.806  31.899  1.00  0.00     0.049 A 
ATOM     43  N   UNL A   1      39.483  32.982  33.672  1.00  0.00    -0.248 NA
ATOM     44  C   UNL A   1      37.791  34.388  33.076  1.00  0.00     0.031 C 
ATOM     45  C   UNL A   1      39.051  30.112  33.082  1.00  0.00     0.029 A 
ATOM     46  N   UNL A   1      38.490  29.769  30.957  1.00  0.00    -0.354 N 
ATOM     47  C   UNL A   1      39.323  33.926  34.667  1.00  0.00     0.074 A 
ATOM     48  C   UNL A   1      38.373  34.869  34.171  1.00  0.00     0.031 C 
ATOM     49  C   UNL A   1      39.492  28.884  32.753  1.00  0.00     0.029 A 
ATOM     50  C   UNL A   1      39.362  28.727  31.316  1.00  0.00     0.049 A 
ATOM     51  H   UNL A   1      37.936  29.770  30.143  1.00  0.00     0.167 HD
ATOM     52  C   UNL A   1      39.910  33.694  35.867  1.00  0.00     0.034 A 
ATOM     53  C   UNL A   1      40.404  28.306  30.531  1.00  0.00     0.034 A 
ATOM     54  C   UNL A   1      40.769  32.500  35.756  1.00  0.00     0.049 A 
ATOM     55  C   UNL A   1      41.700  28.907  31.067  1.00  0.00     0.074 A 
ATOM     56  C   UNL A   1      40.646  31.190  36.180  1.00  0.00     0.029 A 
ATOM     57  N   UNL A   1      41.753  32.490  34.765  1.00  0.00    -0.354 N 
ATOM     58  N   UNL A   1      41.712  29.717  32.093  1.00  0.00    -0.248 NA
ATOM     59  C   UNL A   1      43.057  28.615  30.612  1.00  0.00     0.031 C 
ATOM     60  C   UNL A   1      41.506  30.387  35.359  1.00  0.00     0.029 A 
ATOM     61  C   UNL A   1      42.175  31.205  34.457  1.00  0.00     0.049 A 
ATOM     62  H   UNL A   1      42.106  33.301  34.333  1.00  0.00     0.167 HD
ATOM     63  C   UNL A   1      42.966  30.090  32.429  1.00  0.00     0.074 A 
ATOM     64  C   UNL A   1      43.785  29.346  31.482  1.00  0.00     0.031 C 
ATOM     65  C   UNL A   1      43.206  31.001  33.424  1.00  0.00     0.034 A 
BRANCH  52  66
ATOM     66  C   UNL A   1      39.624  34.434  37.165  1.00  0.00     0.023 A 
ATOM     67  C   UNL A   1      39.978  35.798  37.173  1.00  0.00     0.012 A 
ATOM     68  C   UNL A   1      39.093  33.922  38.386  1.00  0.00     0.148 A 
ATOM     69  C   UNL A   1      39.815  36.613  38.298  1.00  0.00     0.002 A 
ATOM     70  C   UNL A   1      38.874  34.754  39.495  1.00  0.00     0.091 A 
ATOM     71  F   UNL A   1      38.859  32.614  38.528  1.00  0.00    -0.205 F 
ATOM     72  C   UNL A   1      39.247  36.098  39.454  1.00  0.00     0.022 A 
BRANCH  70  73
ATOM     73  S   UNL A   1      38.091  34.200  41.029  1.00  0.00     0.127 S 
ATOM     74  O   UNL A   1      39.171  33.456  41.679  1.00  0.00    -0.237 OA
ATOM     75  O   UNL A   1      37.755  35.465  41.684  1.00  0.00    -0.237 OA
ATOM     76  O   UNL A   1      36.939  33.397  40.640  1.00  0.00    -0.744 OA
ENDBRANCH  70  73
ENDBRANCH  52  66
BRANCH  53  77
ATOM     77  C   UNL A   1      39.985  28.077  29.115  1.00  0.00     0.023 A 
ATOM     78  C   UNL A   1      40.531  28.980  28.153  1.00  0.00     0.012 A 
ATOM     79  C   UNL A   1      39.666  26.777  28.721  1.00  0.00     0.148 A 
ATOM     80  C   UNL A   1      40.969  28.530  26.907  1.00  0.00     0.002 A 
ATOM     81  C   UNL A   1      40.175  26.325  27.512  1.00  0.00     0.091 A 
ATOM     82  F   UNL A   1      39.077  25.961  29.606  1.00  0.00    -0.205 F 
ATOM     83  C   UNL A   1      40.833  27.188  26.609  1.00  0.00     0.022 A 
BRANCH  81  84
ATOM     84  S   UNL A   1      40.690  24.623  27.358  1.00  0.00     0.127 S 
ATOM     85  O   UNL A   1      41.426  24.591  26.100  1.00  0.00    -0.237 OA
ATOM     86  O   UNL A   1      41.526  24.583  28.553  1.00  0.00    -0.237 OA
ATOM     87  O   UNL A   1      39.476  23.823  27.393  1.00  0.00    -0.744 OA
ENDBRANCH  81  84
ENDBRANCH  53  77
BRANCH  65  88
ATOM     88  C   UNL A   1      44.496  31.790  33.488  1.00  0.00     0.023 A 
ATOM     89  C   UNL A   1      44.666  32.976  32.748  1.00  0.00     0.012 A 
ATOM     90  C   UNL A   1      45.530  31.460  34.399  1.00  0.00     0.148 A 
ATOM     91  C   UNL A   1      45.854  33.700  32.773  1.00  0.00     0.002 A 
ATOM     92  C   UNL A   1      46.638  32.282  34.544  1.00  0.00     0.091 A 
ATOM     93  F   UNL A   1      45.470  30.334  35.121  1.00  0.00    -0.205 F 
ATOM     94  C   UNL A   1      46.837  33.361  33.685  1.00  0.00     0.022 A 
BRANCH  92  95
ATOM     95  S   UNL A   1      47.780  32.087  35.915  1.00  0.00     0.127 S 
ATOM     96  O   UNL A   1      48.661  33.237  35.729  1.00  0.00    -0.237 OA
ATOM     97  O   UNL A   1      46.885  32.179  37.069  1.00  0.00    -0.237 OA
ATOM     98  O   UNL A   1      48.394  30.778  35.737  1.00  0.00    -0.744 OA
ENDBRANCH  92  95
ENDBRANCH  65  88
ENDBRANCH  39  40
ENDBRANCH  32  34
ENDBRANCH  31  32
ENDBRANCH  30  31
ENDBRANCH   1  30
TORSDOF 20
ENDMDL
