MODEL 1
REMARK VINA RESULT:      -9.9      0.000      0.000
REMARK SMILES CC#CC[C@](CC)(CCCC)C(=O)OCCOCCOC(=O)c1ccc(-c2c3nc(c(-c4cccc(S(=O)(=O)[O-])c4F)c4ccc([nH]4)c(-c4cccc(S(=O)(=O)[O-])c4F)c4nc(c(-c5cccc(S(=O)(=O)[O-])c5F)c5ccc2[nH]5)C=C4)C=C3)cc1
REMARK SMILES IDX 17 1 16 2 15 3 14 4 12 5 13 6 5 7 4 8 3 9 1 10 2 11 8 12
REMARK SMILES IDX 9 13 10 14 11 15 6 16 7 17 18 18 19 19 20 20 21 21 22 22
REMARK SMILES IDX 23 23 24 24 85 25 25 26 84 27 26 28 27 29 28 30 78 31 29 32
REMARK SMILES IDX 83 33 77 34 79 35 30 36 82 37 76 38 75 39 31 41 63 42 43 43
REMARK SMILES IDX 62 44 44 45 47 46 61 47 80 48 45 49 46 50 60 52 81 53 48 54
REMARK SMILES IDX 32 55 33 56 41 57 34 58 36 59 42 60 35 61 37 62 38 63 39 64
REMARK SMILES IDX 40 65 64 66 65 67 73 68 66 69 68 70 74 71 67 72 69 73 70 74
REMARK SMILES IDX 71 75 72 76 49 77 50 78 58 79 51 80 53 81 59 82 52 83 54 84
REMARK SMILES IDX 55 85 56 86 57 87
REMARK H PARENT 79 40 47 51
REMARK Flexibility Score: inf
ROOT
ATOM      1  O   UNL A   1      35.287  21.922  25.627  1.00  0.00    -0.374 OA
ENDROOT
BRANCH   1   2
ATOM      2  C   UNL A   1      34.716  21.825  26.930  1.00  0.00     0.202 C 
BRANCH   2   3
ATOM      3  C   UNL A   1      33.413  22.569  27.217  1.00  0.00     0.261 C 
BRANCH   3   4
ATOM      4  O   UNL A   1      33.322  23.858  26.576  1.00  0.00    -0.463 OA
BRANCH   4   5
ATOM      5  C   UNL A   1      32.066  24.368  26.572  1.00  0.00     0.313 C 
ATOM      6  O   UNL A   1      31.170  23.919  27.284  1.00  0.00    -0.252 OA
BRANCH   5   7
ATOM      7  C   UNL A   1      31.799  25.373  25.442  1.00  0.00     0.079 C 
BRANCH   7   8
ATOM      8  C   UNL A   1      31.461  26.640  26.276  1.00  0.00     0.108 C 
BRANCH   8   9
ATOM      9  C   UNL A   1      32.658  27.512  26.618  1.00  0.00    -0.102 C 
ATOM     10  C   UNL A   1      34.884  29.129  27.253  1.00  0.00     0.107 C 
ATOM     11  C   UNL A   1      33.686  28.258  26.911  1.00  0.00    -0.107 C 
ENDBRANCH   8   9
ENDBRANCH   7   8
BRANCH   7  12
ATOM     12  C   UNL A   1      30.699  25.133  24.353  1.00  0.00     0.020 C 
BRANCH  12  13
ATOM     13  C   UNL A   1      29.643  26.178  24.016  1.00  0.00     0.001 C 
BRANCH  13  14
ATOM     14  C   UNL A   1      30.113  27.264  23.060  1.00  0.00    -0.003 C 
ATOM     15  C   UNL A   1      29.391  28.603  23.109  1.00  0.00     0.004 C 
ENDBRANCH  13  14
ENDBRANCH  12  13
ENDBRANCH   7  12
BRANCH   7  16
ATOM     16  C   UNL A   1      33.180  25.483  24.678  1.00  0.00     0.016 C 
ATOM     17  C   UNL A   1      33.277  24.872  23.286  1.00  0.00     0.005 C 
ENDBRANCH   7  16
ENDBRANCH   5   7
ENDBRANCH   4   5
ENDBRANCH   3   4
ENDBRANCH   2   3
ENDBRANCH   1   2
BRANCH   1  18
ATOM     18  C   UNL A   1      35.611  20.710  24.948  1.00  0.00     0.202 C 
BRANCH  18  19
ATOM     19  C   UNL A   1      37.100  20.342  24.836  1.00  0.00     0.261 C 
BRANCH  19  20
ATOM     20  O   UNL A   1      37.977  21.451  25.117  1.00  0.00    -0.460 OA
BRANCH  20  21
ATOM     21  C   UNL A   1      39.079  21.140  25.848  1.00  0.00     0.338 C 
ATOM     22  O   UNL A   1      39.742  20.125  25.759  1.00  0.00    -0.246 OA
BRANCH  21  23
ATOM     23  C   UNL A   1      39.528  22.315  26.638  1.00  0.00     0.060 A 
ATOM     24  C   UNL A   1      38.891  23.533  26.368  1.00  0.00     0.016 A 
ATOM     25  C   UNL A   1      40.548  22.262  27.589  1.00  0.00     0.016 A 
ATOM     26  C   UNL A   1      39.330  24.709  26.978  1.00  0.00     0.010 A 
ATOM     27  C   UNL A   1      40.964  23.441  28.229  1.00  0.00     0.010 A 
ATOM     28  C   UNL A   1      40.406  24.685  27.874  1.00  0.00    -0.014 A 
BRANCH  28  29
ATOM     29  C   UNL A   1      41.053  25.975  28.252  1.00  0.00     0.031 A 
ATOM     30  C   UNL A   1      42.442  26.275  27.741  1.00  0.00     0.074 A 
ATOM     31  C   UNL A   1      40.399  26.920  28.956  1.00  0.00     0.049 A 
ATOM     32  N   UNL A   1      43.140  27.379  27.830  1.00  0.00    -0.248 NA
ATOM     33  C   UNL A   1      43.138  25.187  27.035  1.00  0.00     0.031 C 
ATOM     34  C   UNL A   1      39.054  26.785  29.511  1.00  0.00     0.029 A 
ATOM     35  N   UNL A   1      40.783  28.192  29.313  1.00  0.00    -0.354 N 
ATOM     36  C   UNL A   1      44.359  27.111  27.218  1.00  0.00     0.074 A 
ATOM     37  C   UNL A   1      44.320  25.730  26.793  1.00  0.00     0.031 C 
ATOM     38  C   UNL A   1      38.719  27.934  30.126  1.00  0.00     0.029 A 
ATOM     39  C   UNL A   1      39.829  28.880  30.025  1.00  0.00     0.049 A 
ATOM     40  H   UNL A   1      41.661  28.574  29.080  1.00  0.00     0.167 HD
ATOM     41  C   UNL A   1      45.410  27.936  26.996  1.00  0.00     0.034 A 
ATOM     42  C   UNL A   1      39.843  30.131  30.534  1.00  0.00     0.034 A 
ATOM     43  C   UNL A   1      45.455  29.319  27.384  1.00  0.00     0.049 A 
ATOM     44  C   UNL A   1      41.042  31.020  30.311  1.00  0.00     0.074 A 
ATOM     45  C   UNL A   1      46.453  30.247  27.141  1.00  0.00     0.029 A 
ATOM     46  N   UNL A   1      44.476  29.970  28.116  1.00  0.00    -0.354 N 
ATOM     47  N   UNL A   1      42.124  30.792  29.608  1.00  0.00    -0.248 NA
ATOM     48  C   UNL A   1      41.002  32.357  30.928  1.00  0.00     0.031 C 
ATOM     49  C   UNL A   1      46.096  31.447  27.766  1.00  0.00     0.029 A 
ATOM     50  C   UNL A   1      44.856  31.279  28.359  1.00  0.00     0.049 A 
ATOM     51  H   UNL A   1      43.633  29.562  28.418  1.00  0.00     0.167 HD
ATOM     52  C   UNL A   1      42.871  31.967  29.662  1.00  0.00     0.074 A 
ATOM     53  C   UNL A   1      42.112  32.910  30.454  1.00  0.00     0.031 C 
ATOM     54  C   UNL A   1      44.081  32.235  29.108  1.00  0.00     0.034 A 
BRANCH  41  55
ATOM     55  C   UNL A   1      46.603  27.356  26.279  1.00  0.00     0.023 A 
ATOM     56  C   UNL A   1      46.691  27.441  24.875  1.00  0.00     0.012 A 
ATOM     57  C   UNL A   1      47.647  26.746  27.001  1.00  0.00     0.148 A 
ATOM     58  C   UNL A   1      47.773  26.881  24.195  1.00  0.00     0.002 A 
ATOM     59  C   UNL A   1      48.746  26.236  26.321  1.00  0.00     0.091 A 
ATOM     60  F   UNL A   1      47.537  26.653  28.334  1.00  0.00    -0.205 F 
ATOM     61  C   UNL A   1      48.804  26.287  24.919  1.00  0.00     0.022 A 
BRANCH  59  62
ATOM     62  S   UNL A   1      50.160  25.529  27.173  1.00  0.00     0.127 S 
ATOM     63  O   UNL A   1      49.594  24.292  27.709  1.00  0.00    -0.237 OA
ATOM     64  O   UNL A   1      51.116  25.339  26.081  1.00  0.00    -0.237 OA
ATOM     65  O   UNL A   1      50.564  26.517  28.164  1.00  0.00    -0.744 OA
ENDBRANCH  59  62
ENDBRANCH  41  55
BRANCH  42  66
ATOM     66  C   UNL A   1      38.652  30.653  31.264  1.00  0.00     0.023 A 
ATOM     67  C   UNL A   1      38.576  30.504  32.663  1.00  0.00     0.012 A 
ATOM     68  C   UNL A   1      37.597  31.292  30.583  1.00  0.00     0.148 A 
ATOM     69  C   UNL A   1      37.460  30.955  33.368  1.00  0.00     0.002 A 
ATOM     70  C   UNL A   1      36.513  31.788  31.298  1.00  0.00     0.091 A 
ATOM     71  F   UNL A   1      37.682  31.408  29.251  1.00  0.00    -0.205 F 
ATOM     72  C   UNL A   1      36.434  31.605  32.688  1.00  0.00     0.022 A 
BRANCH  70  73
ATOM     73  S   UNL A   1      35.200  32.738  30.526  1.00  0.00     0.127 S 
ATOM     74  O   UNL A   1      34.295  32.967  31.651  1.00  0.00    -0.237 OA
ATOM     75  O   UNL A   1      35.923  33.924  30.065  1.00  0.00    -0.237 OA
ATOM     76  O   UNL A   1      34.674  31.897  29.460  1.00  0.00    -0.744 OA
ENDBRANCH  70  73
ENDBRANCH  42  66
BRANCH  54  77
ATOM     77  C   UNL A   1      44.659  33.617  29.294  1.00  0.00     0.023 A 
ATOM     78  C   UNL A   1      45.419  33.916  30.442  1.00  0.00     0.012 A 
ATOM     79  C   UNL A   1      44.515  34.598  28.291  1.00  0.00     0.148 A 
ATOM     80  C   UNL A   1      45.997  35.177  30.605  1.00  0.00     0.002 A 
ATOM     81  C   UNL A   1      45.135  35.834  28.436  1.00  0.00     0.091 A 
ATOM     82  F   UNL A   1      43.775  34.304  27.211  1.00  0.00    -0.205 F 
ATOM     83  C   UNL A   1      45.865  36.130  29.598  1.00  0.00     0.022 A 
BRANCH  81  84
ATOM     84  S   UNL A   1      45.104  37.089  27.150  1.00  0.00     0.127 S 
ATOM     85  O   UNL A   1      45.795  38.200  27.801  1.00  0.00    -0.237 OA
ATOM     86  O   UNL A   1      45.860  36.447  26.073  1.00  0.00    -0.237 OA
ATOM     87  O   UNL A   1      43.698  37.319  26.846  1.00  0.00    -0.744 OA
ENDBRANCH  81  84
ENDBRANCH  54  77
ENDBRANCH  28  29
ENDBRANCH  21  23
ENDBRANCH  20  21
ENDBRANCH  19  20
ENDBRANCH  18  19
ENDBRANCH   1  18
TORSDOF 23
ENDMDL
MODEL 2
REMARK VINA RESULT:      -9.6      1.387      2.411
REMARK SMILES CC#CC[C@](CC)(CCCC)C(=O)OCCOCCOC(=O)c1ccc(-c2c3nc(c(-c4cccc(S(=O)(=O)[O-])c4F)c4ccc([nH]4)c(-c4cccc(S(=O)(=O)[O-])c4F)c4nc(c(-c5cccc(S(=O)(=O)[O-])c5F)c5ccc2[nH]5)C=C4)C=C3)cc1
REMARK SMILES IDX 17 1 16 2 15 3 14 4 12 5 13 6 5 7 4 8 3 9 1 10 2 11 8 12
REMARK SMILES IDX 9 13 10 14 11 15 6 16 7 17 18 18 19 19 20 20 21 21 22 22
REMARK SMILES IDX 23 23 24 24 85 25 25 26 84 27 26 28 27 29 28 30 78 31 29 32
REMARK SMILES IDX 83 33 77 34 79 35 30 36 82 37 76 38 75 39 31 41 63 42 43 43
REMARK SMILES IDX 62 44 44 45 47 46 61 47 80 48 45 49 46 50 60 52 81 53 48 54
REMARK SMILES IDX 32 55 33 56 41 57 34 58 36 59 42 60 35 61 37 62 38 63 39 64
REMARK SMILES IDX 40 65 64 66 65 67 73 68 66 69 68 70 74 71 67 72 69 73 70 74
REMARK SMILES IDX 71 75 72 76 49 77 50 78 58 79 51 80 53 81 59 82 52 83 54 84
REMARK SMILES IDX 55 85 56 86 57 87
REMARK H PARENT 79 40 47 51
REMARK Flexibility Score: inf
ROOT
ATOM      1  O   UNL A   1      35.391  21.890  25.676  1.00  0.00    -0.374 OA
ENDROOT
BRANCH   1   2
ATOM      2  C   UNL A   1      34.751  21.732  26.941  1.00  0.00     0.202 C 
BRANCH   2   3
ATOM      3  C   UNL A   1      33.472  22.521  27.219  1.00  0.00     0.261 C 
BRANCH   3   4
ATOM      4  O   UNL A   1      33.472  23.850  26.660  1.00  0.00    -0.463 OA
BRANCH   4   5
ATOM      5  C   UNL A   1      32.227  24.346  26.454  1.00  0.00     0.313 C 
ATOM      6  O   UNL A   1      31.245  23.937  27.071  1.00  0.00    -0.252 OA
BRANCH   5   7
ATOM      7  C   UNL A   1      32.111  25.270  25.234  1.00  0.00     0.079 C 
BRANCH   7   8
ATOM      8  C   UNL A   1      33.203  24.651  24.317  1.00  0.00     0.108 C 
BRANCH   8   9
ATOM      9  C   UNL A   1      32.784  23.375  23.605  1.00  0.00    -0.102 C 
ATOM     10  C   UNL A   1      32.005  21.005  22.283  1.00  0.00     0.107 C 
ATOM     11  C   UNL A   1      32.424  22.281  22.994  1.00  0.00    -0.107 C 
ENDBRANCH   8   9
ENDBRANCH   7   8
BRANCH   7  12
ATOM     12  C   UNL A   1      32.307  26.821  25.337  1.00  0.00     0.020 C 
BRANCH  12  13
ATOM     13  C   UNL A   1      33.596  27.511  24.909  1.00  0.00     0.001 C 
BRANCH  13  14
ATOM     14  C   UNL A   1      34.014  28.673  25.797  1.00  0.00    -0.003 C 
ATOM     15  C   UNL A   1      33.636  28.602  27.270  1.00  0.00     0.004 C 
ENDBRANCH  13  14
ENDBRANCH  12  13
ENDBRANCH   7  12
BRANCH   7  16
ATOM     16  C   UNL A   1      30.642  25.032  24.697  1.00  0.00     0.016 C 
ATOM     17  C   UNL A   1      29.648  26.180  24.801  1.00  0.00     0.005 C 
ENDBRANCH   7  16
ENDBRANCH   5   7
ENDBRANCH   4   5
ENDBRANCH   3   4
ENDBRANCH   2   3
ENDBRANCH   1   2
BRANCH   1  18
ATOM     18  C   UNL A   1      35.819  20.713  24.994  1.00  0.00     0.202 C 
BRANCH  18  19
ATOM     19  C   UNL A   1      37.332  20.441  24.942  1.00  0.00     0.261 C 
BRANCH  19  20
ATOM     20  O   UNL A   1      38.124  21.593  25.294  1.00  0.00    -0.460 OA
BRANCH  20  21
ATOM     21  C   UNL A   1      39.258  21.319  25.991  1.00  0.00     0.338 C 
ATOM     22  O   UNL A   1      39.960  20.336  25.870  1.00  0.00    -0.246 OA
BRANCH  21  23
ATOM     23  C   UNL A   1      39.676  22.502  26.787  1.00  0.00     0.060 A 
ATOM     24  C   UNL A   1      38.998  23.700  26.535  1.00  0.00     0.016 A 
ATOM     25  C   UNL A   1      40.708  22.473  27.727  1.00  0.00     0.016 A 
ATOM     26  C   UNL A   1      39.404  24.884  27.151  1.00  0.00     0.010 A 
ATOM     27  C   UNL A   1      41.092  23.660  28.374  1.00  0.00     0.010 A 
ATOM     28  C   UNL A   1      40.491  24.888  28.036  1.00  0.00    -0.014 A 
BRANCH  28  29
ATOM     29  C   UNL A   1      41.100  26.194  28.418  1.00  0.00     0.031 A 
ATOM     30  C   UNL A   1      42.507  26.506  27.969  1.00  0.00     0.074 A 
ATOM     31  C   UNL A   1      40.398  27.142  29.071  1.00  0.00     0.049 A 
ATOM     32  N   UNL A   1      43.183  27.624  28.070  1.00  0.00    -0.248 NA
ATOM     33  C   UNL A   1      43.252  25.417  27.318  1.00  0.00     0.031 C 
ATOM     34  C   UNL A   1      39.030  26.998  29.564  1.00  0.00     0.029 A 
ATOM     35  N   UNL A   1      40.745  28.427  29.421  1.00  0.00    -0.354 N 
ATOM     36  C   UNL A   1      44.434  27.363  27.522  1.00  0.00     0.074 A 
ATOM     37  C   UNL A   1      44.436  25.973  27.123  1.00  0.00     0.031 C 
ATOM     38  C   UNL A   1      38.648  28.153  30.138  1.00  0.00     0.029 A 
ATOM     39  C   UNL A   1      39.748  29.114  30.073  1.00  0.00     0.049 A 
ATOM     40  H   UNL A   1      41.628  28.818  29.223  1.00  0.00     0.167 HD
ATOM     41  C   UNL A   1      45.482  28.200  27.334  1.00  0.00     0.034 A 
ATOM     42  C   UNL A   1      39.720  30.374  30.556  1.00  0.00     0.034 A 
ATOM     43  C   UNL A   1      45.488  29.591  27.697  1.00  0.00     0.049 A 
ATOM     44  C   UNL A   1      40.914  31.277  30.374  1.00  0.00     0.074 A 
ATOM     45  C   UNL A   1      46.483  30.529  27.483  1.00  0.00     0.029 A 
ATOM     46  N   UNL A   1      44.465  30.240  28.367  1.00  0.00    -0.354 N 
ATOM     47  N   UNL A   1      42.032  31.054  29.729  1.00  0.00    -0.248 NA
ATOM     48  C   UNL A   1      40.824  32.625  30.962  1.00  0.00     0.031 C 
ATOM     49  C   UNL A   1      46.079  31.735  28.066  1.00  0.00     0.029 A 
ATOM     50  C   UNL A   1      44.814  31.560  28.602  1.00  0.00     0.049 A 
ATOM     51  H   UNL A   1      43.614  29.825  28.637  1.00  0.00     0.167 HD
ATOM     52  C   UNL A   1      42.758  32.241  29.794  1.00  0.00     0.074 A 
ATOM     53  C   UNL A   1      41.947  33.186  30.531  1.00  0.00     0.031 C 
ATOM     54  C   UNL A   1      43.989  32.517  29.294  1.00  0.00     0.034 A 
BRANCH  41  55
ATOM     55  C   UNL A   1      46.717  27.625  26.687  1.00  0.00     0.023 A 
ATOM     56  C   UNL A   1      47.635  26.882  27.457  1.00  0.00     0.012 A 
ATOM     57  C   UNL A   1      46.957  27.806  25.311  1.00  0.00     0.148 A 
ATOM     58  C   UNL A   1      48.797  26.371  26.880  1.00  0.00     0.002 A 
ATOM     59  C   UNL A   1      48.092  27.250  24.733  1.00  0.00     0.091 A 
ATOM     60  F   UNL A   1      46.087  28.535  24.598  1.00  0.00    -0.205 F 
ATOM     61  C   UNL A   1      49.020  26.547  25.517  1.00  0.00     0.022 A 
BRANCH  59  62
ATOM     62  S   UNL A   1      48.420  27.353  22.970  1.00  0.00     0.127 S 
ATOM     63  O   UNL A   1      47.305  28.179  22.510  1.00  0.00    -0.237 OA
ATOM     64  O   UNL A   1      49.725  28.017  22.938  1.00  0.00    -0.237 OA
ATOM     65  O   UNL A   1      48.430  25.980  22.485  1.00  0.00    -0.744 OA
ENDBRANCH  59  62
ENDBRANCH  41  55
BRANCH  42  66
ATOM     66  C   UNL A   1      38.486  30.891  31.218  1.00  0.00     0.023 A 
ATOM     67  C   UNL A   1      38.347  30.770  32.615  1.00  0.00     0.012 A 
ATOM     68  C   UNL A   1      37.456  31.498  30.475  1.00  0.00     0.148 A 
ATOM     69  C   UNL A   1      37.191  31.217  33.256  1.00  0.00     0.002 A 
ATOM     70  C   UNL A   1      36.331  31.991  31.126  1.00  0.00     0.091 A 
ATOM     71  F   UNL A   1      37.602  31.589  29.146  1.00  0.00    -0.205 F 
ATOM     72  C   UNL A   1      36.188  31.836  32.514  1.00  0.00     0.022 A 
BRANCH  70  73
ATOM     73  S   UNL A   1      35.041  32.903  30.273  1.00  0.00     0.127 S 
ATOM     74  O   UNL A   1      34.129  33.226  31.368  1.00  0.00    -0.237 OA
ATOM     75  O   UNL A   1      35.788  34.041  29.736  1.00  0.00    -0.237 OA
ATOM     76  O   UNL A   1      34.513  31.995  29.264  1.00  0.00    -0.744 OA
ENDBRANCH  70  73
ENDBRANCH  42  66
BRANCH  54  77
ATOM     77  C   UNL A   1      44.537  33.912  29.480  1.00  0.00     0.023 A 
ATOM     78  C   UNL A   1      45.194  34.259  30.678  1.00  0.00     0.012 A 
ATOM     79  C   UNL A   1      44.470  34.855  28.435  1.00  0.00     0.148 A 
ATOM     80  C   UNL A   1      45.744  35.531  30.845  1.00  0.00     0.002 A 
ATOM     81  C   UNL A   1      45.065  36.103  28.588  1.00  0.00     0.091 A 
ATOM     82  F   UNL A   1      43.829  34.516  27.307  1.00  0.00    -0.205 F 
ATOM     83  C   UNL A   1      45.690  36.447  29.798  1.00  0.00     0.022 A 
BRANCH  81  84
ATOM     84  S   UNL A   1      45.133  37.313  27.261  1.00  0.00     0.127 S 
ATOM     85  O   UNL A   1      45.896  36.594  26.242  1.00  0.00    -0.237 OA
ATOM     86  O   UNL A   1      43.718  37.502  26.942  1.00  0.00    -0.237 OA
ATOM     87  O   UNL A   1      45.789  38.487  27.820  1.00  0.00    -0.744 OA
ENDBRANCH  81  84
ENDBRANCH  54  77
ENDBRANCH  28  29
ENDBRANCH  21  23
ENDBRANCH  20  21
ENDBRANCH  19  20
ENDBRANCH  18  19
ENDBRANCH   1  18
TORSDOF 23
ENDMDL
MODEL 3
REMARK VINA RESULT:      -9.3      0.734      7.940
REMARK SMILES CC#CC[C@](CC)(CCCC)C(=O)OCCOCCOC(=O)c1ccc(-c2c3nc(c(-c4cccc(S(=O)(=O)[O-])c4F)c4ccc([nH]4)c(-c4cccc(S(=O)(=O)[O-])c4F)c4nc(c(-c5cccc(S(=O)(=O)[O-])c5F)c5ccc2[nH]5)C=C4)C=C3)cc1
REMARK SMILES IDX 17 1 16 2 15 3 14 4 12 5 13 6 5 7 4 8 3 9 1 10 2 11 8 12
REMARK SMILES IDX 9 13 10 14 11 15 6 16 7 17 18 18 19 19 20 20 21 21 22 22
REMARK SMILES IDX 23 23 24 24 85 25 25 26 84 27 26 28 27 29 28 30 78 31 29 32
REMARK SMILES IDX 83 33 77 34 79 35 30 36 82 37 76 38 75 39 31 41 63 42 43 43
REMARK SMILES IDX 62 44 44 45 47 46 61 47 80 48 45 49 46 50 60 52 81 53 48 54
REMARK SMILES IDX 32 55 33 56 41 57 34 58 36 59 42 60 35 61 37 62 38 63 39 64
REMARK SMILES IDX 40 65 64 66 65 67 73 68 66 69 68 70 74 71 67 72 69 73 70 74
REMARK SMILES IDX 71 75 72 76 49 77 50 78 58 79 51 80 53 81 59 82 52 83 54 84
REMARK SMILES IDX 55 85 56 86 57 87
REMARK H PARENT 79 40 47 51
REMARK Flexibility Score: inf
ROOT
ATOM      1  O   UNL A   1      34.631  21.653  25.361  1.00  0.00    -0.374 OA
ENDROOT
BRANCH   1   2
ATOM      2  C   UNL A   1      33.953  22.010  26.564  1.00  0.00     0.202 C 
BRANCH   2   3
ATOM      3  C   UNL A   1      32.681  22.851  26.467  1.00  0.00     0.261 C 
BRANCH   3   4
ATOM      4  O   UNL A   1      32.909  24.270  26.582  1.00  0.00    -0.463 OA
BRANCH   4   5
ATOM      5  C   UNL A   1      31.830  25.017  26.239  1.00  0.00     0.313 C 
ATOM      6  O   UNL A   1      30.685  24.703  26.556  1.00  0.00    -0.252 OA
BRANCH   5   7
ATOM      7  C   UNL A   1      32.132  26.132  25.228  1.00  0.00     0.079 C 
BRANCH   7   8
ATOM      8  C   UNL A   1      31.926  27.382  26.129  1.00  0.00     0.108 C 
BRANCH   8   9
ATOM      9  C   UNL A   1      33.211  28.061  26.575  1.00  0.00    -0.102 C 
ATOM     10  C   UNL A   1      35.599  29.319  27.404  1.00  0.00     0.107 C 
ATOM     11  C   UNL A   1      34.314  28.642  26.957  1.00  0.00    -0.107 C 
ENDBRANCH   8   9
ENDBRANCH   7   8
BRANCH   7  12
ATOM     12  C   UNL A   1      31.329  26.290  23.893  1.00  0.00     0.020 C 
BRANCH  12  13
ATOM     13  C   UNL A   1      31.270  27.605  23.126  1.00  0.00     0.001 C 
BRANCH  13  14
ATOM     14  C   UNL A   1      29.899  28.266  23.111  1.00  0.00    -0.003 C 
ATOM     15  C   UNL A   1      29.818  29.723  23.545  1.00  0.00     0.004 C 
ENDBRANCH  13  14
ENDBRANCH  12  13
ENDBRANCH   7  12
BRANCH   7  16
ATOM     16  C   UNL A   1      33.644  25.900  24.825  1.00  0.00     0.016 C 
ATOM     17  C   UNL A   1      33.934  25.054  23.592  1.00  0.00     0.005 C 
ENDBRANCH   7  16
ENDBRANCH   5   7
ENDBRANCH   4   5
ENDBRANCH   3   4
ENDBRANCH   2   3
ENDBRANCH   1   2
BRANCH   1  18
ATOM     18  C   UNL A   1      35.171  20.337  25.265  1.00  0.00     0.202 C 
BRANCH  18  19
ATOM     19  C   UNL A   1      36.661  20.212  24.903  1.00  0.00     0.261 C 
BRANCH  19  20
ATOM     20  O   UNL A   1      37.427  21.380  25.260  1.00  0.00    -0.460 OA
BRANCH  20  21
ATOM     21  C   UNL A   1      38.631  21.122  25.837  1.00  0.00     0.338 C 
ATOM     22  O   UNL A   1      39.277  20.099  25.731  1.00  0.00    -0.246 OA
BRANCH  21  23
ATOM     23  C   UNL A   1      39.187  22.355  26.450  1.00  0.00     0.060 A 
ATOM     24  C   UNL A   1      38.546  23.558  26.133  1.00  0.00     0.016 A 
ATOM     25  C   UNL A   1      40.309  22.365  27.281  1.00  0.00     0.016 A 
ATOM     26  C   UNL A   1      39.072  24.775  26.569  1.00  0.00     0.010 A 
ATOM     27  C   UNL A   1      40.817  23.588  27.749  1.00  0.00     0.010 A 
ATOM     28  C   UNL A   1      40.244  24.807  27.337  1.00  0.00    -0.014 A 
BRANCH  28  29
ATOM     29  C   UNL A   1      40.953  26.108  27.509  1.00  0.00     0.031 A 
ATOM     30  C   UNL A   1      40.282  27.210  28.293  1.00  0.00     0.074 A 
ATOM     31  C   UNL A   1      42.213  26.295  27.067  1.00  0.00     0.049 A 
ATOM     32  N   UNL A   1      40.762  28.366  28.680  1.00  0.00    -0.248 NA
ATOM     33  C   UNL A   1      38.885  26.981  28.696  1.00  0.00     0.031 C 
ATOM     34  C   UNL A   1      42.997  25.328  26.303  1.00  0.00     0.029 A 
ATOM     35  N   UNL A   1      43.058  27.371  27.213  1.00  0.00    -0.354 N 
ATOM     36  C   UNL A   1      39.723  29.006  29.345  1.00  0.00     0.074 A 
ATOM     37  C   UNL A   1      38.576  28.128  29.278  1.00  0.00     0.031 C 
ATOM     38  C   UNL A   1      44.214  25.847  26.060  1.00  0.00     0.029 A 
ATOM     39  C   UNL A   1      44.292  27.190  26.633  1.00  0.00     0.049 A 
ATOM     40  H   UNL A   1      42.802  28.196  27.688  1.00  0.00     0.167 HD
ATOM     41  C   UNL A   1      39.717  30.202  29.983  1.00  0.00     0.034 A 
ATOM     42  C   UNL A   1      45.365  28.008  26.576  1.00  0.00     0.034 A 
ATOM     43  C   UNL A   1      40.854  31.075  30.085  1.00  0.00     0.049 A 
ATOM     44  C   UNL A   1      45.323  29.353  27.257  1.00  0.00     0.074 A 
ATOM     45  C   UNL A   1      40.957  32.274  30.769  1.00  0.00     0.029 A 
ATOM     46  N   UNL A   1      42.077  30.860  29.471  1.00  0.00    -0.354 N 
ATOM     47  N   UNL A   1      44.380  29.878  28.000  1.00  0.00    -0.248 NA
ATOM     48  C   UNL A   1      46.517  30.206  27.119  1.00  0.00     0.031 C 
ATOM     49  C   UNL A   1      42.229  32.806  30.530  1.00  0.00     0.029 A 
ATOM     50  C   UNL A   1      42.933  31.916  29.735  1.00  0.00     0.049 A 
ATOM     51  H   UNL A   1      42.305  30.071  28.928  1.00  0.00     0.167 HD
ATOM     52  C   UNL A   1      44.880  31.098  28.451  1.00  0.00     0.074 A 
ATOM     53  C   UNL A   1      46.215  31.228  27.910  1.00  0.00     0.031 C 
ATOM     54  C   UNL A   1      44.280  32.027  29.237  1.00  0.00     0.034 A 
BRANCH  41  55
ATOM     55  C   UNL A   1      38.428  30.628  30.638  1.00  0.00     0.023 A 
ATOM     56  C   UNL A   1      38.159  30.259  31.972  1.00  0.00     0.012 A 
ATOM     57  C   UNL A   1      37.492  31.413  29.937  1.00  0.00     0.148 A 
ATOM     58  C   UNL A   1      36.957  30.618  32.580  1.00  0.00     0.002 A 
ATOM     59  C   UNL A   1      36.319  31.811  30.568  1.00  0.00     0.091 A 
ATOM     60  F   UNL A   1      37.752  31.736  28.662  1.00  0.00    -0.205 F 
ATOM     61  C   UNL A   1      36.042  31.402  31.882  1.00  0.00     0.022 A 
BRANCH  59  62
ATOM     62  S   UNL A   1      35.121  32.890  29.777  1.00  0.00     0.127 S 
ATOM     63  O   UNL A   1      34.466  31.972  28.846  1.00  0.00    -0.237 OA
ATOM     64  O   UNL A   1      34.290  33.309  30.906  1.00  0.00    -0.237 OA
ATOM     65  O   UNL A   1      35.894  33.962  29.165  1.00  0.00    -0.744 OA
ENDBRANCH  59  62
ENDBRANCH  41  55
BRANCH  42  66
ATOM     66  C   UNL A   1      46.610  27.557  25.889  1.00  0.00     0.023 A 
ATOM     67  C   UNL A   1      46.781  27.826  24.516  1.00  0.00     0.012 A 
ATOM     68  C   UNL A   1      47.621  26.865  26.584  1.00  0.00     0.148 A 
ATOM     69  C   UNL A   1      47.921  27.389  23.841  1.00  0.00     0.002 A 
ATOM     70  C   UNL A   1      48.779  26.480  25.919  1.00  0.00     0.091 A 
ATOM     71  F   UNL A   1      47.431  26.606  27.885  1.00  0.00    -0.205 F 
ATOM     72  C   UNL A   1      48.924  26.725  24.544  1.00  0.00     0.022 A 
BRANCH  70  73
ATOM     73  S   UNL A   1      50.172  25.724  26.761  1.00  0.00     0.127 S 
ATOM     74  O   UNL A   1      50.495  26.731  27.769  1.00  0.00    -0.237 OA
ATOM     75  O   UNL A   1      49.572  24.496  27.285  1.00  0.00    -0.237 OA
ATOM     76  O   UNL A   1      51.188  25.512  25.738  1.00  0.00    -0.744 OA
ENDBRANCH  70  73
ENDBRANCH  42  66
BRANCH  54  77
ATOM     77  C   UNL A   1      45.067  33.261  29.608  1.00  0.00     0.023 A 
ATOM     78  C   UNL A   1      45.824  33.286  30.797  1.00  0.00     0.012 A 
ATOM     79  C   UNL A   1      45.120  34.368  28.737  1.00  0.00     0.148 A 
ATOM     80  C   UNL A   1      46.591  34.403  31.129  1.00  0.00     0.002 A 
ATOM     81  C   UNL A   1      45.927  35.457  29.049  1.00  0.00     0.091 A 
ATOM     82  F   UNL A   1      44.383  34.337  27.617  1.00  0.00    -0.205 F 
ATOM     83  C   UNL A   1      46.652  35.483  30.251  1.00  0.00     0.022 A 
BRANCH  81  84
ATOM     84  S   UNL A   1      46.146  36.849  27.934  1.00  0.00     0.127 S 
ATOM     85  O   UNL A   1      46.258  36.180  26.639  1.00  0.00    -0.237 OA
ATOM     86  O   UNL A   1      44.905  37.599  28.127  1.00  0.00    -0.237 OA
ATOM     87  O   UNL A   1      47.346  37.541  28.384  1.00  0.00    -0.744 OA
ENDBRANCH  81  84
ENDBRANCH  54  77
ENDBRANCH  28  29
ENDBRANCH  21  23
ENDBRANCH  20  21
ENDBRANCH  19  20
ENDBRANCH  18  19
ENDBRANCH   1  18
TORSDOF 23
ENDMDL
