MODEL 1
REMARK VINA RESULT:     -10.3      0.000      0.000
REMARK SMILES CN(C(=O)N1Cc2nc[nH]c2C[C@@H]1C(=O)OCCOCCOC(=O)c1ccc(-c2c3nc(c(-c4cccc(S(=O)(=O)[O-])c4F)c4ccc([nH]4)c(-c4cccc(S(=O)(=O)[O-])c4F)c4nc(c(-c5cccc(S(=O)(=O)[O-])c5F)c5ccc2[nH]5)C=C4)C=C3)cc1)C1CC1
REMARK SMILES IDX 19 1 18 2 17 3 16 4 14 5 15 6 13 7 5 8 6 9 7 10 12 11 8 12
REMARK SMILES IDX 11 13 9 14 10 15 3 17 4 18 2 19 1 20 88 21 89 22 90 23 20 24
REMARK SMILES IDX 21 25 22 26 23 27 24 28 25 29 26 30 87 31 27 32 86 33 28 34
REMARK SMILES IDX 29 35 30 36 80 37 31 38 85 39 79 40 81 41 32 42 84 43 78 44
REMARK SMILES IDX 77 45 33 47 65 48 45 49 64 50 46 51 49 52 63 53 82 54 47 55
REMARK SMILES IDX 48 56 62 58 83 59 50 60 34 61 35 62 43 63 36 64 38 65 44 66
REMARK SMILES IDX 37 67 39 68 40 69 41 70 42 71 66 72 67 73 75 74 68 75 70 76
REMARK SMILES IDX 76 77 69 78 71 79 72 80 73 81 74 82 51 83 52 84 60 85 53 86
REMARK SMILES IDX 55 87 61 88 54 89 56 90 57 91 58 92 59 93
REMARK H PARENT 10 16 81 46 49 57
REMARK Flexibility Score: inf
ROOT
ATOM      1  O   UNL A   1      33.866  30.485  26.737  1.00  0.00    -0.374 OA
ENDROOT
BRANCH   1   2
ATOM      2  C   UNL A   1      32.629  30.141  26.113  1.00  0.00     0.202 C 
BRANCH   2   3
ATOM      3  C   UNL A   1      31.885  28.894  26.598  1.00  0.00     0.261 C 
BRANCH   3   4
ATOM      4  O   UNL A   1      32.732  27.751  26.789  1.00  0.00    -0.462 OA
BRANCH   4   5
ATOM      5  C   UNL A   1      32.207  26.585  26.335  1.00  0.00     0.329 C 
ATOM      6  O   UNL A   1      31.090  26.162  26.621  1.00  0.00    -0.250 OA
BRANCH   5   7
ATOM      7  C   UNL A   1      33.144  25.831  25.396  1.00  0.00     0.203 C 
ATOM      8  N   UNL A   1      32.848  25.939  23.936  1.00  0.00    -0.304 N 
ATOM      9  C   UNL A   1      33.710  25.223  22.976  1.00  0.00     0.180 C 
ATOM     10  C   UNL A   1      34.476  24.128  23.626  1.00  0.00     0.081 A 
ATOM     11  C   UNL A   1      33.395  24.374  25.892  1.00  0.00     0.093 C 
ATOM     12  N   UNL A   1      35.481  23.416  23.027  1.00  0.00    -0.240 NA
ATOM     13  C   UNL A   1      34.323  23.735  24.933  1.00  0.00     0.042 A 
ATOM     14  C   UNL A   1      35.884  22.559  23.940  1.00  0.00     0.197 A 
ATOM     15  N   UNL A   1      35.201  22.708  25.121  1.00  0.00    -0.348 N 
ATOM     16  H   UNL A   1      35.322  22.178  25.942  1.00  0.00     0.167 HD
BRANCH   8  17
ATOM     17  C   UNL A   1      31.704  26.505  23.409  1.00  0.00     0.321 C 
ATOM     18  O   UNL A   1      30.739  25.784  23.164  1.00  0.00    -0.248 OA
BRANCH  17  19
ATOM     19  N   UNL A   1      31.778  27.853  23.036  1.00  0.00    -0.325 N 
ATOM     20  C   UNL A   1      33.037  28.565  22.781  1.00  0.00     0.149 C 
BRANCH  19  21
ATOM     21  C   UNL A   1      30.611  28.617  22.607  1.00  0.00     0.086 C 
ATOM     22  C   UNL A   1      29.182  28.414  23.021  1.00  0.00     0.027 C 
ATOM     23  C   UNL A   1      29.935  29.622  23.499  1.00  0.00     0.027 C 
ENDBRANCH  19  21
ENDBRANCH  17  19
ENDBRANCH   8  17
ENDBRANCH   5   7
ENDBRANCH   4   5
ENDBRANCH   3   4
ENDBRANCH   2   3
ENDBRANCH   1   2
BRANCH   1  24
ATOM     24  C   UNL A   1      33.893  31.448  27.781  1.00  0.00     0.202 C 
BRANCH  24  25
ATOM     25  C   UNL A   1      33.205  32.787  27.571  1.00  0.00     0.261 C 
BRANCH  25  26
ATOM     26  O   UNL A   1      32.677  33.312  28.777  1.00  0.00    -0.460 OA
BRANCH  26  27
ATOM     27  C   UNL A   1      33.233  34.498  29.122  1.00  0.00     0.338 C 
ATOM     28  O   UNL A   1      32.761  35.605  28.947  1.00  0.00    -0.246 OA
BRANCH  27  29
ATOM     29  C   UNL A   1      34.595  34.260  29.600  1.00  0.00     0.060 A 
ATOM     30  C   UNL A   1      35.616  34.645  28.729  1.00  0.00     0.016 A 
ATOM     31  C   UNL A   1      34.822  33.423  30.704  1.00  0.00     0.016 A 
ATOM     32  C   UNL A   1      36.828  34.012  28.841  1.00  0.00     0.010 A 
ATOM     33  C   UNL A   1      36.033  32.783  30.806  1.00  0.00     0.010 A 
ATOM     34  C   UNL A   1      36.988  33.028  29.826  1.00  0.00    -0.014 A 
BRANCH  34  35
ATOM     35  C   UNL A   1      38.272  32.374  29.894  1.00  0.00     0.031 A 
ATOM     36  C   UNL A   1      38.219  31.019  29.303  1.00  0.00     0.074 A 
ATOM     37  C   UNL A   1      39.372  32.965  30.395  1.00  0.00     0.049 A 
ATOM     38  N   UNL A   1      38.248  29.899  29.943  1.00  0.00    -0.248 NA
ATOM     39  C   UNL A   1      37.846  30.898  27.886  1.00  0.00     0.031 C 
ATOM     40  C   UNL A   1      39.566  34.374  30.740  1.00  0.00     0.029 A 
ATOM     41  N   UNL A   1      40.609  32.433  30.574  1.00  0.00    -0.354 N 
ATOM     42  C   UNL A   1      38.164  28.922  28.958  1.00  0.00     0.074 A 
ATOM     43  C   UNL A   1      37.674  29.580  27.779  1.00  0.00     0.031 C 
ATOM     44  C   UNL A   1      40.895  34.626  30.816  1.00  0.00     0.029 A 
ATOM     45  C   UNL A   1      41.624  33.379  30.648  1.00  0.00     0.049 A 
ATOM     46  H   UNL A   1      40.771  31.464  30.646  1.00  0.00     0.167 HD
ATOM     47  C   UNL A   1      38.800  27.730  29.121  1.00  0.00     0.034 A 
ATOM     48  C   UNL A   1      42.950  33.146  30.468  1.00  0.00     0.034 A 
ATOM     49  C   UNL A   1      39.124  27.508  30.511  1.00  0.00     0.049 A 
ATOM     50  C   UNL A   1      43.174  31.692  30.674  1.00  0.00     0.074 A 
ATOM     51  C   UNL A   1      38.393  27.466  31.683  1.00  0.00     0.029 A 
ATOM     52  N   UNL A   1      40.431  27.709  30.888  1.00  0.00    -0.354 N 
ATOM     53  N   UNL A   1      43.026  31.104  31.828  1.00  0.00    -0.248 NA
ATOM     54  C   UNL A   1      43.086  30.825  29.510  1.00  0.00     0.031 C 
ATOM     55  C   UNL A   1      39.211  28.123  32.649  1.00  0.00     0.029 A 
ATOM     56  C   UNL A   1      40.425  28.446  32.041  1.00  0.00     0.049 A 
ATOM     57  H   UNL A   1      41.229  27.382  30.411  1.00  0.00     0.167 HD
ATOM     58  C   UNL A   1      42.356  29.926  31.523  1.00  0.00     0.074 A 
ATOM     59  C   UNL A   1      42.504  29.764  30.076  1.00  0.00     0.031 C 
ATOM     60  C   UNL A   1      41.485  29.358  32.408  1.00  0.00     0.034 A 
BRANCH  47  61
ATOM     61  C   UNL A   1      39.510  26.983  28.012  1.00  0.00     0.023 A 
ATOM     62  C   UNL A   1      39.232  25.602  27.905  1.00  0.00     0.012 A 
ATOM     63  C   UNL A   1      40.619  27.466  27.279  1.00  0.00     0.148 A 
ATOM     64  C   UNL A   1      40.067  24.736  27.190  1.00  0.00     0.002 A 
ATOM     65  C   UNL A   1      41.405  26.615  26.511  1.00  0.00     0.091 A 
ATOM     66  F   UNL A   1      41.016  28.732  27.400  1.00  0.00    -0.205 F 
ATOM     67  C   UNL A   1      41.155  25.243  26.494  1.00  0.00     0.022 A 
BRANCH  65  68
ATOM     68  S   UNL A   1      42.803  27.223  25.556  1.00  0.00     0.127 S 
ATOM     69  O   UNL A   1      43.259  26.001  24.899  1.00  0.00    -0.237 OA
ATOM     70  O   UNL A   1      42.157  28.197  24.678  1.00  0.00    -0.237 OA
ATOM     71  O   UNL A   1      43.726  27.806  26.523  1.00  0.00    -0.744 OA
ENDBRANCH  65  68
ENDBRANCH  47  61
BRANCH  48  72
ATOM     72  C   UNL A   1      43.974  34.007  29.820  1.00  0.00     0.023 A 
ATOM     73  C   UNL A   1      44.944  34.660  30.611  1.00  0.00     0.012 A 
ATOM     74  C   UNL A   1      44.181  33.969  28.423  1.00  0.00     0.148 A 
ATOM     75  C   UNL A   1      46.089  35.226  30.033  1.00  0.00     0.002 A 
ATOM     76  C   UNL A   1      45.313  34.544  27.852  1.00  0.00     0.091 A 
ATOM     77  F   UNL A   1      43.323  33.283  27.659  1.00  0.00    -0.205 F 
ATOM     78  C   UNL A   1      46.277  35.163  28.655  1.00  0.00     0.022 A 
BRANCH  76  79
ATOM     79  S   UNL A   1      45.619  34.479  26.081  1.00  0.00     0.127 S 
ATOM     80  O   UNL A   1      44.360  34.986  25.535  1.00  0.00    -0.237 OA
ATOM     81  O   UNL A   1      46.758  35.380  25.936  1.00  0.00    -0.237 OA
ATOM     82  O   UNL A   1      45.878  33.077  25.773  1.00  0.00    -0.744 OA
ENDBRANCH  76  79
ENDBRANCH  48  72
BRANCH  60  83
ATOM     83  C   UNL A   1      41.452  29.871  33.825  1.00  0.00     0.023 A 
ATOM     84  C   UNL A   1      42.337  29.421  34.827  1.00  0.00     0.012 A 
ATOM     85  C   UNL A   1      40.630  30.979  34.093  1.00  0.00     0.148 A 
ATOM     86  C   UNL A   1      42.387  30.056  36.071  1.00  0.00     0.002 A 
ATOM     87  C   UNL A   1      40.720  31.638  35.310  1.00  0.00     0.091 A 
ATOM     88  F   UNL A   1      39.791  31.391  33.130  1.00  0.00    -0.205 F 
ATOM     89  C   UNL A   1      41.591  31.175  36.308  1.00  0.00     0.022 A 
BRANCH  87  90
ATOM     90  S   UNL A   1      39.818  33.158  35.612  1.00  0.00     0.127 S 
ATOM     91  O   UNL A   1      38.435  32.687  35.658  1.00  0.00    -0.237 OA
ATOM     92  O   UNL A   1      40.360  33.597  36.898  1.00  0.00    -0.237 OA
ATOM     93  O   UNL A   1      40.142  34.044  34.499  1.00  0.00    -0.744 OA
ENDBRANCH  87  90
ENDBRANCH  60  83
ENDBRANCH  34  35
ENDBRANCH  27  29
ENDBRANCH  26  27
ENDBRANCH  25  26
ENDBRANCH  24  25
ENDBRANCH   1  24
TORSDOF 20
ENDMDL
MODEL 2
REMARK VINA RESULT:     -10.0      2.992      7.558
REMARK SMILES CN(C(=O)N1Cc2nc[nH]c2C[C@@H]1C(=O)OCCOCCOC(=O)c1ccc(-c2c3nc(c(-c4cccc(S(=O)(=O)[O-])c4F)c4ccc([nH]4)c(-c4cccc(S(=O)(=O)[O-])c4F)c4nc(c(-c5cccc(S(=O)(=O)[O-])c5F)c5ccc2[nH]5)C=C4)C=C3)cc1)C1CC1
REMARK SMILES IDX 19 1 18 2 17 3 16 4 14 5 15 6 13 7 5 8 6 9 7 10 12 11 8 12
REMARK SMILES IDX 11 13 9 14 10 15 3 17 4 18 2 19 1 20 88 21 89 22 90 23 20 24
REMARK SMILES IDX 21 25 22 26 23 27 24 28 25 29 26 30 87 31 27 32 86 33 28 34
REMARK SMILES IDX 29 35 30 36 80 37 31 38 85 39 79 40 81 41 32 42 84 43 78 44
REMARK SMILES IDX 77 45 33 47 65 48 45 49 64 50 46 51 49 52 63 53 82 54 47 55
REMARK SMILES IDX 48 56 62 58 83 59 50 60 34 61 35 62 43 63 36 64 38 65 44 66
REMARK SMILES IDX 37 67 39 68 40 69 41 70 42 71 66 72 67 73 75 74 68 75 70 76
REMARK SMILES IDX 76 77 69 78 71 79 72 80 73 81 74 82 51 83 52 84 60 85 53 86
REMARK SMILES IDX 55 87 61 88 54 89 56 90 57 91 58 92 59 93
REMARK H PARENT 10 16 81 46 49 57
REMARK Flexibility Score: inf
ROOT
ATOM      1  O   UNL A   1      36.799  22.033  24.171  1.00  0.00    -0.374 OA
ENDROOT
BRANCH   1   2
ATOM      2  C   UNL A   1      36.160  22.961  23.295  1.00  0.00     0.202 C 
BRANCH   2   3
ATOM      3  C   UNL A   1      34.727  23.398  23.609  1.00  0.00     0.261 C 
BRANCH   3   4
ATOM      4  O   UNL A   1      34.638  24.680  24.246  1.00  0.00    -0.462 OA
BRANCH   4   5
ATOM      5  C   UNL A   1      34.160  24.641  25.516  1.00  0.00     0.329 C 
ATOM      6  O   UNL A   1      34.241  23.670  26.264  1.00  0.00    -0.250 OA
BRANCH   5   7
ATOM      7  C   UNL A   1      33.511  25.951  25.954  1.00  0.00     0.203 C 
ATOM      8  N   UNL A   1      32.076  25.877  26.357  1.00  0.00    -0.304 N 
ATOM      9  C   UNL A   1      31.386  27.111  26.779  1.00  0.00     0.180 C 
ATOM     10  C   UNL A   1      32.091  28.331  26.307  1.00  0.00     0.081 A 
ATOM     11  C   UNL A   1      33.837  27.107  24.959  1.00  0.00     0.093 C 
ATOM     12  N   UNL A   1      31.786  29.608  26.695  1.00  0.00    -0.240 NA
ATOM     13  C   UNL A   1      33.184  28.331  25.475  1.00  0.00     0.042 A 
ATOM     14  C   UNL A   1      32.642  30.374  26.051  1.00  0.00     0.197 A 
ATOM     15  N   UNL A   1      33.513  29.641  25.286  1.00  0.00    -0.348 N 
ATOM     16  H   UNL A   1      34.233  29.992  24.714  1.00  0.00     0.167 HD
BRANCH   8  17
ATOM     17  C   UNL A   1      31.270  24.768  26.185  1.00  0.00     0.321 C 
ATOM     18  O   UNL A   1      30.923  24.122  27.172  1.00  0.00    -0.248 OA
BRANCH  17  19
ATOM     19  N   UNL A   1      31.031  24.358  24.867  1.00  0.00    -0.325 N 
ATOM     20  C   UNL A   1      31.353  23.021  24.353  1.00  0.00     0.149 C 
BRANCH  19  21
ATOM     21  C   UNL A   1      30.199  25.123  23.944  1.00  0.00     0.086 C 
ATOM     22  C   UNL A   1      29.576  26.470  24.174  1.00  0.00     0.027 C 
ATOM     23  C   UNL A   1      30.714  26.327  23.205  1.00  0.00     0.027 C 
ENDBRANCH  19  21
ENDBRANCH  17  19
ENDBRANCH   8  17
ENDBRANCH   5   7
ENDBRANCH   4   5
ENDBRANCH   3   4
ENDBRANCH   2   3
ENDBRANCH   1   2
BRANCH   1  24
ATOM     24  C   UNL A   1      37.372  22.484  25.391  1.00  0.00     0.202 C 
BRANCH  24  25
ATOM     25  C   UNL A   1      38.676  21.867  25.869  1.00  0.00     0.261 C 
BRANCH  25  26
ATOM     26  O   UNL A   1      39.304  22.652  26.868  1.00  0.00    -0.460 OA
BRANCH  26  27
ATOM     27  C   UNL A   1      40.619  22.863  26.620  1.00  0.00     0.338 C 
ATOM     28  O   UNL A   1      41.454  22.024  26.340  1.00  0.00    -0.246 OA
BRANCH  27  29
ATOM     29  C   UNL A   1      40.936  24.261  26.908  1.00  0.00     0.060 A 
ATOM     30  C   UNL A   1      42.017  24.472  27.764  1.00  0.00     0.016 A 
ATOM     31  C   UNL A   1      40.017  25.275  26.592  1.00  0.00     0.016 A 
ATOM     32  C   UNL A   1      42.053  25.643  28.478  1.00  0.00     0.010 A 
ATOM     33  C   UNL A   1      40.049  26.442  27.315  1.00  0.00     0.010 A 
ATOM     34  C   UNL A   1      41.019  26.573  28.303  1.00  0.00    -0.014 A 
BRANCH  34  35
ATOM     35  C   UNL A   1      41.086  27.781  29.089  1.00  0.00     0.031 A 
ATOM     36  C   UNL A   1      42.167  28.672  28.617  1.00  0.00     0.074 A 
ATOM     37  C   UNL A   1      40.230  28.054  30.091  1.00  0.00     0.049 A 
ATOM     38  N   UNL A   1      43.291  28.898  29.207  1.00  0.00    -0.248 NA
ATOM     39  C   UNL A   1      42.099  29.166  27.233  1.00  0.00     0.031 C 
ATOM     40  C   UNL A   1      38.987  27.362  30.434  1.00  0.00     0.029 A 
ATOM     41  N   UNL A   1      40.235  29.114  30.939  1.00  0.00    -0.354 N 
ATOM     42  C   UNL A   1      43.961  29.788  28.375  1.00  0.00     0.074 A 
ATOM     43  C   UNL A   1      43.308  29.713  27.098  1.00  0.00     0.031 C 
ATOM     44  C   UNL A   1      38.238  28.173  31.219  1.00  0.00     0.029 A 
ATOM     45  C   UNL A   1      39.001  29.373  31.525  1.00  0.00     0.049 A 
ATOM     46  H   UNL A   1      41.040  29.650  31.124  1.00  0.00     0.167 HD
ATOM     47  C   UNL A   1      44.791  30.728  28.904  1.00  0.00     0.034 A 
ATOM     48  C   UNL A   1      38.622  30.537  32.112  1.00  0.00     0.034 A 
ATOM     49  C   UNL A   1      45.175  30.373  30.251  1.00  0.00     0.049 A 
ATOM     50  C   UNL A   1      39.862  31.278  32.461  1.00  0.00     0.074 A 
ATOM     51  C   UNL A   1      45.782  29.273  30.827  1.00  0.00     0.029 A 
ATOM     52  N   UNL A   1      44.549  31.041  31.276  1.00  0.00    -0.354 N 
ATOM     53  N   UNL A   1      40.709  30.869  33.364  1.00  0.00    -0.248 NA
ATOM     54  C   UNL A   1      40.394  32.204  31.472  1.00  0.00     0.031 C 
ATOM     55  C   UNL A   1      45.091  29.078  32.059  1.00  0.00     0.029 A 
ATOM     56  C   UNL A   1      44.168  30.115  32.208  1.00  0.00     0.049 A 
ATOM     57  H   UNL A   1      44.402  32.014  31.329  1.00  0.00     0.167 HD
ATOM     58  C   UNL A   1      41.952  31.086  32.783  1.00  0.00     0.074 A 
ATOM     59  C   UNL A   1      41.700  31.994  31.664  1.00  0.00     0.031 C 
ATOM     60  C   UNL A   1      43.014  30.275  33.064  1.00  0.00     0.034 A 
BRANCH  47  61
ATOM     61  C   UNL A   1      44.902  32.150  28.396  1.00  0.00     0.023 A 
ATOM     62  C   UNL A   1      46.205  32.613  28.103  1.00  0.00     0.012 A 
ATOM     63  C   UNL A   1      43.882  33.127  28.465  1.00  0.00     0.148 A 
ATOM     64  C   UNL A   1      46.492  33.976  27.985  1.00  0.00     0.002 A 
ATOM     65  C   UNL A   1      44.158  34.476  28.275  1.00  0.00     0.091 A 
ATOM     66  F   UNL A   1      42.646  32.795  28.836  1.00  0.00    -0.205 F 
ATOM     67  C   UNL A   1      45.468  34.909  28.073  1.00  0.00     0.022 A 
BRANCH  65  68
ATOM     68  S   UNL A   1      42.864  35.724  28.338  1.00  0.00     0.127 S 
ATOM     69  O   UNL A   1      43.646  36.945  28.505  1.00  0.00    -0.237 OA
ATOM     70  O   UNL A   1      42.237  35.562  27.026  1.00  0.00    -0.237 OA
ATOM     71  O   UNL A   1      42.009  35.360  29.460  1.00  0.00    -0.744 OA
ENDBRANCH  65  68
ENDBRANCH  47  61
BRANCH  48  72
ATOM     72  C   UNL A   1      37.294  31.204  32.104  1.00  0.00     0.023 A 
ATOM     73  C   UNL A   1      36.747  31.695  33.309  1.00  0.00     0.012 A 
ATOM     74  C   UNL A   1      36.689  31.610  30.893  1.00  0.00     0.148 A 
ATOM     75  C   UNL A   1      35.660  32.580  33.304  1.00  0.00     0.002 A 
ATOM     76  C   UNL A   1      35.601  32.478  30.893  1.00  0.00     0.091 A 
ATOM     77  F   UNL A   1      37.238  31.228  29.734  1.00  0.00    -0.205 F 
ATOM     78  C   UNL A   1      35.091  32.977  32.097  1.00  0.00     0.022 A 
BRANCH  76  79
ATOM     79  S   UNL A   1      34.835  33.040  29.366  1.00  0.00     0.127 S 
ATOM     80  O   UNL A   1      33.707  33.828  29.863  1.00  0.00    -0.237 OA
ATOM     81  O   UNL A   1      35.908  33.820  28.757  1.00  0.00    -0.237 OA
ATOM     82  O   UNL A   1      34.446  31.832  28.648  1.00  0.00    -0.744 OA
ENDBRANCH  76  79
ENDBRANCH  48  72
BRANCH  60  83
ATOM     83  C   UNL A   1      42.902  29.302  34.209  1.00  0.00     0.023 A 
ATOM     84  C   UNL A   1      42.248  28.057  34.101  1.00  0.00     0.012 A 
ATOM     85  C   UNL A   1      43.651  29.578  35.367  1.00  0.00     0.148 A 
ATOM     86  C   UNL A   1      42.330  27.117  35.133  1.00  0.00     0.002 A 
ATOM     87  C   UNL A   1      43.772  28.621  36.364  1.00  0.00     0.091 A 
ATOM     88  F   UNL A   1      44.263  30.768  35.455  1.00  0.00    -0.205 F 
ATOM     89  C   UNL A   1      43.105  27.392  36.257  1.00  0.00     0.022 A 
BRANCH  87  90
ATOM     90  S   UNL A   1      44.864  28.874  37.764  1.00  0.00     0.127 S 
ATOM     91  O   UNL A   1      46.170  28.981  37.116  1.00  0.00    -0.237 OA
ATOM     92  O   UNL A   1      44.360  30.124  38.336  1.00  0.00    -0.237 OA
ATOM     93  O   UNL A   1      44.685  27.713  38.628  1.00  0.00    -0.744 OA
ENDBRANCH  87  90
ENDBRANCH  60  83
ENDBRANCH  34  35
ENDBRANCH  27  29
ENDBRANCH  26  27
ENDBRANCH  25  26
ENDBRANCH  24  25
ENDBRANCH   1  24
TORSDOF 20
ENDMDL
MODEL 3
REMARK VINA RESULT:     -10.0      3.022      7.504
REMARK SMILES CN(C(=O)N1Cc2nc[nH]c2C[C@@H]1C(=O)OCCOCCOC(=O)c1ccc(-c2c3nc(c(-c4cccc(S(=O)(=O)[O-])c4F)c4ccc([nH]4)c(-c4cccc(S(=O)(=O)[O-])c4F)c4nc(c(-c5cccc(S(=O)(=O)[O-])c5F)c5ccc2[nH]5)C=C4)C=C3)cc1)C1CC1
REMARK SMILES IDX 19 1 18 2 17 3 16 4 14 5 15 6 13 7 5 8 6 9 7 10 12 11 8 12
REMARK SMILES IDX 11 13 9 14 10 15 3 17 4 18 2 19 1 20 88 21 89 22 90 23 20 24
REMARK SMILES IDX 21 25 22 26 23 27 24 28 25 29 26 30 87 31 27 32 86 33 28 34
REMARK SMILES IDX 29 35 30 36 80 37 31 38 85 39 79 40 81 41 32 42 84 43 78 44
REMARK SMILES IDX 77 45 33 47 65 48 45 49 64 50 46 51 49 52 63 53 82 54 47 55
REMARK SMILES IDX 48 56 62 58 83 59 50 60 34 61 35 62 43 63 36 64 38 65 44 66
REMARK SMILES IDX 37 67 39 68 40 69 41 70 42 71 66 72 67 73 75 74 68 75 70 76
REMARK SMILES IDX 76 77 69 78 71 79 72 80 73 81 74 82 51 83 52 84 60 85 53 86
REMARK SMILES IDX 55 87 61 88 54 89 56 90 57 91 58 92 59 93
REMARK H PARENT 10 16 81 46 49 57
REMARK Flexibility Score: inf
ROOT
ATOM      1  O   UNL A   1      32.545  28.199  25.787  1.00  0.00    -0.374 OA
ENDROOT
BRANCH   1   2
ATOM      2  C   UNL A   1      31.792  27.026  25.481  1.00  0.00     0.202 C 
BRANCH   2   3
ATOM      3  C   UNL A   1      32.298  26.100  24.372  1.00  0.00     0.261 C 
BRANCH   3   4
ATOM      4  O   UNL A   1      32.053  24.708  24.622  1.00  0.00    -0.462 OA
BRANCH   4   5
ATOM      5  C   UNL A   1      32.391  23.888  23.594  1.00  0.00     0.329 C 
ATOM      6  O   UNL A   1      32.371  24.208  22.408  1.00  0.00    -0.250 OA
BRANCH   5   7
ATOM      7  C   UNL A   1      32.826  22.499  24.054  1.00  0.00     0.203 C 
ATOM      8  N   UNL A   1      34.290  22.301  24.269  1.00  0.00    -0.304 N 
ATOM      9  C   UNL A   1      34.777  20.977  24.701  1.00  0.00     0.180 C 
ATOM     10  C   UNL A   1      33.789  19.902  24.421  1.00  0.00     0.081 A 
ATOM     11  C   UNL A   1      32.146  21.381  23.205  1.00  0.00     0.093 C 
ATOM     12  N   UNL A   1      33.890  18.613  24.872  1.00  0.00    -0.240 NA
ATOM     13  C   UNL A   1      32.614  20.080  23.734  1.00  0.00     0.042 A 
ATOM     14  C   UNL A   1      32.821  18.004  24.405  1.00  0.00     0.197 A 
ATOM     15  N   UNL A   1      32.013  18.856  23.696  1.00  0.00    -0.348 N 
ATOM     16  H   UNL A   1      31.166  18.628  23.248  1.00  0.00     0.167 HD
BRANCH   8  17
ATOM     17  C   UNL A   1      35.265  23.211  23.908  1.00  0.00     0.321 C 
ATOM     18  O   UNL A   1      35.587  23.303  22.725  1.00  0.00    -0.248 OA
BRANCH  17  19
ATOM     19  N   UNL A   1      35.941  23.860  24.949  1.00  0.00    -0.325 N 
ATOM     20  C   UNL A   1      35.272  24.492  26.093  1.00  0.00     0.149 C 
BRANCH  19  21
ATOM     21  C   UNL A   1      37.383  23.747  25.142  1.00  0.00     0.086 C 
ATOM     22  C   UNL A   1      38.157  23.974  26.409  1.00  0.00     0.027 C 
ATOM     23  C   UNL A   1      38.010  22.584  25.862  1.00  0.00     0.027 C 
ENDBRANCH  19  21
ENDBRANCH  17  19
ENDBRANCH   8  17
ENDBRANCH   5   7
ENDBRANCH   4   5
ENDBRANCH   3   4
ENDBRANCH   2   3
ENDBRANCH   1   2
BRANCH   1  24
ATOM     24  C   UNL A   1      31.959  29.484  25.624  1.00  0.00     0.202 C 
BRANCH  24  25
ATOM     25  C   UNL A   1      32.353  30.602  26.575  1.00  0.00     0.261 C 
BRANCH  25  26
ATOM     26  O   UNL A   1      33.417  30.225  27.432  1.00  0.00    -0.460 OA
BRANCH  26  27
ATOM     27  C   UNL A   1      34.129  31.286  27.882  1.00  0.00     0.338 C 
ATOM     28  O   UNL A   1      33.697  32.381  28.186  1.00  0.00    -0.246 OA
BRANCH  27  29
ATOM     29  C   UNL A   1      35.555  30.970  27.791  1.00  0.00     0.060 A 
ATOM     30  C   UNL A   1      35.865  29.623  27.602  1.00  0.00     0.016 A 
ATOM     31  C   UNL A   1      36.516  31.916  28.184  1.00  0.00     0.016 A 
ATOM     32  C   UNL A   1      37.095  29.181  28.020  1.00  0.00     0.010 A 
ATOM     33  C   UNL A   1      37.742  31.469  28.611  1.00  0.00     0.010 A 
ATOM     34  C   UNL A   1      37.982  30.100  28.598  1.00  0.00    -0.014 A 
BRANCH  34  35
ATOM     35  C   UNL A   1      39.255  29.588  29.041  1.00  0.00     0.031 A 
ATOM     36  C   UNL A   1      39.484  29.878  30.473  1.00  0.00     0.074 A 
ATOM     37  C   UNL A   1      40.088  28.897  28.242  1.00  0.00     0.049 A 
ATOM     38  N   UNL A   1      40.302  30.748  30.961  1.00  0.00    -0.248 NA
ATOM     39  C   UNL A   1      38.533  29.328  31.450  1.00  0.00     0.031 C 
ATOM     40  C   UNL A   1      39.817  28.341  26.915  1.00  0.00     0.029 A 
ATOM     41  N   UNL A   1      41.331  28.427  28.522  1.00  0.00    -0.354 N 
ATOM     42  C   UNL A   1      40.149  30.652  32.339  1.00  0.00     0.074 A 
ATOM     43  C   UNL A   1      38.904  29.971  32.558  1.00  0.00     0.031 C 
ATOM     44  C   UNL A   1      40.747  27.396  26.639  1.00  0.00     0.029 A 
ATOM     45  C   UNL A   1      41.734  27.375  27.708  1.00  0.00     0.049 A 
ATOM     46  H   UNL A   1      41.897  28.800  29.237  1.00  0.00     0.167 HD
ATOM     47  C   UNL A   1      41.210  30.868  33.162  1.00  0.00     0.034 A 
ATOM     48  C   UNL A   1      42.735  26.497  27.971  1.00  0.00     0.034 A 
ATOM     49  C   UNL A   1      42.256  31.589  32.473  1.00  0.00     0.049 A 
ATOM     50  C   UNL A   1      43.620  27.128  28.984  1.00  0.00     0.074 A 
ATOM     51  C   UNL A   1      42.320  32.795  31.801  1.00  0.00     0.029 A 
ATOM     52  N   UNL A   1      43.344  30.862  32.053  1.00  0.00    -0.354 N 
ATOM     53  N   UNL A   1      44.344  28.185  28.740  1.00  0.00    -0.248 NA
ATOM     54  C   UNL A   1      43.325  26.877  30.387  1.00  0.00     0.031 C 
ATOM     55  C   UNL A   1      43.150  32.539  30.670  1.00  0.00     0.029 A 
ATOM     56  C   UNL A   1      43.617  31.227  30.763  1.00  0.00     0.049 A 
ATOM     57  H   UNL A   1      43.838  30.196  32.585  1.00  0.00     0.167 HD
ATOM     58  C   UNL A   1      44.181  28.974  29.871  1.00  0.00     0.074 A 
ATOM     59  C   UNL A   1      43.623  28.080  30.887  1.00  0.00     0.031 C 
ATOM     60  C   UNL A   1      44.216  30.337  29.793  1.00  0.00     0.034 A 
BRANCH  47  61
ATOM     61  C   UNL A   1      41.492  30.069  34.417  1.00  0.00     0.023 A 
ATOM     62  C   UNL A   1      42.009  30.788  35.518  1.00  0.00     0.012 A 
ATOM     63  C   UNL A   1      41.562  28.658  34.492  1.00  0.00     0.148 A 
ATOM     64  C   UNL A   1      42.646  30.144  36.584  1.00  0.00     0.002 A 
ATOM     65  C   UNL A   1      42.131  28.018  35.586  1.00  0.00     0.091 A 
ATOM     66  F   UNL A   1      41.193  27.903  33.457  1.00  0.00    -0.205 F 
ATOM     67  C   UNL A   1      42.708  28.758  36.617  1.00  0.00     0.022 A 
BRANCH  65  68
ATOM     68  S   UNL A   1      42.202  26.224  35.702  1.00  0.00     0.127 S 
ATOM     69  O   UNL A   1      43.005  25.889  34.529  1.00  0.00    -0.237 OA
ATOM     70  O   UNL A   1      42.873  26.039  36.988  1.00  0.00    -0.237 OA
ATOM     71  O   UNL A   1      40.819  25.765  35.676  1.00  0.00    -0.744 OA
ENDBRANCH  65  68
ENDBRANCH  47  61
BRANCH  48  72
ATOM     72  C   UNL A   1      42.813  25.044  27.669  1.00  0.00     0.023 A 
ATOM     73  C   UNL A   1      41.723  24.203  27.980  1.00  0.00     0.012 A 
ATOM     74  C   UNL A   1      43.824  24.527  26.828  1.00  0.00     0.148 A 
ATOM     75  C   UNL A   1      41.630  22.908  27.449  1.00  0.00     0.002 A 
ATOM     76  C   UNL A   1      43.735  23.236  26.314  1.00  0.00     0.091 A 
ATOM     77  F   UNL A   1      44.825  25.329  26.449  1.00  0.00    -0.205 F 
ATOM     78  C   UNL A   1      42.633  22.427  26.612  1.00  0.00     0.022 A 
BRANCH  76  79
ATOM     79  S   UNL A   1      44.990  22.565  25.213  1.00  0.00     0.127 S 
ATOM     80  O   UNL A   1      46.208  22.719  26.009  1.00  0.00    -0.237 OA
ATOM     81  O   UNL A   1      44.538  21.188  25.041  1.00  0.00    -0.237 OA
ATOM     82  O   UNL A   1      44.954  23.397  24.015  1.00  0.00    -0.744 OA
ENDBRANCH  76  79
ENDBRANCH  48  72
BRANCH  60  83
ATOM     83  C   UNL A   1      44.698  30.979  28.518  1.00  0.00     0.023 A 
ATOM     84  C   UNL A   1      43.840  31.294  27.443  1.00  0.00     0.012 A 
ATOM     85  C   UNL A   1      46.022  31.451  28.491  1.00  0.00     0.148 A 
ATOM     86  C   UNL A   1      44.301  32.051  26.362  1.00  0.00     0.002 A 
ATOM     87  C   UNL A   1      46.459  32.246  27.442  1.00  0.00     0.091 A 
ATOM     88  F   UNL A   1      46.825  31.138  29.520  1.00  0.00    -0.205 F 
ATOM     89  C   UNL A   1      45.605  32.541  26.369  1.00  0.00     0.022 A 
BRANCH  87  90
ATOM     90  S   UNL A   1      48.082  33.009  27.471  1.00  0.00     0.127 S 
ATOM     91  O   UNL A   1      48.887  31.987  28.135  1.00  0.00    -0.237 OA
ATOM     92  O   UNL A   1      48.371  33.189  26.047  1.00  0.00    -0.237 OA
ATOM     93  O   UNL A   1      47.923  34.259  28.205  1.00  0.00    -0.744 OA
ENDBRANCH  87  90
ENDBRANCH  60  83
ENDBRANCH  34  35
ENDBRANCH  27  29
ENDBRANCH  26  27
ENDBRANCH  25  26
ENDBRANCH  24  25
ENDBRANCH   1  24
TORSDOF 20
ENDMDL
