MODEL 1
REMARK VINA RESULT:     -12.4      0.000      0.000
REMARK SMILES CC(C)(C)[N@@H+](CCC(=O)OCCOCCOC(=O)c1ccc(-c2c3nc(c(-c4cccc(S(=O)(=O)[O-])c4F)c4ccc([nH]4)c(-c4cccc(S(=O)(=O)[O-])c4F)c4nc(c(-c5cccc(S(=O)(=O)[O-])c5F)c5ccc2[nH]5)C=C4)C=C3)cc1)C[C@H]1COc2ccccc21
REMARK SMILES IDX 12 1 11 2 10 3 8 4 9 5 7 6 6 7 5 8 2 10 1 11 3 12 4 13 82 14
REMARK SMILES IDX 83 15 84 16 91 17 85 18 86 19 90 20 87 21 89 22 88 23 13 24
REMARK SMILES IDX 14 25 15 26 16 27 17 28 18 29 19 30 20 31 81 32 21 33 80 34
REMARK SMILES IDX 22 35 23 36 24 37 74 38 25 39 79 40 73 41 75 42 26 43 78 44
REMARK SMILES IDX 72 45 71 46 27 48 59 49 39 50 58 51 40 52 43 53 57 54 76 55
REMARK SMILES IDX 41 56 42 57 56 59 77 60 44 61 28 62 29 63 37 64 30 65 32 66
REMARK SMILES IDX 38 67 31 68 33 69 34 70 35 71 36 72 60 73 61 74 69 75 62 76
REMARK SMILES IDX 64 77 70 78 63 79 65 80 66 81 67 82 68 83 45 84 46 85 54 86
REMARK SMILES IDX 47 87 49 88 55 89 48 90 50 91 51 92 52 93 53 94
REMARK H PARENT 5 9 75 47 43 58
REMARK Flexibility Score: inf
ROOT
ATOM      1  C   UNL A   1      31.305  28.917  24.635  1.00  0.00     0.202 C 
ENDROOT
BRANCH   1   2
ATOM      2  C   UNL A   1      32.538  28.028  23.057  1.00  0.00     0.261 C 
BRANCH   2   3
ATOM      3  O   UNL A   1      31.990  26.847  21.922  1.00  0.00    -0.463 OA
BRANCH   3   4
ATOM      4  C   UNL A   1      32.734  25.828  21.415  1.00  0.00     0.311 C 
ATOM      5  O   UNL A   1      33.109  25.811  20.243  1.00  0.00    -0.252 OA
BRANCH   4   6
ATOM      6  C   UNL A   1      33.175  24.707  22.416  1.00  0.00     0.184 C 
BRANCH   6   7
ATOM      7  C   UNL A   1      33.445  24.770  23.970  1.00  0.00     0.274 C 
BRANCH   7   8
ATOM      8  N   UNL A   1      32.713  24.109  25.083  1.00  0.00    -0.330 N 
ATOM      9  H   UNL A   1      32.138  23.462  24.544  1.00  0.00     0.348 HD
BRANCH   8  10
ATOM     10  C   UNL A   1      31.511  24.725  25.710  1.00  0.00     0.089 C 
ATOM     11  C   UNL A   1      30.850  23.647  26.595  1.00  0.00     0.078 C 
ATOM     12  C   UNL A   1      30.457  25.241  24.716  1.00  0.00     0.078 C 
ATOM     13  C   UNL A   1      31.817  25.913  26.671  1.00  0.00     0.078 C 
ENDBRANCH   8  10
BRANCH   8  14
ATOM     14  C   UNL A   1      33.591  23.321  25.955  1.00  0.00     0.274 C 
BRANCH  14  15
ATOM     15  C   UNL A   1      34.403  22.407  25.084  1.00  0.00     0.116 C 
ATOM     16  C   UNL A   1      35.922  22.278  25.418  1.00  0.00     0.244 C 
ATOM     17  C   UNL A   1      33.895  21.017  24.982  1.00  0.00     0.006 A 
ATOM     18  O   UNL A   1      36.466  20.934  25.339  1.00  0.00    -0.492 OA
ATOM     19  C   UNL A   1      35.419  20.131  25.031  1.00  0.00     0.123 A 
ATOM     20  C   UNL A   1      32.379  20.183  24.363  1.00  0.00     0.008 A 
ATOM     21  C   UNL A   1      35.517  18.457  24.540  1.00  0.00     0.047 A 
ATOM     22  C   UNL A   1      32.477  18.436  23.872  1.00  0.00     0.001 A 
ATOM     23  C   UNL A   1      34.068  17.609  23.941  1.00  0.00     0.004 A 
ENDBRANCH  14  15
ENDBRANCH   8  14
ENDBRANCH   7   8
ENDBRANCH   6   7
ENDBRANCH   4   6
ENDBRANCH   3   4
ENDBRANCH   2   3
ENDBRANCH   1   2
BRANCH   1  24
ATOM     24  O   UNL A   1      31.218  30.472  25.186  1.00  0.00    -0.374 OA
BRANCH  24  25
ATOM     25  C   UNL A   1      31.810  30.867  26.453  1.00  0.00     0.202 C 
BRANCH  25  26
ATOM     26  C   UNL A   1      31.653  32.296  26.947  1.00  0.00     0.261 C 
BRANCH  26  27
ATOM     27  O   UNL A   1      32.899  32.976  26.801  1.00  0.00    -0.460 OA
BRANCH  27  28
ATOM     28  C   UNL A   1      33.406  33.368  27.987  1.00  0.00     0.338 C 
ATOM     29  O   UNL A   1      32.853  34.045  28.837  1.00  0.00    -0.246 OA
BRANCH  28  30
ATOM     30  C   UNL A   1      34.705  32.713  28.188  1.00  0.00     0.060 A 
ATOM     31  C   UNL A   1      34.679  31.326  28.372  1.00  0.00     0.016 A 
ATOM     32  C   UNL A   1      35.906  33.427  28.235  1.00  0.00     0.016 A 
ATOM     33  C   UNL A   1      35.844  30.653  28.695  1.00  0.00     0.010 A 
ATOM     34  C   UNL A   1      37.076  32.753  28.578  1.00  0.00     0.010 A 
ATOM     35  C   UNL A   1      37.028  31.378  28.865  1.00  0.00    -0.014 A 
BRANCH  35  36
ATOM     36  C   UNL A   1      38.133  30.738  29.601  1.00  0.00     0.031 A 
ATOM     37  C   UNL A   1      38.345  31.141  31.033  1.00  0.00     0.074 A 
ATOM     38  C   UNL A   1      38.891  29.792  29.027  1.00  0.00     0.049 A 
ATOM     39  N   UNL A   1      39.244  30.727  31.883  1.00  0.00    -0.248 NA
ATOM     40  C   UNL A   1      37.413  32.144  31.580  1.00  0.00     0.031 C 
ATOM     41  C   UNL A   1      38.738  29.301  27.660  1.00  0.00     0.029 A 
ATOM     42  N   UNL A   1      39.957  29.091  29.525  1.00  0.00    -0.354 N 
ATOM     43  C   UNL A   1      39.004  31.433  33.054  1.00  0.00     0.074 A 
ATOM     44  C   UNL A   1      37.885  32.313  32.805  1.00  0.00     0.031 C 
ATOM     45  C   UNL A   1      39.704  28.399  27.414  1.00  0.00     0.029 A 
ATOM     46  C   UNL A   1      40.552  28.274  28.596  1.00  0.00     0.049 A 
ATOM     47  H   UNL A   1      40.266  29.165  30.457  1.00  0.00     0.167 HD
ATOM     48  C   UNL A   1      39.654  31.348  34.237  1.00  0.00     0.034 A 
ATOM     49  C   UNL A   1      41.674  27.535  28.690  1.00  0.00     0.034 A 
ATOM     50  C   UNL A   1      40.771  30.474  34.471  1.00  0.00     0.049 A 
ATOM     51  C   UNL A   1      42.419  27.506  30.000  1.00  0.00     0.074 A 
ATOM     52  C   UNL A   1      41.490  30.294  35.637  1.00  0.00     0.029 A 
ATOM     53  N   UNL A   1      41.345  29.655  33.511  1.00  0.00    -0.354 N 
ATOM     54  N   UNL A   1      42.132  28.108  31.129  1.00  0.00    -0.248 NA
ATOM     55  C   UNL A   1      43.624  26.667  30.058  1.00  0.00     0.031 C 
ATOM     56  C   UNL A   1      42.534  29.404  35.368  1.00  0.00     0.029 A 
ATOM     57  C   UNL A   1      42.426  28.982  34.051  1.00  0.00     0.049 A 
ATOM     58  H   UNL A   1      41.031  29.566  32.582  1.00  0.00     0.167 HD
ATOM     59  C   UNL A   1      43.095  27.690  32.042  1.00  0.00     0.074 A 
ATOM     60  C   UNL A   1      43.963  26.770  31.336  1.00  0.00     0.031 C 
ATOM     61  C   UNL A   1      43.251  28.037  33.343  1.00  0.00     0.034 A 
BRANCH  48  62
ATOM     62  C   UNL A   1      39.181  32.234  35.357  1.00  0.00     0.023 A 
ATOM     63  C   UNL A   1      38.175  31.788  36.237  1.00  0.00     0.012 A 
ATOM     64  C   UNL A   1      39.761  33.501  35.556  1.00  0.00     0.148 A 
ATOM     65  C   UNL A   1      37.729  32.604  37.277  1.00  0.00     0.002 A 
ATOM     66  C   UNL A   1      39.349  34.287  36.624  1.00  0.00     0.091 A 
ATOM     67  F   UNL A   1      40.699  33.917  34.692  1.00  0.00    -0.205 F 
ATOM     68  C   UNL A   1      38.323  33.847  37.477  1.00  0.00     0.022 A 
BRANCH  66  69
ATOM     69  S   UNL A   1      40.107  35.867  37.012  1.00  0.00     0.127 S 
ATOM     70  O   UNL A   1      39.765  36.656  35.828  1.00  0.00    -0.237 OA
ATOM     71  O   UNL A   1      39.396  36.255  38.230  1.00  0.00    -0.237 OA
ATOM     72  O   UNL A   1      41.527  35.602  37.191  1.00  0.00    -0.744 OA
ENDBRANCH  66  69
ENDBRANCH  48  62
BRANCH  49  73
ATOM     73  C   UNL A   1      42.161  26.766  27.513  1.00  0.00     0.023 A 
ATOM     74  C   UNL A   1      42.870  27.421  26.488  1.00  0.00     0.012 A 
ATOM     75  C   UNL A   1      41.920  25.382  27.407  1.00  0.00     0.148 A 
ATOM     76  C   UNL A   1      43.294  26.719  25.359  1.00  0.00     0.002 A 
ATOM     77  C   UNL A   1      42.396  24.678  26.308  1.00  0.00     0.091 A 
ATOM     78  F   UNL A   1      41.234  24.781  28.389  1.00  0.00    -0.205 F 
ATOM     79  C   UNL A   1      43.065  25.347  25.273  1.00  0.00     0.022 A 
BRANCH  77  80
ATOM     80  S   UNL A   1      42.253  22.893  26.173  1.00  0.00     0.127 S 
ATOM     81  O   UNL A   1      43.010  22.444  27.339  1.00  0.00    -0.237 OA
ATOM     82  O   UNL A   1      40.806  22.702  26.265  1.00  0.00    -0.237 OA
ATOM     83  O   UNL A   1      42.826  22.545  24.879  1.00  0.00    -0.744 OA
ENDBRANCH  77  80
ENDBRANCH  49  73
BRANCH  61  84
ATOM     84  C   UNL A   1      44.369  27.382  34.114  1.00  0.00     0.023 A 
ATOM     85  C   UNL A   1      45.624  28.012  34.225  1.00  0.00     0.012 A 
ATOM     86  C   UNL A   1      44.142  26.168  34.795  1.00  0.00     0.148 A 
ATOM     87  C   UNL A   1      46.647  27.424  34.968  1.00  0.00     0.002 A 
ATOM     88  C   UNL A   1      45.147  25.619  35.580  1.00  0.00     0.091 A 
ATOM     89  F   UNL A   1      42.944  25.578  34.667  1.00  0.00    -0.205 F 
ATOM     90  C   UNL A   1      46.405  26.236  35.655  1.00  0.00     0.022 A 
BRANCH  88  91
ATOM     91  S   UNL A   1      44.895  24.149  36.581  1.00  0.00     0.127 S 
ATOM     92  O   UNL A   1      46.270  23.759  36.887  1.00  0.00    -0.237 OA
ATOM     93  O   UNL A   1      44.142  24.678  37.720  1.00  0.00    -0.237 OA
ATOM     94  O   UNL A   1      44.154  23.213  35.746  1.00  0.00    -0.744 OA
ENDBRANCH  88  91
ENDBRANCH  61  84
ENDBRANCH  35  36
ENDBRANCH  28  30
ENDBRANCH  27  28
ENDBRANCH  26  27
ENDBRANCH  25  26
ENDBRANCH  24  25
ENDBRANCH   1  24
TORSDOF 22
ENDMDL
MODEL 2
REMARK VINA RESULT:     -11.7      2.300      3.172
REMARK SMILES CC(C)(C)[N@@H+](CCC(=O)OCCOCCOC(=O)c1ccc(-c2c3nc(c(-c4cccc(S(=O)(=O)[O-])c4F)c4ccc([nH]4)c(-c4cccc(S(=O)(=O)[O-])c4F)c4nc(c(-c5cccc(S(=O)(=O)[O-])c5F)c5ccc2[nH]5)C=C4)C=C3)cc1)C[C@H]1COc2ccccc21
REMARK SMILES IDX 12 1 11 2 10 3 8 4 9 5 7 6 6 7 5 8 2 10 1 11 3 12 4 13 82 14
REMARK SMILES IDX 83 15 84 16 91 17 85 18 86 19 90 20 87 21 89 22 88 23 13 24
REMARK SMILES IDX 14 25 15 26 16 27 17 28 18 29 19 30 20 31 81 32 21 33 80 34
REMARK SMILES IDX 22 35 23 36 24 37 74 38 25 39 79 40 73 41 75 42 26 43 78 44
REMARK SMILES IDX 72 45 71 46 27 48 59 49 39 50 58 51 40 52 43 53 57 54 76 55
REMARK SMILES IDX 41 56 42 57 56 59 77 60 44 61 28 62 29 63 37 64 30 65 32 66
REMARK SMILES IDX 38 67 31 68 33 69 34 70 35 71 36 72 60 73 61 74 69 75 62 76
REMARK SMILES IDX 64 77 70 78 63 79 65 80 66 81 67 82 68 83 45 84 46 85 54 86
REMARK SMILES IDX 47 87 49 88 55 89 48 90 50 91 51 92 52 93 53 94
REMARK H PARENT 5 9 75 47 43 58
REMARK Flexibility Score: inf
ROOT
ATOM      1  C   UNL A   1      31.243  29.020  24.611  1.00  0.00     0.202 C 
ENDROOT
BRANCH   1   2
ATOM      2  C   UNL A   1      32.023  28.326  22.685  1.00  0.00     0.261 C 
BRANCH   2   3
ATOM      3  O   UNL A   1      31.841  26.724  22.065  1.00  0.00    -0.463 OA
BRANCH   3   4
ATOM      4  C   UNL A   1      32.852  25.913  21.653  1.00  0.00     0.311 C 
ATOM      5  O   UNL A   1      33.135  25.771  20.464  1.00  0.00    -0.252 OA
BRANCH   4   6
ATOM      6  C   UNL A   1      33.708  25.227  22.770  1.00  0.00     0.184 C 
BRANCH   6   7
ATOM      7  C   UNL A   1      33.624  23.772  23.377  1.00  0.00     0.274 C 
BRANCH   7   8
ATOM      8  N   UNL A   1      33.386  23.346  24.781  1.00  0.00    -0.330 N 
ATOM      9  H   UNL A   1      32.781  22.543  24.611  1.00  0.00     0.348 HD
BRANCH   8  10
ATOM     10  C   UNL A   1      32.356  23.998  25.638  1.00  0.00     0.089 C 
ATOM     11  C   UNL A   1      31.033  24.002  24.844  1.00  0.00     0.078 C 
ATOM     12  C   UNL A   1      32.676  25.447  26.042  1.00  0.00     0.078 C 
ATOM     13  C   UNL A   1      32.039  23.239  26.961  1.00  0.00     0.078 C 
ENDBRANCH   8  10
BRANCH   8  14
ATOM     14  C   UNL A   1      34.603  22.867  25.447  1.00  0.00     0.274 C 
BRANCH  14  15
ATOM     15  C   UNL A   1      35.136  21.712  24.653  1.00  0.00     0.116 C 
ATOM     16  C   UNL A   1      36.567  21.204  25.017  1.00  0.00     0.244 C 
ATOM     17  C   UNL A   1      34.274  20.505  24.638  1.00  0.00     0.006 A 
ATOM     18  O   UNL A   1      36.731  19.762  25.038  1.00  0.00    -0.492 OA
ATOM     19  C   UNL A   1      35.506  19.249  24.770  1.00  0.00     0.123 A 
ATOM     20  C   UNL A   1      32.588  20.065  24.056  1.00  0.00     0.008 A 
ATOM     21  C   UNL A   1      35.150  17.579  24.396  1.00  0.00     0.047 A 
ATOM     22  C   UNL A   1      32.213  18.326  23.686  1.00  0.00     0.001 A 
ATOM     23  C   UNL A   1      33.524  17.111  23.834  1.00  0.00     0.004 A 
ENDBRANCH  14  15
ENDBRANCH   8  14
ENDBRANCH   7   8
ENDBRANCH   6   7
ENDBRANCH   4   6
ENDBRANCH   3   4
ENDBRANCH   2   3
ENDBRANCH   1   2
BRANCH   1  24
ATOM     24  O   UNL A   1      31.584  30.380  25.484  1.00  0.00    -0.374 OA
BRANCH  24  25
ATOM     25  C   UNL A   1      32.181  30.307  26.808  1.00  0.00     0.202 C 
BRANCH  25  26
ATOM     26  C   UNL A   1      32.935  31.505  27.362  1.00  0.00     0.261 C 
BRANCH  26  27
ATOM     27  O   UNL A   1      34.336  31.240  27.301  1.00  0.00    -0.460 OA
BRANCH  27  28
ATOM     28  C   UNL A   1      34.942  31.429  28.490  1.00  0.00     0.338 C 
ATOM     29  O   UNL A   1      34.557  32.131  29.410  1.00  0.00    -0.246 OA
BRANCH  28  30
ATOM     30  C   UNL A   1      36.090  30.519  28.588  1.00  0.00     0.060 A 
ATOM     31  C   UNL A   1      36.223  29.812  29.788  1.00  0.00     0.016 A 
ATOM     32  C   UNL A   1      37.030  30.385  27.561  1.00  0.00     0.016 A 
ATOM     33  C   UNL A   1      37.346  29.034  30.007  1.00  0.00     0.010 A 
ATOM     34  C   UNL A   1      38.170  29.617  27.788  1.00  0.00     0.010 A 
ATOM     35  C   UNL A   1      38.350  28.992  29.034  1.00  0.00    -0.014 A 
BRANCH  35  36
ATOM     36  C   UNL A   1      39.688  28.522  29.438  1.00  0.00     0.031 A 
ATOM     37  C   UNL A   1      40.402  29.290  30.514  1.00  0.00     0.074 A 
ATOM     38  C   UNL A   1      40.226  27.418  28.899  1.00  0.00     0.049 A 
ATOM     39  N   UNL A   1      41.579  29.079  31.036  1.00  0.00    -0.248 NA
ATOM     40  C   UNL A   1      39.690  30.450  31.080  1.00  0.00     0.031 C 
ATOM     41  C   UNL A   1      39.595  26.581  27.882  1.00  0.00     0.029 A 
ATOM     42  N   UNL A   1      41.440  26.827  29.124  1.00  0.00    -0.354 N 
ATOM     43  C   UNL A   1      41.761  30.089  31.970  1.00  0.00     0.074 A 
ATOM     44  C   UNL A   1      40.581  30.923  31.937  1.00  0.00     0.031 C 
ATOM     45  C   UNL A   1      40.446  25.599  27.542  1.00  0.00     0.029 A 
ATOM     46  C   UNL A   1      41.686  25.758  28.298  1.00  0.00     0.049 A 
ATOM     47  H   UNL A   1      42.074  27.137  29.810  1.00  0.00     0.167 HD
ATOM     48  C   UNL A   1      42.815  30.298  32.792  1.00  0.00     0.034 A 
ATOM     49  C   UNL A   1      42.801  25.017  28.155  1.00  0.00     0.034 A 
ATOM     50  C   UNL A   1      43.986  29.466  32.811  1.00  0.00     0.049 A 
ATOM     51  C   UNL A   1      43.987  25.309  29.037  1.00  0.00     0.074 A 
ATOM     52  C   UNL A   1      45.103  29.574  33.617  1.00  0.00     0.029 A 
ATOM     53  N   UNL A   1      44.201  28.387  31.966  1.00  0.00    -0.354 N 
ATOM     54  N   UNL A   1      44.115  26.211  29.981  1.00  0.00    -0.248 NA
ATOM     55  C   UNL A   1      45.171  24.458  28.857  1.00  0.00     0.031 C 
ATOM     56  C   UNL A   1      46.017  28.592  33.224  1.00  0.00     0.029 A 
ATOM     57  C   UNL A   1      45.443  27.833  32.215  1.00  0.00     0.049 A 
ATOM     58  H   UNL A   1      43.563  28.063  31.289  1.00  0.00     0.167 HD
ATOM     59  C   UNL A   1      45.375  26.009  30.535  1.00  0.00     0.074 A 
ATOM     60  C   UNL A   1      45.963  24.888  29.830  1.00  0.00     0.031 C 
ATOM     61  C   UNL A   1      45.993  26.690  31.532  1.00  0.00     0.034 A 
BRANCH  48  62
ATOM     62  C   UNL A   1      42.751  31.478  33.722  1.00  0.00     0.023 A 
ATOM     63  C   UNL A   1      43.223  32.738  33.303  1.00  0.00     0.012 A 
ATOM     64  C   UNL A   1      42.189  31.343  35.006  1.00  0.00     0.148 A 
ATOM     65  C   UNL A   1      43.170  33.837  34.160  1.00  0.00     0.002 A 
ATOM     66  C   UNL A   1      42.092  32.452  35.835  1.00  0.00     0.091 A 
ATOM     67  F   UNL A   1      41.769  30.130  35.395  1.00  0.00    -0.205 F 
ATOM     68  C   UNL A   1      42.594  33.697  35.420  1.00  0.00     0.022 A 
BRANCH  66  69
ATOM     69  S   UNL A   1      41.295  32.392  37.443  1.00  0.00     0.127 S 
ATOM     70  O   UNL A   1      39.961  31.906  37.093  1.00  0.00    -0.237 OA
ATOM     71  O   UNL A   1      42.128  31.426  38.159  1.00  0.00    -0.237 OA
ATOM     72  O   UNL A   1      41.344  33.748  37.970  1.00  0.00    -0.744 OA
ENDBRANCH  66  69
ENDBRANCH  48  62
BRANCH  49  73
ATOM     73  C   UNL A   1      42.849  23.932  27.138  1.00  0.00     0.023 A 
ATOM     74  C   UNL A   1      43.530  24.136  25.923  1.00  0.00     0.012 A 
ATOM     75  C   UNL A   1      42.218  22.695  27.374  1.00  0.00     0.148 A 
ATOM     76  C   UNL A   1      43.547  23.141  24.944  1.00  0.00     0.002 A 
ATOM     77  C   UNL A   1      42.288  21.688  26.419  1.00  0.00     0.091 A 
ATOM     78  F   UNL A   1      41.566  22.526  28.533  1.00  0.00    -0.205 F 
ATOM     79  C   UNL A   1      42.933  21.916  25.195  1.00  0.00     0.022 A 
BRANCH  77  80
ATOM     80  S   UNL A   1      41.632  20.041  26.707  1.00  0.00     0.127 S 
ATOM     81  O   UNL A   1      41.828  19.410  25.404  1.00  0.00    -0.237 OA
ATOM     82  O   UNL A   1      42.512  19.552  27.769  1.00  0.00    -0.237 OA
ATOM     83  O   UNL A   1      40.246  20.230  27.113  1.00  0.00    -0.744 OA
ENDBRANCH  77  80
ENDBRANCH  49  73
BRANCH  61  84
ATOM     84  C   UNL A   1      47.356  26.214  31.966  1.00  0.00     0.023 A 
ATOM     85  C   UNL A   1      48.517  26.730  31.358  1.00  0.00     0.012 A 
ATOM     86  C   UNL A   1      47.480  25.307  33.038  1.00  0.00     0.148 A 
ATOM     87  C   UNL A   1      49.780  26.317  31.783  1.00  0.00     0.002 A 
ATOM     88  C   UNL A   1      48.741  24.946  33.493  1.00  0.00     0.091 A 
ATOM     89  F   UNL A   1      46.362  24.819  33.595  1.00  0.00    -0.205 F 
ATOM     90  C   UNL A   1      49.892  25.437  32.858  1.00  0.00     0.022 A 
BRANCH  88  91
ATOM     91  S   UNL A   1      48.984  23.901  34.934  1.00  0.00     0.127 S 
ATOM     92  O   UNL A   1      48.306  24.669  35.976  1.00  0.00    -0.237 OA
ATOM     93  O   UNL A   1      48.297  22.670  34.539  1.00  0.00    -0.237 OA
ATOM     94  O   UNL A   1      50.424  23.767  35.098  1.00  0.00    -0.744 OA
ENDBRANCH  88  91
ENDBRANCH  61  84
ENDBRANCH  35  36
ENDBRANCH  28  30
ENDBRANCH  27  28
ENDBRANCH  26  27
ENDBRANCH  25  26
ENDBRANCH  24  25
ENDBRANCH   1  24
TORSDOF 22
ENDMDL
MODEL 3
REMARK VINA RESULT:     -11.4      1.619      2.054
REMARK SMILES CC(C)(C)[N@@H+](CCC(=O)OCCOCCOC(=O)c1ccc(-c2c3nc(c(-c4cccc(S(=O)(=O)[O-])c4F)c4ccc([nH]4)c(-c4cccc(S(=O)(=O)[O-])c4F)c4nc(c(-c5cccc(S(=O)(=O)[O-])c5F)c5ccc2[nH]5)C=C4)C=C3)cc1)C[C@H]1COc2ccccc21
REMARK SMILES IDX 12 1 11 2 10 3 8 4 9 5 7 6 6 7 5 8 2 10 1 11 3 12 4 13 82 14
REMARK SMILES IDX 83 15 84 16 91 17 85 18 86 19 90 20 87 21 89 22 88 23 13 24
REMARK SMILES IDX 14 25 15 26 16 27 17 28 18 29 19 30 20 31 81 32 21 33 80 34
REMARK SMILES IDX 22 35 23 36 24 37 74 38 25 39 79 40 73 41 75 42 26 43 78 44
REMARK SMILES IDX 72 45 71 46 27 48 59 49 39 50 58 51 40 52 43 53 57 54 76 55
REMARK SMILES IDX 41 56 42 57 56 59 77 60 44 61 28 62 29 63 37 64 30 65 32 66
REMARK SMILES IDX 38 67 31 68 33 69 34 70 35 71 36 72 60 73 61 74 69 75 62 76
REMARK SMILES IDX 64 77 70 78 63 79 65 80 66 81 67 82 68 83 45 84 46 85 54 86
REMARK SMILES IDX 47 87 49 88 55 89 48 90 50 91 51 92 52 93 53 94
REMARK H PARENT 5 9 75 47 43 58
REMARK Flexibility Score: inf
ROOT
ATOM      1  C   UNL A   1      31.391  29.303  25.037  1.00  0.00     0.202 C 
ENDROOT
BRANCH   1   2
ATOM      2  C   UNL A   1      32.364  28.526  23.235  1.00  0.00     0.261 C 
BRANCH   2   3
ATOM      3  O   UNL A   1      32.072  26.969  22.547  1.00  0.00    -0.463 OA
BRANCH   3   4
ATOM      4  C   UNL A   1      32.998  26.186  21.932  1.00  0.00     0.311 C 
ATOM      5  O   UNL A   1      33.291  26.326  20.745  1.00  0.00    -0.252 OA
BRANCH   4   6
ATOM      6  C   UNL A   1      33.751  25.145  22.828  1.00  0.00     0.184 C 
BRANCH   6   7
ATOM      7  C   UNL A   1      33.263  23.770  23.431  1.00  0.00     0.274 C 
BRANCH   7   8
ATOM      8  N   UNL A   1      32.765  23.461  24.798  1.00  0.00    -0.330 N 
ATOM      9  H   UNL A   1      32.084  22.737  24.568  1.00  0.00     0.348 HD
BRANCH   8  10
ATOM     10  C   UNL A   1      31.724  24.293  25.463  1.00  0.00     0.089 C 
ATOM     11  C   UNL A   1      31.186  23.484  26.663  1.00  0.00     0.078 C 
ATOM     12  C   UNL A   1      30.532  24.672  24.568  1.00  0.00     0.078 C 
ATOM     13  C   UNL A   1      32.250  25.627  26.072  1.00  0.00     0.078 C 
ENDBRANCH   8  10
BRANCH   8  14
ATOM     14  C   UNL A   1      33.793  22.864  25.658  1.00  0.00     0.274 C 
BRANCH  14  15
ATOM     15  C   UNL A   1      34.554  21.866  24.837  1.00  0.00     0.116 C 
ATOM     16  C   UNL A   1      36.019  21.557  25.280  1.00  0.00     0.244 C 
ATOM     17  C   UNL A   1      33.897  20.545  24.679  1.00  0.00     0.006 A 
ATOM     18  O   UNL A   1      36.407  20.159  25.224  1.00  0.00    -0.492 OA
ATOM     19  C   UNL A   1      35.299  19.486  24.828  1.00  0.00     0.123 A 
ATOM     20  C   UNL A   1      32.345  19.898  23.939  1.00  0.00     0.008 A 
ATOM     21  C   UNL A   1      35.238  17.814  24.323  1.00  0.00     0.047 A 
ATOM     22  C   UNL A   1      32.275  18.154  23.433  1.00  0.00     0.001 A 
ATOM     23  C   UNL A   1      33.748  17.146  23.607  1.00  0.00     0.004 A 
ENDBRANCH  14  15
ENDBRANCH   8  14
ENDBRANCH   7   8
ENDBRANCH   6   7
ENDBRANCH   4   6
ENDBRANCH   3   4
ENDBRANCH   2   3
ENDBRANCH   1   2
BRANCH   1  24
ATOM     24  O   UNL A   1      31.263  30.846  25.612  1.00  0.00    -0.374 OA
BRANCH  24  25
ATOM     25  C   UNL A   1      32.091  31.323  26.707  1.00  0.00     0.202 C 
BRANCH  25  26
ATOM     26  C   UNL A   1      31.983  32.770  27.160  1.00  0.00     0.261 C 
BRANCH  26  27
ATOM     27  O   UNL A   1      33.297  33.291  27.361  1.00  0.00    -0.460 OA
BRANCH  27  28
ATOM     28  C   UNL A   1      33.348  34.157  28.394  1.00  0.00     0.338 C 
ATOM     29  O   UNL A   1      32.570  35.064  28.634  1.00  0.00    -0.246 OA
BRANCH  28  30
ATOM     30  C   UNL A   1      34.420  33.741  29.308  1.00  0.00     0.060 A 
ATOM     31  C   UNL A   1      35.715  34.152  28.975  1.00  0.00     0.016 A 
ATOM     32  C   UNL A   1      34.179  32.945  30.431  1.00  0.00     0.016 A 
ATOM     33  C   UNL A   1      36.793  33.694  29.713  1.00  0.00     0.010 A 
ATOM     34  C   UNL A   1      35.265  32.469  31.164  1.00  0.00     0.010 A 
ATOM     35  C   UNL A   1      36.571  32.799  30.763  1.00  0.00    -0.014 A 
BRANCH  35  36
ATOM     36  C   UNL A   1      37.716  32.009  31.254  1.00  0.00     0.031 A 
ATOM     37  C   UNL A   1      38.228  32.306  32.635  1.00  0.00     0.074 A 
ATOM     38  C   UNL A   1      38.248  31.027  30.513  1.00  0.00     0.049 A 
ATOM     39  N   UNL A   1      39.215  31.755  33.285  1.00  0.00    -0.248 NA
ATOM     40  C   UNL A   1      37.527  33.364  33.385  1.00  0.00     0.031 C 
ATOM     41  C   UNL A   1      37.795  30.633  29.180  1.00  0.00     0.029 A 
ATOM     42  N   UNL A   1      39.303  30.195  30.775  1.00  0.00    -0.354 N 
ATOM     43  C   UNL A   1      39.272  32.412  34.507  1.00  0.00     0.074 A 
ATOM     44  C   UNL A   1      38.230  33.413  34.505  1.00  0.00     0.031 C 
ATOM     45  C   UNL A   1      38.595  29.655  28.724  1.00  0.00     0.029 A 
ATOM     46  C   UNL A   1      39.626  29.377  29.720  1.00  0.00     0.049 A 
ATOM     47  H   UNL A   1      39.783  30.184  31.635  1.00  0.00     0.167 HD
ATOM     48  C   UNL A   1      40.114  32.194  35.543  1.00  0.00     0.034 A 
ATOM     49  C   UNL A   1      40.659  28.525  29.574  1.00  0.00     0.034 A 
ATOM     50  C   UNL A   1      41.151  31.201  35.530  1.00  0.00     0.049 A 
ATOM     51  C   UNL A   1      41.622  28.345  30.719  1.00  0.00     0.074 A 
ATOM     52  C   UNL A   1      42.047  30.882  36.533  1.00  0.00     0.029 A 
ATOM     53  N   UNL A   1      41.448  30.385  34.448  1.00  0.00    -0.354 N 
ATOM     54  N   UNL A   1      41.614  28.907  31.905  1.00  0.00    -0.248 NA
ATOM     55  C   UNL A   1      42.718  27.388  30.518  1.00  0.00     0.031 C 
ATOM     56  C   UNL A   1      42.920  29.908  36.039  1.00  0.00     0.029 A 
ATOM     57  C   UNL A   1      42.529  29.576  34.751  1.00  0.00     0.049 A 
ATOM     58  H   UNL A   1      40.962  30.381  33.592  1.00  0.00     0.167 HD
ATOM     59  C   UNL A   1      42.674  28.342  32.604  1.00  0.00     0.074 A 
ATOM     60  C   UNL A   1      43.294  27.381  31.713  1.00  0.00     0.031 C 
ATOM     61  C   UNL A   1      43.103  28.595  33.865  1.00  0.00     0.034 A 
BRANCH  48  62
ATOM     62  C   UNL A   1      39.953  33.057  36.765  1.00  0.00     0.023 A 
ATOM     63  C   UNL A   1      40.657  34.273  36.873  1.00  0.00     0.012 A 
ATOM     64  C   UNL A   1      39.074  32.672  37.796  1.00  0.00     0.148 A 
ATOM     65  C   UNL A   1      40.514  35.077  38.004  1.00  0.00     0.002 A 
ATOM     66  C   UNL A   1      38.898  33.502  38.895  1.00  0.00     0.091 A 
ATOM     67  F   UNL A   1      38.434  31.499  37.686  1.00  0.00    -0.205 F 
ATOM     68  C   UNL A   1      39.628  34.697  39.008  1.00  0.00     0.022 A 
BRANCH  66  69
ATOM     69  S   UNL A   1      37.721  33.142  40.202  1.00  0.00     0.127 S 
ATOM     70  O   UNL A   1      38.192  31.838  40.670  1.00  0.00    -0.237 OA
ATOM     71  O   UNL A   1      37.953  34.245  41.134  1.00  0.00    -0.237 OA
ATOM     72  O   UNL A   1      36.408  33.138  39.574  1.00  0.00    -0.744 OA
ENDBRANCH  66  69
ENDBRANCH  48  62
BRANCH  49  73
ATOM     73  C   UNL A   1      40.835  27.780  28.298  1.00  0.00     0.023 A 
ATOM     74  C   UNL A   1      41.488  28.391  27.211  1.00  0.00     0.012 A 
ATOM     75  C   UNL A   1      40.354  26.463  28.160  1.00  0.00     0.148 A 
ATOM     76  C   UNL A   1      41.622  27.718  25.995  1.00  0.00     0.002 A 
ATOM     77  C   UNL A   1      40.543  25.778  26.967  1.00  0.00     0.091 A 
ATOM     78  F   UNL A   1      39.727  25.905  29.205  1.00  0.00    -0.205 F 
ATOM     79  C   UNL A   1      41.157  26.410  25.876  1.00  0.00     0.022 A 
BRANCH  77  80
ATOM     80  S   UNL A   1      40.087  24.053  26.764  1.00  0.00     0.127 S 
ATOM     81  O   UNL A   1      41.248  23.518  26.058  1.00  0.00    -0.237 OA
ATOM     82  O   UNL A   1      39.952  23.615  28.153  1.00  0.00    -0.237 OA
ATOM     83  O   UNL A   1      38.839  24.058  26.011  1.00  0.00    -0.744 OA
ENDBRANCH  77  80
ENDBRANCH  49  73
BRANCH  61  84
ATOM     84  C   UNL A   1      44.264  27.787  34.387  1.00  0.00     0.023 A 
ATOM     85  C   UNL A   1      45.581  28.273  34.269  1.00  0.00     0.012 A 
ATOM     86  C   UNL A   1      44.032  26.575  35.068  1.00  0.00     0.148 A 
ATOM     87  C   UNL A   1      46.652  27.544  34.783  1.00  0.00     0.002 A 
ATOM     88  C   UNL A   1      45.097  25.884  35.629  1.00  0.00     0.091 A 
ATOM     89  F   UNL A   1      42.772  26.124  35.160  1.00  0.00    -0.205 F 
ATOM     90  C   UNL A   1      46.410  26.358  35.474  1.00  0.00     0.022 A 
BRANCH  88  91
ATOM     91  S   UNL A   1      44.873  24.404  36.622  1.00  0.00     0.127 S 
ATOM     92  O   UNL A   1      46.254  24.049  36.942  1.00  0.00    -0.237 OA
ATOM     93  O   UNL A   1      44.094  24.909  37.753  1.00  0.00    -0.237 OA
ATOM     94  O   UNL A   1      44.168  23.452  35.775  1.00  0.00    -0.744 OA
ENDBRANCH  88  91
ENDBRANCH  61  84
ENDBRANCH  35  36
ENDBRANCH  28  30
ENDBRANCH  27  28
ENDBRANCH  26  27
ENDBRANCH  25  26
ENDBRANCH  24  25
ENDBRANCH   1  24
TORSDOF 22
ENDMDL
