MODEL 1
REMARK VINA RESULT:     -10.0      0.000      0.000
REMARK SMILES O=C(N[C@@H](Cc1c[nH]c2ccccc12)C(=O)N[C@@H](CS)C(=O)N[C@@H](CO)C(=O)OCCOCCOC(=O)c1ccc(-c2c3nc(c(-c4cccc(S(=O)(=O)[O-])c4F)c4ccc([nH]4)c(-c4cccc(S(=O)(=O)[O-])c4F)c4nc(c(-c5cccc(S(=O)(=O)[O-])c5F)c5ccc2[nH]5)C=C4)C=C3)cc1)c1ccc(F)cc1
REMARK SMILES IDX 30 1 29 2 27 3 28 4 24 5 23 6 21 7 22 8 18 10 17 11 15 12
REMARK SMILES IDX 16 13 4 15 3 16 1 17 2 18 101 20 102 21 107 22 103 23 106 24
REMARK SMILES IDX 104 25 105 26 5 27 6 28 7 29 14 30 8 31 9 32 13 33 10 35
REMARK SMILES IDX 12 36 11 37 19 38 20 39 25 41 26 42 31 44 32 45 33 46 34 47
REMARK SMILES IDX 35 48 36 49 37 50 38 51 39 52 100 53 40 54 99 55 41 56 42 57
REMARK SMILES IDX 43 58 93 59 44 60 98 61 92 62 94 63 45 64 97 65 91 66 90 67
REMARK SMILES IDX 46 69 78 70 58 71 77 72 59 73 62 74 76 75 95 76 60 77 61 78
REMARK SMILES IDX 75 80 96 81 63 82 47 83 48 84 56 85 49 86 51 87 57 88 50 89
REMARK SMILES IDX 52 90 53 91 54 92 55 93 79 94 80 95 88 96 81 97 83 98 89 99
REMARK SMILES IDX 82 100 84 101 85 102 86 103 87 104 64 105 65 106 73 107
REMARK SMILES IDX 66 108 68 109 74 110 67 111 69 112 70 113 71 114 72 115
REMARK H PARENT 23 9 17 14 3 19 8 34 20 40 26 43 94 68 62 79
REMARK Flexibility Score: inf
ROOT
ATOM      1  C   UNL A   1      38.996  20.608  25.814  1.00  0.00     0.261 C 
ENDROOT
BRANCH   1   2
ATOM      2  O   UNL A   1      37.940  21.108  24.981  1.00  0.00    -0.462 OA
BRANCH   2   3
ATOM      3  C   UNL A   1      36.830  20.327  24.929  1.00  0.00     0.331 C 
ATOM      4  O   UNL A   1      36.835  19.101  24.905  1.00  0.00    -0.250 OA
BRANCH   3   5
ATOM      5  C   UNL A   1      35.551  21.158  24.835  1.00  0.00     0.218 C 
BRANCH   5   6
ATOM      6  N   UNL A   1      34.468  20.745  25.752  1.00  0.00    -0.339 N 
ATOM      7  C   UNL A   1      33.643  21.732  26.217  1.00  0.00     0.244 C 
ATOM      8  O   UNL A   1      34.115  22.639  26.903  1.00  0.00    -0.273 OA
ATOM      9  H   UNL A   1      34.346  19.804  26.017  1.00  0.00     0.164 HD
BRANCH   7  10
ATOM     10  C   UNL A   1      32.161  21.744  25.760  1.00  0.00     0.181 C 
BRANCH  10  11
ATOM     11  N   UNL A   1      31.481  22.625  26.717  1.00  0.00    -0.342 N 
ATOM     12  C   UNL A   1      30.783  23.765  26.422  1.00  0.00     0.243 C 
ATOM     13  O   UNL A   1      29.731  23.955  27.041  1.00  0.00    -0.273 OA
ATOM     14  H   UNL A   1      31.533  22.371  27.667  1.00  0.00     0.164 HD
BRANCH  12  15
ATOM     15  C   UNL A   1      31.308  24.835  25.435  1.00  0.00     0.176 C 
BRANCH  15  16
ATOM     16  N   UNL A   1      32.771  24.897  25.499  1.00  0.00    -0.340 N 
ATOM     17  O   UNL A   1      34.786  25.836  25.888  1.00  0.00    -0.269 OA
ATOM     18  C   UNL A   1      33.568  25.966  25.837  1.00  0.00     0.251 C 
ATOM     19  H   UNL A   1      33.245  24.065  25.270  1.00  0.00     0.164 HD
BRANCH  18  20
ATOM     20  C   UNL A   1      32.970  27.308  26.052  1.00  0.00     0.040 A 
ATOM     21  C   UNL A   1      33.200  28.378  25.177  1.00  0.00     0.017 A 
ATOM     22  C   UNL A   1      32.169  27.489  27.186  1.00  0.00     0.017 A 
ATOM     23  C   UNL A   1      32.705  29.647  25.488  1.00  0.00     0.040 A 
ATOM     24  C   UNL A   1      31.659  28.755  27.483  1.00  0.00     0.040 A 
ATOM     25  C   UNL A   1      31.947  29.825  26.640  1.00  0.00     0.123 A 
ATOM     26  F   UNL A   1      31.486  31.045  26.946  1.00  0.00    -0.207 F 
ENDBRANCH  18  20
ENDBRANCH  15  16
BRANCH  15  27
ATOM     27  C   UNL A   1      30.696  24.929  24.029  1.00  0.00     0.072 C 
BRANCH  27  28
ATOM     28  C   UNL A   1      30.726  26.248  23.322  1.00  0.00    -0.020 A 
ATOM     29  C   UNL A   1      31.781  26.803  22.619  1.00  0.00     0.087 A 
ATOM     30  C   UNL A   1      29.656  27.203  23.274  1.00  0.00     0.003 A 
ATOM     31  N   UNL A   1      31.366  27.997  22.090  1.00  0.00    -0.361 N 
ATOM     32  C   UNL A   1      30.054  28.236  22.426  1.00  0.00     0.046 A 
ATOM     33  C   UNL A   1      28.363  27.255  23.834  1.00  0.00     0.010 A 
ATOM     34  H   UNL A   1      31.926  28.598  21.547  1.00  0.00     0.166 HD
ATOM     35  C   UNL A   1      29.202  29.286  22.060  1.00  0.00     0.026 A 
ATOM     36  C   UNL A   1      27.501  28.302  23.489  1.00  0.00     0.001 A 
ATOM     37  C   UNL A   1      27.911  29.292  22.600  1.00  0.00     0.002 A 
ENDBRANCH  27  28
ENDBRANCH  15  27
ENDBRANCH  12  15
ENDBRANCH  10  11
BRANCH  10  38
ATOM     38  C   UNL A   1      31.842  22.051  24.295  1.00  0.00     0.101 C 
BRANCH  38  39
ATOM     39  S   UNL A   1      32.189  20.739  23.085  1.00  0.00    -0.177 SA
ATOM     40  H   UNL A   1      32.453  21.297  21.873  1.00  0.00     0.102 HD
ENDBRANCH  38  39
ENDBRANCH  10  38
ENDBRANCH   7  10
ENDBRANCH   5   6
BRANCH   5  41
ATOM     41  C   UNL A   1      35.942  22.630  25.023  1.00  0.00     0.193 C 
BRANCH  41  42
ATOM     42  O   UNL A   1      35.227  23.452  24.101  1.00  0.00    -0.394 OA
ATOM     43  H   UNL A   1      34.377  23.037  23.889  1.00  0.00     0.210 HD
ENDBRANCH  41  42
ENDBRANCH   5  41
ENDBRANCH   3   5
ENDBRANCH   2   3
ENDBRANCH   1   2
BRANCH   1  44
ATOM     44  C   UNL A   1      39.799  21.773  26.390  1.00  0.00     0.202 C 
BRANCH  44  45
ATOM     45  O   UNL A   1      41.009  21.430  27.070  1.00  0.00    -0.374 OA
BRANCH  45  46
ATOM     46  C   UNL A   1      42.088  22.359  26.990  1.00  0.00     0.202 C 
BRANCH  46  47
ATOM     47  C   UNL A   1      41.722  23.843  26.849  1.00  0.00     0.261 C 
BRANCH  47  48
ATOM     48  O   UNL A   1      41.998  24.382  25.547  1.00  0.00    -0.460 OA
BRANCH  48  49
ATOM     49  C   UNL A   1      43.290  24.743  25.354  1.00  0.00     0.338 C 
ATOM     50  O   UNL A   1      44.132  24.143  24.695  1.00  0.00    -0.246 OA
BRANCH  49  51
ATOM     51  C   UNL A   1      43.543  26.074  25.927  1.00  0.00     0.060 A 
ATOM     52  C   UNL A   1      44.285  26.140  27.115  1.00  0.00     0.016 A 
ATOM     53  C   UNL A   1      42.980  27.224  25.373  1.00  0.00     0.016 A 
ATOM     54  C   UNL A   1      44.432  27.356  27.777  1.00  0.00     0.010 A 
ATOM     55  C   UNL A   1      43.117  28.440  26.048  1.00  0.00     0.010 A 
ATOM     56  C   UNL A   1      43.810  28.503  27.272  1.00  0.00    -0.014 A 
BRANCH  56  57
ATOM     57  C   UNL A   1      43.736  29.725  28.107  1.00  0.00     0.031 A 
ATOM     58  C   UNL A   1      44.961  30.587  28.233  1.00  0.00     0.074 A 
ATOM     59  C   UNL A   1      42.600  30.058  28.744  1.00  0.00     0.049 A 
ATOM     60  N   UNL A   1      45.146  31.665  28.948  1.00  0.00    -0.248 NA
ATOM     61  C   UNL A   1      46.139  30.177  27.448  1.00  0.00     0.031 C 
ATOM     62  C   UNL A   1      41.347  29.307  28.684  1.00  0.00     0.029 A 
ATOM     63  N   UNL A   1      42.327  31.103  29.590  1.00  0.00    -0.354 N 
ATOM     64  C   UNL A   1      46.465  32.043  28.728  1.00  0.00     0.074 A 
ATOM     65  C   UNL A   1      47.038  31.077  27.818  1.00  0.00     0.031 C 
ATOM     66  C   UNL A   1      40.447  29.898  29.489  1.00  0.00     0.029 A 
ATOM     67  C   UNL A   1      41.068  31.052  30.138  1.00  0.00     0.049 A 
ATOM     68  H   UNL A   1      42.972  31.821  29.786  1.00  0.00     0.167 HD
ATOM     69  C   UNL A   1      47.135  33.107  29.229  1.00  0.00     0.034 A 
ATOM     70  C   UNL A   1      40.493  31.833  31.075  1.00  0.00     0.034 A 
ATOM     71  C   UNL A   1      46.553  34.077  30.116  1.00  0.00     0.049 A 
ATOM     72  C   UNL A   1      41.267  33.000  31.632  1.00  0.00     0.074 A 
ATOM     73  C   UNL A   1      47.136  35.213  30.649  1.00  0.00     0.029 A 
ATOM     74  N   UNL A   1      45.258  34.023  30.605  1.00  0.00    -0.354 N 
ATOM     75  N   UNL A   1      42.478  33.406  31.334  1.00  0.00    -0.248 NA
ATOM     76  C   UNL A   1      40.585  33.838  32.629  1.00  0.00     0.031 C 
ATOM     77  C   UNL A   1      46.199  35.834  31.480  1.00  0.00     0.029 A 
ATOM     78  C   UNL A   1      45.023  35.101  31.440  1.00  0.00     0.049 A 
ATOM     79  H   UNL A   1      44.602  33.321  30.390  1.00  0.00     0.167 HD
ATOM     80  C   UNL A   1      42.685  34.568  32.071  1.00  0.00     0.074 A 
ATOM     81  C   UNL A   1      41.471  34.806  32.822  1.00  0.00     0.031 C 
ATOM     82  C   UNL A   1      43.783  35.360  32.126  1.00  0.00     0.034 A 
BRANCH  69  83
ATOM     83  C   UNL A   1      48.569  33.291  28.812  1.00  0.00     0.023 A 
ATOM     84  C   UNL A   1      49.595  32.658  29.541  1.00  0.00     0.012 A 
ATOM     85  C   UNL A   1      48.897  34.047  27.669  1.00  0.00     0.148 A 
ATOM     86  C   UNL A   1      50.928  32.797  29.158  1.00  0.00     0.002 A 
ATOM     87  C   UNL A   1      50.225  34.146  27.269  1.00  0.00     0.091 A 
ATOM     88  F   UNL A   1      47.910  34.664  27.004  1.00  0.00    -0.205 F 
ATOM     89  C   UNL A   1      51.242  33.531  28.017  1.00  0.00     0.022 A 
BRANCH  87  90
ATOM     90  S   UNL A   1      50.720  35.010  25.773  1.00  0.00     0.127 S 
ATOM     91  O   UNL A   1      50.751  36.397  26.231  1.00  0.00    -0.237 OA
ATOM     92  O   UNL A   1      52.036  34.428  25.504  1.00  0.00    -0.237 OA
ATOM     93  O   UNL A   1      49.705  34.701  24.777  1.00  0.00    -0.744 OA
ENDBRANCH  87  90
ENDBRANCH  69  83
BRANCH  70  94
ATOM     94  C   UNL A   1      39.098  31.557  31.520  1.00  0.00     0.023 A 
ATOM     95  C   UNL A   1      38.874  30.704  32.618  1.00  0.00     0.012 A 
ATOM     96  C   UNL A   1      37.995  32.148  30.873  1.00  0.00     0.148 A 
ATOM     97  C   UNL A   1      37.575  30.422  33.046  1.00  0.00     0.002 A 
ATOM     98  C   UNL A   1      36.708  31.906  31.338  1.00  0.00     0.091 A 
ATOM     99  F   UNL A   1      38.228  32.941  29.819  1.00  0.00    -0.205 F 
ATOM    100  C   UNL A   1      36.495  31.031  32.414  1.00  0.00     0.022 A 
BRANCH  98 101
ATOM    101  S   UNL A   1      35.268  32.743  30.664  1.00  0.00     0.127 S 
ATOM    102  O   UNL A   1      35.106  32.068  29.379  1.00  0.00    -0.237 OA
ATOM    103  O   UNL A   1      34.243  32.430  31.660  1.00  0.00    -0.237 OA
ATOM    104  O   UNL A   1      35.630  34.153  30.599  1.00  0.00    -0.744 OA
ENDBRANCH  98 101
ENDBRANCH  70  94
BRANCH  82 105
ATOM    105  C   UNL A   1      43.720  36.598  32.983  1.00  0.00     0.023 A 
ATOM    106  C   UNL A   1      43.872  36.496  34.378  1.00  0.00     0.012 A 
ATOM    107  C   UNL A   1      43.615  37.871  32.387  1.00  0.00     0.148 A 
ATOM    108  C   UNL A   1      43.897  37.644  35.171  1.00  0.00     0.002 A 
ATOM    109  C   UNL A   1      43.689  39.010  33.178  1.00  0.00     0.091 A 
ATOM    110  F   UNL A   1      43.453  37.942  31.057  1.00  0.00    -0.205 F 
ATOM    111  C   UNL A   1      43.820  38.898  34.571  1.00  0.00     0.022 A 
BRANCH 109 112
ATOM    112  S   UNL A   1      43.700  40.666  32.481  1.00  0.00     0.127 S 
ATOM    113  O   UNL A   1      42.273  40.916  32.287  1.00  0.00    -0.237 OA
ATOM    114  O   UNL A   1      44.317  41.450  33.552  1.00  0.00    -0.237 OA
ATOM    115  O   UNL A   1      44.492  40.583  31.261  1.00  0.00    -0.744 OA
ENDBRANCH 109 112
ENDBRANCH  82 105
ENDBRANCH  56  57
ENDBRANCH  49  51
ENDBRANCH  48  49
ENDBRANCH  47  48
ENDBRANCH  46  47
ENDBRANCH  45  46
ENDBRANCH  44  45
ENDBRANCH   1  44
TORSDOF 29
ENDMDL
MODEL 2
REMARK VINA RESULT:      -9.9      3.445      8.556
REMARK SMILES O=C(N[C@@H](Cc1c[nH]c2ccccc12)C(=O)N[C@@H](CS)C(=O)N[C@@H](CO)C(=O)OCCOCCOC(=O)c1ccc(-c2c3nc(c(-c4cccc(S(=O)(=O)[O-])c4F)c4ccc([nH]4)c(-c4cccc(S(=O)(=O)[O-])c4F)c4nc(c(-c5cccc(S(=O)(=O)[O-])c5F)c5ccc2[nH]5)C=C4)C=C3)cc1)c1ccc(F)cc1
REMARK SMILES IDX 30 1 29 2 27 3 28 4 24 5 23 6 21 7 22 8 18 10 17 11 15 12
REMARK SMILES IDX 16 13 4 15 3 16 1 17 2 18 101 20 102 21 107 22 103 23 106 24
REMARK SMILES IDX 104 25 105 26 5 27 6 28 7 29 14 30 8 31 9 32 13 33 10 35
REMARK SMILES IDX 12 36 11 37 19 38 20 39 25 41 26 42 31 44 32 45 33 46 34 47
REMARK SMILES IDX 35 48 36 49 37 50 38 51 39 52 100 53 40 54 99 55 41 56 42 57
REMARK SMILES IDX 43 58 93 59 44 60 98 61 92 62 94 63 45 64 97 65 91 66 90 67
REMARK SMILES IDX 46 69 78 70 58 71 77 72 59 73 62 74 76 75 95 76 60 77 61 78
REMARK SMILES IDX 75 80 96 81 63 82 47 83 48 84 56 85 49 86 51 87 57 88 50 89
REMARK SMILES IDX 52 90 53 91 54 92 55 93 79 94 80 95 88 96 81 97 83 98 89 99
REMARK SMILES IDX 82 100 84 101 85 102 86 103 87 104 64 105 65 106 73 107
REMARK SMILES IDX 66 108 68 109 74 110 67 111 69 112 70 113 71 114 72 115
REMARK H PARENT 23 9 17 14 3 19 8 34 20 40 26 43 94 68 62 79
REMARK Flexibility Score: inf
ROOT
ATOM      1  C   UNL A   1      39.238  20.287  25.617  1.00  0.00     0.261 C 
ENDROOT
BRANCH   1   2
ATOM      2  O   UNL A   1      38.977  21.669  25.905  1.00  0.00    -0.462 OA
BRANCH   2   3
ATOM      3  C   UNL A   1      37.783  22.135  25.456  1.00  0.00     0.331 C 
ATOM      4  O   UNL A   1      37.076  21.569  24.629  1.00  0.00    -0.250 OA
BRANCH   3   5
ATOM      5  C   UNL A   1      37.440  23.498  26.055  1.00  0.00     0.218 C 
BRANCH   5   6
ATOM      6  N   UNL A   1      36.305  23.497  27.002  1.00  0.00    -0.339 N 
ATOM      7  C   UNL A   1      35.060  23.697  26.473  1.00  0.00     0.244 C 
ATOM      8  O   UNL A   1      34.811  24.761  25.904  1.00  0.00    -0.273 OA
ATOM      9  H   UNL A   1      36.439  23.359  27.968  1.00  0.00     0.164 HD
BRANCH   7  10
ATOM     10  C   UNL A   1      34.041  22.529  26.496  1.00  0.00     0.181 C 
BRANCH  10  11
ATOM     11  N   UNL A   1      32.922  23.023  27.307  1.00  0.00    -0.342 N 
ATOM     12  C   UNL A   1      31.649  23.277  26.872  1.00  0.00     0.243 C 
ATOM     13  O   UNL A   1      30.723  22.942  27.618  1.00  0.00    -0.273 OA
ATOM     14  H   UNL A   1      33.105  23.189  28.260  1.00  0.00     0.164 HD
BRANCH  12  15
ATOM     15  C   UNL A   1      31.352  24.035  25.556  1.00  0.00     0.176 C 
BRANCH  15  16
ATOM     16  N   UNL A   1      31.315  23.091  24.434  1.00  0.00    -0.340 N 
ATOM     17  O   UNL A   1      31.775  22.320  22.364  1.00  0.00    -0.269 OA
ATOM     18  C   UNL A   1      31.856  23.234  23.178  1.00  0.00     0.251 C 
ATOM     19  H   UNL A   1      30.842  22.244  24.603  1.00  0.00     0.164 HD
BRANCH  18  20
ATOM     20  C   UNL A   1      32.457  24.526  22.763  1.00  0.00     0.040 A 
ATOM     21  C   UNL A   1      33.626  25.030  23.349  1.00  0.00     0.017 A 
ATOM     22  C   UNL A   1      31.804  25.256  21.762  1.00  0.00     0.017 A 
ATOM     23  C   UNL A   1      34.085  26.302  22.999  1.00  0.00     0.040 A 
ATOM     24  C   UNL A   1      32.278  26.519  21.400  1.00  0.00     0.040 A 
ATOM     25  C   UNL A   1      33.403  27.037  22.035  1.00  0.00     0.123 A 
ATOM     26  F   UNL A   1      33.835  28.263  21.711  1.00  0.00    -0.207 F 
ENDBRANCH  18  20
ENDBRANCH  15  16
BRANCH  15  27
ATOM     27  C   UNL A   1      30.275  25.131  25.542  1.00  0.00     0.072 C 
BRANCH  27  28
ATOM     28  C   UNL A   1      30.652  26.498  25.065  1.00  0.00    -0.020 A 
ATOM     29  C   UNL A   1      30.051  27.235  24.060  1.00  0.00     0.087 A 
ATOM     30  C   UNL A   1      31.744  27.290  25.554  1.00  0.00     0.003 A 
ATOM     31  N   UNL A   1      30.678  28.452  23.983  1.00  0.00    -0.361 N 
ATOM     32  C   UNL A   1      31.677  28.533  24.924  1.00  0.00     0.046 A 
ATOM     33  C   UNL A   1      32.755  27.078  26.515  1.00  0.00     0.010 A 
ATOM     34  H   UNL A   1      30.446  29.166  23.346  1.00  0.00     0.166 HD
ATOM     35  C   UNL A   1      32.528  29.595  25.254  1.00  0.00     0.026 A 
ATOM     36  C   UNL A   1      33.621  28.126  26.849  1.00  0.00     0.001 A 
ATOM     37  C   UNL A   1      33.495  29.370  26.239  1.00  0.00     0.002 A 
ENDBRANCH  27  28
ENDBRANCH  15  27
ENDBRANCH  12  15
ENDBRANCH  10  11
BRANCH  10  38
ATOM     38  C   UNL A   1      33.617  21.891  25.172  1.00  0.00     0.101 C 
BRANCH  38  39
ATOM     39  S   UNL A   1      33.447  20.081  25.147  1.00  0.00    -0.177 SA
ATOM     40  H   UNL A   1      32.860  19.665  26.302  1.00  0.00     0.102 HD
ENDBRANCH  38  39
ENDBRANCH  10  38
ENDBRANCH   7  10
ENDBRANCH   5   6
BRANCH   5  41
ATOM     41  C   UNL A   1      38.722  24.061  26.684  1.00  0.00     0.193 C 
BRANCH  41  42
ATOM     42  O   UNL A   1      39.501  24.735  25.697  1.00  0.00    -0.394 OA
ATOM     43  H   UNL A   1      40.187  24.137  25.362  1.00  0.00     0.210 HD
ENDBRANCH  41  42
ENDBRANCH   5  41
ENDBRANCH   3   5
ENDBRANCH   2   3
ENDBRANCH   1   2
BRANCH   1  44
ATOM     44  C   UNL A   1      40.617  19.898  26.146  1.00  0.00     0.202 C 
BRANCH  44  45
ATOM     45  O   UNL A   1      41.096  18.605  25.766  1.00  0.00    -0.374 OA
BRANCH  45  46
ATOM     46  C   UNL A   1      42.491  18.353  25.930  1.00  0.00     0.202 C 
BRANCH  46  47
ATOM     47  C   UNL A   1      43.444  19.536  25.713  1.00  0.00     0.261 C 
BRANCH  47  48
ATOM     48  O   UNL A   1      44.107  19.514  24.438  1.00  0.00    -0.460 OA
BRANCH  48  49
ATOM     49  C   UNL A   1      45.305  20.148  24.421  1.00  0.00     0.338 C 
ATOM     50  O   UNL A   1      46.337  19.757  23.888  1.00  0.00    -0.246 OA
BRANCH  49  51
ATOM     51  C   UNL A   1      45.184  21.489  25.013  1.00  0.00     0.060 A 
ATOM     52  C   UNL A   1      44.930  22.562  24.147  1.00  0.00     0.016 A 
ATOM     53  C   UNL A   1      45.416  21.709  26.371  1.00  0.00     0.016 A 
ATOM     54  C   UNL A   1      44.949  23.868  24.630  1.00  0.00     0.010 A 
ATOM     55  C   UNL A   1      45.448  23.022  26.850  1.00  0.00     0.010 A 
ATOM     56  C   UNL A   1      45.253  24.107  25.975  1.00  0.00    -0.014 A 
BRANCH  56  57
ATOM     57  C   UNL A   1      45.541  25.488  26.427  1.00  0.00     0.031 A 
ATOM     58  C   UNL A   1      44.399  26.343  26.903  1.00  0.00     0.074 A 
ATOM     59  C   UNL A   1      46.794  25.974  26.410  1.00  0.00     0.049 A 
ATOM     60  N   UNL A   1      44.402  27.591  27.289  1.00  0.00    -0.248 NA
ATOM     61  C   UNL A   1      43.071  25.704  26.945  1.00  0.00     0.031 C 
ATOM     62  C   UNL A   1      47.981  25.234  25.983  1.00  0.00     0.029 A 
ATOM     63  N   UNL A   1      47.271  27.219  26.737  1.00  0.00    -0.354 N 
ATOM     64  C   UNL A   1      43.081  27.898  27.589  1.00  0.00     0.074 A 
ATOM     65  C   UNL A   1      42.299  26.709  27.333  1.00  0.00     0.031 C 
ATOM     66  C   UNL A   1      49.047  26.051  26.042  1.00  0.00     0.029 A 
ATOM     67  C   UNL A   1      48.614  27.375  26.486  1.00  0.00     0.049 A 
ATOM     68  H   UNL A   1      46.706  27.931  27.115  1.00  0.00     0.167 HD
ATOM     69  C   UNL A   1      42.566  29.063  28.048  1.00  0.00     0.034 A 
ATOM     70  C   UNL A   1      49.395  28.470  26.580  1.00  0.00     0.034 A 
ATOM     71  C   UNL A   1      43.351  30.235  28.322  1.00  0.00     0.049 A 
ATOM     72  C   UNL A   1      48.794  29.760  27.076  1.00  0.00     0.074 A 
ATOM     73  C   UNL A   1      42.930  31.453  28.826  1.00  0.00     0.029 A 
ATOM     74  N   UNL A   1      44.716  30.339  28.108  1.00  0.00    -0.354 N 
ATOM     75  N   UNL A   1      47.562  30.005  27.456  1.00  0.00    -0.248 NA
ATOM     76  C   UNL A   1      49.695  30.916  27.188  1.00  0.00     0.031 C 
ATOM     77  C   UNL A   1      44.039  32.302  28.896  1.00  0.00     0.029 A 
ATOM     78  C   UNL A   1      45.155  31.601  28.464  1.00  0.00     0.049 A 
ATOM     79  H   UNL A   1      45.289  29.620  27.756  1.00  0.00     0.167 HD
ATOM     80  C   UNL A   1      47.552  31.326  27.893  1.00  0.00     0.074 A 
ATOM     81  C   UNL A   1      48.902  31.826  27.740  1.00  0.00     0.031 C 
ATOM     82  C   UNL A   1      46.517  32.060  28.369  1.00  0.00     0.034 A 
BRANCH  69  83
ATOM     83  C   UNL A   1      41.084  29.120  28.305  1.00  0.00     0.023 A 
ATOM     84  C   UNL A   1      40.193  29.260  27.222  1.00  0.00     0.012 A 
ATOM     85  C   UNL A   1      40.572  28.983  29.610  1.00  0.00     0.148 A 
ATOM     86  C   UNL A   1      38.815  29.292  27.436  1.00  0.00     0.002 A 
ATOM     87  C   UNL A   1      39.196  28.973  29.811  1.00  0.00     0.091 A 
ATOM     88  F   UNL A   1      41.436  28.877  30.629  1.00  0.00    -0.205 F 
ATOM     89  C   UNL A   1      38.317  29.138  28.727  1.00  0.00     0.022 A 
BRANCH  87  90
ATOM     90  S   UNL A   1      38.458  28.709  31.427  1.00  0.00     0.127 S 
ATOM     91  O   UNL A   1      39.032  29.811  32.197  1.00  0.00    -0.237 OA
ATOM     92  O   UNL A   1      37.030  28.845  31.139  1.00  0.00    -0.237 OA
ATOM     93  O   UNL A   1      38.868  27.376  31.842  1.00  0.00    -0.744 OA
ENDBRANCH  87  90
ENDBRANCH  69  83
BRANCH  70  94
ATOM     94  C   UNL A   1      50.841  28.384  26.231  1.00  0.00     0.023 A 
ATOM     95  C   UNL A   1      51.269  28.765  24.944  1.00  0.00     0.012 A 
ATOM     96  C   UNL A   1      51.794  27.943  27.169  1.00  0.00     0.148 A 
ATOM     97  C   UNL A   1      52.618  28.684  24.591  1.00  0.00     0.002 A 
ATOM     98  C   UNL A   1      53.141  27.915  26.828  1.00  0.00     0.091 A 
ATOM     99  F   UNL A   1      51.364  27.566  28.381  1.00  0.00    -0.205 F 
ATOM    100  C   UNL A   1      53.553  28.269  25.534  1.00  0.00     0.022 A 
BRANCH  98 101
ATOM    101  S   UNL A   1      54.427  27.514  28.017  1.00  0.00     0.127 S 
ATOM    102  O   UNL A   1      54.591  28.785  28.718  1.00  0.00    -0.237 OA
ATOM    103  O   UNL A   1      53.792  26.455  28.802  1.00  0.00    -0.237 OA
ATOM    104  O   UNL A   1      55.569  27.073  27.227  1.00  0.00    -0.744 OA
ENDBRANCH  98 101
ENDBRANCH  70  94
BRANCH  82 105
ATOM    105  C   UNL A   1      46.799  33.470  28.820  1.00  0.00     0.023 A 
ATOM    106  C   UNL A   1      47.175  33.721  30.153  1.00  0.00     0.012 A 
ATOM    107  C   UNL A   1      46.792  34.529  27.889  1.00  0.00     0.148 A 
ATOM    108  C   UNL A   1      47.517  35.011  30.559  1.00  0.00     0.002 A 
ATOM    109  C   UNL A   1      47.181  35.800  28.290  1.00  0.00     0.091 A 
ATOM    110  F   UNL A   1      46.414  34.269  26.629  1.00  0.00    -0.205 F 
ATOM    111  C   UNL A   1      47.534  36.046  29.627  1.00  0.00     0.022 A 
BRANCH 109 112
ATOM    112  S   UNL A   1      47.330  37.170  27.136  1.00  0.00     0.127 S 
ATOM    113  O   UNL A   1      45.942  37.355  26.714  1.00  0.00    -0.237 OA
ATOM    114  O   UNL A   1      47.857  38.237  27.987  1.00  0.00    -0.237 OA
ATOM    115  O   UNL A   1      48.244  36.720  26.095  1.00  0.00    -0.744 OA
ENDBRANCH 109 112
ENDBRANCH  82 105
ENDBRANCH  56  57
ENDBRANCH  49  51
ENDBRANCH  48  49
ENDBRANCH  47  48
ENDBRANCH  46  47
ENDBRANCH  45  46
ENDBRANCH  44  45
ENDBRANCH   1  44
TORSDOF 29
ENDMDL
MODEL 3
REMARK VINA RESULT:      -9.7      2.271      3.080
REMARK SMILES O=C(N[C@@H](Cc1c[nH]c2ccccc12)C(=O)N[C@@H](CS)C(=O)N[C@@H](CO)C(=O)OCCOCCOC(=O)c1ccc(-c2c3nc(c(-c4cccc(S(=O)(=O)[O-])c4F)c4ccc([nH]4)c(-c4cccc(S(=O)(=O)[O-])c4F)c4nc(c(-c5cccc(S(=O)(=O)[O-])c5F)c5ccc2[nH]5)C=C4)C=C3)cc1)c1ccc(F)cc1
REMARK SMILES IDX 30 1 29 2 27 3 28 4 24 5 23 6 21 7 22 8 18 10 17 11 15 12
REMARK SMILES IDX 16 13 4 15 3 16 1 17 2 18 101 20 102 21 107 22 103 23 106 24
REMARK SMILES IDX 104 25 105 26 5 27 6 28 7 29 14 30 8 31 9 32 13 33 10 35
REMARK SMILES IDX 12 36 11 37 19 38 20 39 25 41 26 42 31 44 32 45 33 46 34 47
REMARK SMILES IDX 35 48 36 49 37 50 38 51 39 52 100 53 40 54 99 55 41 56 42 57
REMARK SMILES IDX 43 58 93 59 44 60 98 61 92 62 94 63 45 64 97 65 91 66 90 67
REMARK SMILES IDX 46 69 78 70 58 71 77 72 59 73 62 74 76 75 95 76 60 77 61 78
REMARK SMILES IDX 75 80 96 81 63 82 47 83 48 84 56 85 49 86 51 87 57 88 50 89
REMARK SMILES IDX 52 90 53 91 54 92 55 93 79 94 80 95 88 96 81 97 83 98 89 99
REMARK SMILES IDX 82 100 84 101 85 102 86 103 87 104 64 105 65 106 73 107
REMARK SMILES IDX 66 108 68 109 74 110 67 111 69 112 70 113 71 114 72 115
REMARK H PARENT 23 9 17 14 3 19 8 34 20 40 26 43 94 68 62 79
REMARK Flexibility Score: inf
ROOT
ATOM      1  C   UNL A   1      38.875  19.492  25.315  1.00  0.00     0.261 C 
ENDROOT
BRANCH   1   2
ATOM      2  O   UNL A   1      37.916  20.548  25.164  1.00  0.00    -0.462 OA
BRANCH   2   3
ATOM      3  C   UNL A   1      36.626  20.141  25.037  1.00  0.00     0.331 C 
ATOM      4  O   UNL A   1      36.277  19.010  24.716  1.00  0.00    -0.250 OA
BRANCH   3   5
ATOM      5  C   UNL A   1      35.640  21.282  25.280  1.00  0.00     0.218 C 
BRANCH   5   6
ATOM      6  N   UNL A   1      34.482  20.938  26.131  1.00  0.00    -0.339 N 
ATOM      7  C   UNL A   1      33.632  21.957  26.459  1.00  0.00     0.244 C 
ATOM      8  O   UNL A   1      34.056  22.907  27.118  1.00  0.00    -0.273 OA
ATOM      9  H   UNL A   1      34.330  20.018  26.448  1.00  0.00     0.164 HD
BRANCH   7  10
ATOM     10  C   UNL A   1      32.193  21.945  25.882  1.00  0.00     0.181 C 
BRANCH  10  11
ATOM     11  N   UNL A   1      31.426  22.829  26.768  1.00  0.00    -0.342 N 
ATOM     12  C   UNL A   1      30.694  23.924  26.395  1.00  0.00     0.243 C 
ATOM     13  O   UNL A   1      29.604  24.088  26.953  1.00  0.00    -0.273 OA
ATOM     14  H   UNL A   1      31.440  22.613  27.729  1.00  0.00     0.164 HD
BRANCH  12  15
ATOM     15  C   UNL A   1      31.220  24.979  25.393  1.00  0.00     0.176 C 
BRANCH  15  16
ATOM     16  N   UNL A   1      32.686  24.949  25.361  1.00  0.00    -0.340 N 
ATOM     17  O   UNL A   1      34.779  25.714  25.721  1.00  0.00    -0.269 OA
ATOM     18  C   UNL A   1      33.570  25.919  25.772  1.00  0.00     0.251 C 
ATOM     19  H   UNL A   1      33.090  24.127  24.999  1.00  0.00     0.164 HD
BRANCH  18  20
ATOM     20  C   UNL A   1      33.077  27.254  26.192  1.00  0.00     0.040 A 
ATOM     21  C   UNL A   1      32.101  27.414  27.185  1.00  0.00     0.017 A 
ATOM     22  C   UNL A   1      33.608  28.377  25.545  1.00  0.00     0.017 A 
ATOM     23  C   UNL A   1      31.592  28.685  27.461  1.00  0.00     0.040 A 
ATOM     24  C   UNL A   1      33.112  29.649  25.838  1.00  0.00     0.040 A 
ATOM     25  C   UNL A   1      32.097  29.789  26.780  1.00  0.00     0.123 A 
ATOM     26  F   UNL A   1      31.598  31.005  27.034  1.00  0.00    -0.207 F 
ENDBRANCH  18  20
ENDBRANCH  15  16
BRANCH  15  27
ATOM     27  C   UNL A   1      30.526  25.140  24.032  1.00  0.00     0.072 C 
BRANCH  27  28
ATOM     28  C   UNL A   1      30.588  26.471  23.350  1.00  0.00    -0.020 A 
ATOM     29  C   UNL A   1      31.684  27.056  22.743  1.00  0.00     0.087 A 
ATOM     30  C   UNL A   1      29.507  27.407  23.231  1.00  0.00     0.003 A 
ATOM     31  N   UNL A   1      31.290  28.252  22.200  1.00  0.00    -0.361 N 
ATOM     32  C   UNL A   1      29.951  28.462  22.434  1.00  0.00     0.046 A 
ATOM     33  C   UNL A   1      28.173  27.426  23.687  1.00  0.00     0.010 A 
ATOM     34  H   UNL A   1      31.880  28.872  21.714  1.00  0.00     0.166 HD
ATOM     35  C   UNL A   1      29.111  29.502  22.017  1.00  0.00     0.026 A 
ATOM     36  C   UNL A   1      27.321  28.464  23.289  1.00  0.00     0.001 A 
ATOM     37  C   UNL A   1      27.782  29.476  22.451  1.00  0.00     0.002 A 
ENDBRANCH  27  28
ENDBRANCH  15  27
ENDBRANCH  12  15
ENDBRANCH  10  11
BRANCH  10  38
ATOM     38  C   UNL A   1      31.991  22.230  24.392  1.00  0.00     0.101 C 
BRANCH  38  39
ATOM     39  S   UNL A   1      32.241  20.840  23.248  1.00  0.00    -0.177 SA
ATOM     40  H   UNL A   1      32.799  19.795  23.918  1.00  0.00     0.102 HD
ENDBRANCH  38  39
ENDBRANCH  10  38
ENDBRANCH   7  10
ENDBRANCH   5   6
BRANCH   5  41
ATOM     41  C   UNL A   1      36.437  22.471  25.836  1.00  0.00     0.193 C 
BRANCH  41  42
ATOM     42  O   UNL A   1      36.294  23.604  24.980  1.00  0.00    -0.394 OA
ATOM     43  H   UNL A   1      36.861  23.495  24.201  1.00  0.00     0.210 HD
ENDBRANCH  41  42
ENDBRANCH   5  41
ENDBRANCH   3   5
ENDBRANCH   2   3
ENDBRANCH   1   2
BRANCH   1  44
ATOM     44  C   UNL A   1      40.080  19.996  26.108  1.00  0.00     0.202 C 
BRANCH  44  45
ATOM     45  O   UNL A   1      41.355  19.483  25.710  1.00  0.00    -0.374 OA
BRANCH  45  46
ATOM     46  C   UNL A   1      42.509  20.077  26.302  1.00  0.00     0.202 C 
BRANCH  46  47
ATOM     47  C   UNL A   1      42.863  21.504  25.863  1.00  0.00     0.261 C 
BRANCH  47  48
ATOM     48  O   UNL A   1      43.943  21.565  24.919  1.00  0.00    -0.460 OA
BRANCH  48  49
ATOM     49  C   UNL A   1      45.174  21.646  25.483  1.00  0.00     0.338 C 
ATOM     50  O   UNL A   1      46.018  20.759  25.539  1.00  0.00    -0.246 OA
BRANCH  49  51
ATOM     51  C   UNL A   1      45.454  23.026  25.908  1.00  0.00     0.060 A 
ATOM     52  C   UNL A   1      45.633  23.261  27.278  1.00  0.00     0.016 A 
ATOM     53  C   UNL A   1      45.439  24.085  24.999  1.00  0.00     0.016 A 
ATOM     54  C   UNL A   1      45.758  24.564  27.752  1.00  0.00     0.010 A 
ATOM     55  C   UNL A   1      45.550  25.393  25.479  1.00  0.00     0.010 A 
ATOM     56  C   UNL A   1      45.671  25.639  26.860  1.00  0.00    -0.014 A 
BRANCH  56  57
ATOM     57  C   UNL A   1      45.529  27.017  27.385  1.00  0.00     0.031 A 
ATOM     58  C   UNL A   1      46.761  27.872  27.506  1.00  0.00     0.074 A 
ATOM     59  C   UNL A   1      44.328  27.498  27.751  1.00  0.00     0.049 A 
ATOM     60  N   UNL A   1      46.887  29.080  27.988  1.00  0.00    -0.248 NA
ATOM     61  C   UNL A   1      48.021  27.283  27.022  1.00  0.00     0.031 C 
ATOM     62  C   UNL A   1      43.065  26.767  27.665  1.00  0.00     0.029 A 
ATOM     63  N   UNL A   1      43.981  28.709  28.295  1.00  0.00    -0.354 N 
ATOM     64  C   UNL A   1      48.239  29.385  27.897  1.00  0.00     0.074 A 
ATOM     65  C   UNL A   1      48.896  28.232  27.320  1.00  0.00     0.031 C 
ATOM     66  C   UNL A   1      42.083  27.533  28.171  1.00  0.00     0.029 A 
ATOM     67  C   UNL A   1      42.654  28.796  28.639  1.00  0.00     0.049 A 
ATOM     68  H   UNL A   1      44.622  29.445  28.425  1.00  0.00     0.167 HD
ATOM     69  C   UNL A   1      48.876  30.526  28.249  1.00  0.00     0.034 A 
ATOM     70  C   UNL A   1      41.983  29.773  29.282  1.00  0.00     0.034 A 
ATOM     71  C   UNL A   1      48.215  31.676  28.801  1.00  0.00     0.049 A 
ATOM     72  C   UNL A   1      42.718  31.026  29.682  1.00  0.00     0.074 A 
ATOM     73  C   UNL A   1      48.763  32.896  29.156  1.00  0.00     0.029 A 
ATOM     74  N   UNL A   1      46.860  31.747  29.085  1.00  0.00    -0.354 N 
ATOM     75  N   UNL A   1      43.977  31.341  29.493  1.00  0.00    -0.248 NA
ATOM     76  C   UNL A   1      41.935  32.074  30.354  1.00  0.00     0.031 C 
ATOM     77  C   UNL A   1      47.742  33.698  29.676  1.00  0.00     0.029 A 
ATOM     78  C   UNL A   1      46.553  32.988  29.616  1.00  0.00     0.049 A 
ATOM     79  H   UNL A   1      46.211  31.023  28.930  1.00  0.00     0.167 HD
ATOM     80  C   UNL A   1      44.126  32.636  29.980  1.00  0.00     0.074 A 
ATOM     81  C   UNL A   1      42.826  33.050  30.464  1.00  0.00     0.031 C 
ATOM     82  C   UNL A   1      45.239  33.408  30.029  1.00  0.00     0.034 A 
BRANCH  69  83
ATOM     83  C   UNL A   1      50.363  30.595  28.028  1.00  0.00     0.023 A 
ATOM     84  C   UNL A   1      51.240  30.146  29.036  1.00  0.00     0.012 A 
ATOM     85  C   UNL A   1      50.890  31.055  26.806  1.00  0.00     0.148 A 
ATOM     86  C   UNL A   1      52.620  30.181  28.842  1.00  0.00     0.002 A 
ATOM     87  C   UNL A   1      52.266  31.047  26.604  1.00  0.00     0.091 A 
ATOM     88  F   UNL A   1      50.041  31.503  25.870  1.00  0.00    -0.205 F 
ATOM     89  C   UNL A   1      53.132  30.620  27.624  1.00  0.00     0.022 A 
BRANCH  87  90
ATOM     90  S   UNL A   1      53.016  31.526  25.044  1.00  0.00     0.127 S 
ATOM     91  O   UNL A   1      51.917  31.302  24.107  1.00  0.00    -0.237 OA
ATOM     92  O   UNL A   1      53.340  32.934  25.278  1.00  0.00    -0.237 OA
ATOM     93  O   UNL A   1      54.172  30.659  24.872  1.00  0.00    -0.744 OA
ENDBRANCH  87  90
ENDBRANCH  69  83
BRANCH  70  94
ATOM     94  C   UNL A   1      40.527  29.620  29.556  1.00  0.00     0.023 A 
ATOM     95  C   UNL A   1      39.608  29.692  28.491  1.00  0.00     0.012 A 
ATOM     96  C   UNL A   1      40.049  29.387  30.860  1.00  0.00     0.148 A 
ATOM     97  C   UNL A   1      38.237  29.562  28.724  1.00  0.00     0.002 A 
ATOM     98  C   UNL A   1      38.688  29.206  31.078  1.00  0.00     0.091 A 
ATOM     99  F   UNL A   1      40.937  29.341  31.862  1.00  0.00    -0.205 F 
ATOM    100  C   UNL A   1      37.779  29.309  30.014  1.00  0.00     0.022 A 
BRANCH  98 101
ATOM    101  S   UNL A   1      38.023  28.752  32.684  1.00  0.00     0.127 S 
ATOM    102  O   UNL A   1      38.850  29.551  33.585  1.00  0.00    -0.237 OA
ATOM    103  O   UNL A   1      36.632  29.193  32.571  1.00  0.00    -0.237 OA
ATOM    104  O   UNL A   1      38.189  27.308  32.784  1.00  0.00    -0.744 OA
ENDBRANCH  98 101
ENDBRANCH  70  94
BRANCH  82 105
ATOM    105  C   UNL A   1      45.106  34.806  30.573  1.00  0.00     0.023 A 
ATOM    106  C   UNL A   1      45.426  35.072  31.918  1.00  0.00     0.012 A 
ATOM    107  C   UNL A   1      44.765  35.873  29.717  1.00  0.00     0.148 A 
ATOM    108  C   UNL A   1      45.385  36.377  32.410  1.00  0.00     0.002 A 
ATOM    109  C   UNL A   1      44.774  37.175  30.202  1.00  0.00     0.091 A 
ATOM    110  F   UNL A   1      44.448  35.595  28.445  1.00  0.00    -0.205 F 
ATOM    111  C   UNL A   1      45.073  37.428  31.550  1.00  0.00     0.022 A 
BRANCH 109 112
ATOM    112  S   UNL A   1      44.485  38.598  29.143  1.00  0.00     0.127 S 
ATOM    113  O   UNL A   1      45.283  39.628  29.806  1.00  0.00    -0.237 OA
ATOM    114  O   UNL A   1      45.018  38.143  27.859  1.00  0.00    -0.237 OA
ATOM    115  O   UNL A   1      43.045  38.821  29.155  1.00  0.00    -0.744 OA
ENDBRANCH 109 112
ENDBRANCH  82 105
ENDBRANCH  56  57
ENDBRANCH  49  51
ENDBRANCH  48  49
ENDBRANCH  47  48
ENDBRANCH  46  47
ENDBRANCH  45  46
ENDBRANCH  44  45
ENDBRANCH   1  44
TORSDOF 29
ENDMDL
