MODEL 1
REMARK VINA RESULT:     -10.8      0.000      0.000
REMARK SMILES CC(C)c1nc(N2C[C@H](C)OC(C)(C)C2)sc1C(=O)OCCOCCOC(=O)c1ccc(-c2c3nc(c(-c4cccc(S(=O)(=O)[O-])c4F)c4ccc([nH]4)c(-c4cccc(S(=O)(=O)[O-])c4F)c4nc(c(-c5cccc(S(=O)(=O)[O-])c5F)c5ccc2[nH]5)C=C4)C=C3)cc1
REMARK SMILES IDX 24 1 23 2 22 3 21 4 20 5 18 6 19 7 17 8 4 9 5 10 6 11 16 12
REMARK SMILES IDX 2 13 1 14 3 15 7 16 8 17 15 18 9 19 12 20 11 21 10 22 13 23
REMARK SMILES IDX 14 24 25 25 26 26 27 27 28 28 29 29 30 30 91 31 31 32 90 33
REMARK SMILES IDX 32 34 33 35 34 36 84 37 35 38 89 39 83 40 85 41 36 42 88 43
REMARK SMILES IDX 82 44 81 45 37 47 69 48 49 49 68 50 50 51 53 52 67 53 86 54
REMARK SMILES IDX 51 55 52 56 66 58 87 59 54 60 38 61 39 62 47 63 40 64 42 65
REMARK SMILES IDX 48 66 41 67 43 68 44 69 45 70 46 71 70 72 71 73 79 74 72 75
REMARK SMILES IDX 74 76 80 77 73 78 75 79 76 80 77 81 78 82 55 83 56 84 64 85
REMARK SMILES IDX 57 86 59 87 65 88 58 89 60 90 61 91 62 92 63 93
REMARK H PARENT 85 46 53 57
REMARK Flexibility Score: inf
ROOT
ATOM      1  C   UNL A   1      32.108  31.400  26.919  1.00  0.00     0.202 C 
ENDROOT
BRANCH   1   2
ATOM      2  O   UNL A   1      33.391  30.930  26.495  1.00  0.00    -0.374 OA
BRANCH   2   3
ATOM      3  C   UNL A   1      33.787  29.655  27.011  1.00  0.00     0.202 C 
BRANCH   3   4
ATOM      4  C   UNL A   1      33.753  28.546  25.958  1.00  0.00     0.261 C 
BRANCH   4   5
ATOM      5  O   UNL A   1      32.388  28.162  25.725  1.00  0.00    -0.459 OA
BRANCH   5   6
ATOM      6  C   UNL A   1      32.010  26.957  26.228  1.00  0.00     0.350 C 
ATOM      7  O   UNL A   1      31.362  26.815  27.260  1.00  0.00    -0.245 OA
BRANCH   6   8
ATOM      8  C   UNL A   1      32.383  25.898  25.319  1.00  0.00     0.137 A 
ATOM      9  C   UNL A   1      32.194  25.699  23.956  1.00  0.00     0.071 A 
ATOM     10  N   UNL A   1      32.731  24.503  23.483  1.00  0.00    -0.224 NA
ATOM     11  C   UNL A   1      33.253  23.794  24.451  1.00  0.00     0.186 A 
ATOM     12  S   UNL A   1      33.158  24.518  25.998  1.00  0.00    -0.089 S 
BRANCH   9  13
ATOM     13  C   UNL A   1      31.510  26.596  22.945  1.00  0.00     0.034 C 
ATOM     14  C   UNL A   1      31.724  26.112  21.505  1.00  0.00     0.014 C 
ATOM     15  C   UNL A   1      30.008  26.702  23.222  1.00  0.00     0.014 C 
ENDBRANCH   9  13
BRANCH  11  16
ATOM     16  N   UNL A   1      33.870  22.615  24.255  1.00  0.00    -0.343 N 
ATOM     17  C   UNL A   1      35.314  22.482  24.199  1.00  0.00     0.150 C 
ATOM     18  C   UNL A   1      33.088  21.428  23.942  1.00  0.00     0.153 C 
ATOM     19  C   UNL A   1      35.734  21.283  25.073  1.00  0.00     0.135 C 
ATOM     20  C   UNL A   1      33.590  20.210  24.756  1.00  0.00     0.081 C 
ATOM     21  O   UNL A   1      35.033  20.082  24.691  1.00  0.00    -0.369 OA
ATOM     22  C   UNL A   1      37.224  21.004  24.937  1.00  0.00     0.040 C 
ATOM     23  C   UNL A   1      33.113  20.282  26.214  1.00  0.00     0.044 C 
ATOM     24  C   UNL A   1      33.035  18.929  24.119  1.00  0.00     0.044 C 
ENDBRANCH  11  16
ENDBRANCH   6   8
ENDBRANCH   5   6
ENDBRANCH   4   5
ENDBRANCH   3   4
ENDBRANCH   2   3
ENDBRANCH   1   2
BRANCH   1  25
ATOM     25  C   UNL A   1      32.033  32.916  27.130  1.00  0.00     0.261 C 
BRANCH  25  26
ATOM     26  O   UNL A   1      33.350  33.494  27.162  1.00  0.00    -0.460 OA
BRANCH  26  27
ATOM     27  C   UNL A   1      33.799  33.841  28.392  1.00  0.00     0.338 C 
ATOM     28  O   UNL A   1      33.248  34.581  29.190  1.00  0.00    -0.246 OA
BRANCH  27  29
ATOM     29  C   UNL A   1      35.000  33.045  28.730  1.00  0.00     0.060 A 
ATOM     30  C   UNL A   1      34.811  31.903  29.520  1.00  0.00     0.016 A 
ATOM     31  C   UNL A   1      36.284  33.405  28.311  1.00  0.00     0.016 A 
ATOM     32  C   UNL A   1      35.908  31.149  29.936  1.00  0.00     0.010 A 
ATOM     33  C   UNL A   1      37.384  32.649  28.732  1.00  0.00     0.010 A 
ATOM     34  C   UNL A   1      37.204  31.539  29.577  1.00  0.00    -0.014 A 
BRANCH  34  35
ATOM     35  C   UNL A   1      38.369  30.861  30.196  1.00  0.00     0.031 A 
ATOM     36  C   UNL A   1      38.780  31.246  31.592  1.00  0.00     0.074 A 
ATOM     37  C   UNL A   1      39.047  29.908  29.533  1.00  0.00     0.049 A 
ATOM     38  N   UNL A   1      39.748  30.767  32.330  1.00  0.00    -0.248 NA
ATOM     39  C   UNL A   1      37.999  32.311  32.242  1.00  0.00     0.031 C 
ATOM     40  C   UNL A   1      38.754  29.451  28.175  1.00  0.00     0.029 A 
ATOM     41  N   UNL A   1      40.137  29.163  29.911  1.00  0.00    -0.354 N 
ATOM     42  C   UNL A   1      39.707  31.484  33.520  1.00  0.00     0.074 A 
ATOM     43  C   UNL A   1      38.628  32.441  33.401  1.00  0.00     0.031 C 
ATOM     44  C   UNL A   1      39.658  28.520  27.825  1.00  0.00     0.029 A 
ATOM     45  C   UNL A   1      40.599  28.322  28.926  1.00  0.00     0.049 A 
ATOM     46  H   UNL A   1      40.550  29.227  30.803  1.00  0.00     0.167 HD
ATOM     47  C   UNL A   1      40.481  31.344  34.621  1.00  0.00     0.034 A 
ATOM     48  C   UNL A   1      41.664  27.496  28.914  1.00  0.00     0.034 A 
ATOM     49  C   UNL A   1      41.533  30.373  34.755  1.00  0.00     0.049 A 
ATOM     50  C   UNL A   1      42.517  27.370  30.149  1.00  0.00     0.074 A 
ATOM     51  C   UNL A   1      42.329  30.116  35.856  1.00  0.00     0.029 A 
ATOM     52  N   UNL A   1      41.942  29.509  33.753  1.00  0.00    -0.354 N 
ATOM     53  N   UNL A   1      42.371  27.948  31.317  1.00  0.00    -0.248 NA
ATOM     54  C   UNL A   1      43.665  26.450  30.077  1.00  0.00     0.031 C 
ATOM     55  C   UNL A   1      43.235  29.105  35.514  1.00  0.00     0.029 A 
ATOM     56  C   UNL A   1      42.990  28.725  34.204  1.00  0.00     0.049 A 
ATOM     57  H   UNL A   1      41.547  29.459  32.853  1.00  0.00     0.167 HD
ATOM     58  C   UNL A   1      43.381  27.436  32.126  1.00  0.00     0.074 A 
ATOM     59  C   UNL A   1      44.122  26.488  31.321  1.00  0.00     0.031 C 
ATOM     60  C   UNL A   1      43.680  27.738  33.414  1.00  0.00     0.034 A 
BRANCH  47  61
ATOM     61  C   UNL A   1      40.190  32.236  35.797  1.00  0.00     0.023 A 
ATOM     62  C   UNL A   1      40.956  33.404  35.983  1.00  0.00     0.012 A 
ATOM     63  C   UNL A   1      39.125  31.956  36.674  1.00  0.00     0.148 A 
ATOM     64  C   UNL A   1      40.678  34.272  37.037  1.00  0.00     0.002 A 
ATOM     65  C   UNL A   1      38.833  32.844  37.702  1.00  0.00     0.091 A 
ATOM     66  F   UNL A   1      38.428  30.825  36.493  1.00  0.00    -0.205 F 
ATOM     67  C   UNL A   1      39.611  33.998  37.889  1.00  0.00     0.022 A 
BRANCH  65  68
ATOM     68  S   UNL A   1      37.437  32.612  38.809  1.00  0.00     0.127 S 
ATOM     69  O   UNL A   1      37.667  31.252  39.292  1.00  0.00    -0.237 OA
ATOM     70  O   UNL A   1      37.655  33.660  39.807  1.00  0.00    -0.237 OA
ATOM     71  O   UNL A   1      36.245  32.795  37.992  1.00  0.00    -0.744 OA
ENDBRANCH  65  68
ENDBRANCH  47  61
BRANCH  48  72
ATOM     72  C   UNL A   1      41.959  26.677  27.703  1.00  0.00     0.023 A 
ATOM     73  C   UNL A   1      42.597  27.276  26.600  1.00  0.00     0.012 A 
ATOM     74  C   UNL A   1      41.622  25.312  27.643  1.00  0.00     0.148 A 
ATOM     75  C   UNL A   1      42.866  26.538  25.447  1.00  0.00     0.002 A 
ATOM     76  C   UNL A   1      41.941  24.569  26.511  1.00  0.00     0.091 A 
ATOM     77  F   UNL A   1      40.992  24.764  28.692  1.00  0.00    -0.205 F 
ATOM     78  C   UNL A   1      42.549  25.183  25.406  1.00  0.00     0.022 A 
BRANCH  76  79
ATOM     79  S   UNL A   1      41.680  22.793  26.434  1.00  0.00     0.127 S 
ATOM     80  O   UNL A   1      42.341  22.447  25.180  1.00  0.00    -0.237 OA
ATOM     81  O   UNL A   1      42.365  22.330  27.641  1.00  0.00    -0.237 OA
ATOM     82  O   UNL A   1      40.234  22.614  26.466  1.00  0.00    -0.744 OA
ENDBRANCH  76  79
ENDBRANCH  48  72
BRANCH  60  83
ATOM     83  C   UNL A   1      44.836  27.019  34.057  1.00  0.00     0.023 A 
ATOM     84  C   UNL A   1      46.132  27.563  33.960  1.00  0.00     0.012 A 
ATOM     85  C   UNL A   1      44.629  25.857  34.826  1.00  0.00     0.148 A 
ATOM     86  C   UNL A   1      47.208  26.948  34.599  1.00  0.00     0.002 A 
ATOM     87  C   UNL A   1      45.699  25.274  35.496  1.00  0.00     0.091 A 
ATOM     88  F   UNL A   1      43.392  25.343  34.890  1.00  0.00    -0.205 F 
ATOM     89  C   UNL A   1      46.991  25.812  35.376  1.00  0.00     0.022 A 
BRANCH  87  90
ATOM     90  S   UNL A   1      45.488  23.865  36.592  1.00  0.00     0.127 S 
ATOM     91  O   UNL A   1      44.511  24.375  37.550  1.00  0.00    -0.237 OA
ATOM     92  O   UNL A   1      44.973  22.837  35.686  1.00  0.00    -0.237 OA
ATOM     93  O   UNL A   1      46.811  23.580  37.131  1.00  0.00    -0.744 OA
ENDBRANCH  87  90
ENDBRANCH  60  83
ENDBRANCH  34  35
ENDBRANCH  27  29
ENDBRANCH  26  27
ENDBRANCH  25  26
ENDBRANCH   1  25
TORSDOF 19
ENDMDL
MODEL 2
REMARK VINA RESULT:     -10.6      1.014      7.529
REMARK SMILES CC(C)c1nc(N2C[C@H](C)OC(C)(C)C2)sc1C(=O)OCCOCCOC(=O)c1ccc(-c2c3nc(c(-c4cccc(S(=O)(=O)[O-])c4F)c4ccc([nH]4)c(-c4cccc(S(=O)(=O)[O-])c4F)c4nc(c(-c5cccc(S(=O)(=O)[O-])c5F)c5ccc2[nH]5)C=C4)C=C3)cc1
REMARK SMILES IDX 24 1 23 2 22 3 21 4 20 5 18 6 19 7 17 8 4 9 5 10 6 11 16 12
REMARK SMILES IDX 2 13 1 14 3 15 7 16 8 17 15 18 9 19 12 20 11 21 10 22 13 23
REMARK SMILES IDX 14 24 25 25 26 26 27 27 28 28 29 29 30 30 91 31 31 32 90 33
REMARK SMILES IDX 32 34 33 35 34 36 84 37 35 38 89 39 83 40 85 41 36 42 88 43
REMARK SMILES IDX 82 44 81 45 37 47 69 48 49 49 68 50 50 51 53 52 67 53 86 54
REMARK SMILES IDX 51 55 52 56 66 58 87 59 54 60 38 61 39 62 47 63 40 64 42 65
REMARK SMILES IDX 48 66 41 67 43 68 44 69 45 70 46 71 70 72 71 73 79 74 72 75
REMARK SMILES IDX 74 76 80 77 73 78 75 79 76 80 77 81 78 82 55 83 56 84 64 85
REMARK SMILES IDX 57 86 59 87 65 88 58 89 60 90 61 91 62 92 63 93
REMARK H PARENT 85 46 53 57
REMARK Flexibility Score: inf
ROOT
ATOM      1  C   UNL A   1      31.469  31.301  26.127  1.00  0.00     0.202 C 
ENDROOT
BRANCH   1   2
ATOM      2  O   UNL A   1      31.859  30.069  26.742  1.00  0.00    -0.374 OA
BRANCH   2   3
ATOM      3  C   UNL A   1      33.235  29.707  26.589  1.00  0.00     0.202 C 
BRANCH   3   4
ATOM      4  C   UNL A   1      33.445  28.549  25.612  1.00  0.00     0.261 C 
BRANCH   4   5
ATOM      5  O   UNL A   1      32.440  28.613  24.586  1.00  0.00    -0.459 OA
BRANCH   5   6
ATOM      6  C   UNL A   1      32.646  27.826  23.497  1.00  0.00     0.350 C 
ATOM      7  O   UNL A   1      32.909  28.255  22.378  1.00  0.00    -0.245 OA
BRANCH   6   8
ATOM      8  C   UNL A   1      32.622  26.432  23.876  1.00  0.00     0.137 A 
ATOM      9  C   UNL A   1      31.711  25.648  24.577  1.00  0.00     0.071 A 
ATOM     10  N   UNL A   1      32.104  24.319  24.716  1.00  0.00    -0.224 NA
ATOM     11  C   UNL A   1      33.287  24.110  24.196  1.00  0.00     0.186 A 
ATOM     12  S   UNL A   1      34.008  25.489  23.484  1.00  0.00    -0.089 S 
BRANCH   9  13
ATOM     13  C   UNL A   1      30.379  26.042  25.181  1.00  0.00     0.034 C 
ATOM     14  C   UNL A   1      29.316  26.310  24.108  1.00  0.00     0.014 C 
ATOM     15  C   UNL A   1      29.863  24.965  26.140  1.00  0.00     0.014 C 
ENDBRANCH   9  13
BRANCH  11  16
ATOM     16  N   UNL A   1      33.879  22.903  24.165  1.00  0.00    -0.343 N 
ATOM     17  C   UNL A   1      35.295  22.727  23.899  1.00  0.00     0.150 C 
ATOM     18  C   UNL A   1      33.072  21.695  24.258  1.00  0.00     0.153 C 
ATOM     19  C   UNL A   1      35.873  21.740  24.933  1.00  0.00     0.135 C 
ATOM     20  C   UNL A   1      33.722  20.674  25.225  1.00  0.00     0.081 C 
ATOM     21  O   UNL A   1      35.135  20.501  24.949  1.00  0.00    -0.369 OA
ATOM     22  C   UNL A   1      37.323  21.403  24.614  1.00  0.00     0.040 C 
ATOM     23  C   UNL A   1      33.497  21.076  26.690  1.00  0.00     0.044 C 
ATOM     24  C   UNL A   1      33.086  19.298  24.989  1.00  0.00     0.044 C 
ENDBRANCH  11  16
ENDBRANCH   6   8
ENDBRANCH   5   6
ENDBRANCH   4   5
ENDBRANCH   3   4
ENDBRANCH   2   3
ENDBRANCH   1   2
BRANCH   1  25
ATOM     25  C   UNL A   1      31.573  32.522  27.046  1.00  0.00     0.261 C 
BRANCH  25  26
ATOM     26  O   UNL A   1      32.813  33.220  26.830  1.00  0.00    -0.460 OA
BRANCH  26  27
ATOM     27  C   UNL A   1      33.302  33.877  27.910  1.00  0.00     0.338 C 
ATOM     28  O   UNL A   1      32.771  34.801  28.505  1.00  0.00    -0.246 OA
BRANCH  27  29
ATOM     29  C   UNL A   1      34.521  33.198  28.400  1.00  0.00     0.060 A 
ATOM     30  C   UNL A   1      34.354  31.962  29.039  1.00  0.00     0.016 A 
ATOM     31  C   UNL A   1      35.797  33.752  28.266  1.00  0.00     0.016 A 
ATOM     32  C   UNL A   1      35.452  31.303  29.590  1.00  0.00     0.010 A 
ATOM     33  C   UNL A   1      36.899  33.091  28.823  1.00  0.00     0.010 A 
ATOM     34  C   UNL A   1      36.726  31.882  29.519  1.00  0.00    -0.014 A 
BRANCH  34  35
ATOM     35  C   UNL A   1      37.844  31.284  30.289  1.00  0.00     0.031 A 
ATOM     36  C   UNL A   1      38.696  30.229  29.639  1.00  0.00     0.074 A 
ATOM     37  C   UNL A   1      38.107  31.682  31.547  1.00  0.00     0.049 A 
ATOM     38  N   UNL A   1      39.735  29.594  30.118  1.00  0.00    -0.248 NA
ATOM     39  C   UNL A   1      38.331  29.835  28.267  1.00  0.00     0.031 C 
ATOM     40  C   UNL A   1      37.352  32.689  32.290  1.00  0.00     0.029 A 
ATOM     41  N   UNL A   1      39.077  31.271  32.427  1.00  0.00    -0.354 N 
ATOM     42  C   UNL A   1      40.134  28.713  29.120  1.00  0.00     0.074 A 
ATOM     43  C   UNL A   1      39.218  28.884  28.012  1.00  0.00     0.031 C 
ATOM     44  C   UNL A   1      37.873  32.801  33.524  1.00  0.00     0.029 A 
ATOM     45  C   UNL A   1      38.989  31.867  33.663  1.00  0.00     0.049 A 
ATOM     46  H   UNL A   1      39.769  30.610  32.195  1.00  0.00     0.167 HD
ATOM     47  C   UNL A   1      41.182  27.856  29.115  1.00  0.00     0.034 A 
ATOM     48  C   UNL A   1      39.722  31.674  34.778  1.00  0.00     0.034 A 
ATOM     49  C   UNL A   1      42.112  27.706  30.200  1.00  0.00     0.049 A 
ATOM     50  C   UNL A   1      40.873  30.703  34.748  1.00  0.00     0.074 A 
ATOM     51  C   UNL A   1      43.240  26.907  30.260  1.00  0.00     0.029 A 
ATOM     52  N   UNL A   1      42.017  28.359  31.418  1.00  0.00    -0.354 N 
ATOM     53  N   UNL A   1      41.327  29.989  33.746  1.00  0.00    -0.248 NA
ATOM     54  C   UNL A   1      41.637  30.535  35.996  1.00  0.00     0.031 C 
ATOM     55  C   UNL A   1      43.819  27.065  31.525  1.00  0.00     0.029 A 
ATOM     56  C   UNL A   1      43.059  27.973  32.244  1.00  0.00     0.049 A 
ATOM     57  H   UNL A   1      41.313  29.003  31.661  1.00  0.00     0.167 HD
ATOM     58  C   UNL A   1      42.446  29.319  34.230  1.00  0.00     0.074 A 
ATOM     59  C   UNL A   1      42.614  29.726  35.609  1.00  0.00     0.031 C 
ATOM     60  C   UNL A   1      43.253  28.433  33.594  1.00  0.00     0.034 A 
BRANCH  47  61
ATOM     61  C   UNL A   1      41.408  27.038  27.873  1.00  0.00     0.023 A 
ATOM     62  C   UNL A   1      41.977  27.650  26.738  1.00  0.00     0.012 A 
ATOM     63  C   UNL A   1      41.122  25.660  27.849  1.00  0.00     0.148 A 
ATOM     64  C   UNL A   1      42.239  26.906  25.589  1.00  0.00     0.002 A 
ATOM     65  C   UNL A   1      41.419  24.918  26.712  1.00  0.00     0.091 A 
ATOM     66  F   UNL A   1      40.555  25.106  28.931  1.00  0.00    -0.205 F 
ATOM     67  C   UNL A   1      41.971  25.539  25.580  1.00  0.00     0.022 A 
BRANCH  65  68
ATOM     68  S   UNL A   1      41.171  23.140  26.629  1.00  0.00     0.127 S 
ATOM     69  O   UNL A   1      41.946  22.790  25.440  1.00  0.00    -0.237 OA
ATOM     70  O   UNL A   1      41.752  22.686  27.892  1.00  0.00    -0.237 OA
ATOM     71  O   UNL A   1      39.731  22.944  26.521  1.00  0.00    -0.744 OA
ENDBRANCH  65  68
ENDBRANCH  47  61
BRANCH  48  72
ATOM     72  C   UNL A   1      39.422  32.455  36.012  1.00  0.00     0.023 A 
ATOM     73  C   UNL A   1      40.032  33.710  36.202  1.00  0.00     0.012 A 
ATOM     74  C   UNL A   1      38.532  31.970  36.988  1.00  0.00     0.148 A 
ATOM     75  C   UNL A   1      39.784  34.454  37.357  1.00  0.00     0.002 A 
ATOM     76  C   UNL A   1      38.248  32.740  38.111  1.00  0.00     0.091 A 
ATOM     77  F   UNL A   1      37.979  30.762  36.802  1.00  0.00    -0.205 F 
ATOM     78  C   UNL A   1      38.885  33.974  38.305  1.00  0.00     0.022 A 
BRANCH  76  79
ATOM     79  S   UNL A   1      37.006  32.249  39.312  1.00  0.00     0.127 S 
ATOM     80  O   UNL A   1      37.343  33.092  40.455  1.00  0.00    -0.237 OA
ATOM     81  O   UNL A   1      35.761  32.604  38.629  1.00  0.00    -0.237 OA
ATOM     82  O   UNL A   1      37.193  30.816  39.497  1.00  0.00    -0.744 OA
ENDBRANCH  76  79
ENDBRANCH  48  72
BRANCH  60  83
ATOM     83  C   UNL A   1      44.413  27.858  34.363  1.00  0.00     0.023 A 
ATOM     84  C   UNL A   1      45.670  28.490  34.298  1.00  0.00     0.012 A 
ATOM     85  C   UNL A   1      44.240  26.749  35.214  1.00  0.00     0.148 A 
ATOM     86  C   UNL A   1      46.744  28.013  35.049  1.00  0.00     0.002 A 
ATOM     87  C   UNL A   1      45.302  26.305  35.993  1.00  0.00     0.091 A 
ATOM     88  F   UNL A   1      43.042  26.148  35.247  1.00  0.00    -0.205 F 
ATOM     89  C   UNL A   1      46.558  26.929  35.905  1.00  0.00     0.022 A 
BRANCH  87  90
ATOM     90  S   UNL A   1      45.122  24.976  37.190  1.00  0.00     0.127 S 
ATOM     91  O   UNL A   1      45.101  23.798  36.326  1.00  0.00    -0.237 OA
ATOM     92  O   UNL A   1      46.333  25.115  38.000  1.00  0.00    -0.237 OA
ATOM     93  O   UNL A   1      43.885  25.253  37.907  1.00  0.00    -0.744 OA
ENDBRANCH  87  90
ENDBRANCH  60  83
ENDBRANCH  34  35
ENDBRANCH  27  29
ENDBRANCH  26  27
ENDBRANCH  25  26
ENDBRANCH   1  25
TORSDOF 19
ENDMDL
MODEL 3
REMARK VINA RESULT:     -10.5      5.114      8.717
REMARK SMILES CC(C)c1nc(N2C[C@H](C)OC(C)(C)C2)sc1C(=O)OCCOCCOC(=O)c1ccc(-c2c3nc(c(-c4cccc(S(=O)(=O)[O-])c4F)c4ccc([nH]4)c(-c4cccc(S(=O)(=O)[O-])c4F)c4nc(c(-c5cccc(S(=O)(=O)[O-])c5F)c5ccc2[nH]5)C=C4)C=C3)cc1
REMARK SMILES IDX 24 1 23 2 22 3 21 4 20 5 18 6 19 7 17 8 4 9 5 10 6 11 16 12
REMARK SMILES IDX 2 13 1 14 3 15 7 16 8 17 15 18 9 19 12 20 11 21 10 22 13 23
REMARK SMILES IDX 14 24 25 25 26 26 27 27 28 28 29 29 30 30 91 31 31 32 90 33
REMARK SMILES IDX 32 34 33 35 34 36 84 37 35 38 89 39 83 40 85 41 36 42 88 43
REMARK SMILES IDX 82 44 81 45 37 47 69 48 49 49 68 50 50 51 53 52 67 53 86 54
REMARK SMILES IDX 51 55 52 56 66 58 87 59 54 60 38 61 39 62 47 63 40 64 42 65
REMARK SMILES IDX 48 66 41 67 43 68 44 69 45 70 46 71 70 72 71 73 79 74 72 75
REMARK SMILES IDX 74 76 80 77 73 78 75 79 76 80 77 81 78 82 55 83 56 84 64 85
REMARK SMILES IDX 57 86 59 87 65 88 58 89 60 90 61 91 62 92 63 93
REMARK H PARENT 85 46 53 57
REMARK Flexibility Score: inf
ROOT
ATOM      1  C   UNL A   1      38.185  19.614  25.063  1.00  0.00     0.202 C 
ENDROOT
BRANCH   1   2
ATOM      2  O   UNL A   1      37.881  21.008  24.949  1.00  0.00    -0.374 OA
BRANCH   2   3
ATOM      3  C   UNL A   1      36.676  21.435  25.592  1.00  0.00     0.202 C 
BRANCH   3   4
ATOM      4  C   UNL A   1      35.538  21.713  24.610  1.00  0.00     0.261 C 
BRANCH   4   5
ATOM      5  O   UNL A   1      35.314  23.132  24.541  1.00  0.00    -0.459 OA
BRANCH   5   6
ATOM      6  C   UNL A   1      34.435  23.554  23.594  1.00  0.00     0.350 C 
ATOM      7  O   UNL A   1      34.486  23.227  22.413  1.00  0.00    -0.245 OA
BRANCH   6   8
ATOM      8  C   UNL A   1      33.385  24.339  24.203  1.00  0.00     0.137 A 
ATOM      9  C   UNL A   1      32.409  24.057  25.152  1.00  0.00     0.071 A 
ATOM     10  N   UNL A   1      31.584  25.139  25.449  1.00  0.00    -0.224 NA
ATOM     11  C   UNL A   1      31.879  26.184  24.717  1.00  0.00     0.186 A 
ATOM     12  S   UNL A   1      33.182  25.952  23.632  1.00  0.00    -0.089 S 
BRANCH   9  13
ATOM     13  C   UNL A   1      32.144  22.762  25.893  1.00  0.00     0.034 C 
ATOM     14  C   UNL A   1      32.921  22.684  27.213  1.00  0.00     0.014 C 
ATOM     15  C   UNL A   1      30.650  22.580  26.177  1.00  0.00     0.014 C 
ENDBRANCH   9  13
BRANCH  11  16
ATOM     16  N   UNL A   1      31.256  27.370  24.835  1.00  0.00    -0.343 N 
ATOM     17  C   UNL A   1      31.549  28.310  25.902  1.00  0.00     0.150 C 
ATOM     18  C   UNL A   1      30.140  27.695  23.960  1.00  0.00     0.153 C 
ATOM     19  C   UNL A   1      31.703  29.718  25.290  1.00  0.00     0.135 C 
ATOM     20  C   UNL A   1      30.259  29.148  23.436  1.00  0.00     0.081 C 
ATOM     21  O   UNL A   1      30.547  30.081  24.508  1.00  0.00    -0.369 OA
ATOM     22  C   UNL A   1      31.866  30.770  26.379  1.00  0.00     0.040 C 
ATOM     23  C   UNL A   1      31.313  29.252  22.323  1.00  0.00     0.044 C 
ATOM     24  C   UNL A   1      28.900  29.580  22.869  1.00  0.00     0.044 C 
ENDBRANCH  11  16
ENDBRANCH   6   8
ENDBRANCH   5   6
ENDBRANCH   4   5
ENDBRANCH   3   4
ENDBRANCH   2   3
ENDBRANCH   1   2
BRANCH   1  25
ATOM     25  C   UNL A   1      39.612  19.319  25.535  1.00  0.00     0.261 C 
BRANCH  25  26
ATOM     26  O   UNL A   1      40.279  20.529  25.936  1.00  0.00    -0.460 OA
BRANCH  26  27
ATOM     27  C   UNL A   1      40.635  20.588  27.241  1.00  0.00     0.338 C 
ATOM     28  O   UNL A   1      40.794  19.645  27.999  1.00  0.00    -0.246 OA
BRANCH  27  29
ATOM     29  C   UNL A   1      40.992  21.978  27.601  1.00  0.00     0.060 A 
ATOM     30  C   UNL A   1      40.404  23.006  26.851  1.00  0.00     0.016 A 
ATOM     31  C   UNL A   1      41.890  22.283  28.627  1.00  0.00     0.016 A 
ATOM     32  C   UNL A   1      40.752  24.335  27.089  1.00  0.00     0.010 A 
ATOM     33  C   UNL A   1      42.241  23.618  28.863  1.00  0.00     0.010 A 
ATOM     34  C   UNL A   1      41.701  24.647  28.071  1.00  0.00    -0.014 A 
BRANCH  34  35
ATOM     35  C   UNL A   1      42.222  26.032  28.171  1.00  0.00     0.031 A 
ATOM     36  C   UNL A   1      41.349  27.098  28.775  1.00  0.00     0.074 A 
ATOM     37  C   UNL A   1      43.459  26.338  27.740  1.00  0.00     0.049 A 
ATOM     38  N   UNL A   1      41.611  28.363  28.981  1.00  0.00    -0.248 NA
ATOM     39  C   UNL A   1      40.002  26.686  29.205  1.00  0.00     0.031 C 
ATOM     40  C   UNL A   1      44.398  25.399  27.129  1.00  0.00     0.029 A 
ATOM     41  N   UNL A   1      44.130  27.536  27.737  1.00  0.00    -0.354 N 
ATOM     42  C   UNL A   1      40.461  28.902  29.542  1.00  0.00     0.074 A 
ATOM     43  C   UNL A   1      39.491  27.832  29.633  1.00  0.00     0.031 C 
ATOM     44  C   UNL A   1      45.516  26.061  26.788  1.00  0.00     0.029 A 
ATOM     45  C   UNL A   1      45.370  27.472  27.145  1.00  0.00     0.049 A 
ATOM     46  H   UNL A   1      43.758  28.362  28.120  1.00  0.00     0.167 HD
ATOM     47  C   UNL A   1      40.237  30.168  29.966  1.00  0.00     0.034 A 
ATOM     48  C   UNL A   1      46.276  28.442  26.913  1.00  0.00     0.034 A 
ATOM     49  C   UNL A   1      41.208  31.226  29.908  1.00  0.00     0.049 A 
ATOM     50  C   UNL A   1      45.995  29.845  27.383  1.00  0.00     0.074 A 
ATOM     51  C   UNL A   1      41.092  32.525  30.370  1.00  0.00     0.029 A 
ATOM     52  N   UNL A   1      42.467  31.112  29.343  1.00  0.00    -0.354 N 
ATOM     53  N   UNL A   1      44.961  30.303  28.047  1.00  0.00    -0.248 NA
ATOM     54  C   UNL A   1      47.023  30.861  27.103  1.00  0.00     0.031 C 
ATOM     55  C   UNL A   1      42.278  33.203  30.069  1.00  0.00     0.029 A 
ATOM     56  C   UNL A   1      43.137  32.321  29.433  1.00  0.00     0.049 A 
ATOM     57  H   UNL A   1      42.834  30.293  28.938  1.00  0.00     0.167 HD
ATOM     58  C   UNL A   1      45.229  31.646  28.294  1.00  0.00     0.074 A 
ATOM     59  C   UNL A   1      46.531  31.924  27.726  1.00  0.00     0.031 C 
ATOM     60  C   UNL A   1      44.459  32.570  28.920  1.00  0.00     0.034 A 
BRANCH  47  61
ATOM     61  C   UNL A   1      38.896  30.472  30.578  1.00  0.00     0.023 A 
ATOM     62  C   UNL A   1      38.694  30.234  31.952  1.00  0.00     0.012 A 
ATOM     63  C   UNL A   1      37.866  31.052  29.814  1.00  0.00     0.148 A 
ATOM     64  C   UNL A   1      37.477  30.549  32.553  1.00  0.00     0.002 A 
ATOM     65  C   UNL A   1      36.668  31.395  30.428  1.00  0.00     0.091 A 
ATOM     66  F   UNL A   1      38.072  31.244  28.503  1.00  0.00    -0.205 F 
ATOM     67  C   UNL A   1      36.469  31.139  31.795  1.00  0.00     0.022 A 
BRANCH  65  68
ATOM     68  S   UNL A   1      35.335  32.220  29.550  1.00  0.00     0.127 S 
ATOM     69  O   UNL A   1      34.915  31.184  28.609  1.00  0.00    -0.237 OA
ATOM     70  O   UNL A   1      34.378  32.494  30.623  1.00  0.00    -0.237 OA
ATOM     71  O   UNL A   1      35.928  33.409  28.952  1.00  0.00    -0.744 OA
ENDBRANCH  65  68
ENDBRANCH  47  61
BRANCH  48  72
ATOM     72  C   UNL A   1      47.566  28.112  26.242  1.00  0.00     0.023 A 
ATOM     73  C   UNL A   1      48.718  27.895  27.023  1.00  0.00     0.012 A 
ATOM     74  C   UNL A   1      47.657  28.003  24.842  1.00  0.00     0.148 A 
ATOM     75  C   UNL A   1      49.942  27.604  26.420  1.00  0.00     0.002 A 
ATOM     76  C   UNL A   1      48.868  27.660  24.250  1.00  0.00     0.091 A 
ATOM     77  F   UNL A   1      46.556  28.237  24.112  1.00  0.00    -0.205 F 
ATOM     78  C   UNL A   1      50.015  27.476  25.036  1.00  0.00     0.022 A 
BRANCH  76  79
ATOM     79  S   UNL A   1      49.012  27.352  22.487  1.00  0.00     0.127 S 
ATOM     80  O   UNL A   1      50.459  27.360  22.297  1.00  0.00    -0.237 OA
ATOM     81  O   UNL A   1      48.379  26.039  22.352  1.00  0.00    -0.237 OA
ATOM     82  O   UNL A   1      48.276  28.433  21.844  1.00  0.00    -0.744 OA
ENDBRANCH  76  79
ENDBRANCH  48  72
BRANCH  60  83
ATOM     83  C   UNL A   1      45.005  33.966  29.059  1.00  0.00     0.023 A 
ATOM     84  C   UNL A   1      44.724  34.924  28.064  1.00  0.00     0.012 A 
ATOM     85  C   UNL A   1      45.721  34.353  30.209  1.00  0.00     0.148 A 
ATOM     86  C   UNL A   1      45.167  36.239  28.201  1.00  0.00     0.002 A 
ATOM     87  C   UNL A   1      46.121  35.676  30.359  1.00  0.00     0.091 A 
ATOM     88  F   UNL A   1      45.996  33.423  31.134  1.00  0.00    -0.205 F 
ATOM     89  C   UNL A   1      45.855  36.618  29.352  1.00  0.00     0.022 A 
BRANCH  87  90
ATOM     90  S   UNL A   1      46.929  36.267  31.852  1.00  0.00     0.127 S 
ATOM     91  O   UNL A   1      48.267  35.698  31.713  1.00  0.00    -0.237 OA
ATOM     92  O   UNL A   1      46.866  37.721  31.689  1.00  0.00    -0.237 OA
ATOM     93  O   UNL A   1      46.137  35.753  32.962  1.00  0.00    -0.744 OA
ENDBRANCH  87  90
ENDBRANCH  60  83
ENDBRANCH  34  35
ENDBRANCH  27  29
ENDBRANCH  26  27
ENDBRANCH  25  26
ENDBRANCH   1  25
TORSDOF 19
ENDMDL
