MODEL 1
REMARK VINA RESULT:     -11.7      0.000      0.000
REMARK SMILES O=C(CSc1nnnn1-c1ccc(C(=O)OCCOCCOC(=O)c2ccc(-c3c4nc(c(-c5cccc(S(=O)(=O)[O-])c5F)c5ccc([nH]5)c(-c5cccc(S(=O)(=O)[O-])c5F)c5nc(c(-c6cccc(S(=O)(=O)[O-])c6F)c6ccc3[nH]6)C=C5)C=C4)cc2)cc1)Nc1nc(-c2ccccc2)cs1
REMARK SMILES IDX 17 1 16 2 14 3 15 4 13 5 10 6 11 7 89 8 12 9 88 10 9 11 5 12
REMARK SMILES IDX 6 13 7 14 8 15 4 16 3 17 2 18 1 19 90 20 91 22 92 23 101 24
REMARK SMILES IDX 93 25 100 26 94 27 95 28 99 29 96 30 98 31 97 32 18 33 19 34
REMARK SMILES IDX 20 35 21 36 22 37 23 38 24 39 25 40 26 41 87 42 27 43 86 44
REMARK SMILES IDX 28 45 29 46 30 47 80 48 31 49 85 50 79 51 81 52 32 53 84 54
REMARK SMILES IDX 78 55 77 56 33 58 65 59 45 60 64 61 46 62 49 63 63 64 82 65
REMARK SMILES IDX 47 66 48 67 62 69 83 70 50 71 34 72 35 73 43 74 36 75 38 76
REMARK SMILES IDX 44 77 37 78 39 79 40 80 41 81 42 82 66 83 67 84 75 85 68 86
REMARK SMILES IDX 70 87 76 88 69 89 71 90 72 91 73 92 74 93 51 94 52 95 60 96
REMARK SMILES IDX 53 97 55 98 61 99 54 100 56 101 57 102 58 103 59 104
REMARK H PARENT 90 21 81 57 49 68
REMARK Flexibility Score: inf
ROOT
ATOM      1  C   UNL A   1      33.559  34.182  28.283  1.00  0.00     0.261 C 
ENDROOT
BRANCH   1   2
ATOM      2  O   UNL A   1      33.295  32.779  28.405  1.00  0.00    -0.460 OA
BRANCH   2   3
ATOM      3  C   UNL A   1      34.262  32.013  27.863  1.00  0.00     0.338 C 
ATOM      4  O   UNL A   1      35.461  32.279  27.849  1.00  0.00    -0.246 OA
BRANCH   3   5
ATOM      5  C   UNL A   1      33.796  30.789  27.198  1.00  0.00     0.060 A 
ATOM      6  C   UNL A   1      33.397  28.713  25.391  1.00  0.00     0.069 A 
ATOM      7  C   UNL A   1      34.528  28.698  26.213  1.00  0.00     0.029 A 
ATOM      8  C   UNL A   1      32.400  29.687  25.574  1.00  0.00     0.029 A 
ATOM      9  C   UNL A   1      34.734  29.752  27.094  1.00  0.00     0.018 A 
ATOM     10  C   UNL A   1      32.595  30.728  26.490  1.00  0.00     0.018 A 
BRANCH   6  11
ATOM     11  N   UNL A   1      33.362  27.808  24.306  1.00  0.00    -0.187 N 
ATOM     12  C   UNL A   1      33.456  26.426  24.295  1.00  0.00     0.214 A 
ATOM     13  N   UNL A   1      33.266  25.990  23.069  1.00  0.00    -0.101 NA
ATOM     14  N   UNL A   1      32.998  27.101  22.315  1.00  0.00    -0.022 NA
ATOM     15  N   UNL A   1      32.982  28.195  23.061  1.00  0.00    -0.039 NA
BRANCH  12  16
ATOM     16  S   UNL A   1      33.448  25.396  25.695  1.00  0.00    -0.074 SA
BRANCH  16  17
ATOM     17  C   UNL A   1      31.808  24.622  25.507  1.00  0.00     0.178 C 
BRANCH  17  18
ATOM     18  C   UNL A   1      30.686  25.655  25.452  1.00  0.00     0.236 C 
ATOM     19  O   UNL A   1      30.318  26.233  26.469  1.00  0.00    -0.274 OA
ATOM     20  N   UNL A   1      30.242  25.878  24.169  1.00  0.00    -0.301 N 
ATOM     21  H   UNL A   1      30.569  25.274  23.465  1.00  0.00     0.172 HD
BRANCH  20  22
ATOM     22  C   UNL A   1      29.384  26.874  23.797  1.00  0.00     0.189 A 
ATOM     23  N   UNL A   1      29.586  28.061  23.279  1.00  0.00    -0.220 NA
ATOM     24  S   UNL A   1      27.758  26.419  24.056  1.00  0.00    -0.105 S 
ATOM     25  C   UNL A   1      28.357  28.693  23.070  1.00  0.00     0.084 A 
ATOM     26  C   UNL A   1      27.260  27.931  23.443  1.00  0.00     0.097 A 
BRANCH  25  27
ATOM     27  C   UNL A   1      28.217  30.103  22.672  1.00  0.00     0.001 A 
ATOM     28  C   UNL A   1      28.340  31.142  23.613  1.00  0.00     0.010 A 
ATOM     29  C   UNL A   1      28.170  30.450  21.317  1.00  0.00     0.010 A 
ATOM     30  C   UNL A   1      28.522  32.468  23.206  1.00  0.00     0.001 A 
ATOM     31  C   UNL A   1      28.389  31.772  20.906  1.00  0.00     0.001 A 
ATOM     32  C   UNL A   1      28.580  32.777  21.850  1.00  0.00     0.000 A 
ENDBRANCH  25  27
ENDBRANCH  20  22
ENDBRANCH  17  18
ENDBRANCH  16  17
ENDBRANCH  12  16
ENDBRANCH   6  11
ENDBRANCH   3   5
ENDBRANCH   2   3
ENDBRANCH   1   2
BRANCH   1  33
ATOM     33  C   UNL A   1      33.151  35.167  29.391  1.00  0.00     0.202 C 
BRANCH  33  34
ATOM     34  O   UNL A   1      33.252  34.916  30.784  1.00  0.00    -0.374 OA
BRANCH  34  35
ATOM     35  C   UNL A   1      34.432  34.474  31.435  1.00  0.00     0.202 C 
BRANCH  35  36
ATOM     36  C   UNL A   1      34.491  33.169  32.220  1.00  0.00     0.261 C 
BRANCH  36  37
ATOM     37  O   UNL A   1      34.868  32.067  31.426  1.00  0.00    -0.460 OA
BRANCH  37  38
ATOM     38  C   UNL A   1      36.005  31.479  31.830  1.00  0.00     0.338 C 
ATOM     39  O   UNL A   1      36.405  31.356  32.992  1.00  0.00    -0.246 OA
BRANCH  38  40
ATOM     40  C   UNL A   1      36.757  31.039  30.656  1.00  0.00     0.060 A 
ATOM     41  C   UNL A   1      36.640  29.681  30.365  1.00  0.00     0.016 A 
ATOM     42  C   UNL A   1      37.820  31.827  30.185  1.00  0.00     0.016 A 
ATOM     43  C   UNL A   1      37.773  29.039  29.948  1.00  0.00     0.010 A 
ATOM     44  C   UNL A   1      38.957  31.181  29.769  1.00  0.00     0.010 A 
ATOM     45  C   UNL A   1      38.944  29.791  29.799  1.00  0.00    -0.014 A 
BRANCH  45  46
ATOM     46  C   UNL A   1      40.176  29.047  29.792  1.00  0.00     0.031 A 
ATOM     47  C   UNL A   1      40.786  28.888  31.114  1.00  0.00     0.074 A 
ATOM     48  C   UNL A   1      40.715  28.554  28.663  1.00  0.00     0.049 A 
ATOM     49  N   UNL A   1      41.857  29.454  31.556  1.00  0.00    -0.248 NA
ATOM     50  C   UNL A   1      40.029  28.120  32.106  1.00  0.00     0.031 C 
ATOM     51  C   UNL A   1      40.073  28.383  27.356  1.00  0.00     0.029 A 
ATOM     52  N   UNL A   1      41.931  27.970  28.500  1.00  0.00    -0.354 N 
ATOM     53  C   UNL A   1      42.036  28.920  32.821  1.00  0.00     0.074 A 
ATOM     54  C   UNL A   1      40.802  28.264  33.179  1.00  0.00     0.031 C 
ATOM     55  C   UNL A   1      40.810  27.517  26.624  1.00  0.00     0.029 A 
ATOM     56  C   UNL A   1      42.021  27.192  27.359  1.00  0.00     0.049 A 
ATOM     57  H   UNL A   1      42.677  28.090  29.132  1.00  0.00     0.167 HD
ATOM     58  C   UNL A   1      43.269  28.821  33.379  1.00  0.00     0.034 A 
ATOM     59  C   UNL A   1      42.979  26.273  27.100  1.00  0.00     0.034 A 
ATOM     60  C   UNL A   1      44.242  29.654  32.727  1.00  0.00     0.049 A 
ATOM     61  C   UNL A   1      44.144  26.573  27.966  1.00  0.00     0.074 A 
ATOM     62  C   UNL A   1      44.365  31.006  32.475  1.00  0.00     0.029 A 
ATOM     63  N   UNL A   1      45.158  29.029  31.918  1.00  0.00    -0.354 N 
ATOM     64  N   UNL A   1      44.915  27.616  27.825  1.00  0.00    -0.248 NA
ATOM     65  C   UNL A   1      44.260  25.883  29.242  1.00  0.00     0.031 C 
ATOM     66  C   UNL A   1      45.057  31.097  31.232  1.00  0.00     0.029 A 
ATOM     67  C   UNL A   1      45.317  29.797  30.794  1.00  0.00     0.049 A 
ATOM     68  H   UNL A   1      45.620  28.181  32.110  1.00  0.00     0.167 HD
ATOM     69  C   UNL A   1      45.288  27.958  29.118  1.00  0.00     0.074 A 
ATOM     70  C   UNL A   1      44.979  26.780  29.921  1.00  0.00     0.031 C 
ATOM     71  C   UNL A   1      45.534  29.258  29.465  1.00  0.00     0.034 A 
BRANCH  58  72
ATOM     72  C   UNL A   1      43.657  27.703  34.302  1.00  0.00     0.023 A 
ATOM     73  C   UNL A   1      44.179  28.044  35.564  1.00  0.00     0.012 A 
ATOM     74  C   UNL A   1      43.754  26.351  33.904  1.00  0.00     0.148 A 
ATOM     75  C   UNL A   1      44.774  27.084  36.387  1.00  0.00     0.002 A 
ATOM     76  C   UNL A   1      44.250  25.384  34.766  1.00  0.00     0.091 A 
ATOM     77  F   UNL A   1      43.497  25.999  32.638  1.00  0.00    -0.205 F 
ATOM     78  C   UNL A   1      44.790  25.748  35.999  1.00  0.00     0.022 A 
BRANCH  76  79
ATOM     79  S   UNL A   1      44.169  23.650  34.315  1.00  0.00     0.127 S 
ATOM     80  O   UNL A   1      42.730  23.422  34.258  1.00  0.00    -0.237 OA
ATOM     81  O   UNL A   1      44.853  23.631  33.022  1.00  0.00    -0.237 OA
ATOM     82  O   UNL A   1      44.899  22.965  35.378  1.00  0.00    -0.744 OA
ENDBRANCH  76  79
ENDBRANCH  58  72
BRANCH  59  83
ATOM     83  C   UNL A   1      42.869  25.019  26.324  1.00  0.00     0.023 A 
ATOM     84  C   UNL A   1      43.757  24.783  25.259  1.00  0.00     0.012 A 
ATOM     85  C   UNL A   1      42.059  23.948  26.768  1.00  0.00     0.148 A 
ATOM     86  C   UNL A   1      43.850  23.518  24.666  1.00  0.00     0.002 A 
ATOM     87  C   UNL A   1      42.139  22.699  26.162  1.00  0.00     0.091 A 
ATOM     88  F   UNL A   1      41.281  24.126  27.844  1.00  0.00    -0.205 F 
ATOM     89  C   UNL A   1      43.043  22.477  25.117  1.00  0.00     0.022 A 
BRANCH  87  90
ATOM     90  S   UNL A   1      41.118  21.319  26.696  1.00  0.00     0.127 S 
ATOM     91  O   UNL A   1      39.766  21.853  26.524  1.00  0.00    -0.237 OA
ATOM     92  O   UNL A   1      41.490  20.278  25.742  1.00  0.00    -0.237 OA
ATOM     93  O   UNL A   1      41.487  21.071  28.085  1.00  0.00    -0.744 OA
ENDBRANCH  87  90
ENDBRANCH  59  83
BRANCH  71  94
ATOM     94  C   UNL A   1      45.716  30.271  28.359  1.00  0.00     0.023 A 
ATOM     95  C   UNL A   1      44.612  30.914  27.761  1.00  0.00     0.012 A 
ATOM     96  C   UNL A   1      47.012  30.718  28.043  1.00  0.00     0.148 A 
ATOM     97  C   UNL A   1      44.795  31.954  26.846  1.00  0.00     0.002 A 
ATOM     98  C   UNL A   1      47.188  31.786  27.168  1.00  0.00     0.091 A 
ATOM     99  F   UNL A   1      48.056  30.108  28.624  1.00  0.00    -0.205 F 
ATOM    100  C   UNL A   1      46.082  32.399  26.560  1.00  0.00     0.022 A 
BRANCH  98 101
ATOM    101  S   UNL A   1      48.810  32.498  26.869  1.00  0.00     0.127 S 
ATOM    102  O   UNL A   1      48.534  33.460  25.806  1.00  0.00    -0.237 OA
ATOM    103  O   UNL A   1      49.140  33.097  28.165  1.00  0.00    -0.237 OA
ATOM    104  O   UNL A   1      49.670  31.379  26.502  1.00  0.00    -0.744 OA
ENDBRANCH  98 101
ENDBRANCH  71  94
ENDBRANCH  45  46
ENDBRANCH  38  40
ENDBRANCH  37  38
ENDBRANCH  36  37
ENDBRANCH  35  36
ENDBRANCH  34  35
ENDBRANCH  33  34
ENDBRANCH   1  33
TORSDOF 23
ENDMDL
MODEL 2
REMARK VINA RESULT:     -11.3      1.507      3.586
REMARK SMILES O=C(CSc1nnnn1-c1ccc(C(=O)OCCOCCOC(=O)c2ccc(-c3c4nc(c(-c5cccc(S(=O)(=O)[O-])c5F)c5ccc([nH]5)c(-c5cccc(S(=O)(=O)[O-])c5F)c5nc(c(-c6cccc(S(=O)(=O)[O-])c6F)c6ccc3[nH]6)C=C5)C=C4)cc2)cc1)Nc1nc(-c2ccccc2)cs1
REMARK SMILES IDX 17 1 16 2 14 3 15 4 13 5 10 6 11 7 89 8 12 9 88 10 9 11 5 12
REMARK SMILES IDX 6 13 7 14 8 15 4 16 3 17 2 18 1 19 90 20 91 22 92 23 101 24
REMARK SMILES IDX 93 25 100 26 94 27 95 28 99 29 96 30 98 31 97 32 18 33 19 34
REMARK SMILES IDX 20 35 21 36 22 37 23 38 24 39 25 40 26 41 87 42 27 43 86 44
REMARK SMILES IDX 28 45 29 46 30 47 80 48 31 49 85 50 79 51 81 52 32 53 84 54
REMARK SMILES IDX 78 55 77 56 33 58 65 59 45 60 64 61 46 62 49 63 63 64 82 65
REMARK SMILES IDX 47 66 48 67 62 69 83 70 50 71 34 72 35 73 43 74 36 75 38 76
REMARK SMILES IDX 44 77 37 78 39 79 40 80 41 81 42 82 66 83 67 84 75 85 68 86
REMARK SMILES IDX 70 87 76 88 69 89 71 90 72 91 73 92 74 93 51 94 52 95 60 96
REMARK SMILES IDX 53 97 55 98 61 99 54 100 56 101 57 102 58 103 59 104
REMARK H PARENT 90 21 81 57 49 68
REMARK Flexibility Score: inf
ROOT
ATOM      1  C   UNL A   1      33.957  33.308  28.006  1.00  0.00     0.261 C 
ENDROOT
BRANCH   1   2
ATOM      2  O   UNL A   1      33.359  32.008  27.958  1.00  0.00    -0.460 OA
BRANCH   2   3
ATOM      3  C   UNL A   1      34.174  31.073  27.431  1.00  0.00     0.338 C 
ATOM      4  O   UNL A   1      35.399  31.052  27.537  1.00  0.00    -0.246 OA
BRANCH   3   5
ATOM      5  C   UNL A   1      33.510  30.038  26.630  1.00  0.00     0.060 A 
ATOM      6  C   UNL A   1      32.824  28.239  24.622  1.00  0.00     0.069 A 
ATOM      7  C   UNL A   1      33.845  27.910  25.519  1.00  0.00     0.029 A 
ATOM      8  C   UNL A   1      32.056  29.401  24.818  1.00  0.00     0.029 A 
ATOM      9  C   UNL A   1      34.200  28.824  26.501  1.00  0.00     0.018 A 
ATOM     10  C   UNL A   1      32.394  30.303  25.834  1.00  0.00     0.018 A 
BRANCH   6  11
ATOM     11  N   UNL A   1      32.687  27.445  23.461  1.00  0.00    -0.187 N 
ATOM     12  C   UNL A   1      31.558  27.143  22.716  1.00  0.00     0.214 A 
ATOM     13  N   UNL A   1      31.914  26.456  21.654  1.00  0.00    -0.101 NA
ATOM     14  N   UNL A   1      33.280  26.370  21.703  1.00  0.00    -0.022 NA
ATOM     15  N   UNL A   1      33.764  27.024  22.749  1.00  0.00    -0.039 NA
BRANCH  12  16
ATOM     16  S   UNL A   1      29.986  27.854  22.921  1.00  0.00    -0.074 SA
BRANCH  16  17
ATOM     17  C   UNL A   1      29.240  26.645  24.064  1.00  0.00     0.178 C 
BRANCH  17  18
ATOM     18  C   UNL A   1      30.087  25.382  24.201  1.00  0.00     0.236 C 
ATOM     19  O   UNL A   1      30.080  24.527  23.322  1.00  0.00    -0.274 OA
ATOM     20  N   UNL A   1      30.861  25.392  25.338  1.00  0.00    -0.301 N 
ATOM     21  H   UNL A   1      30.693  26.104  25.995  1.00  0.00     0.172 HD
BRANCH  20  22
ATOM     22  C   UNL A   1      31.847  24.489  25.624  1.00  0.00     0.189 A 
ATOM     23  N   UNL A   1      33.078  24.366  25.194  1.00  0.00    -0.220 NA
ATOM     24  S   UNL A   1      31.323  23.349  26.784  1.00  0.00    -0.105 S 
ATOM     25  C   UNL A   1      33.681  23.269  25.815  1.00  0.00     0.084 A 
ATOM     26  C   UNL A   1      32.856  22.604  26.711  1.00  0.00     0.097 A 
BRANCH  25  27
ATOM     27  C   UNL A   1      34.997  22.731  25.435  1.00  0.00     0.001 A 
ATOM     28  C   UNL A   1      35.397  21.439  25.822  1.00  0.00     0.010 A 
ATOM     29  C   UNL A   1      35.791  23.409  24.503  1.00  0.00     0.010 A 
ATOM     30  C   UNL A   1      36.488  20.808  25.215  1.00  0.00     0.001 A 
ATOM     31  C   UNL A   1      36.861  22.766  23.867  1.00  0.00     0.001 A 
ATOM     32  C   UNL A   1      37.199  21.460  24.212  1.00  0.00     0.000 A 
ENDBRANCH  25  27
ENDBRANCH  20  22
ENDBRANCH  17  18
ENDBRANCH  16  17
ENDBRANCH  12  16
ENDBRANCH   6  11
ENDBRANCH   3   5
ENDBRANCH   2   3
ENDBRANCH   1   2
BRANCH   1  33
ATOM     33  C   UNL A   1      33.301  34.457  28.792  1.00  0.00     0.202 C 
BRANCH  33  34
ATOM     34  O   UNL A   1      33.132  34.488  30.201  1.00  0.00    -0.374 OA
BRANCH  34  35
ATOM     35  C   UNL A   1      34.186  34.680  31.131  1.00  0.00     0.202 C 
BRANCH  35  36
ATOM     36  C   UNL A   1      34.641  33.585  32.087  1.00  0.00     0.261 C 
BRANCH  36  37
ATOM     37  O   UNL A   1      34.792  32.334  31.455  1.00  0.00    -0.460 OA
BRANCH  37  38
ATOM     38  C   UNL A   1      35.874  31.654  31.866  1.00  0.00     0.338 C 
ATOM     39  O   UNL A   1      36.283  31.538  33.026  1.00  0.00    -0.246 OA
BRANCH  38  40
ATOM     40  C   UNL A   1      36.557  31.095  30.700  1.00  0.00     0.060 A 
ATOM     41  C   UNL A   1      36.465  29.710  30.579  1.00  0.00     0.016 A 
ATOM     42  C   UNL A   1      37.559  31.848  30.064  1.00  0.00     0.016 A 
ATOM     43  C   UNL A   1      37.587  29.051  30.158  1.00  0.00     0.010 A 
ATOM     44  C   UNL A   1      38.684  31.185  29.645  1.00  0.00     0.010 A 
ATOM     45  C   UNL A   1      38.719  29.809  29.837  1.00  0.00    -0.014 A 
BRANCH  45  46
ATOM     46  C   UNL A   1      39.972  29.099  29.828  1.00  0.00     0.031 A 
ATOM     47  C   UNL A   1      40.607  28.990  31.143  1.00  0.00     0.074 A 
ATOM     48  C   UNL A   1      40.506  28.594  28.703  1.00  0.00     0.049 A 
ATOM     49  N   UNL A   1      41.669  29.596  31.553  1.00  0.00    -0.248 NA
ATOM     50  C   UNL A   1      39.887  28.225  32.166  1.00  0.00     0.031 C 
ATOM     51  C   UNL A   1      39.849  28.373  27.411  1.00  0.00     0.029 A 
ATOM     52  N   UNL A   1      41.736  28.041  28.533  1.00  0.00    -0.354 N 
ATOM     53  C   UNL A   1      41.882  29.098  32.828  1.00  0.00     0.074 A 
ATOM     54  C   UNL A   1      40.674  28.418  33.222  1.00  0.00     0.031 C 
ATOM     55  C   UNL A   1      40.598  27.510  26.687  1.00  0.00     0.029 A 
ATOM     56  C   UNL A   1      41.829  27.238  27.410  1.00  0.00     0.049 A 
ATOM     57  H   UNL A   1      42.488  28.196  29.150  1.00  0.00     0.167 HD
ATOM     58  C   UNL A   1      43.127  29.048  33.367  1.00  0.00     0.034 A 
ATOM     59  C   UNL A   1      42.809  26.339  27.158  1.00  0.00     0.034 A 
ATOM     60  C   UNL A   1      44.065  29.891  32.679  1.00  0.00     0.049 A 
ATOM     61  C   UNL A   1      43.978  26.693  27.997  1.00  0.00     0.074 A 
ATOM     62  C   UNL A   1      44.146  31.239  32.393  1.00  0.00     0.029 A 
ATOM     63  N   UNL A   1      44.985  29.273  31.870  1.00  0.00    -0.354 N 
ATOM     64  N   UNL A   1      44.717  27.753  27.817  1.00  0.00    -0.248 NA
ATOM     65  C   UNL A   1      44.134  26.038  29.286  1.00  0.00     0.031 C 
ATOM     66  C   UNL A   1      44.815  31.320  31.137  1.00  0.00     0.029 A 
ATOM     67  C   UNL A   1      45.104  30.017  30.726  1.00  0.00     0.049 A 
ATOM     68  H   UNL A   1      45.474  28.443  32.075  1.00  0.00     0.167 HD
ATOM     69  C   UNL A   1      45.101  28.138  29.096  1.00  0.00     0.074 A 
ATOM     70  C   UNL A   1      44.839  26.971  29.932  1.00  0.00     0.031 C 
ATOM     71  C   UNL A   1      45.316  29.451  29.407  1.00  0.00     0.034 A 
BRANCH  58  72
ATOM     72  C   UNL A   1      43.561  27.964  34.310  1.00  0.00     0.023 A 
ATOM     73  C   UNL A   1      44.016  28.347  35.586  1.00  0.00     0.012 A 
ATOM     74  C   UNL A   1      43.765  26.620  33.925  1.00  0.00     0.148 A 
ATOM     75  C   UNL A   1      44.649  27.434  36.435  1.00  0.00     0.002 A 
ATOM     76  C   UNL A   1      44.298  25.694  34.810  1.00  0.00     0.091 A 
ATOM     77  F   UNL A   1      43.574  26.244  32.654  1.00  0.00    -0.205 F 
ATOM     78  C   UNL A   1      44.770  26.100  36.057  1.00  0.00     0.022 A 
BRANCH  76  79
ATOM     79  S   UNL A   1      44.353  23.956  34.369  1.00  0.00     0.127 S 
ATOM     80  O   UNL A   1      44.839  23.350  35.604  1.00  0.00    -0.237 OA
ATOM     81  O   UNL A   1      42.954  23.672  34.046  1.00  0.00    -0.237 OA
ATOM     82  O   UNL A   1      45.247  23.902  33.217  1.00  0.00    -0.744 OA
ENDBRANCH  76  79
ENDBRANCH  58  72
BRANCH  59  83
ATOM     83  C   UNL A   1      42.722  25.064  26.414  1.00  0.00     0.023 A 
ATOM     84  C   UNL A   1      43.644  24.797  25.385  1.00  0.00     0.012 A 
ATOM     85  C   UNL A   1      41.895  24.007  26.860  1.00  0.00     0.148 A 
ATOM     86  C   UNL A   1      43.754  23.517  24.832  1.00  0.00     0.002 A 
ATOM     87  C   UNL A   1      41.993  22.742  26.293  1.00  0.00     0.091 A 
ATOM     88  F   UNL A   1      41.082  24.216  27.905  1.00  0.00    -0.205 F 
ATOM     89  C   UNL A   1      42.930  22.489  25.285  1.00  0.00     0.022 A 
BRANCH  87  90
ATOM     90  S   UNL A   1      40.952  21.378  26.832  1.00  0.00     0.127 S 
ATOM     91  O   UNL A   1      41.301  21.266  28.248  1.00  0.00    -0.237 OA
ATOM     92  O   UNL A   1      39.612  21.898  26.571  1.00  0.00    -0.237 OA
ATOM     93  O   UNL A   1      41.358  20.232  26.028  1.00  0.00    -0.744 OA
ENDBRANCH  87  90
ENDBRANCH  59  83
BRANCH  71  94
ATOM     94  C   UNL A   1      45.451  30.442  28.275  1.00  0.00     0.023 A 
ATOM     95  C   UNL A   1      44.319  30.955  27.606  1.00  0.00     0.012 A 
ATOM     96  C   UNL A   1      46.711  31.003  27.999  1.00  0.00     0.148 A 
ATOM     97  C   UNL A   1      44.445  31.979  26.663  1.00  0.00     0.002 A 
ATOM     98  C   UNL A   1      46.825  32.054  27.094  1.00  0.00     0.091 A 
ATOM     99  F   UNL A   1      47.781  30.515  28.645  1.00  0.00    -0.205 F 
ATOM    100  C   UNL A   1      45.695  32.538  26.417  1.00  0.00     0.022 A 
BRANCH  98 101
ATOM    101  S   UNL A   1      48.384  32.910  26.840  1.00  0.00     0.127 S 
ATOM    102  O   UNL A   1      49.267  31.825  26.419  1.00  0.00    -0.237 OA
ATOM    103  O   UNL A   1      48.053  33.872  25.786  1.00  0.00    -0.237 OA
ATOM    104  O   UNL A   1      48.708  33.529  28.120  1.00  0.00    -0.744 OA
ENDBRANCH  98 101
ENDBRANCH  71  94
ENDBRANCH  45  46
ENDBRANCH  38  40
ENDBRANCH  37  38
ENDBRANCH  36  37
ENDBRANCH  35  36
ENDBRANCH  34  35
ENDBRANCH  33  34
ENDBRANCH   1  33
TORSDOF 23
ENDMDL
MODEL 3
REMARK VINA RESULT:     -10.8      3.145      8.676
REMARK SMILES O=C(CSc1nnnn1-c1ccc(C(=O)OCCOCCOC(=O)c2ccc(-c3c4nc(c(-c5cccc(S(=O)(=O)[O-])c5F)c5ccc([nH]5)c(-c5cccc(S(=O)(=O)[O-])c5F)c5nc(c(-c6cccc(S(=O)(=O)[O-])c6F)c6ccc3[nH]6)C=C5)C=C4)cc2)cc1)Nc1nc(-c2ccccc2)cs1
REMARK SMILES IDX 17 1 16 2 14 3 15 4 13 5 10 6 11 7 89 8 12 9 88 10 9 11 5 12
REMARK SMILES IDX 6 13 7 14 8 15 4 16 3 17 2 18 1 19 90 20 91 22 92 23 101 24
REMARK SMILES IDX 93 25 100 26 94 27 95 28 99 29 96 30 98 31 97 32 18 33 19 34
REMARK SMILES IDX 20 35 21 36 22 37 23 38 24 39 25 40 26 41 87 42 27 43 86 44
REMARK SMILES IDX 28 45 29 46 30 47 80 48 31 49 85 50 79 51 81 52 32 53 84 54
REMARK SMILES IDX 78 55 77 56 33 58 65 59 45 60 64 61 46 62 49 63 63 64 82 65
REMARK SMILES IDX 47 66 48 67 62 69 83 70 50 71 34 72 35 73 43 74 36 75 38 76
REMARK SMILES IDX 44 77 37 78 39 79 40 80 41 81 42 82 66 83 67 84 75 85 68 86
REMARK SMILES IDX 70 87 76 88 69 89 71 90 72 91 73 92 74 93 51 94 52 95 60 96
REMARK SMILES IDX 53 97 55 98 61 99 54 100 56 101 57 102 58 103 59 104
REMARK H PARENT 90 21 81 57 49 68
REMARK Flexibility Score: inf
ROOT
ATOM      1  C   UNL A   1      35.498  22.414  23.575  1.00  0.00     0.261 C 
ENDROOT
BRANCH   1   2
ATOM      2  O   UNL A   1      34.830  22.937  22.421  1.00  0.00    -0.460 OA
BRANCH   2   3
ATOM      3  C   UNL A   1      33.505  23.097  22.609  1.00  0.00     0.338 C 
ATOM      4  O   UNL A   1      32.638  22.274  22.326  1.00  0.00    -0.246 OA
BRANCH   3   5
ATOM      5  C   UNL A   1      33.100  24.399  23.153  1.00  0.00     0.060 A 
ATOM      6  C   UNL A   1      31.782  26.798  23.651  1.00  0.00     0.069 A 
ATOM      7  C   UNL A   1      31.261  25.608  24.169  1.00  0.00     0.029 A 
ATOM      8  C   UNL A   1      33.033  26.803  23.009  1.00  0.00     0.029 A 
ATOM      9  C   UNL A   1      31.909  24.412  23.894  1.00  0.00     0.018 A 
ATOM     10  C   UNL A   1      33.702  25.598  22.765  1.00  0.00     0.018 A 
BRANCH   6  11
ATOM     11  N   UNL A   1      30.957  27.945  23.681  1.00  0.00    -0.187 N 
ATOM     12  C   UNL A   1      31.130  29.149  24.345  1.00  0.00     0.214 A 
ATOM     13  N   UNL A   1      30.164  29.973  24.001  1.00  0.00    -0.101 NA
ATOM     14  N   UNL A   1      29.411  29.301  23.076  1.00  0.00    -0.022 NA
ATOM     15  N   UNL A   1      29.920  28.105  22.820  1.00  0.00    -0.039 NA
BRANCH  12  16
ATOM     16  S   UNL A   1      32.563  29.645  25.193  1.00  0.00    -0.074 SA
BRANCH  16  17
ATOM     17  C   UNL A   1      31.879  31.003  26.200  1.00  0.00     0.178 C 
BRANCH  17  18
ATOM     18  C   UNL A   1      32.775  31.349  27.386  1.00  0.00     0.236 C 
ATOM     19  O   UNL A   1      33.420  30.476  27.958  1.00  0.00    -0.274 OA
ATOM     20  N   UNL A   1      32.808  32.700  27.641  1.00  0.00    -0.301 N 
ATOM     21  H   UNL A   1      32.168  33.268  27.156  1.00  0.00     0.172 HD
BRANCH  20  22
ATOM     22  C   UNL A   1      33.661  33.314  28.515  1.00  0.00     0.189 A 
ATOM     23  N   UNL A   1      34.085  32.983  29.709  1.00  0.00    -0.220 NA
ATOM     24  S   UNL A   1      34.274  34.769  27.861  1.00  0.00    -0.105 S 
ATOM     25  C   UNL A   1      34.969  33.958  30.177  1.00  0.00     0.084 A 
ATOM     26  C   UNL A   1      35.179  35.003  29.289  1.00  0.00     0.097 A 
BRANCH  25  27
ATOM     27  C   UNL A   1      35.493  33.999  31.552  1.00  0.00     0.001 A 
ATOM     28  C   UNL A   1      34.655  33.776  32.660  1.00  0.00     0.010 A 
ATOM     29  C   UNL A   1      36.874  34.050  31.777  1.00  0.00     0.010 A 
ATOM     30  C   UNL A   1      35.186  33.503  33.924  1.00  0.00     0.001 A 
ATOM     31  C   UNL A   1      37.409  33.740  33.034  1.00  0.00     0.001 A 
ATOM     32  C   UNL A   1      36.565  33.451  34.103  1.00  0.00     0.000 A 
ENDBRANCH  25  27
ENDBRANCH  20  22
ENDBRANCH  17  18
ENDBRANCH  16  17
ENDBRANCH  12  16
ENDBRANCH   6  11
ENDBRANCH   3   5
ENDBRANCH   2   3
ENDBRANCH   1   2
BRANCH   1  33
ATOM     33  C   UNL A   1      35.244  23.000  24.975  1.00  0.00     0.202 C 
BRANCH  33  34
ATOM     34  O   UNL A   1      36.248  23.506  25.841  1.00  0.00    -0.374 OA
BRANCH  34  35
ATOM     35  C   UNL A   1      37.628  23.197  25.736  1.00  0.00     0.202 C 
BRANCH  35  36
ATOM     36  C   UNL A   1      38.181  21.813  26.050  1.00  0.00     0.261 C 
BRANCH  36  37
ATOM     37  O   UNL A   1      39.288  21.469  25.248  1.00  0.00    -0.460 OA
BRANCH  37  38
ATOM     38  C   UNL A   1      40.027  20.470  25.755  1.00  0.00     0.338 C 
ATOM     39  O   UNL A   1      39.760  19.265  25.738  1.00  0.00    -0.246 OA
BRANCH  38  40
ATOM     40  C   UNL A   1      41.209  21.035  26.405  1.00  0.00     0.060 A 
ATOM     41  C   UNL A   1      41.229  20.903  27.792  1.00  0.00     0.016 A 
ATOM     42  C   UNL A   1      41.979  21.992  25.723  1.00  0.00     0.016 A 
ATOM     43  C   UNL A   1      41.702  21.969  28.507  1.00  0.00     0.010 A 
ATOM     44  C   UNL A   1      42.450  23.061  26.441  1.00  0.00     0.010 A 
ATOM     45  C   UNL A   1      42.170  23.084  27.802  1.00  0.00    -0.014 A 
BRANCH  45  46
ATOM     46  C   UNL A   1      42.242  24.316  28.544  1.00  0.00     0.031 A 
ATOM     47  C   UNL A   1      41.181  25.272  28.220  1.00  0.00     0.074 A 
ATOM     48  C   UNL A   1      43.209  24.559  29.446  1.00  0.00     0.049 A 
ATOM     49  N   UNL A   1      41.296  26.382  27.574  1.00  0.00    -0.248 NA
ATOM     50  C   UNL A   1      39.806  24.866  28.529  1.00  0.00     0.031 C 
ATOM     51  C   UNL A   1      44.126  23.600  30.068  1.00  0.00     0.029 A 
ATOM     52  N   UNL A   1      43.474  25.723  30.097  1.00  0.00    -0.354 N 
ATOM     53  C   UNL A   1      40.025  26.933  27.602  1.00  0.00     0.074 A 
ATOM     54  C   UNL A   1      39.123  25.891  28.024  1.00  0.00     0.031 C 
ATOM     55  C   UNL A   1      44.658  24.167  31.175  1.00  0.00     0.029 A 
ATOM     56  C   UNL A   1      44.222  25.552  31.249  1.00  0.00     0.049 A 
ATOM     57  H   UNL A   1      43.165  26.602  29.779  1.00  0.00     0.167 HD
ATOM     58  C   UNL A   1      39.837  28.275  27.534  1.00  0.00     0.034 A 
ATOM     59  C   UNL A   1      44.375  26.463  32.236  1.00  0.00     0.034 A 
ATOM     60  C   UNL A   1      40.993  28.976  27.046  1.00  0.00     0.049 A 
ATOM     61  C   UNL A   1      44.042  27.797  31.681  1.00  0.00     0.074 A 
ATOM     62  C   UNL A   1      41.752  28.933  25.894  1.00  0.00     0.029 A 
ATOM     63  N   UNL A   1      41.733  29.677  27.965  1.00  0.00    -0.354 N 
ATOM     64  N   UNL A   1      44.768  28.427  30.799  1.00  0.00    -0.248 NA
ATOM     65  C   UNL A   1      42.688  28.302  31.846  1.00  0.00     0.031 C 
ATOM     66  C   UNL A   1      43.079  29.254  26.303  1.00  0.00     0.029 A 
ATOM     67  C   UNL A   1      43.058  29.472  27.682  1.00  0.00     0.049 A 
ATOM     68  H   UNL A   1      41.375  30.231  28.698  1.00  0.00     0.167 HD
ATOM     69  C   UNL A   1      43.852  29.114  30.012  1.00  0.00     0.074 A 
ATOM     70  C   UNL A   1      42.618  29.116  30.790  1.00  0.00     0.031 C 
ATOM     71  C   UNL A   1      44.095  29.356  28.689  1.00  0.00     0.034 A 
BRANCH  58  72
ATOM     72  C   UNL A   1      38.712  28.975  28.239  1.00  0.00     0.023 A 
ATOM     73  C   UNL A   1      37.835  29.757  27.463  1.00  0.00     0.012 A 
ATOM     74  C   UNL A   1      38.614  29.092  29.643  1.00  0.00     0.148 A 
ATOM     75  C   UNL A   1      36.909  30.617  28.060  1.00  0.00     0.002 A 
ATOM     76  C   UNL A   1      37.625  29.867  30.231  1.00  0.00     0.091 A 
ATOM     77  F   UNL A   1      39.559  28.566  30.433  1.00  0.00    -0.205 F 
ATOM     78  C   UNL A   1      36.787  30.657  29.445  1.00  0.00     0.022 A 
BRANCH  76  79
ATOM     79  S   UNL A   1      37.393  29.834  32.009  1.00  0.00     0.127 S 
ATOM     80  O   UNL A   1      38.534  30.614  32.475  1.00  0.00    -0.237 OA
ATOM     81  O   UNL A   1      36.091  30.483  32.166  1.00  0.00    -0.237 OA
ATOM     82  O   UNL A   1      37.389  28.414  32.348  1.00  0.00    -0.744 OA
ENDBRANCH  76  79
ENDBRANCH  58  72
BRANCH  59  83
ATOM     83  C   UNL A   1      44.568  26.232  33.684  1.00  0.00     0.023 A 
ATOM     84  C   UNL A   1      45.865  26.278  34.228  1.00  0.00     0.012 A 
ATOM     85  C   UNL A   1      43.471  26.203  34.576  1.00  0.00     0.148 A 
ATOM     86  C   UNL A   1      46.063  26.313  35.612  1.00  0.00     0.002 A 
ATOM     87  C   UNL A   1      43.674  26.217  35.952  1.00  0.00     0.091 A 
ATOM     88  F   UNL A   1      42.228  26.260  34.079  1.00  0.00    -0.205 F 
ATOM     89  C   UNL A   1      44.970  26.284  36.474  1.00  0.00     0.022 A 
BRANCH  87  90
ATOM     90  S   UNL A   1      42.302  26.173  37.113  1.00  0.00     0.127 S 
ATOM     91  O   UNL A   1      41.710  24.862  36.840  1.00  0.00    -0.237 OA
ATOM     92  O   UNL A   1      42.988  26.279  38.398  1.00  0.00    -0.237 OA
ATOM     93  O   UNL A   1      41.446  27.297  36.754  1.00  0.00    -0.744 OA
ENDBRANCH  87  90
ENDBRANCH  59  83
BRANCH  71  94
ATOM     94  C   UNL A   1      45.501  29.161  28.172  1.00  0.00     0.023 A 
ATOM     95  C   UNL A   1      46.460  30.194  28.237  1.00  0.00     0.012 A 
ATOM     96  C   UNL A   1      45.919  27.874  27.786  1.00  0.00     0.148 A 
ATOM     97  C   UNL A   1      47.794  29.958  27.895  1.00  0.00     0.002 A 
ATOM     98  C   UNL A   1      47.258  27.633  27.492  1.00  0.00     0.091 A 
ATOM     99  F   UNL A   1      45.003  26.895  27.736  1.00  0.00    -0.205 F 
ATOM    100  C   UNL A   1      48.196  28.676  27.535  1.00  0.00     0.022 A 
BRANCH  98 101
ATOM    101  S   UNL A   1      47.864  25.975  27.161  1.00  0.00     0.127 S 
ATOM    102  O   UNL A   1      47.179  25.639  25.915  1.00  0.00    -0.237 OA
ATOM    103  O   UNL A   1      49.308  26.182  27.027  1.00  0.00    -0.237 OA
ATOM    104  O   UNL A   1      47.488  25.178  28.323  1.00  0.00    -0.744 OA
ENDBRANCH  98 101
ENDBRANCH  71  94
ENDBRANCH  45  46
ENDBRANCH  38  40
ENDBRANCH  37  38
ENDBRANCH  36  37
ENDBRANCH  35  36
ENDBRANCH  34  35
ENDBRANCH  33  34
ENDBRANCH   1  33
TORSDOF 23
ENDMDL
