MODEL 1
REMARK VINA RESULT:     -11.7      0.000      0.000
REMARK SMILES [NH3+][C@]1(C(=O)OCCOCCOC(=O)c2ccc(-c3c4nc(c(-c5cccc(S(=O)(=O)[O-])c5F)c5ccc([nH]5)c(-c5cccc(S(=O)(=O)[O-])c5F)c5nc(c(-c6cccc(S(=O)(=O)[O-])c6F)c6ccc3[nH]6)C=C5)C=C4)cc2)CC[C@@H](Sc2cc3ccccc3[nH]2)C1
REMARK SMILES IDX 9 1 8 2 7 3 6 4 5 5 3 6 4 7 2 8 77 9 90 10 78 11 79 12 1 13
REMARK SMILES IDX 80 17 81 18 82 19 89 20 83 21 88 22 84 24 87 25 85 26 86 27
REMARK SMILES IDX 10 28 11 29 12 30 13 31 14 32 15 33 76 34 16 35 75 36 17 37
REMARK SMILES IDX 18 38 19 39 69 40 20 41 74 42 68 43 70 44 21 45 73 46 67 47
REMARK SMILES IDX 66 48 22 50 54 51 34 52 53 53 35 54 38 55 52 56 71 57 36 58
REMARK SMILES IDX 37 59 51 61 72 62 39 63 23 64 24 65 32 66 25 67 27 68 33 69
REMARK SMILES IDX 26 70 28 71 29 72 30 73 31 74 55 75 56 76 64 77 57 78 59 79
REMARK SMILES IDX 65 80 58 81 60 82 61 83 62 84 63 85 40 86 41 87 49 88 42 89
REMARK SMILES IDX 44 90 50 91 43 92 45 93 46 94 47 95 48 96
REMARK H PARENT 1 14 1 15 1 16 89 23 70 49 38 60
REMARK Flexibility Score: inf
ROOT
ATOM      1  C   UNL A   1      34.732  20.637  25.666  1.00  0.00     0.202 C 
ENDROOT
BRANCH   1   2
ATOM      2  O   UNL A   1      33.785  21.636  25.304  1.00  0.00    -0.374 OA
BRANCH   2   3
ATOM      3  C   UNL A   1      32.417  21.234  25.211  1.00  0.00     0.202 C 
BRANCH   3   4
ATOM      4  C   UNL A   1      31.357  22.232  25.697  1.00  0.00     0.261 C 
BRANCH   4   5
ATOM      5  O   UNL A   1      31.931  23.247  26.541  1.00  0.00    -0.459 OA
BRANCH   5   6
ATOM      6  C   UNL A   1      31.652  24.540  26.229  1.00  0.00     0.368 C 
ATOM      7  O   UNL A   1      30.655  25.152  26.599  1.00  0.00    -0.245 OA
BRANCH   6   8
ATOM      8  C   UNL A   1      32.760  25.207  25.380  1.00  0.00     0.193 C 
ATOM      9  C   UNL A   1      32.589  24.889  23.885  1.00  0.00     0.082 C 
ATOM     10  C   UNL A   1      32.754  26.734  25.372  1.00  0.00     0.096 C 
ATOM     11  C   UNL A   1      33.436  25.926  23.149  1.00  0.00     0.022 C 
ATOM     12  C   UNL A   1      33.514  27.123  24.097  1.00  0.00     0.060 C 
BRANCH   8  13
ATOM     13  N   UNL A   1      34.085  24.704  25.830  1.00  0.00    -0.343 N 
ATOM     14  H   UNL A   1      34.817  25.331  25.495  1.00  0.00     0.345 HD
ATOM     15  H   UNL A   1      34.239  23.769  25.454  1.00  0.00     0.345 HD
ATOM     16  H   UNL A   1      34.106  24.669  26.849  1.00  0.00     0.345 HD
ENDBRANCH   8  13
BRANCH  12  17
ATOM     17  S   UNL A   1      32.964  28.754  23.578  1.00  0.00    -0.105 SA
BRANCH  17  18
ATOM     18  C   UNL A   1      31.596  28.631  22.526  1.00  0.00     0.073 A 
ATOM     19  C   UNL A   1      30.477  27.832  22.651  1.00  0.00     0.043 A 
ATOM     20  N   UNL A   1      31.208  29.763  21.857  1.00  0.00    -0.350 N 
ATOM     21  C   UNL A   1      29.373  28.742  22.591  1.00  0.00     0.001 A 
ATOM     22  C   UNL A   1      29.869  29.964  22.134  1.00  0.00     0.046 A 
ATOM     23  H   UNL A   1      31.777  30.328  21.286  1.00  0.00     0.167 HD
ATOM     24  C   UNL A   1      28.043  28.683  23.052  1.00  0.00     0.010 A 
ATOM     25  C   UNL A   1      29.119  31.142  22.130  1.00  0.00     0.027 A 
ATOM     26  C   UNL A   1      27.306  29.872  23.136  1.00  0.00     0.001 A 
ATOM     27  C   UNL A   1      27.840  31.079  22.690  1.00  0.00     0.002 A 
ENDBRANCH  17  18
ENDBRANCH  12  17
ENDBRANCH   6   8
ENDBRANCH   5   6
ENDBRANCH   4   5
ENDBRANCH   3   4
ENDBRANCH   2   3
ENDBRANCH   1   2
BRANCH   1  28
ATOM     28  C   UNL A   1      36.107  20.675  24.986  1.00  0.00     0.261 C 
BRANCH  28  29
ATOM     29  O   UNL A   1      36.926  21.781  25.399  1.00  0.00    -0.460 OA
BRANCH  29  30
ATOM     30  C   UNL A   1      38.197  21.452  25.734  1.00  0.00     0.338 C 
ATOM     31  O   UNL A   1      38.788  20.411  25.467  1.00  0.00    -0.246 OA
BRANCH  30  32
ATOM     32  C   UNL A   1      38.874  22.596  26.363  1.00  0.00     0.060 A 
ATOM     33  C   UNL A   1      38.371  23.878  26.110  1.00  0.00     0.016 A 
ATOM     34  C   UNL A   1      40.041  22.425  27.110  1.00  0.00     0.016 A 
ATOM     35  C   UNL A   1      39.041  25.000  26.596  1.00  0.00     0.010 A 
ATOM     36  C   UNL A   1      40.718  23.553  27.586  1.00  0.00     0.010 A 
ATOM     37  C   UNL A   1      40.233  24.847  27.316  1.00  0.00    -0.014 A 
BRANCH  37  38
ATOM     38  C   UNL A   1      41.008  26.041  27.733  1.00  0.00     0.031 A 
ATOM     39  C   UNL A   1      40.330  27.137  28.507  1.00  0.00     0.074 A 
ATOM     40  C   UNL A   1      42.306  26.154  27.401  1.00  0.00     0.049 A 
ATOM     41  N   UNL A   1      40.817  28.280  28.918  1.00  0.00    -0.248 NA
ATOM     42  C   UNL A   1      38.920  26.919  28.866  1.00  0.00     0.031 C 
ATOM     43  C   UNL A   1      43.073  25.156  26.655  1.00  0.00     0.029 A 
ATOM     44  N   UNL A   1      43.201  27.172  27.619  1.00  0.00    -0.354 N 
ATOM     45  C   UNL A   1      39.768  28.931  29.557  1.00  0.00     0.074 A 
ATOM     46  C   UNL A   1      38.618  28.056  29.478  1.00  0.00     0.031 C 
ATOM     47  C   UNL A   1      44.313  25.628  26.445  1.00  0.00     0.029 A 
ATOM     48  C   UNL A   1      44.419  26.970  27.014  1.00  0.00     0.049 A 
ATOM     49  H   UNL A   1      42.991  27.969  28.157  1.00  0.00     0.167 HD
ATOM     50  C   UNL A   1      39.768  30.142  30.164  1.00  0.00     0.034 A 
ATOM     51  C   UNL A   1      45.485  27.788  26.900  1.00  0.00     0.034 A 
ATOM     52  C   UNL A   1      40.917  31.002  30.255  1.00  0.00     0.049 A 
ATOM     53  C   UNL A   1      45.444  29.147  27.549  1.00  0.00     0.074 A 
ATOM     54  C   UNL A   1      41.031  32.217  30.907  1.00  0.00     0.029 A 
ATOM     55  N   UNL A   1      42.143  30.753  29.659  1.00  0.00    -0.354 N 
ATOM     56  N   UNL A   1      44.493  29.689  28.270  1.00  0.00    -0.248 NA
ATOM     57  C   UNL A   1      46.633  29.999  27.388  1.00  0.00     0.031 C 
ATOM     58  C   UNL A   1      42.317  32.718  30.676  1.00  0.00     0.029 A 
ATOM     59  C   UNL A   1      43.013  31.801  29.904  1.00  0.00     0.049 A 
ATOM     60  H   UNL A   1      42.363  29.946  29.136  1.00  0.00     0.167 HD
ATOM     61  C   UNL A   1      44.976  30.931  28.670  1.00  0.00     0.074 A 
ATOM     62  C   UNL A   1      46.315  31.051  28.132  1.00  0.00     0.031 C 
ATOM     63  C   UNL A   1      44.360  31.891  29.403  1.00  0.00     0.034 A 
BRANCH  50  64
ATOM     64  C   UNL A   1      38.486  30.607  30.803  1.00  0.00     0.023 A 
ATOM     65  C   UNL A   1      38.273  30.387  32.179  1.00  0.00     0.012 A 
ATOM     66  C   UNL A   1      37.526  31.321  30.059  1.00  0.00     0.148 A 
ATOM     67  C   UNL A   1      37.112  30.849  32.799  1.00  0.00     0.002 A 
ATOM     68  C   UNL A   1      36.390  31.812  30.693  1.00  0.00     0.091 A 
ATOM     69  F   UNL A   1      37.737  31.501  28.747  1.00  0.00    -0.205 F 
ATOM     70  C   UNL A   1      36.178  31.568  32.060  1.00  0.00     0.022 A 
BRANCH  68  71
ATOM     71  S   UNL A   1      35.164  32.813  29.845  1.00  0.00     0.127 S 
ATOM     72  O   UNL A   1      34.596  31.849  28.902  1.00  0.00    -0.237 OA
ATOM     73  O   UNL A   1      34.269  33.196  30.938  1.00  0.00    -0.237 OA
ATOM     74  O   UNL A   1      35.894  33.919  29.242  1.00  0.00    -0.744 OA
ENDBRANCH  68  71
ENDBRANCH  50  64
BRANCH  51  75
ATOM     75  C   UNL A   1      46.692  27.336  26.151  1.00  0.00     0.023 A 
ATOM     76  C   UNL A   1      46.787  27.586  24.768  1.00  0.00     0.012 A 
ATOM     77  C   UNL A   1      47.753  26.680  26.805  1.00  0.00     0.148 A 
ATOM     78  C   UNL A   1      47.905  27.166  24.046  1.00  0.00     0.002 A 
ATOM     79  C   UNL A   1      48.888  26.316  26.091  1.00  0.00     0.091 A 
ATOM     80  F   UNL A   1      47.634  26.433  28.117  1.00  0.00    -0.205 F 
ATOM     81  C   UNL A   1      48.959  26.542  24.708  1.00  0.00     0.022 A 
BRANCH  79  82
ATOM     82  S   UNL A   1      50.346  25.631  26.887  1.00  0.00     0.127 S 
ATOM     83  O   UNL A   1      51.276  25.522  25.766  1.00  0.00    -0.237 OA
ATOM     84  O   UNL A   1      50.675  26.672  27.861  1.00  0.00    -0.237 OA
ATOM     85  O   UNL A   1      49.916  24.372  27.479  1.00  0.00    -0.744 OA
ENDBRANCH  79  82
ENDBRANCH  51  75
BRANCH  63  86
ATOM     86  C   UNL A   1      45.125  33.158  29.689  1.00  0.00     0.023 A 
ATOM     87  C   UNL A   1      45.998  33.211  30.793  1.00  0.00     0.012 A 
ATOM     88  C   UNL A   1      45.048  34.262  28.815  1.00  0.00     0.148 A 
ATOM     89  C   UNL A   1      46.766  34.349  31.037  1.00  0.00     0.002 A 
ATOM     90  C   UNL A   1      45.851  35.375  29.037  1.00  0.00     0.091 A 
ATOM     91  F   UNL A   1      44.199  34.198  27.779  1.00  0.00    -0.205 F 
ATOM     92  C   UNL A   1      46.703  35.424  30.153  1.00  0.00     0.022 A 
BRANCH  90  93
ATOM     93  S   UNL A   1      45.908  36.769  27.905  1.00  0.00     0.127 S 
ATOM     94  O   UNL A   1      44.545  37.288  28.003  1.00  0.00    -0.237 OA
ATOM     95  O   UNL A   1      46.930  37.620  28.514  1.00  0.00    -0.237 OA
ATOM     96  O   UNL A   1      46.272  36.219  26.606  1.00  0.00    -0.744 OA
ENDBRANCH  90  93
ENDBRANCH  63  86
ENDBRANCH  37  38
ENDBRANCH  30  32
ENDBRANCH  29  30
ENDBRANCH  28  29
ENDBRANCH   1  28
TORSDOF 20
ENDMDL
MODEL 2
REMARK VINA RESULT:     -11.2      4.264      7.960
REMARK SMILES [NH3+][C@]1(C(=O)OCCOCCOC(=O)c2ccc(-c3c4nc(c(-c5cccc(S(=O)(=O)[O-])c5F)c5ccc([nH]5)c(-c5cccc(S(=O)(=O)[O-])c5F)c5nc(c(-c6cccc(S(=O)(=O)[O-])c6F)c6ccc3[nH]6)C=C5)C=C4)cc2)CC[C@@H](Sc2cc3ccccc3[nH]2)C1
REMARK SMILES IDX 9 1 8 2 7 3 6 4 5 5 3 6 4 7 2 8 77 9 90 10 78 11 79 12 1 13
REMARK SMILES IDX 80 17 81 18 82 19 89 20 83 21 88 22 84 24 87 25 85 26 86 27
REMARK SMILES IDX 10 28 11 29 12 30 13 31 14 32 15 33 76 34 16 35 75 36 17 37
REMARK SMILES IDX 18 38 19 39 69 40 20 41 74 42 68 43 70 44 21 45 73 46 67 47
REMARK SMILES IDX 66 48 22 50 54 51 34 52 53 53 35 54 38 55 52 56 71 57 36 58
REMARK SMILES IDX 37 59 51 61 72 62 39 63 23 64 24 65 32 66 25 67 27 68 33 69
REMARK SMILES IDX 26 70 28 71 29 72 30 73 31 74 55 75 56 76 64 77 57 78 59 79
REMARK SMILES IDX 65 80 58 81 60 82 61 83 62 84 63 85 40 86 41 87 49 88 42 89
REMARK SMILES IDX 44 90 50 91 43 92 45 93 46 94 47 95 48 96
REMARK H PARENT 1 14 1 15 1 16 89 23 70 49 38 60
REMARK Flexibility Score: inf
ROOT
ATOM      1  C   UNL A   1      31.788  29.315  25.873  1.00  0.00     0.202 C 
ENDROOT
BRANCH   1   2
ATOM      2  O   UNL A   1      32.290  28.529  24.798  1.00  0.00    -0.374 OA
BRANCH   2   3
ATOM      3  C   UNL A   1      31.373  28.183  23.760  1.00  0.00     0.202 C 
BRANCH   3   4
ATOM      4  C   UNL A   1      31.909  27.325  22.606  1.00  0.00     0.261 C 
BRANCH   4   5
ATOM      5  O   UNL A   1      31.977  25.933  22.966  1.00  0.00    -0.459 OA
BRANCH   5   6
ATOM      6  C   UNL A   1      33.216  25.391  23.102  1.00  0.00     0.368 C 
ATOM      7  O   UNL A   1      34.025  25.250  22.188  1.00  0.00    -0.245 OA
BRANCH   6   8
ATOM      8  C   UNL A   1      33.547  25.000  24.561  1.00  0.00     0.193 C 
ATOM      9  C   UNL A   1      32.287  24.557  25.323  1.00  0.00     0.082 C 
ATOM     10  C   UNL A   1      34.452  23.782  24.729  1.00  0.00     0.096 C 
ATOM     11  C   UNL A   1      32.797  23.804  26.551  1.00  0.00     0.022 C 
ATOM     12  C   UNL A   1      34.178  23.281  26.152  1.00  0.00     0.060 C 
BRANCH   8  13
ATOM     13  N   UNL A   1      34.140  26.175  25.255  1.00  0.00    -0.343 N 
ATOM     14  H   UNL A   1      34.032  26.064  26.263  1.00  0.00     0.345 HD
ATOM     15  H   UNL A   1      33.663  27.024  24.952  1.00  0.00     0.345 HD
ATOM     16  H   UNL A   1      35.131  26.240  25.024  1.00  0.00     0.345 HD
ENDBRANCH   8  13
BRANCH  12  17
ATOM     17  S   UNL A   1      34.562  21.526  26.226  1.00  0.00    -0.105 SA
BRANCH  17  18
ATOM     18  C   UNL A   1      33.283  20.591  25.530  1.00  0.00     0.073 A 
ATOM     19  C   UNL A   1      33.046  20.304  24.200  1.00  0.00     0.043 A 
ATOM     20  N   UNL A   1      32.796  19.539  26.261  1.00  0.00    -0.350 N 
ATOM     21  C   UNL A   1      32.976  18.874  24.146  1.00  0.00     0.001 A 
ATOM     22  C   UNL A   1      32.868  18.415  25.460  1.00  0.00     0.046 A 
ATOM     23  H   UNL A   1      32.459  19.576  27.185  1.00  0.00     0.167 HD
ATOM     24  C   UNL A   1      33.175  17.933  23.117  1.00  0.00     0.010 A 
ATOM     25  C   UNL A   1      32.969  17.068  25.812  1.00  0.00     0.027 A 
ATOM     26  C   UNL A   1      33.366  16.588  23.461  1.00  0.00     0.001 A 
ATOM     27  C   UNL A   1      33.271  16.167  24.787  1.00  0.00     0.002 A 
ENDBRANCH  17  18
ENDBRANCH  12  17
ENDBRANCH   6   8
ENDBRANCH   5   6
ENDBRANCH   4   5
ENDBRANCH   3   4
ENDBRANCH   2   3
ENDBRANCH   1   2
BRANCH   1  28
ATOM     28  C   UNL A   1      32.727  29.595  27.054  1.00  0.00     0.261 C 
BRANCH  28  29
ATOM     29  O   UNL A   1      33.918  30.312  26.690  1.00  0.00    -0.460 OA
BRANCH  29  30
ATOM     30  C   UNL A   1      34.529  30.954  27.714  1.00  0.00     0.338 C 
ATOM     31  O   UNL A   1      34.094  31.902  28.361  1.00  0.00    -0.246 OA
BRANCH  30  32
ATOM     32  C   UNL A   1      35.776  30.266  28.080  1.00  0.00     0.060 A 
ATOM     33  C   UNL A   1      35.858  29.685  29.351  1.00  0.00     0.016 A 
ATOM     34  C   UNL A   1      36.883  30.273  27.229  1.00  0.00     0.016 A 
ATOM     35  C   UNL A   1      37.055  29.114  29.783  1.00  0.00     0.010 A 
ATOM     36  C   UNL A   1      38.087  29.712  27.670  1.00  0.00     0.010 A 
ATOM     37  C   UNL A   1      38.185  29.146  28.955  1.00  0.00    -0.014 A 
BRANCH  37  38
ATOM     38  C   UNL A   1      39.489  28.646  29.457  1.00  0.00     0.031 A 
ATOM     39  C   UNL A   1      40.205  29.397  30.545  1.00  0.00     0.074 A 
ATOM     40  C   UNL A   1      40.038  27.540  28.927  1.00  0.00     0.049 A 
ATOM     41  N   UNL A   1      41.372  29.155  31.083  1.00  0.00    -0.248 NA
ATOM     42  C   UNL A   1      39.518  30.574  31.100  1.00  0.00     0.031 C 
ATOM     43  C   UNL A   1      39.437  26.726  27.870  1.00  0.00     0.029 A 
ATOM     44  N   UNL A   1      41.240  26.927  29.181  1.00  0.00    -0.354 N 
ATOM     45  C   UNL A   1      41.576  30.163  32.019  1.00  0.00     0.074 A 
ATOM     46  C   UNL A   1      40.411  31.021  31.974  1.00  0.00     0.031 C 
ATOM     47  C   UNL A   1      40.290  25.742  27.540  1.00  0.00     0.029 A 
ATOM     48  C   UNL A   1      41.507  25.874  28.339  1.00  0.00     0.049 A 
ATOM     49  H   UNL A   1      41.851  27.214  29.898  1.00  0.00     0.167 HD
ATOM     50  C   UNL A   1      42.631  30.349  32.847  1.00  0.00     0.034 A 
ATOM     51  C   UNL A   1      42.620  25.123  28.202  1.00  0.00     0.034 A 
ATOM     52  C   UNL A   1      43.780  29.485  32.901  1.00  0.00     0.049 A 
ATOM     53  C   UNL A   1      43.796  25.378  29.108  1.00  0.00     0.074 A 
ATOM     54  C   UNL A   1      44.868  29.555  33.754  1.00  0.00     0.029 A 
ATOM     55  N   UNL A   1      44.003  28.409  32.056  1.00  0.00    -0.354 N 
ATOM     56  N   UNL A   1      43.915  26.247  30.082  1.00  0.00    -0.248 NA
ATOM     57  C   UNL A   1      44.985  24.533  28.911  1.00  0.00     0.031 C 
ATOM     58  C   UNL A   1      45.765  28.541  33.401  1.00  0.00     0.029 A 
ATOM     59  C   UNL A   1      45.223  27.822  32.348  1.00  0.00     0.049 A 
ATOM     60  H   UNL A   1      43.384  28.107  31.352  1.00  0.00     0.167 HD
ATOM     61  C   UNL A   1      45.176  26.037  30.631  1.00  0.00     0.074 A 
ATOM     62  C   UNL A   1      45.773  24.941  29.896  1.00  0.00     0.031 C 
ATOM     63  C   UNL A   1      45.790  26.702  31.641  1.00  0.00     0.034 A 
BRANCH  50  64
ATOM     64  C   UNL A   1      42.587  31.525  33.787  1.00  0.00     0.023 A 
ATOM     65  C   UNL A   1      43.031  32.788  33.346  1.00  0.00     0.012 A 
ATOM     66  C   UNL A   1      42.042  31.395  35.079  1.00  0.00     0.148 A 
ATOM     67  C   UNL A   1      42.957  33.899  34.186  1.00  0.00     0.002 A 
ATOM     68  C   UNL A   1      41.935  32.515  35.897  1.00  0.00     0.091 A 
ATOM     69  F   UNL A   1      41.645  30.181  35.488  1.00  0.00    -0.205 F 
ATOM     70  C   UNL A   1      42.401  33.764  35.455  1.00  0.00     0.022 A 
BRANCH  68  71
ATOM     71  S   UNL A   1      41.168  32.461  37.519  1.00  0.00     0.127 S 
ATOM     72  O   UNL A   1      41.171  33.875  37.895  1.00  0.00    -0.237 OA
ATOM     73  O   UNL A   1      39.844  31.914  37.216  1.00  0.00    -0.237 OA
ATOM     74  O   UNL A   1      42.009  31.596  38.334  1.00  0.00    -0.744 OA
ENDBRANCH  68  71
ENDBRANCH  50  64
BRANCH  51  75
ATOM     75  C   UNL A   1      42.667  24.047  27.173  1.00  0.00     0.023 A 
ATOM     76  C   UNL A   1      43.362  24.265  25.968  1.00  0.00     0.012 A 
ATOM     77  C   UNL A   1      42.046  22.801  27.391  1.00  0.00     0.148 A 
ATOM     78  C   UNL A   1      43.415  23.273  24.988  1.00  0.00     0.002 A 
ATOM     79  C   UNL A   1      42.151  21.798  26.435  1.00  0.00     0.091 A 
ATOM     80  F   UNL A   1      41.372  22.619  28.535  1.00  0.00    -0.205 F 
ATOM     81  C   UNL A   1      42.820  22.037  25.225  1.00  0.00     0.022 A 
BRANCH  79  82
ATOM     82  S   UNL A   1      41.532  20.134  26.716  1.00  0.00     0.127 S 
ATOM     83  O   UNL A   1      40.131  20.386  27.039  1.00  0.00    -0.237 OA
ATOM     84  O   UNL A   1      41.760  19.505  25.414  1.00  0.00    -0.237 OA
ATOM     85  O   UNL A   1      42.344  19.589  27.794  1.00  0.00    -0.744 OA
ENDBRANCH  79  82
ENDBRANCH  51  75
BRANCH  63  86
ATOM     86  C   UNL A   1      47.176  26.263  32.034  1.00  0.00     0.023 A 
ATOM     87  C   UNL A   1      47.349  25.412  33.143  1.00  0.00     0.012 A 
ATOM     88  C   UNL A   1      48.295  26.616  31.253  1.00  0.00     0.148 A 
ATOM     89  C   UNL A   1      48.616  24.939  33.484  1.00  0.00     0.002 A 
ATOM     90  C   UNL A   1      49.548  26.103  31.569  1.00  0.00     0.091 A 
ATOM     91  F   UNL A   1      48.111  27.438  30.209  1.00  0.00    -0.205 F 
ATOM     92  C   UNL A   1      49.712  25.272  32.691  1.00  0.00     0.022 A 
BRANCH  90  93
ATOM     93  S   UNL A   1      51.001  26.400  30.556  1.00  0.00     0.127 S 
ATOM     94  O   UNL A   1      50.598  25.811  29.279  1.00  0.00    -0.237 OA
ATOM     95  O   UNL A   1      51.084  27.860  30.554  1.00  0.00    -0.237 OA
ATOM     96  O   UNL A   1      52.106  25.730  31.228  1.00  0.00    -0.744 OA
ENDBRANCH  90  93
ENDBRANCH  63  86
ENDBRANCH  37  38
ENDBRANCH  30  32
ENDBRANCH  29  30
ENDBRANCH  28  29
ENDBRANCH   1  28
TORSDOF 20
ENDMDL
MODEL 3
REMARK VINA RESULT:     -11.2      1.989      7.942
REMARK SMILES [NH3+][C@]1(C(=O)OCCOCCOC(=O)c2ccc(-c3c4nc(c(-c5cccc(S(=O)(=O)[O-])c5F)c5ccc([nH]5)c(-c5cccc(S(=O)(=O)[O-])c5F)c5nc(c(-c6cccc(S(=O)(=O)[O-])c6F)c6ccc3[nH]6)C=C5)C=C4)cc2)CC[C@@H](Sc2cc3ccccc3[nH]2)C1
REMARK SMILES IDX 9 1 8 2 7 3 6 4 5 5 3 6 4 7 2 8 77 9 90 10 78 11 79 12 1 13
REMARK SMILES IDX 80 17 81 18 82 19 89 20 83 21 88 22 84 24 87 25 85 26 86 27
REMARK SMILES IDX 10 28 11 29 12 30 13 31 14 32 15 33 76 34 16 35 75 36 17 37
REMARK SMILES IDX 18 38 19 39 69 40 20 41 74 42 68 43 70 44 21 45 73 46 67 47
REMARK SMILES IDX 66 48 22 50 54 51 34 52 53 53 35 54 38 55 52 56 71 57 36 58
REMARK SMILES IDX 37 59 51 61 72 62 39 63 23 64 24 65 32 66 25 67 27 68 33 69
REMARK SMILES IDX 26 70 28 71 29 72 30 73 31 74 55 75 56 76 64 77 57 78 59 79
REMARK SMILES IDX 65 80 58 81 60 82 61 83 62 84 63 85 40 86 41 87 49 88 42 89
REMARK SMILES IDX 44 90 50 91 43 92 45 93 46 94 47 95 48 96
REMARK H PARENT 1 14 1 15 1 16 89 23 70 49 38 60
REMARK Flexibility Score: inf
ROOT
ATOM      1  C   UNL A   1      37.639  20.033  24.886  1.00  0.00     0.202 C 
ENDROOT
BRANCH   1   2
ATOM      2  O   UNL A   1      37.401  21.436  24.882  1.00  0.00    -0.374 OA
BRANCH   2   3
ATOM      3  C   UNL A   1      36.040  21.867  24.819  1.00  0.00     0.202 C 
BRANCH   3   4
ATOM      4  C   UNL A   1      35.720  23.049  23.895  1.00  0.00     0.261 C 
BRANCH   4   5
ATOM      5  O   UNL A   1      34.464  23.664  24.236  1.00  0.00    -0.459 OA
BRANCH   5   6
ATOM      6  C   UNL A   1      33.678  24.074  23.205  1.00  0.00     0.368 C 
ATOM      7  O   UNL A   1      34.014  24.078  22.024  1.00  0.00    -0.245 OA
BRANCH   6   8
ATOM      8  C   UNL A   1      32.262  24.502  23.660  1.00  0.00     0.193 C 
ATOM      9  C   UNL A   1      32.319  25.364  24.932  1.00  0.00     0.082 C 
ATOM     10  C   UNL A   1      31.512  25.421  22.699  1.00  0.00     0.096 C 
ATOM     11  C   UNL A   1      30.962  26.062  25.012  1.00  0.00     0.022 C 
ATOM     12  C   UNL A   1      30.461  26.124  23.568  1.00  0.00     0.060 C 
BRANCH   8  13
ATOM     13  N   UNL A   1      31.454  23.285  23.938  1.00  0.00    -0.343 N 
ATOM     14  H   UNL A   1      31.550  22.629  23.163  1.00  0.00     0.345 HD
ATOM     15  H   UNL A   1      30.474  23.547  24.044  1.00  0.00     0.345 HD
ATOM     16  H   UNL A   1      31.784  22.848  24.798  1.00  0.00     0.345 HD
ENDBRANCH   8  13
BRANCH  12  17
ATOM     17  S   UNL A   1      30.039  27.693  22.799  1.00  0.00    -0.105 SA
BRANCH  17  18
ATOM     18  C   UNL A   1      31.037  28.965  23.418  1.00  0.00     0.073 A 
ATOM     19  C   UNL A   1      30.774  29.851  24.443  1.00  0.00     0.043 A 
ATOM     20  N   UNL A   1      32.395  28.774  23.390  1.00  0.00    -0.350 N 
ATOM     21  C   UNL A   1      31.875  29.698  25.346  1.00  0.00     0.001 A 
ATOM     22  C   UNL A   1      32.862  28.974  24.675  1.00  0.00     0.046 A 
ATOM     23  H   UNL A   1      32.936  28.538  22.603  1.00  0.00     0.167 HD
ATOM     24  C   UNL A   1      32.042  29.954  26.722  1.00  0.00     0.010 A 
ATOM     25  C   UNL A   1      34.003  28.470  25.304  1.00  0.00     0.027 A 
ATOM     26  C   UNL A   1      33.135  29.381  27.385  1.00  0.00     0.001 A 
ATOM     27  C   UNL A   1      34.093  28.646  26.687  1.00  0.00     0.002 A 
ENDBRANCH  17  18
ENDBRANCH  12  17
ENDBRANCH   6   8
ENDBRANCH   5   6
ENDBRANCH   4   5
ENDBRANCH   3   4
ENDBRANCH   2   3
ENDBRANCH   1   2
BRANCH   1  28
ATOM     28  C   UNL A   1      38.933  19.529  25.539  1.00  0.00     0.261 C 
BRANCH  28  29
ATOM     29  O   UNL A   1      39.930  20.548  25.711  1.00  0.00    -0.460 OA
BRANCH  29  30
ATOM     30  C   UNL A   1      40.455  20.622  26.958  1.00  0.00     0.338 C 
ATOM     31  O   UNL A   1      40.782  19.688  27.682  1.00  0.00    -0.246 OA
BRANCH  30  32
ATOM     32  C   UNL A   1      40.738  22.022  27.312  1.00  0.00     0.060 A 
ATOM     33  C   UNL A   1      40.159  23.028  26.529  1.00  0.00     0.016 A 
ATOM     34  C   UNL A   1      41.634  22.343  28.333  1.00  0.00     0.016 A 
ATOM     35  C   UNL A   1      40.481  24.365  26.759  1.00  0.00     0.010 A 
ATOM     36  C   UNL A   1      41.966  23.685  28.553  1.00  0.00     0.010 A 
ATOM     37  C   UNL A   1      41.406  24.701  27.756  1.00  0.00    -0.014 A 
BRANCH  37  38
ATOM     38  C   UNL A   1      41.839  26.110  27.924  1.00  0.00     0.031 A 
ATOM     39  C   UNL A   1      43.203  26.531  27.454  1.00  0.00     0.074 A 
ATOM     40  C   UNL A   1      41.023  27.002  28.514  1.00  0.00     0.049 A 
ATOM     41  N   UNL A   1      43.787  27.698  27.554  1.00  0.00    -0.248 NA
ATOM     42  C   UNL A   1      44.017  25.506  26.782  1.00  0.00     0.031 C 
ATOM     43  C   UNL A   1      39.678  26.713  29.008  1.00  0.00     0.029 A 
ATOM     44  N   UNL A   1      41.220  28.325  28.827  1.00  0.00    -0.354 N 
ATOM     45  C   UNL A   1      45.047  27.542  26.987  1.00  0.00     0.074 A 
ATOM     46  C   UNL A   1      45.143  26.167  26.546  1.00  0.00     0.031 C 
ATOM     47  C   UNL A   1      39.184  27.815  29.596  1.00  0.00     0.029 A 
ATOM     48  C   UNL A   1      40.188  28.876  29.547  1.00  0.00     0.049 A 
ATOM     49  H   UNL A   1      42.024  28.828  28.562  1.00  0.00     0.167 HD
ATOM     50  C   UNL A   1      46.028  28.463  26.839  1.00  0.00     0.034 A 
ATOM     51  C   UNL A   1      40.078  30.087  30.131  1.00  0.00     0.034 A 
ATOM     52  C   UNL A   1      45.922  29.833  27.264  1.00  0.00     0.049 A 
ATOM     53  C   UNL A   1      41.201  31.080  29.986  1.00  0.00     0.074 A 
ATOM     54  C   UNL A   1      46.838  30.858  27.096  1.00  0.00     0.029 A 
ATOM     55  N   UNL A   1      44.850  30.367  27.960  1.00  0.00    -0.354 N 
ATOM     56  N   UNL A   1      42.327  30.962  29.325  1.00  0.00    -0.248 NA
ATOM     57  C   UNL A   1      41.029  32.384  30.648  1.00  0.00     0.031 C 
ATOM     58  C   UNL A   1      46.333  32.002  27.721  1.00  0.00     0.029 A 
ATOM     59  C   UNL A   1      45.090  31.699  28.254  1.00  0.00     0.049 A 
ATOM     60  H   UNL A   1      44.036  29.871  28.210  1.00  0.00     0.167 HD
ATOM     61  C   UNL A   1      42.985  32.179  29.468  1.00  0.00     0.074 A 
ATOM     62  C   UNL A   1      42.120  33.031  30.258  1.00  0.00     0.031 C 
ATOM     63  C   UNL A   1      44.202  32.552  29.002  1.00  0.00     0.034 A 
BRANCH  50  64
ATOM     64  C   UNL A   1      47.302  28.029  26.164  1.00  0.00     0.023 A 
ATOM     65  C   UNL A   1      48.379  27.559  26.942  1.00  0.00     0.012 A 
ATOM     66  C   UNL A   1      47.408  28.020  24.759  1.00  0.00     0.148 A 
ATOM     67  C   UNL A   1      49.551  27.111  26.334  1.00  0.00     0.002 A 
ATOM     68  C   UNL A   1      48.564  27.535  24.159  1.00  0.00     0.091 A 
ATOM     69  F   UNL A   1      46.381  28.491  24.037  1.00  0.00    -0.205 F 
ATOM     70  C   UNL A   1      49.640  27.089  24.946  1.00  0.00     0.022 A 
BRANCH  68  71
ATOM     71  S   UNL A   1      48.748  27.397  22.378  1.00  0.00     0.127 S 
ATOM     72  O   UNL A   1      50.120  27.867  22.185  1.00  0.00    -0.237 OA
ATOM     73  O   UNL A   1      48.558  25.963  22.158  1.00  0.00    -0.237 OA
ATOM     74  O   UNL A   1      47.712  28.242  21.800  1.00  0.00    -0.744 OA
ENDBRANCH  68  71
ENDBRANCH  50  64
BRANCH  51  75
ATOM     75  C   UNL A   1      38.847  30.434  30.896  1.00  0.00     0.023 A 
ATOM     76  C   UNL A   1      38.763  30.110  32.264  1.00  0.00     0.012 A 
ATOM     77  C   UNL A   1      37.769  31.102  30.281  1.00  0.00     0.148 A 
ATOM     78  C   UNL A   1      37.617  30.420  32.999  1.00  0.00     0.002 A 
ATOM     79  C   UNL A   1      36.655  31.458  31.032  1.00  0.00     0.091 A 
ATOM     80  F   UNL A   1      37.859  31.382  28.974  1.00  0.00    -0.205 F 
ATOM     81  C   UNL A   1      36.569  31.103  32.387  1.00  0.00     0.022 A 
BRANCH  79  82
ATOM     82  S   UNL A   1      35.321  32.455  30.359  1.00  0.00     0.127 S 
ATOM     83  O   UNL A   1      34.360  32.451  31.458  1.00  0.00    -0.237 OA
ATOM     84  O   UNL A   1      35.990  33.738  30.130  1.00  0.00    -0.237 OA
ATOM     85  O   UNL A   1      34.898  31.777  29.143  1.00  0.00    -0.744 OA
ENDBRANCH  79  82
ENDBRANCH  51  75
BRANCH  63  86
ATOM     86  C   UNL A   1      44.679  33.948  29.312  1.00  0.00     0.023 A 
ATOM     87  C   UNL A   1      45.473  34.175  30.453  1.00  0.00     0.012 A 
ATOM     88  C   UNL A   1      44.417  35.014  28.428  1.00  0.00     0.148 A 
ATOM     89  C   UNL A   1      45.981  35.446  30.723  1.00  0.00     0.002 A 
ATOM     90  C   UNL A   1      44.966  36.267  28.677  1.00  0.00     0.091 A 
ATOM     91  F   UNL A   1      43.647  34.781  27.356  1.00  0.00    -0.205 F 
ATOM     92  C   UNL A   1      45.739  36.487  29.830  1.00  0.00     0.022 A 
BRANCH  90  93
ATOM     93  S   UNL A   1      44.788  37.646  27.540  1.00  0.00     0.127 S 
ATOM     94  O   UNL A   1      45.151  38.781  28.388  1.00  0.00    -0.237 OA
ATOM     95  O   UNL A   1      45.769  37.322  26.504  1.00  0.00    -0.237 OA
ATOM     96  O   UNL A   1      43.402  37.623  27.091  1.00  0.00    -0.744 OA
ENDBRANCH  90  93
ENDBRANCH  63  86
ENDBRANCH  37  38
ENDBRANCH  30  32
ENDBRANCH  29  30
ENDBRANCH  28  29
ENDBRANCH   1  28
TORSDOF 20
ENDMDL
