MODEL 1
REMARK VINA RESULT:     -12.7      0.000      0.000
REMARK SMILES O=C(OCCOCCOC(=O)[C@H](NC(=O)[C@H]1CC[C@@H](CNC(=O)[C@@H]2Cc3ccccc3C[NH2+]2)CC1)c1ccccc1)c1ccc(-c2c3nc(c(-c4cccc(S(=O)(=O)[O-])c4F)c4ccc([nH]4)c(-c4cccc(S(=O)(=O)[O-])c4F)c4nc(c(-c5cccc(S(=O)(=O)[O-])c5F)c5ccc2[nH]5)C=C4)C=C3)cc1
REMARK SMILES IDX 7 1 6 2 5 3 4 4 3 5 2 6 1 7 42 8 43 9 104 10 44 11 103 12
REMARK SMILES IDX 45 13 46 14 47 15 97 16 48 17 102 18 96 19 98 20 49 21
REMARK SMILES IDX 101 22 95 23 94 24 50 26 82 27 62 28 81 29 63 30 66 31 80 32
REMARK SMILES IDX 99 33 64 34 65 35 79 37 100 38 67 39 51 40 52 41 60 42 53 43
REMARK SMILES IDX 55 44 61 45 54 46 56 47 57 48 58 49 59 50 83 51 84 52 92 53
REMARK SMILES IDX 85 54 87 55 93 56 86 57 88 58 89 59 90 60 91 61 68 62 69 63
REMARK SMILES IDX 77 64 70 65 72 66 78 67 71 68 73 69 74 70 75 71 76 72 8 73
REMARK SMILES IDX 9 74 10 75 11 76 12 77 36 78 37 79 41 80 38 81 40 82 39 83
REMARK SMILES IDX 13 84 14 85 15 87 16 88 35 89 17 90 34 91 18 92 19 93 20 94
REMARK SMILES IDX 21 95 22 96 23 98 24 99 25 100 33 101 26 102 32 103 27 106
REMARK SMILES IDX 31 107 28 108 30 109 29 110
REMARK H PARENT 98 25 66 36 13 86 21 97 33 104 33 105
REMARK Flexibility Score: inf
ROOT
ATOM      1  C   UNL A   1      34.335  29.923  27.219  1.00  0.00     0.202 C 
ENDROOT
BRANCH   1   2
ATOM      2  O   UNL A   1      33.731  31.061  26.603  1.00  0.00    -0.374 OA
BRANCH   2   3
ATOM      3  C   UNL A   1      32.451  31.460  27.094  1.00  0.00     0.202 C 
BRANCH   3   4
ATOM      4  C   UNL A   1      32.071  32.915  26.827  1.00  0.00     0.261 C 
BRANCH   4   5
ATOM      5  O   UNL A   1      32.287  33.723  27.988  1.00  0.00    -0.460 OA
BRANCH   5   6
ATOM      6  C   UNL A   1      33.477  34.245  28.380  1.00  0.00     0.338 C 
ATOM      7  O   UNL A   1      33.601  35.469  28.399  1.00  0.00    -0.246 OA
BRANCH   6   8
ATOM      8  C   UNL A   1      34.616  33.404  28.855  1.00  0.00     0.060 A 
ATOM      9  C   UNL A   1      34.529  32.382  29.802  1.00  0.00     0.016 A 
ATOM     10  C   UNL A   1      35.866  33.646  28.261  1.00  0.00     0.016 A 
ATOM     11  C   UNL A   1      35.630  31.672  30.213  1.00  0.00     0.010 A 
ATOM     12  C   UNL A   1      36.989  32.916  28.648  1.00  0.00     0.010 A 
ATOM     13  C   UNL A   1      36.864  31.948  29.647  1.00  0.00    -0.014 A 
BRANCH  13  14
ATOM     14  C   UNL A   1      38.002  31.302  30.297  1.00  0.00     0.031 A 
ATOM     15  C   UNL A   1      38.228  31.612  31.740  1.00  0.00     0.074 A 
ATOM     16  C   UNL A   1      38.635  30.310  29.650  1.00  0.00     0.049 A 
ATOM     17  N   UNL A   1      39.165  31.184  32.534  1.00  0.00    -0.248 NA
ATOM     18  C   UNL A   1      37.247  32.506  32.387  1.00  0.00     0.031 C 
ATOM     19  C   UNL A   1      38.319  29.851  28.292  1.00  0.00     0.029 A 
ATOM     20  N   UNL A   1      39.645  29.487  30.054  1.00  0.00    -0.354 N 
ATOM     21  C   UNL A   1      38.922  31.796  33.755  1.00  0.00     0.074 A 
ATOM     22  C   UNL A   1      37.738  32.609  33.611  1.00  0.00     0.031 C 
ATOM     23  C   UNL A   1      39.134  28.835  27.972  1.00  0.00     0.029 A 
ATOM     24  C   UNL A   1      40.071  28.632  29.067  1.00  0.00     0.049 A 
ATOM     25  H   UNL A   1      40.029  29.504  30.961  1.00  0.00     0.167 HD
ATOM     26  C   UNL A   1      39.644  31.683  34.890  1.00  0.00     0.034 A 
ATOM     27  C   UNL A   1      41.148  27.828  29.048  1.00  0.00     0.034 A 
ATOM     28  C   UNL A   1      40.815  30.857  34.973  1.00  0.00     0.049 A 
ATOM     29  C   UNL A   1      41.995  27.801  30.290  1.00  0.00     0.074 A 
ATOM     30  C   UNL A   1      41.704  30.714  36.018  1.00  0.00     0.029 A 
ATOM     31  N   UNL A   1      41.256  30.031  33.945  1.00  0.00    -0.354 N 
ATOM     32  N   UNL A   1      41.803  28.422  31.432  1.00  0.00    -0.248 NA
ATOM     33  C   UNL A   1      43.196  26.962  30.253  1.00  0.00     0.031 C 
ATOM     34  C   UNL A   1      42.699  29.818  35.610  1.00  0.00     0.029 A 
ATOM     35  C   UNL A   1      42.406  29.372  34.328  1.00  0.00     0.049 A 
ATOM     36  H   UNL A   1      40.812  29.931  33.072  1.00  0.00     0.167 HD
ATOM     37  C   UNL A   1      42.842  28.030  32.261  1.00  0.00     0.074 A 
ATOM     38  C   UNL A   1      43.644  27.093  31.494  1.00  0.00     0.031 C 
ATOM     39  C   UNL A   1      43.131  28.414  33.530  1.00  0.00     0.034 A 
BRANCH  26  40
ATOM     40  C   UNL A   1      39.210  32.510  36.066  1.00  0.00     0.023 A 
ATOM     41  C   UNL A   1      39.702  33.821  36.234  1.00  0.00     0.012 A 
ATOM     42  C   UNL A   1      38.343  31.969  37.033  1.00  0.00     0.148 A 
ATOM     43  C   UNL A   1      39.364  34.566  37.363  1.00  0.00     0.002 A 
ATOM     44  C   UNL A   1      37.976  32.732  38.135  1.00  0.00     0.091 A 
ATOM     45  F   UNL A   1      37.916  30.708  36.872  1.00  0.00    -0.205 F 
ATOM     46  C   UNL A   1      38.496  34.025  38.309  1.00  0.00     0.022 A 
BRANCH  44  47
ATOM     47  S   UNL A   1      36.825  32.146  39.382  1.00  0.00     0.127 S 
ATOM     48  O   UNL A   1      35.542  32.575  38.826  1.00  0.00    -0.237 OA
ATOM     49  O   UNL A   1      37.053  30.702  39.350  1.00  0.00    -0.237 OA
ATOM     50  O   UNL A   1      37.209  32.799  40.625  1.00  0.00    -0.744 OA
ENDBRANCH  44  47
ENDBRANCH  26  40
BRANCH  27  51
ATOM     51  C   UNL A   1      41.504  27.059  27.823  1.00  0.00     0.023 A 
ATOM     52  C   UNL A   1      42.033  27.721  26.700  1.00  0.00     0.012 A 
ATOM     53  C   UNL A   1      41.314  25.662  27.765  1.00  0.00     0.148 A 
ATOM     54  C   UNL A   1      42.326  27.015  25.531  1.00  0.00     0.002 A 
ATOM     55  C   UNL A   1      41.663  24.957  26.618  1.00  0.00     0.091 A 
ATOM     56  F   UNL A   1      40.792  25.044  28.834  1.00  0.00    -0.205 F 
ATOM     57  C   UNL A   1      42.150  25.634  25.493  1.00  0.00     0.022 A 
BRANCH  55  58
ATOM     58  S   UNL A   1      41.578  23.164  26.540  1.00  0.00     0.127 S 
ATOM     59  O   UNL A   1      40.135  22.942  26.406  1.00  0.00    -0.237 OA
ATOM     60  O   UNL A   1      42.354  22.875  25.330  1.00  0.00    -0.237 OA
ATOM     61  O   UNL A   1      42.181  22.686  27.766  1.00  0.00    -0.744 OA
ENDBRANCH  55  58
ENDBRANCH  27  51
BRANCH  39  62
ATOM     62  C   UNL A   1      44.331  27.778  34.168  1.00  0.00     0.023 A 
ATOM     63  C   UNL A   1      45.592  28.396  34.067  1.00  0.00     0.012 A 
ATOM     64  C   UNL A   1      44.183  26.606  34.931  1.00  0.00     0.148 A 
ATOM     65  C   UNL A   1      46.702  27.829  34.688  1.00  0.00     0.002 A 
ATOM     66  C   UNL A   1      45.279  26.082  35.596  1.00  0.00     0.091 A 
ATOM     67  F   UNL A   1      42.973  26.029  34.991  1.00  0.00    -0.205 F 
ATOM     68  C   UNL A   1      46.543  26.682  35.463  1.00  0.00     0.022 A 
BRANCH  66  69
ATOM     69  S   UNL A   1      45.141  24.680  36.707  1.00  0.00     0.127 S 
ATOM     70  O   UNL A   1      44.080  25.120  37.611  1.00  0.00    -0.237 OA
ATOM     71  O   UNL A   1      44.760  23.600  35.796  1.00  0.00    -0.237 OA
ATOM     72  O   UNL A   1      46.454  24.519  37.316  1.00  0.00    -0.744 OA
ENDBRANCH  66  69
ENDBRANCH  39  62
ENDBRANCH  13  14
ENDBRANCH   6   8
ENDBRANCH   5   6
ENDBRANCH   4   5
ENDBRANCH   3   4
ENDBRANCH   2   3
ENDBRANCH   1   2
BRANCH   1  73
ATOM     73  C   UNL A   1      34.052  28.614  26.479  1.00  0.00     0.261 C 
BRANCH  73  74
ATOM     74  O   UNL A   1      33.950  28.853  25.054  1.00  0.00    -0.461 OA
BRANCH  74  75
ATOM     75  C   UNL A   1      33.983  27.662  24.390  1.00  0.00     0.333 C 
ATOM     76  O   UNL A   1      34.396  26.634  24.930  1.00  0.00    -0.249 OA
BRANCH  75  77
ATOM     77  C   UNL A   1      33.522  27.723  22.866  1.00  0.00     0.223 C 
BRANCH  77  78
ATOM     78  C   UNL A   1      33.275  26.267  22.624  1.00  0.00    -0.014 A 
ATOM     79  C   UNL A   1      32.934  25.926  21.342  1.00  0.00     0.006 A 
ATOM     80  C   UNL A   1      33.672  25.284  23.563  1.00  0.00     0.006 A 
ATOM     81  C   UNL A   1      33.004  24.601  21.025  1.00  0.00     0.000 A 
ATOM     82  C   UNL A   1      33.674  23.942  23.215  1.00  0.00     0.000 A 
ATOM     83  C   UNL A   1      33.334  23.599  21.925  1.00  0.00     0.000 A 
ENDBRANCH  77  78
BRANCH  77  84
ATOM     84  N   UNL A   1      32.383  28.445  22.283  1.00  0.00    -0.339 N 
ATOM     85  C   UNL A   1      31.058  28.501  22.628  1.00  0.00     0.224 C 
ATOM     86  H   UNL A   1      32.615  28.992  21.498  1.00  0.00     0.164 HD
ATOM     87  O   UNL A   1      30.383  29.292  21.952  1.00  0.00    -0.275 OA
BRANCH  85  88
ATOM     88  C   UNL A   1      30.338  27.700  23.774  1.00  0.00     0.078 C 
ATOM     89  C   UNL A   1      29.956  26.269  23.427  1.00  0.00     0.014 C 
ATOM     90  C   UNL A   1      30.875  27.926  25.197  1.00  0.00     0.014 C 
ATOM     91  C   UNL A   1      29.409  25.429  24.583  1.00  0.00     0.006 C 
ATOM     92  C   UNL A   1      30.816  26.796  26.255  1.00  0.00     0.006 C 
ATOM     93  C   UNL A   1      30.169  25.441  25.931  1.00  0.00     0.008 C 
BRANCH  93  94
ATOM     94  C   UNL A   1      30.943  24.080  26.143  1.00  0.00     0.119 C 
BRANCH  94  95
ATOM     95  N   UNL A   1      32.305  24.023  26.678  1.00  0.00    -0.351 N 
ATOM     96  C   UNL A   1      33.265  23.015  26.692  1.00  0.00     0.278 C 
ATOM     97  H   UNL A   1      32.599  24.857  27.110  1.00  0.00     0.163 HD
ATOM     98  O   UNL A   1      34.387  23.351  27.096  1.00  0.00    -0.268 OA
BRANCH  96  99
ATOM     99  C   UNL A   1      33.058  21.523  26.188  1.00  0.00     0.277 C 
ATOM    100  C   UNL A   1      34.310  20.783  25.569  1.00  0.00     0.111 C 
ATOM    101  N   UNL A   1      31.774  21.325  25.485  1.00  0.00    -0.332 N 
ATOM    102  C   UNL A   1      33.928  19.590  24.711  1.00  0.00    -0.033 A 
ATOM    103  C   UNL A   1      31.920  20.926  24.097  1.00  0.00     0.298 C 
ATOM    104  H   UNL A   1      31.254  22.202  25.514  1.00  0.00     0.347 HD
ATOM    105  H   UNL A   1      31.289  20.566  25.962  1.00  0.00     0.347 HD
ATOM    106  C   UNL A   1      34.750  18.467  24.564  1.00  0.00     0.004 A 
ATOM    107  C   UNL A   1      32.723  19.662  23.994  1.00  0.00     0.010 A 
ATOM    108  C   UNL A   1      34.331  17.394  23.771  1.00  0.00     0.000 A 
ATOM    109  C   UNL A   1      32.317  18.593  23.189  1.00  0.00     0.010 A 
ATOM    110  C   UNL A   1      33.112  17.452  23.096  1.00  0.00     0.001 A 
ENDBRANCH  96  99
ENDBRANCH  94  95
ENDBRANCH  93  94
ENDBRANCH  85  88
ENDBRANCH  77  84
ENDBRANCH  75  77
ENDBRANCH  74  75
ENDBRANCH  73  74
ENDBRANCH   1  73
TORSDOF 23
ENDMDL
MODEL 2
REMARK VINA RESULT:     -12.1      1.671      7.351
REMARK SMILES O=C(OCCOCCOC(=O)[C@H](NC(=O)[C@H]1CC[C@@H](CNC(=O)[C@@H]2Cc3ccccc3C[NH2+]2)CC1)c1ccccc1)c1ccc(-c2c3nc(c(-c4cccc(S(=O)(=O)[O-])c4F)c4ccc([nH]4)c(-c4cccc(S(=O)(=O)[O-])c4F)c4nc(c(-c5cccc(S(=O)(=O)[O-])c5F)c5ccc2[nH]5)C=C4)C=C3)cc1
REMARK SMILES IDX 7 1 6 2 5 3 4 4 3 5 2 6 1 7 42 8 43 9 104 10 44 11 103 12
REMARK SMILES IDX 45 13 46 14 47 15 97 16 48 17 102 18 96 19 98 20 49 21
REMARK SMILES IDX 101 22 95 23 94 24 50 26 82 27 62 28 81 29 63 30 66 31 80 32
REMARK SMILES IDX 99 33 64 34 65 35 79 37 100 38 67 39 51 40 52 41 60 42 53 43
REMARK SMILES IDX 55 44 61 45 54 46 56 47 57 48 58 49 59 50 83 51 84 52 92 53
REMARK SMILES IDX 85 54 87 55 93 56 86 57 88 58 89 59 90 60 91 61 68 62 69 63
REMARK SMILES IDX 77 64 70 65 72 66 78 67 71 68 73 69 74 70 75 71 76 72 8 73
REMARK SMILES IDX 9 74 10 75 11 76 12 77 36 78 37 79 41 80 38 81 40 82 39 83
REMARK SMILES IDX 13 84 14 85 15 87 16 88 35 89 17 90 34 91 18 92 19 93 20 94
REMARK SMILES IDX 21 95 22 96 23 98 24 99 25 100 33 101 26 102 32 103 27 106
REMARK SMILES IDX 31 107 28 108 30 109 29 110
REMARK H PARENT 98 25 66 36 13 86 21 97 33 104 33 105
REMARK Flexibility Score: inf
ROOT
ATOM      1  C   UNL A   1      34.820  29.530  27.591  1.00  0.00     0.202 C 
ENDROOT
BRANCH   1   2
ATOM      2  O   UNL A   1      34.533  30.877  27.208  1.00  0.00    -0.374 OA
BRANCH   2   3
ATOM      3  C   UNL A   1      33.289  31.424  27.645  1.00  0.00     0.202 C 
BRANCH   3   4
ATOM      4  C   UNL A   1      32.912  32.769  27.028  1.00  0.00     0.261 C 
BRANCH   4   5
ATOM      5  O   UNL A   1      32.422  33.671  28.026  1.00  0.00    -0.460 OA
BRANCH   5   6
ATOM      6  C   UNL A   1      33.173  34.546  28.741  1.00  0.00     0.338 C 
ATOM      7  O   UNL A   1      32.834  35.728  28.760  1.00  0.00    -0.246 OA
BRANCH   6   8
ATOM      8  C   UNL A   1      34.350  34.127  29.560  1.00  0.00     0.060 A 
ATOM      9  C   UNL A   1      35.687  34.370  29.239  1.00  0.00     0.016 A 
ATOM     10  C   UNL A   1      34.072  33.470  30.769  1.00  0.00     0.016 A 
ATOM     11  C   UNL A   1      36.719  33.925  30.028  1.00  0.00     0.010 A 
ATOM     12  C   UNL A   1      35.108  33.033  31.594  1.00  0.00     0.010 A 
ATOM     13  C   UNL A   1      36.431  33.243  31.199  1.00  0.00    -0.014 A 
BRANCH  13  14
ATOM     14  C   UNL A   1      37.581  32.621  31.852  1.00  0.00     0.031 A 
ATOM     15  C   UNL A   1      38.279  31.530  31.110  1.00  0.00     0.074 A 
ATOM     16  C   UNL A   1      38.085  33.199  32.955  1.00  0.00     0.049 A 
ATOM     17  N   UNL A   1      39.305  30.817  31.472  1.00  0.00    -0.248 NA
ATOM     18  C   UNL A   1      37.768  31.216  29.761  1.00  0.00     0.031 C 
ATOM     19  C   UNL A   1      37.530  34.389  33.613  1.00  0.00     0.029 A 
ATOM     20  N   UNL A   1      39.189  32.892  33.695  1.00  0.00    -0.354 N 
ATOM     21  C   UNL A   1      39.530  29.935  30.425  1.00  0.00     0.074 A 
ATOM     22  C   UNL A   1      38.551  30.211  29.400  1.00  0.00     0.031 C 
ATOM     23  C   UNL A   1      38.294  34.700  34.671  1.00  0.00     0.029 A 
ATOM     24  C   UNL A   1      39.333  33.689  34.804  1.00  0.00     0.049 A 
ATOM     25  H   UNL A   1      39.818  32.172  33.458  1.00  0.00     0.167 HD
ATOM     26  C   UNL A   1      40.475  28.975  30.347  1.00  0.00     0.034 A 
ATOM     27  C   UNL A   1      40.180  33.558  35.839  1.00  0.00     0.034 A 
ATOM     28  C   UNL A   1      41.422  28.746  31.400  1.00  0.00     0.049 A 
ATOM     29  C   UNL A   1      41.154  32.414  35.775  1.00  0.00     0.074 A 
ATOM     30  C   UNL A   1      42.374  27.754  31.512  1.00  0.00     0.029 A 
ATOM     31  N   UNL A   1      41.523  29.539  32.538  1.00  0.00    -0.354 N 
ATOM     32  N   UNL A   1      41.336  31.539  34.811  1.00  0.00    -0.248 NA
ATOM     33  C   UNL A   1      42.046  32.240  36.925  1.00  0.00     0.031 C 
ATOM     34  C   UNL A   1      43.035  27.933  32.733  1.00  0.00     0.029 A 
ATOM     35  C   UNL A   1      42.523  29.062  33.361  1.00  0.00     0.049 A 
ATOM     36  H   UNL A   1      40.964  30.326  32.729  1.00  0.00     0.167 HD
ATOM     37  C   UNL A   1      42.380  30.726  35.224  1.00  0.00     0.074 A 
ATOM     38  C   UNL A   1      42.807  31.235  36.515  1.00  0.00     0.031 C 
ATOM     39  C   UNL A   1      42.930  29.645  34.615  1.00  0.00     0.034 A 
BRANCH  26  40
ATOM     40  C   UNL A   1      40.465  28.098  29.128  1.00  0.00     0.023 A 
ATOM     41  C   UNL A   1      39.566  27.015  29.038  1.00  0.00     0.012 A 
ATOM     42  C   UNL A   1      41.382  28.324  28.084  1.00  0.00     0.148 A 
ATOM     43  C   UNL A   1      39.605  26.152  27.943  1.00  0.00     0.002 A 
ATOM     44  C   UNL A   1      41.386  27.485  26.977  1.00  0.00     0.091 A 
ATOM     45  F   UNL A   1      42.251  29.337  28.207  1.00  0.00    -0.205 F 
ATOM     46  C   UNL A   1      40.508  26.390  26.911  1.00  0.00     0.022 A 
BRANCH  44  47
ATOM     47  S   UNL A   1      42.475  27.737  25.571  1.00  0.00     0.127 S 
ATOM     48  O   UNL A   1      43.789  27.746  26.213  1.00  0.00    -0.237 OA
ATOM     49  O   UNL A   1      42.199  26.552  24.759  1.00  0.00    -0.237 OA
ATOM     50  O   UNL A   1      42.073  29.000  24.969  1.00  0.00    -0.744 OA
ENDBRANCH  44  47
ENDBRANCH  26  40
BRANCH  27  51
ATOM     51  C   UNL A   1      40.098  34.471  37.013  1.00  0.00     0.023 A 
ATOM     52  C   UNL A   1      40.621  35.774  36.934  1.00  0.00     0.012 A 
ATOM     53  C   UNL A   1      39.500  34.047  38.220  1.00  0.00     0.148 A 
ATOM     54  C   UNL A   1      40.590  36.622  38.044  1.00  0.00     0.002 A 
ATOM     55  C   UNL A   1      39.420  34.915  39.302  1.00  0.00     0.091 A 
ATOM     56  F   UNL A   1      39.022  32.796  38.289  1.00  0.00    -0.205 F 
ATOM     57  C   UNL A   1      39.983  36.196  39.224  1.00  0.00     0.022 A 
BRANCH  55  58
ATOM     58  S   UNL A   1      38.546  34.479  40.810  1.00  0.00     0.127 S 
ATOM     59  O   UNL A   1      39.581  33.754  41.552  1.00  0.00    -0.237 OA
ATOM     60  O   UNL A   1      38.213  35.797  41.360  1.00  0.00    -0.237 OA
ATOM     61  O   UNL A   1      37.401  33.699  40.391  1.00  0.00    -0.744 OA
ENDBRANCH  55  58
ENDBRANCH  27  51
BRANCH  39  62
ATOM     62  C   UNL A   1      44.079  28.988  35.322  1.00  0.00     0.023 A 
ATOM     63  C   UNL A   1      45.388  29.468  35.133  1.00  0.00     0.012 A 
ATOM     64  C   UNL A   1      43.839  27.941  36.230  1.00  0.00     0.148 A 
ATOM     65  C   UNL A   1      46.454  28.885  35.815  1.00  0.00     0.002 A 
ATOM     66  C   UNL A   1      44.895  27.408  36.951  1.00  0.00     0.091 A 
ATOM     67  F   UNL A   1      42.583  27.492  36.373  1.00  0.00    -0.205 F 
ATOM     68  C   UNL A   1      46.206  27.866  36.733  1.00  0.00     0.022 A 
BRANCH  66  69
ATOM     69  S   UNL A   1      44.650  26.178  38.234  1.00  0.00     0.127 S 
ATOM     70  O   UNL A   1      45.920  25.456  38.201  1.00  0.00    -0.237 OA
ATOM     71  O   UNL A   1      44.447  27.008  39.422  1.00  0.00    -0.237 OA
ATOM     72  O   UNL A   1      43.482  25.406  37.832  1.00  0.00    -0.744 OA
ENDBRANCH  66  69
ENDBRANCH  39  62
ENDBRANCH  13  14
ENDBRANCH   6   8
ENDBRANCH   5   6
ENDBRANCH   4   5
ENDBRANCH   3   4
ENDBRANCH   2   3
ENDBRANCH   1   2
BRANCH   1  73
ATOM     73  C   UNL A   1      34.102  28.492  26.726  1.00  0.00     0.261 C 
BRANCH  73  74
ATOM     74  O   UNL A   1      34.529  28.602  25.347  1.00  0.00    -0.461 OA
BRANCH  74  75
ATOM     75  C   UNL A   1      33.965  27.599  24.615  1.00  0.00     0.333 C 
ATOM     76  O   UNL A   1      33.752  26.487  25.103  1.00  0.00    -0.249 OA
BRANCH  75  77
ATOM     77  C   UNL A   1      33.679  27.952  23.088  1.00  0.00     0.223 C 
BRANCH  77  78
ATOM     78  C   UNL A   1      33.593  26.568  22.526  1.00  0.00    -0.014 A 
ATOM     79  C   UNL A   1      33.865  25.551  23.403  1.00  0.00     0.006 A 
ATOM     80  C   UNL A   1      32.973  26.315  21.279  1.00  0.00     0.006 A 
ATOM     81  C   UNL A   1      33.502  24.296  23.012  1.00  0.00     0.000 A 
ATOM     82  C   UNL A   1      32.672  25.016  20.897  1.00  0.00     0.000 A 
ATOM     83  C   UNL A   1      32.942  23.994  21.779  1.00  0.00     0.000 A 
ENDBRANCH  77  78
BRANCH  77  84
ATOM     84  N   UNL A   1      32.555  28.709  22.520  1.00  0.00    -0.339 N 
ATOM     85  C   UNL A   1      31.222  28.743  22.831  1.00  0.00     0.224 C 
ATOM     86  H   UNL A   1      32.807  29.302  21.775  1.00  0.00     0.164 HD
ATOM     87  O   UNL A   1      30.564  29.573  22.186  1.00  0.00    -0.275 OA
BRANCH  85  88
ATOM     88  C   UNL A   1      30.472  27.874  23.907  1.00  0.00     0.078 C 
ATOM     89  C   UNL A   1      30.157  26.447  23.486  1.00  0.00     0.014 C 
ATOM     90  C   UNL A   1      30.929  28.060  25.363  1.00  0.00     0.014 C 
ATOM     91  C   UNL A   1      29.582  25.545  24.580  1.00  0.00     0.006 C 
ATOM     92  C   UNL A   1      30.855  26.888  26.373  1.00  0.00     0.006 C 
ATOM     93  C   UNL A   1      30.272  25.528  25.964  1.00  0.00     0.008 C 
BRANCH  93  94
ATOM     94  C   UNL A   1      31.080  24.185  26.164  1.00  0.00     0.119 C 
BRANCH  94  95
ATOM     95  N   UNL A   1      32.509  24.165  26.486  1.00  0.00    -0.351 N 
ATOM     96  C   UNL A   1      33.477  23.170  26.391  1.00  0.00     0.278 C 
ATOM     97  H   UNL A   1      32.850  25.019  26.836  1.00  0.00     0.163 HD
ATOM     98  O   UNL A   1      34.642  23.535  26.605  1.00  0.00    -0.268 OA
BRANCH  96  99
ATOM     99  C   UNL A   1      33.222  21.656  25.982  1.00  0.00     0.277 C 
ATOM    100  C   UNL A   1      34.457  20.830  25.441  1.00  0.00     0.111 C 
ATOM    101  N   UNL A   1      31.946  21.460  25.264  1.00  0.00    -0.332 N 
ATOM    102  C   UNL A   1      34.046  19.598  24.655  1.00  0.00    -0.033 A 
ATOM    103  C   UNL A   1      32.104  20.964  23.909  1.00  0.00     0.298 C 
ATOM    104  H   UNL A   1      31.460  22.357  25.224  1.00  0.00     0.347 HD
ATOM    105  H   UNL A   1      31.422  20.753  25.779  1.00  0.00     0.347 HD
ATOM    106  C   UNL A   1      34.826  18.437  24.601  1.00  0.00     0.004 A 
ATOM    107  C   UNL A   1      32.859  19.667  23.907  1.00  0.00     0.010 A 
ATOM    108  C   UNL A   1      34.381  17.331  23.871  1.00  0.00     0.000 A 
ATOM    109  C   UNL A   1      32.428  18.563  23.166  1.00  0.00     0.010 A 
ATOM    110  C   UNL A   1      33.179  17.389  23.166  1.00  0.00     0.001 A 
ENDBRANCH  96  99
ENDBRANCH  94  95
ENDBRANCH  93  94
ENDBRANCH  85  88
ENDBRANCH  77  84
ENDBRANCH  75  77
ENDBRANCH  74  75
ENDBRANCH  73  74
ENDBRANCH   1  73
TORSDOF 23
ENDMDL
MODEL 3
REMARK VINA RESULT:     -12.0      1.684      2.332
REMARK SMILES O=C(OCCOCCOC(=O)[C@H](NC(=O)[C@H]1CC[C@@H](CNC(=O)[C@@H]2Cc3ccccc3C[NH2+]2)CC1)c1ccccc1)c1ccc(-c2c3nc(c(-c4cccc(S(=O)(=O)[O-])c4F)c4ccc([nH]4)c(-c4cccc(S(=O)(=O)[O-])c4F)c4nc(c(-c5cccc(S(=O)(=O)[O-])c5F)c5ccc2[nH]5)C=C4)C=C3)cc1
REMARK SMILES IDX 7 1 6 2 5 3 4 4 3 5 2 6 1 7 42 8 43 9 104 10 44 11 103 12
REMARK SMILES IDX 45 13 46 14 47 15 97 16 48 17 102 18 96 19 98 20 49 21
REMARK SMILES IDX 101 22 95 23 94 24 50 26 82 27 62 28 81 29 63 30 66 31 80 32
REMARK SMILES IDX 99 33 64 34 65 35 79 37 100 38 67 39 51 40 52 41 60 42 53 43
REMARK SMILES IDX 55 44 61 45 54 46 56 47 57 48 58 49 59 50 83 51 84 52 92 53
REMARK SMILES IDX 85 54 87 55 93 56 86 57 88 58 89 59 90 60 91 61 68 62 69 63
REMARK SMILES IDX 77 64 70 65 72 66 78 67 71 68 73 69 74 70 75 71 76 72 8 73
REMARK SMILES IDX 9 74 10 75 11 76 12 77 36 78 37 79 41 80 38 81 40 82 39 83
REMARK SMILES IDX 13 84 14 85 15 87 16 88 35 89 17 90 34 91 18 92 19 93 20 94
REMARK SMILES IDX 21 95 22 96 23 98 24 99 25 100 33 101 26 102 32 103 27 106
REMARK SMILES IDX 31 107 28 108 30 109 29 110
REMARK H PARENT 98 25 66 36 13 86 21 97 33 104 33 105
REMARK Flexibility Score: inf
ROOT
ATOM      1  C   UNL A   1      34.667  30.118  27.544  1.00  0.00     0.202 C 
ENDROOT
BRANCH   1   2
ATOM      2  O   UNL A   1      34.196  31.410  27.157  1.00  0.00    -0.374 OA
BRANCH   2   3
ATOM      3  C   UNL A   1      32.911  31.803  27.639  1.00  0.00     0.202 C 
BRANCH   3   4
ATOM      4  C   UNL A   1      32.528  33.258  27.376  1.00  0.00     0.261 C 
BRANCH   4   5
ATOM      5  O   UNL A   1      32.483  34.005  28.595  1.00  0.00    -0.460 OA
BRANCH   5   6
ATOM      6  C   UNL A   1      33.554  34.526  29.246  1.00  0.00     0.338 C 
ATOM      7  O   UNL A   1      33.547  35.726  29.516  1.00  0.00    -0.246 OA
BRANCH   6   8
ATOM      8  C   UNL A   1      34.705  33.695  29.710  1.00  0.00     0.060 A 
ATOM      9  C   UNL A   1      34.616  32.580  30.545  1.00  0.00     0.016 A 
ATOM     10  C   UNL A   1      35.974  34.054  29.225  1.00  0.00     0.016 A 
ATOM     11  C   UNL A   1      35.726  31.884  30.955  1.00  0.00     0.010 A 
ATOM     12  C   UNL A   1      37.109  33.342  29.612  1.00  0.00     0.010 A 
ATOM     13  C   UNL A   1      36.975  32.273  30.500  1.00  0.00    -0.014 A 
BRANCH  13  14
ATOM     14  C   UNL A   1      38.105  31.619  31.158  1.00  0.00     0.031 A 
ATOM     15  C   UNL A   1      38.352  31.962  32.589  1.00  0.00     0.074 A 
ATOM     16  C   UNL A   1      38.709  30.595  30.531  1.00  0.00     0.049 A 
ATOM     17  N   UNL A   1      39.287  31.534  33.386  1.00  0.00    -0.248 NA
ATOM     18  C   UNL A   1      37.399  32.896  33.220  1.00  0.00     0.031 C 
ATOM     19  C   UNL A   1      38.368  30.108  29.189  1.00  0.00     0.029 A 
ATOM     20  N   UNL A   1      39.703  29.760  30.948  1.00  0.00    -0.354 N 
ATOM     21  C   UNL A   1      39.071  32.184  34.592  1.00  0.00     0.074 A 
ATOM     22  C   UNL A   1      37.905  33.021  34.437  1.00  0.00     0.031 C 
ATOM     23  C   UNL A   1      39.156  29.064  28.889  1.00  0.00     0.029 A 
ATOM     24  C   UNL A   1      40.100  28.869  29.980  1.00  0.00     0.049 A 
ATOM     25  H   UNL A   1      40.097  29.793  31.850  1.00  0.00     0.167 HD
ATOM     26  C   UNL A   1      39.801  32.085  35.722  1.00  0.00     0.034 A 
ATOM     27  C   UNL A   1      41.157  28.040  29.973  1.00  0.00     0.034 A 
ATOM     28  C   UNL A   1      40.954  31.235  35.817  1.00  0.00     0.049 A 
ATOM     29  C   UNL A   1      42.016  28.027  31.207  1.00  0.00     0.074 A 
ATOM     30  C   UNL A   1      41.849  31.099  36.857  1.00  0.00     0.029 A 
ATOM     31  N   UNL A   1      41.365  30.371  34.807  1.00  0.00    -0.354 N 
ATOM     32  N   UNL A   1      41.850  28.683  32.334  1.00  0.00    -0.248 NA
ATOM     33  C   UNL A   1      43.197  27.160  31.182  1.00  0.00     0.031 C 
ATOM     34  C   UNL A   1      42.820  30.170  36.464  1.00  0.00     0.029 A 
ATOM     35  C   UNL A   1      42.503  29.696  35.197  1.00  0.00     0.049 A 
ATOM     36  H   UNL A   1      40.911  30.258  33.942  1.00  0.00     0.167 HD
ATOM     37  C   UNL A   1      42.888  28.289  33.164  1.00  0.00     0.074 A 
ATOM     38  C   UNL A   1      43.660  27.314  32.415  1.00  0.00     0.031 C 
ATOM     39  C   UNL A   1      43.198  28.700  34.419  1.00  0.00     0.034 A 
BRANCH  26  40
ATOM     40  C   UNL A   1      39.398  32.953  36.879  1.00  0.00     0.023 A 
ATOM     41  C   UNL A   1      39.993  34.219  37.059  1.00  0.00     0.012 A 
ATOM     42  C   UNL A   1      38.456  32.493  37.818  1.00  0.00     0.148 A 
ATOM     43  C   UNL A   1      39.680  34.997  38.174  1.00  0.00     0.002 A 
ATOM     44  C   UNL A   1      38.117  33.291  38.903  1.00  0.00     0.091 A 
ATOM     45  F   UNL A   1      37.930  31.272  37.647  1.00  0.00    -0.205 F 
ATOM     46  C   UNL A   1      38.738  34.537  39.091  1.00  0.00     0.022 A 
BRANCH  44  47
ATOM     47  S   UNL A   1      36.878  32.813  40.112  1.00  0.00     0.127 S 
ATOM     48  O   UNL A   1      37.424  31.552  40.612  1.00  0.00    -0.237 OA
ATOM     49  O   UNL A   1      36.937  33.924  41.061  1.00  0.00    -0.237 OA
ATOM     50  O   UNL A   1      35.624  32.696  39.381  1.00  0.00    -0.744 OA
ENDBRANCH  44  47
ENDBRANCH  26  40
BRANCH  27  51
ATOM     51  C   UNL A   1      41.483  27.230  28.766  1.00  0.00     0.023 A 
ATOM     52  C   UNL A   1      40.870  25.980  28.565  1.00  0.00     0.012 A 
ATOM     53  C   UNL A   1      42.410  27.697  27.810  1.00  0.00     0.148 A 
ATOM     54  C   UNL A   1      41.203  25.193  27.460  1.00  0.00     0.002 A 
ATOM     55  C   UNL A   1      42.694  26.935  26.682  1.00  0.00     0.091 A 
ATOM     56  F   UNL A   1      43.003  28.881  28.021  1.00  0.00    -0.205 F 
ATOM     57  C   UNL A   1      42.107  25.674  26.516  1.00  0.00     0.022 A 
BRANCH  55  58
ATOM     58  S   UNL A   1      43.755  27.542  25.365  1.00  0.00     0.127 S 
ATOM     59  O   UNL A   1      42.775  27.874  24.326  1.00  0.00    -0.237 OA
ATOM     60  O   UNL A   1      44.390  28.703  25.997  1.00  0.00    -0.237 OA
ATOM     61  O   UNL A   1      44.663  26.457  25.057  1.00  0.00    -0.744 OA
ENDBRANCH  55  58
ENDBRANCH  27  51
BRANCH  39  62
ATOM     62  C   UNL A   1      44.390  28.054  35.062  1.00  0.00     0.023 A 
ATOM     63  C   UNL A   1      45.685  28.533  34.786  1.00  0.00     0.012 A 
ATOM     64  C   UNL A   1      44.209  27.021  35.999  1.00  0.00     0.148 A 
ATOM     65  C   UNL A   1      46.791  27.960  35.409  1.00  0.00     0.002 A 
ATOM     66  C   UNL A   1      45.308  26.499  36.660  1.00  0.00     0.091 A 
ATOM     67  F   UNL A   1      42.964  26.573  36.226  1.00  0.00    -0.205 F 
ATOM     68  C   UNL A   1      46.602  26.955  36.355  1.00  0.00     0.022 A 
BRANCH  66  69
ATOM     69  S   UNL A   1      45.145  25.288  37.974  1.00  0.00     0.127 S 
ATOM     70  O   UNL A   1      44.019  25.825  38.735  1.00  0.00    -0.237 OA
ATOM     71  O   UNL A   1      44.854  24.062  37.230  1.00  0.00    -0.237 OA
ATOM     72  O   UNL A   1      46.424  25.279  38.672  1.00  0.00    -0.744 OA
ENDBRANCH  66  69
ENDBRANCH  39  62
ENDBRANCH  13  14
ENDBRANCH   6   8
ENDBRANCH   5   6
ENDBRANCH   4   5
ENDBRANCH   3   4
ENDBRANCH   2   3
ENDBRANCH   1   2
BRANCH   1  73
ATOM     73  C   UNL A   1      34.045  28.982  26.730  1.00  0.00     0.261 C 
BRANCH  73  74
ATOM     74  O   UNL A   1      34.081  29.296  25.317  1.00  0.00    -0.461 OA
BRANCH  74  75
ATOM     75  C   UNL A   1      33.882  28.157  24.592  1.00  0.00     0.333 C 
ATOM     76  O   UNL A   1      34.050  27.041  25.088  1.00  0.00    -0.249 OA
BRANCH  75  77
ATOM     77  C   UNL A   1      33.495  28.385  23.063  1.00  0.00     0.223 C 
BRANCH  77  78
ATOM     78  C   UNL A   1      33.522  26.967  22.588  1.00  0.00    -0.014 A 
ATOM     79  C   UNL A   1      33.691  26.016  23.559  1.00  0.00     0.006 A 
ATOM     80  C   UNL A   1      33.092  26.616  21.286  1.00  0.00     0.006 A 
ATOM     81  C   UNL A   1      33.416  24.728  23.206  1.00  0.00     0.000 A 
ATOM     82  C   UNL A   1      32.879  25.287  20.952  1.00  0.00     0.000 A 
ATOM     83  C   UNL A   1      33.044  24.331  21.929  1.00  0.00     0.000 A 
ENDBRANCH  77  78
BRANCH  77  84
ATOM     84  N   UNL A   1      32.278  28.993  22.509  1.00  0.00    -0.339 N 
ATOM     85  C   UNL A   1      30.956  28.869  22.845  1.00  0.00     0.224 C 
ATOM     86  H   UNL A   1      32.443  29.602  21.754  1.00  0.00     0.164 HD
ATOM     87  O   UNL A   1      30.191  29.605  22.204  1.00  0.00    -0.275 OA
BRANCH  85  88
ATOM     88  C   UNL A   1      30.336  27.929  23.944  1.00  0.00     0.078 C 
ATOM     89  C   UNL A   1      30.249  26.458  23.568  1.00  0.00     0.014 C 
ATOM     90  C   UNL A   1      30.743  28.228  25.396  1.00  0.00     0.014 C 
ATOM     91  C   UNL A   1      29.806  25.512  24.686  1.00  0.00     0.006 C 
ATOM     92  C   UNL A   1      30.839  27.091  26.442  1.00  0.00     0.006 C 
ATOM     93  C   UNL A   1      30.475  25.645  26.075  1.00  0.00     0.008 C 
BRANCH  93  94
ATOM     94  C   UNL A   1      31.478  24.449  26.323  1.00  0.00     0.119 C 
BRANCH  94  95
ATOM     95  N   UNL A   1      31.280  23.119  25.742  1.00  0.00    -0.351 N 
ATOM     96  C   UNL A   1      32.104  22.001  25.658  1.00  0.00     0.278 C 
ATOM     97  H   UNL A   1      30.394  22.992  25.334  1.00  0.00     0.163 HD
ATOM     98  O   UNL A   1      31.564  20.970  25.231  1.00  0.00    -0.268 OA
BRANCH  96  99
ATOM     99  C   UNL A   1      33.625  21.927  26.110  1.00  0.00     0.277 C 
ATOM    100  C   UNL A   1      34.541  23.176  25.791  1.00  0.00     0.111 C 
ATOM    101  N   UNL A   1      34.231  20.601  25.877  1.00  0.00    -0.332 N 
ATOM    102  C   UNL A   1      36.023  22.845  25.821  1.00  0.00    -0.033 A 
ATOM    103  C   UNL A   1      35.341  20.619  24.942  1.00  0.00     0.298 C 
ATOM    104  H   UNL A   1      33.511  19.979  25.509  1.00  0.00     0.347 HD
ATOM    105  H   UNL A   1      34.603  20.283  26.772  1.00  0.00     0.347 HD
ATOM    106  C   UNL A   1      37.001  23.780  26.175  1.00  0.00     0.004 A 
ATOM    107  C   UNL A   1      36.412  21.559  25.413  1.00  0.00     0.010 A 
ATOM    108  C   UNL A   1      38.349  23.406  26.198  1.00  0.00     0.000 A 
ATOM    109  C   UNL A   1      37.763  21.196  25.421  1.00  0.00     0.010 A 
ATOM    110  C   UNL A   1      38.727  22.114  25.835  1.00  0.00     0.001 A 
ENDBRANCH  96  99
ENDBRANCH  94  95
ENDBRANCH  93  94
ENDBRANCH  85  88
ENDBRANCH  77  84
ENDBRANCH  75  77
ENDBRANCH  74  75
ENDBRANCH  73  74
ENDBRANCH   1  73
TORSDOF 23
ENDMDL
