MODEL 1
REMARK VINA RESULT:     -11.9      0.000      0.000
REMARK SMILES O=C(OCCOCCOC(=O)c1ccn(-c2cc(-c3ccncc3)nc(-c3ccccc3F)n2)n1)c1ccc(-c2c3nc(c(-c4cccc(S(=O)(=O)[O-])c4F)c4ccc([nH]4)c(-c4cccc(S(=O)(=O)[O-])c4F)c4nc(c(-c5cccc(S(=O)(=O)[O-])c5F)c5ccc2[nH]5)C=C4)C=C3)cc1
REMARK SMILES IDX 5 1 4 2 3 3 2 4 1 5 36 6 37 7 98 8 38 9 97 10 39 11 40 12
REMARK SMILES IDX 41 13 91 14 42 15 96 16 90 17 92 18 43 19 95 20 89 21 88 22
REMARK SMILES IDX 44 24 76 25 56 26 75 27 57 28 60 29 74 30 93 31 58 32 59 33
REMARK SMILES IDX 73 35 94 36 61 37 45 38 46 39 54 40 47 41 49 42 55 43 48 44
REMARK SMILES IDX 50 45 51 46 52 47 53 48 77 49 78 50 86 51 79 52 81 53 87 54
REMARK SMILES IDX 80 55 82 56 83 57 84 58 85 59 62 60 63 61 71 62 64 63 66 64
REMARK SMILES IDX 72 65 65 66 67 67 68 68 69 69 70 70 6 71 7 72 8 73 9 74
REMARK SMILES IDX 10 75 11 76 12 77 13 78 35 79 14 80 15 81 16 82 17 83 34 84
REMARK SMILES IDX 18 85 26 86 25 87 19 88 20 89 24 90 21 91 23 92 22 93 27 94
REMARK SMILES IDX 28 95 32 96 29 97 31 98 33 99 30 100
REMARK H PARENT 92 23 60 34
REMARK Flexibility Score: inf
ROOT
ATOM      1  C   UNL A   1      37.547  23.129  25.438  1.00  0.00     0.202 C 
ENDROOT
BRANCH   1   2
ATOM      2  C   UNL A   1      38.782  22.560  26.123  1.00  0.00     0.261 C 
BRANCH   2   3
ATOM      3  O   UNL A   1      39.270  23.315  27.254  1.00  0.00    -0.460 OA
BRANCH   3   4
ATOM      4  C   UNL A   1      40.385  24.079  27.173  1.00  0.00     0.338 C 
ATOM      5  O   UNL A   1      41.235  23.897  26.309  1.00  0.00    -0.246 OA
BRANCH   4   6
ATOM      6  C   UNL A   1      40.338  25.327  27.977  1.00  0.00     0.060 A 
ATOM      7  C   UNL A   1      39.285  26.235  27.881  1.00  0.00     0.016 A 
ATOM      8  C   UNL A   1      41.463  25.650  28.751  1.00  0.00     0.016 A 
ATOM      9  C   UNL A   1      39.441  27.524  28.330  1.00  0.00     0.010 A 
ATOM     10  C   UNL A   1      41.604  26.935  29.254  1.00  0.00     0.010 A 
ATOM     11  C   UNL A   1      40.632  27.884  28.947  1.00  0.00    -0.014 A 
BRANCH  11  12
ATOM     12  C   UNL A   1      40.778  29.300  29.229  1.00  0.00     0.031 A 
ATOM     13  C   UNL A   1      42.029  29.918  28.719  1.00  0.00     0.074 A 
ATOM     14  C   UNL A   1      39.842  29.981  29.914  1.00  0.00     0.049 A 
ATOM     15  N   UNL A   1      42.975  30.491  29.391  1.00  0.00    -0.248 NA
ATOM     16  C   UNL A   1      42.312  29.751  27.286  1.00  0.00     0.031 C 
ATOM     17  C   UNL A   1      38.484  29.546  30.251  1.00  0.00     0.029 A 
ATOM     18  N   UNL A   1      39.867  31.279  30.319  1.00  0.00    -0.354 N 
ATOM     19  C   UNL A   1      43.878  30.945  28.434  1.00  0.00     0.074 A 
ATOM     20  C   UNL A   1      43.506  30.332  27.184  1.00  0.00     0.031 C 
ATOM     21  C   UNL A   1      37.738  30.634  30.532  1.00  0.00     0.029 A 
ATOM     22  C   UNL A   1      38.599  31.803  30.529  1.00  0.00     0.049 A 
ATOM     23  H   UNL A   1      40.697  31.793  30.449  1.00  0.00     0.167 HD
ATOM     24  C   UNL A   1      44.741  31.969  28.669  1.00  0.00     0.034 A 
ATOM     25  C   UNL A   1      38.281  33.117  30.562  1.00  0.00     0.034 A 
ATOM     26  C   UNL A   1      44.943  32.218  30.066  1.00  0.00     0.049 A 
ATOM     27  C   UNL A   1      39.524  33.873  30.837  1.00  0.00     0.074 A 
ATOM     28  C   UNL A   1      45.440  31.484  31.124  1.00  0.00     0.029 A 
ATOM     29  N   UNL A   1      44.286  33.287  30.619  1.00  0.00    -0.354 N 
ATOM     30  N   UNL A   1      40.176  33.822  31.965  1.00  0.00    -0.248 NA
ATOM     31  C   UNL A   1      40.270  34.407  29.708  1.00  0.00     0.031 C 
ATOM     32  C   UNL A   1      44.666  31.891  32.249  1.00  0.00     0.029 A 
ATOM     33  C   UNL A   1      43.766  32.867  31.815  1.00  0.00     0.049 A 
ATOM     34  H   UNL A   1      44.204  34.188  30.231  1.00  0.00     0.167 HD
ATOM     35  C   UNL A   1      41.514  33.902  31.600  1.00  0.00     0.074 A 
ATOM     36  C   UNL A   1      41.501  34.386  30.223  1.00  0.00     0.031 C 
ATOM     37  C   UNL A   1      42.489  33.300  32.343  1.00  0.00     0.034 A 
BRANCH  24  38
ATOM     38  C   UNL A   1      45.166  32.941  27.605  1.00  0.00     0.023 A 
ATOM     39  C   UNL A   1      44.187  33.488  26.753  1.00  0.00     0.012 A 
ATOM     40  C   UNL A   1      46.519  33.165  27.262  1.00  0.00     0.148 A 
ATOM     41  C   UNL A   1      44.542  34.230  25.620  1.00  0.00     0.002 A 
ATOM     42  C   UNL A   1      46.865  33.987  26.199  1.00  0.00     0.091 A 
ATOM     43  F   UNL A   1      47.486  32.478  27.883  1.00  0.00    -0.205 F 
ATOM     44  C   UNL A   1      45.881  34.502  25.356  1.00  0.00     0.022 A 
BRANCH  42  45
ATOM     45  S   UNL A   1      48.577  34.436  25.902  1.00  0.00     0.127 S 
ATOM     46  O   UNL A   1      48.904  35.179  27.115  1.00  0.00    -0.237 OA
ATOM     47  O   UNL A   1      49.218  33.125  25.785  1.00  0.00    -0.237 OA
ATOM     48  O   UNL A   1      48.558  35.196  24.658  1.00  0.00    -0.744 OA
ENDBRANCH  42  45
ENDBRANCH  24  38
BRANCH  25  49
ATOM     49  C   UNL A   1      37.057  33.773  30.046  1.00  0.00     0.023 A 
ATOM     50  C   UNL A   1      36.736  33.647  28.682  1.00  0.00     0.012 A 
ATOM     51  C   UNL A   1      36.069  34.281  30.921  1.00  0.00     0.148 A 
ATOM     52  C   UNL A   1      35.462  33.981  28.209  1.00  0.00     0.002 A 
ATOM     53  C   UNL A   1      34.809  34.626  30.444  1.00  0.00     0.091 A 
ATOM     54  F   UNL A   1      36.327  34.335  32.234  1.00  0.00    -0.205 F 
ATOM     55  C   UNL A   1      34.498  34.464  29.090  1.00  0.00     0.022 A 
BRANCH  53  56
ATOM     56  S   UNL A   1      33.511  35.235  31.530  1.00  0.00     0.127 S 
ATOM     57  O   UNL A   1      33.380  34.138  32.491  1.00  0.00    -0.237 OA
ATOM     58  O   UNL A   1      34.114  36.451  32.068  1.00  0.00    -0.237 OA
ATOM     59  O   UNL A   1      32.341  35.426  30.681  1.00  0.00    -0.744 OA
ENDBRANCH  53  56
ENDBRANCH  25  49
BRANCH  37  60
ATOM     60  C   UNL A   1      42.122  32.757  33.704  1.00  0.00     0.023 A 
ATOM     61  C   UNL A   1      42.216  33.547  34.870  1.00  0.00     0.012 A 
ATOM     62  C   UNL A   1      41.471  31.513  33.782  1.00  0.00     0.148 A 
ATOM     63  C   UNL A   1      41.689  33.102  36.085  1.00  0.00     0.002 A 
ATOM     64  C   UNL A   1      40.900  31.097  34.979  1.00  0.00     0.091 A 
ATOM     65  F   UNL A   1      41.384  30.772  32.666  1.00  0.00    -0.205 F 
ATOM     66  C   UNL A   1      41.016  31.884  36.136  1.00  0.00     0.022 A 
BRANCH  64  67
ATOM     67  S   UNL A   1      39.888  29.616  35.073  1.00  0.00     0.127 S 
ATOM     68  O   UNL A   1      40.884  28.555  34.956  1.00  0.00    -0.237 OA
ATOM     69  O   UNL A   1      39.275  29.736  36.399  1.00  0.00    -0.237 OA
ATOM     70  O   UNL A   1      38.939  29.712  33.972  1.00  0.00    -0.744 OA
ENDBRANCH  64  67
ENDBRANCH  37  60
ENDBRANCH  11  12
ENDBRANCH   4   6
ENDBRANCH   3   4
ENDBRANCH   2   3
ENDBRANCH   1   2
BRANCH   1  71
ATOM     71  O   UNL A   1      36.323  23.113  26.163  1.00  0.00    -0.374 OA
BRANCH  71  72
ATOM     72  C   UNL A   1      35.344  22.140  25.760  1.00  0.00     0.202 C 
BRANCH  72  73
ATOM     73  C   UNL A   1      34.180  21.803  26.713  1.00  0.00     0.261 C 
BRANCH  73  74
ATOM     74  O   UNL A   1      33.040  22.664  26.516  1.00  0.00    -0.458 OA
BRANCH  74  75
ATOM     75  C   UNL A   1      32.189  22.303  25.506  1.00  0.00     0.358 C 
ATOM     76  O   UNL A   1      31.777  21.170  25.313  1.00  0.00    -0.244 OA
BRANCH  75  77
ATOM     77  C   UNL A   1      31.752  23.451  24.694  1.00  0.00     0.170 A 
ATOM     78  C   UNL A   1      30.711  23.446  23.739  1.00  0.00     0.058 A 
ATOM     79  N   UNL A   1      32.258  24.697  24.857  1.00  0.00    -0.159 NA
ATOM     80  C   UNL A   1      30.475  24.769  23.468  1.00  0.00     0.118 A 
ATOM     81  N   UNL A   1      31.404  25.499  24.174  1.00  0.00    -0.222 N 
BRANCH  81  82
ATOM     82  C   UNL A   1      31.416  26.917  24.293  1.00  0.00     0.158 A 
ATOM     83  C   UNL A   1      30.653  27.688  23.438  1.00  0.00     0.078 A 
ATOM     84  N   UNL A   1      32.172  27.437  25.287  1.00  0.00    -0.209 NA
ATOM     85  C   UNL A   1      30.658  29.049  23.698  1.00  0.00     0.077 A 
ATOM     86  C   UNL A   1      32.201  28.775  25.373  1.00  0.00     0.165 A 
ATOM     87  N   UNL A   1      31.467  29.609  24.626  1.00  0.00    -0.228 NA
BRANCH  85  88
ATOM     88  C   UNL A   1      29.713  29.982  23.071  1.00  0.00     0.003 A 
ATOM     89  C   UNL A   1      29.519  29.977  21.682  1.00  0.00     0.030 A 
ATOM     90  C   UNL A   1      28.920  30.845  23.836  1.00  0.00     0.030 A 
ATOM     91  C   UNL A   1      28.563  30.817  21.131  1.00  0.00     0.111 A 
ATOM     92  C   UNL A   1      27.997  31.656  23.192  1.00  0.00     0.111 A 
ATOM     93  N   UNL A   1      27.797  31.655  21.857  1.00  0.00    -0.265 NA
ENDBRANCH  85  88
BRANCH  86  94
ATOM     94  C   UNL A   1      33.194  29.347  26.271  1.00  0.00     0.055 A 
ATOM     95  C   UNL A   1      34.469  28.764  26.395  1.00  0.00     0.015 A 
ATOM     96  C   UNL A   1      32.907  30.466  27.054  1.00  0.00     0.134 A 
ATOM     97  C   UNL A   1      35.419  29.289  27.277  1.00  0.00     0.001 A 
ATOM     98  C   UNL A   1      33.846  30.993  27.942  1.00  0.00     0.040 A 
ATOM     99  F   UNL A   1      31.697  31.046  26.994  1.00  0.00    -0.206 F 
ATOM    100  C   UNL A   1      35.104  30.402  28.053  1.00  0.00     0.003 A 
ENDBRANCH  86  94
ENDBRANCH  81  82
ENDBRANCH  75  77
ENDBRANCH  74  75
ENDBRANCH  73  74
ENDBRANCH  72  73
ENDBRANCH  71  72
ENDBRANCH   1  71
TORSDOF 20
ENDMDL
MODEL 2
REMARK VINA RESULT:     -11.8      5.466      8.944
REMARK SMILES O=C(OCCOCCOC(=O)c1ccn(-c2cc(-c3ccncc3)nc(-c3ccccc3F)n2)n1)c1ccc(-c2c3nc(c(-c4cccc(S(=O)(=O)[O-])c4F)c4ccc([nH]4)c(-c4cccc(S(=O)(=O)[O-])c4F)c4nc(c(-c5cccc(S(=O)(=O)[O-])c5F)c5ccc2[nH]5)C=C4)C=C3)cc1
REMARK SMILES IDX 5 1 4 2 3 3 2 4 1 5 36 6 37 7 98 8 38 9 97 10 39 11 40 12
REMARK SMILES IDX 41 13 91 14 42 15 96 16 90 17 92 18 43 19 95 20 89 21 88 22
REMARK SMILES IDX 44 24 76 25 56 26 75 27 57 28 60 29 74 30 93 31 58 32 59 33
REMARK SMILES IDX 73 35 94 36 61 37 45 38 46 39 54 40 47 41 49 42 55 43 48 44
REMARK SMILES IDX 50 45 51 46 52 47 53 48 77 49 78 50 86 51 79 52 81 53 87 54
REMARK SMILES IDX 80 55 82 56 83 57 84 58 85 59 62 60 63 61 71 62 64 63 66 64
REMARK SMILES IDX 72 65 65 66 67 67 68 68 69 69 70 70 6 71 7 72 8 73 9 74
REMARK SMILES IDX 10 75 11 76 12 77 13 78 35 79 14 80 15 81 16 82 17 83 34 84
REMARK SMILES IDX 18 85 26 86 25 87 19 88 20 89 24 90 21 91 23 92 22 93 27 94
REMARK SMILES IDX 28 95 32 96 29 97 31 98 33 99 30 100
REMARK H PARENT 92 23 60 34
REMARK Flexibility Score: inf
ROOT
ATOM      1  C   UNL A   1      42.103  21.075  26.277  1.00  0.00     0.202 C 
ENDROOT
BRANCH   1   2
ATOM      2  C   UNL A   1      41.582  20.982  27.705  1.00  0.00     0.261 C 
BRANCH   2   3
ATOM      3  O   UNL A   1      40.427  21.799  28.000  1.00  0.00    -0.460 OA
BRANCH   3   4
ATOM      4  C   UNL A   1      39.929  22.680  27.100  1.00  0.00     0.338 C 
ATOM      5  O   UNL A   1      39.016  22.385  26.337  1.00  0.00    -0.246 OA
BRANCH   4   6
ATOM      6  C   UNL A   1      40.333  24.091  27.331  1.00  0.00     0.060 A 
ATOM      7  C   UNL A   1      41.548  24.430  27.923  1.00  0.00     0.016 A 
ATOM      8  C   UNL A   1      39.390  25.094  27.061  1.00  0.00     0.016 A 
ATOM      9  C   UNL A   1      41.730  25.681  28.460  1.00  0.00     0.010 A 
ATOM     10  C   UNL A   1      39.591  26.376  27.554  1.00  0.00     0.010 A 
ATOM     11  C   UNL A   1      40.716  26.622  28.338  1.00  0.00    -0.014 A 
BRANCH  11  12
ATOM     12  C   UNL A   1      40.920  27.850  29.082  1.00  0.00     0.031 A 
ATOM     13  C   UNL A   1      42.000  28.728  28.565  1.00  0.00     0.074 A 
ATOM     14  C   UNL A   1      40.182  28.147  30.167  1.00  0.00     0.049 A 
ATOM     15  N   UNL A   1      43.081  29.112  29.164  1.00  0.00    -0.248 NA
ATOM     16  C   UNL A   1      41.919  29.113  27.149  1.00  0.00     0.031 C 
ATOM     17  C   UNL A   1      38.953  27.490  30.620  1.00  0.00     0.029 A 
ATOM     18  N   UNL A   1      40.299  29.211  31.007  1.00  0.00    -0.354 N 
ATOM     19  C   UNL A   1      43.715  29.964  28.263  1.00  0.00     0.074 A 
ATOM     20  C   UNL A   1      43.046  29.805  26.997  1.00  0.00     0.031 C 
ATOM     21  C   UNL A   1      38.294  28.328  31.449  1.00  0.00     0.029 A 
ATOM     22  C   UNL A   1      39.121  29.499  31.681  1.00  0.00     0.049 A 
ATOM     23  H   UNL A   1      41.133  29.722  31.123  1.00  0.00     0.167 HD
ATOM     24  C   UNL A   1      44.604  30.914  28.656  1.00  0.00     0.034 A 
ATOM     25  C   UNL A   1      38.814  30.677  32.271  1.00  0.00     0.034 A 
ATOM     26  C   UNL A   1      45.146  30.666  29.959  1.00  0.00     0.049 A 
ATOM     27  C   UNL A   1      40.083  31.402  32.512  1.00  0.00     0.074 A 
ATOM     28  C   UNL A   1      45.896  29.655  30.525  1.00  0.00     0.029 A 
ATOM     29  N   UNL A   1      44.643  31.398  31.004  1.00  0.00    -0.354 N 
ATOM     30  N   UNL A   1      40.996  31.014  33.359  1.00  0.00    -0.248 NA
ATOM     31  C   UNL A   1      40.520  32.373  31.522  1.00  0.00     0.031 C 
ATOM     32  C   UNL A   1      45.425  29.555  31.866  1.00  0.00     0.029 A 
ATOM     33  C   UNL A   1      44.440  30.529  32.044  1.00  0.00     0.049 A 
ATOM     34  H   UNL A   1      44.462  32.365  31.007  1.00  0.00     0.167 HD
ATOM     35  C   UNL A   1      42.200  31.349  32.752  1.00  0.00     0.074 A 
ATOM     36  C   UNL A   1      41.841  32.289  31.694  1.00  0.00     0.031 C 
ATOM     37  C   UNL A   1      43.333  30.619  32.973  1.00  0.00     0.034 A 
BRANCH  24  38
ATOM     38  C   UNL A   1      44.745  32.240  27.961  1.00  0.00     0.023 A 
ATOM     39  C   UNL A   1      45.892  32.479  27.180  1.00  0.00     0.012 A 
ATOM     40  C   UNL A   1      43.902  33.343  28.228  1.00  0.00     0.148 A 
ATOM     41  C   UNL A   1      46.178  33.757  26.682  1.00  0.00     0.002 A 
ATOM     42  C   UNL A   1      44.134  34.582  27.648  1.00  0.00     0.091 A 
ATOM     43  F   UNL A   1      42.941  33.237  29.154  1.00  0.00    -0.205 F 
ATOM     44  C   UNL A   1      45.286  34.803  26.894  1.00  0.00     0.022 A 
BRANCH  42  45
ATOM     45  S   UNL A   1      42.945  35.916  27.820  1.00  0.00     0.127 S 
ATOM     46  O   UNL A   1      42.728  35.935  29.263  1.00  0.00    -0.237 OA
ATOM     47  O   UNL A   1      43.693  37.057  27.290  1.00  0.00    -0.237 OA
ATOM     48  O   UNL A   1      41.811  35.520  26.995  1.00  0.00    -0.744 OA
ENDBRANCH  42  45
ENDBRANCH  24  38
BRANCH  25  49
ATOM     49  C   UNL A   1      37.497  31.352  32.330  1.00  0.00     0.023 A 
ATOM     50  C   UNL A   1      37.024  31.824  33.568  1.00  0.00     0.012 A 
ATOM     51  C   UNL A   1      36.835  31.778  31.155  1.00  0.00     0.148 A 
ATOM     52  C   UNL A   1      35.951  32.719  33.635  1.00  0.00     0.002 A 
ATOM     53  C   UNL A   1      35.759  32.656  31.227  1.00  0.00     0.091 A 
ATOM     54  F   UNL A   1      37.317  31.404  29.963  1.00  0.00    -0.205 F 
ATOM     55  C   UNL A   1      35.323  33.140  32.465  1.00  0.00     0.022 A 
BRANCH  53  56
ATOM     56  S   UNL A   1      34.917  33.255  29.755  1.00  0.00     0.127 S 
ATOM     57  O   UNL A   1      35.943  34.100  29.141  1.00  0.00    -0.237 OA
ATOM     58  O   UNL A   1      34.637  32.014  29.041  1.00  0.00    -0.237 OA
ATOM     59  O   UNL A   1      33.752  33.989  30.236  1.00  0.00    -0.744 OA
ENDBRANCH  53  56
ENDBRANCH  25  49
BRANCH  37  60
ATOM     60  C   UNL A   1      43.320  29.592  34.081  1.00  0.00     0.023 A 
ATOM     61  C   UNL A   1      42.987  28.242  33.840  1.00  0.00     0.012 A 
ATOM     62  C   UNL A   1      43.860  29.942  35.332  1.00  0.00     0.148 A 
ATOM     63  C   UNL A   1      43.170  27.269  34.826  1.00  0.00     0.002 A 
ATOM     64  C   UNL A   1      44.092  28.962  36.291  1.00  0.00     0.091 A 
ATOM     65  F   UNL A   1      44.177  31.228  35.548  1.00  0.00    -0.205 F 
ATOM     66  C   UNL A   1      43.739  27.626  36.046  1.00  0.00     0.022 A 
BRANCH  64  67
ATOM     67  S   UNL A   1      44.963  29.330  37.818  1.00  0.00     0.127 S 
ATOM     68  O   UNL A   1      46.286  29.715  37.332  1.00  0.00    -0.237 OA
ATOM     69  O   UNL A   1      44.173  30.431  38.375  1.00  0.00    -0.237 OA
ATOM     70  O   UNL A   1      44.914  28.108  38.609  1.00  0.00    -0.744 OA
ENDBRANCH  64  67
ENDBRANCH  37  60
ENDBRANCH  11  12
ENDBRANCH   4   6
ENDBRANCH   3   4
ENDBRANCH   2   3
ENDBRANCH   1   2
BRANCH   1  71
ATOM     71  O   UNL A   1      41.905  19.951  25.427  1.00  0.00    -0.374 OA
BRANCH  71  72
ATOM     72  C   UNL A   1      42.123  18.654  26.008  1.00  0.00     0.202 C 
BRANCH  72  73
ATOM     73  C   UNL A   1      43.556  18.089  26.072  1.00  0.00     0.261 C 
BRANCH  73  74
ATOM     74  O   UNL A   1      44.297  18.327  24.858  1.00  0.00    -0.458 OA
BRANCH  74  75
ATOM     75  C   UNL A   1      45.562  18.823  25.020  1.00  0.00     0.358 C 
ATOM     76  O   UNL A   1      46.562  18.142  25.190  1.00  0.00    -0.244 OA
BRANCH  75  77
ATOM     77  C   UNL A   1      45.618  20.289  24.900  1.00  0.00     0.170 A 
ATOM     78  C   UNL A   1      44.945  21.071  23.935  1.00  0.00     0.058 A 
ATOM     79  N   UNL A   1      46.267  21.072  25.795  1.00  0.00    -0.159 NA
ATOM     80  C   UNL A   1      45.052  22.361  24.390  1.00  0.00     0.118 A 
ATOM     81  N   UNL A   1      45.831  22.327  25.525  1.00  0.00    -0.222 N 
BRANCH  81  82
ATOM     82  C   UNL A   1      46.065  23.429  26.393  1.00  0.00     0.158 A 
ATOM     83  C   UNL A   1      46.933  24.434  26.015  1.00  0.00     0.078 A 
ATOM     84  N   UNL A   1      45.377  23.442  27.558  1.00  0.00    -0.209 NA
ATOM     85  C   UNL A   1      47.016  25.509  26.885  1.00  0.00     0.077 A 
ATOM     86  C   UNL A   1      45.624  24.469  28.383  1.00  0.00     0.165 A 
ATOM     87  N   UNL A   1      46.410  25.514  28.094  1.00  0.00    -0.228 NA
BRANCH  85  88
ATOM     88  C   UNL A   1      47.675  26.773  26.528  1.00  0.00     0.003 A 
ATOM     89  C   UNL A   1      47.153  27.999  26.964  1.00  0.00     0.030 A 
ATOM     90  C   UNL A   1      48.879  26.793  25.817  1.00  0.00     0.030 A 
ATOM     91  C   UNL A   1      47.843  29.166  26.676  1.00  0.00     0.111 A 
ATOM     92  C   UNL A   1      49.490  28.014  25.568  1.00  0.00     0.111 A 
ATOM     93  N   UNL A   1      49.001  29.199  25.988  1.00  0.00    -0.265 NA
ENDBRANCH  85  88
BRANCH  86  94
ATOM     94  C   UNL A   1      45.082  24.366  29.730  1.00  0.00     0.055 A 
ATOM     95  C   UNL A   1      44.337  23.238  30.119  1.00  0.00     0.015 A 
ATOM     96  C   UNL A   1      45.257  25.388  30.665  1.00  0.00     0.134 A 
ATOM     97  C   UNL A   1      43.786  23.143  31.401  1.00  0.00     0.001 A 
ATOM     98  C   UNL A   1      44.706  25.306  31.944  1.00  0.00     0.040 A 
ATOM     99  F   UNL A   1      45.938  26.498  30.338  1.00  0.00    -0.206 F 
ATOM    100  C   UNL A   1      43.969  24.181  32.312  1.00  0.00     0.003 A 
ENDBRANCH  86  94
ENDBRANCH  81  82
ENDBRANCH  75  77
ENDBRANCH  74  75
ENDBRANCH  73  74
ENDBRANCH  72  73
ENDBRANCH  71  72
ENDBRANCH   1  71
TORSDOF 20
ENDMDL
MODEL 3
REMARK VINA RESULT:     -11.7      5.168      9.045
REMARK SMILES O=C(OCCOCCOC(=O)c1ccn(-c2cc(-c3ccncc3)nc(-c3ccccc3F)n2)n1)c1ccc(-c2c3nc(c(-c4cccc(S(=O)(=O)[O-])c4F)c4ccc([nH]4)c(-c4cccc(S(=O)(=O)[O-])c4F)c4nc(c(-c5cccc(S(=O)(=O)[O-])c5F)c5ccc2[nH]5)C=C4)C=C3)cc1
REMARK SMILES IDX 5 1 4 2 3 3 2 4 1 5 36 6 37 7 98 8 38 9 97 10 39 11 40 12
REMARK SMILES IDX 41 13 91 14 42 15 96 16 90 17 92 18 43 19 95 20 89 21 88 22
REMARK SMILES IDX 44 24 76 25 56 26 75 27 57 28 60 29 74 30 93 31 58 32 59 33
REMARK SMILES IDX 73 35 94 36 61 37 45 38 46 39 54 40 47 41 49 42 55 43 48 44
REMARK SMILES IDX 50 45 51 46 52 47 53 48 77 49 78 50 86 51 79 52 81 53 87 54
REMARK SMILES IDX 80 55 82 56 83 57 84 58 85 59 62 60 63 61 71 62 64 63 66 64
REMARK SMILES IDX 72 65 65 66 67 67 68 68 69 69 70 70 6 71 7 72 8 73 9 74
REMARK SMILES IDX 10 75 11 76 12 77 13 78 35 79 14 80 15 81 16 82 17 83 34 84
REMARK SMILES IDX 18 85 26 86 25 87 19 88 20 89 24 90 21 91 23 92 22 93 27 94
REMARK SMILES IDX 28 95 32 96 29 97 31 98 33 99 30 100
REMARK H PARENT 92 23 60 34
REMARK Flexibility Score: inf
ROOT
ATOM      1  C   UNL A   1      42.456  21.121  26.965  1.00  0.00     0.202 C 
ENDROOT
BRANCH   1   2
ATOM      2  C   UNL A   1      41.346  21.038  28.004  1.00  0.00     0.261 C 
BRANCH   2   3
ATOM      3  O   UNL A   1      40.745  22.299  28.374  1.00  0.00    -0.460 OA
BRANCH   3   4
ATOM      4  C   UNL A   1      40.260  23.156  27.445  1.00  0.00     0.338 C 
ATOM      5  O   UNL A   1      39.343  22.848  26.692  1.00  0.00    -0.246 OA
BRANCH   4   6
ATOM      6  C   UNL A   1      40.684  24.569  27.628  1.00  0.00     0.060 A 
ATOM      7  C   UNL A   1      41.681  24.935  28.530  1.00  0.00     0.016 A 
ATOM      8  C   UNL A   1      39.951  25.563  26.962  1.00  0.00     0.016 A 
ATOM      9  C   UNL A   1      41.787  26.238  28.950  1.00  0.00     0.010 A 
ATOM     10  C   UNL A   1      40.091  26.890  27.344  1.00  0.00     0.010 A 
ATOM     11  C   UNL A   1      40.937  27.194  28.408  1.00  0.00    -0.014 A 
BRANCH  11  12
ATOM     12  C   UNL A   1      40.999  28.501  29.033  1.00  0.00     0.031 A 
ATOM     13  C   UNL A   1      42.076  29.391  28.528  1.00  0.00     0.074 A 
ATOM     14  C   UNL A   1      40.142  28.857  30.007  1.00  0.00     0.049 A 
ATOM     15  N   UNL A   1      43.069  29.903  29.181  1.00  0.00    -0.248 NA
ATOM     16  C   UNL A   1      42.113  29.625  27.077  1.00  0.00     0.031 C 
ATOM     17  C   UNL A   1      38.912  28.172  30.412  1.00  0.00     0.029 A 
ATOM     18  N   UNL A   1      40.117  30.005  30.736  1.00  0.00    -0.354 N 
ATOM     19  C   UNL A   1      43.741  30.699  28.256  1.00  0.00     0.074 A 
ATOM     20  C   UNL A   1      43.211  30.371  26.958  1.00  0.00     0.031 C 
ATOM     21  C   UNL A   1      38.130  29.044  31.082  1.00  0.00     0.029 A 
ATOM     22  C   UNL A   1      38.864  30.283  31.264  1.00  0.00     0.049 A 
ATOM     23  H   UNL A   1      40.906  30.578  30.874  1.00  0.00     0.167 HD
ATOM     24  C   UNL A   1      44.533  31.740  28.627  1.00  0.00     0.034 A 
ATOM     25  C   UNL A   1      38.436  31.492  31.694  1.00  0.00     0.034 A 
ATOM     26  C   UNL A   1      44.957  31.659  29.993  1.00  0.00     0.049 A 
ATOM     27  C   UNL A   1      39.633  32.318  31.973  1.00  0.00     0.074 A 
ATOM     28  C   UNL A   1      45.701  30.761  30.731  1.00  0.00     0.029 A 
ATOM     29  N   UNL A   1      44.314  32.458  30.903  1.00  0.00    -0.354 N 
ATOM     30  N   UNL A   1      40.478  32.078  32.937  1.00  0.00    -0.248 NA
ATOM     31  C   UNL A   1      40.112  33.212  30.930  1.00  0.00     0.031 C 
ATOM     32  C   UNL A   1      45.107  30.767  32.025  1.00  0.00     0.029 A 
ATOM     33  C   UNL A   1      44.057  31.688  32.007  1.00  0.00     0.049 A 
ATOM     34  H   UNL A   1      44.080  33.407  30.787  1.00  0.00     0.167 HD
ATOM     35  C   UNL A   1      41.716  32.427  32.412  1.00  0.00     0.074 A 
ATOM     36  C   UNL A   1      41.412  33.231  31.232  1.00  0.00     0.031 C 
ATOM     37  C   UNL A   1      42.860  31.798  32.815  1.00  0.00     0.034 A 
BRANCH  24  38
ATOM     38  C   UNL A   1      44.669  32.994  27.810  1.00  0.00     0.023 A 
ATOM     39  C   UNL A   1      45.759  33.116  26.927  1.00  0.00     0.012 A 
ATOM     40  C   UNL A   1      43.893  34.153  28.044  1.00  0.00     0.148 A 
ATOM     41  C   UNL A   1      46.054  34.333  26.299  1.00  0.00     0.002 A 
ATOM     42  C   UNL A   1      44.126  35.328  27.343  1.00  0.00     0.091 A 
ATOM     43  F   UNL A   1      43.006  34.169  29.046  1.00  0.00    -0.205 F 
ATOM     44  C   UNL A   1      45.222  35.433  26.488  1.00  0.00     0.022 A 
BRANCH  42  45
ATOM     45  S   UNL A   1      43.007  36.724  27.489  1.00  0.00     0.127 S 
ATOM     46  O   UNL A   1      43.580  37.664  26.532  1.00  0.00    -0.237 OA
ATOM     47  O   UNL A   1      41.730  36.130  27.088  1.00  0.00    -0.237 OA
ATOM     48  O   UNL A   1      43.064  37.107  28.894  1.00  0.00    -0.744 OA
ENDBRANCH  42  45
ENDBRANCH  24  38
BRANCH  25  49
ATOM     49  C   UNL A   1      37.085  32.082  31.559  1.00  0.00     0.023 A 
ATOM     50  C   UNL A   1      36.553  32.828  32.627  1.00  0.00     0.012 A 
ATOM     51  C   UNL A   1      36.435  32.155  30.304  1.00  0.00     0.148 A 
ATOM     52  C   UNL A   1      35.433  33.647  32.446  1.00  0.00     0.002 A 
ATOM     53  C   UNL A   1      35.314  32.959  30.132  1.00  0.00     0.091 A 
ATOM     54  F   UNL A   1      36.971  31.518  29.256  1.00  0.00    -0.205 F 
ATOM     55  C   UNL A   1      34.818  33.718  31.199  1.00  0.00     0.022 A 
BRANCH  53  56
ATOM     56  S   UNL A   1      34.484  33.113  28.544  1.00  0.00     0.127 S 
ATOM     57  O   UNL A   1      33.456  34.115  28.835  1.00  0.00    -0.237 OA
ATOM     58  O   UNL A   1      35.566  33.578  27.682  1.00  0.00    -0.237 OA
ATOM     59  O   UNL A   1      33.955  31.788  28.243  1.00  0.00    -0.744 OA
ENDBRANCH  53  56
ENDBRANCH  25  49
BRANCH  37  60
ATOM     60  C   UNL A   1      42.794  30.890  34.019  1.00  0.00     0.023 A 
ATOM     61  C   UNL A   1      42.874  31.393  35.336  1.00  0.00     0.012 A 
ATOM     62  C   UNL A   1      42.429  29.544  33.832  1.00  0.00     0.148 A 
ATOM     63  C   UNL A   1      42.614  30.574  36.436  1.00  0.00     0.002 A 
ATOM     64  C   UNL A   1      42.118  28.746  34.927  1.00  0.00     0.091 A 
ATOM     65  F   UNL A   1      42.352  29.077  32.576  1.00  0.00    -0.205 F 
ATOM     66  C   UNL A   1      42.219  29.254  36.231  1.00  0.00     0.022 A 
BRANCH  64  67
ATOM     67  S   UNL A   1      41.454  27.090  34.723  1.00  0.00     0.127 S 
ATOM     68  O   UNL A   1      42.588  26.373  34.144  1.00  0.00    -0.237 OA
ATOM     69  O   UNL A   1      41.128  26.709  36.100  1.00  0.00    -0.237 OA
ATOM     70  O   UNL A   1      40.290  27.231  33.858  1.00  0.00    -0.744 OA
ENDBRANCH  64  67
ENDBRANCH  37  60
ENDBRANCH  11  12
ENDBRANCH   4   6
ENDBRANCH   3   4
ENDBRANCH   2   3
ENDBRANCH   1   2
BRANCH   1  71
ATOM     71  O   UNL A   1      42.272  20.412  25.745  1.00  0.00    -0.374 OA
BRANCH  71  72
ATOM     72  C   UNL A   1      42.122  18.985  25.840  1.00  0.00     0.202 C 
BRANCH  72  73
ATOM     73  C   UNL A   1      43.380  18.101  25.938  1.00  0.00     0.261 C 
BRANCH  73  74
ATOM     74  O   UNL A   1      44.226  18.216  24.775  1.00  0.00    -0.458 OA
BRANCH  74  75
ATOM     75  C   UNL A   1      45.471  18.740  24.992  1.00  0.00     0.358 C 
ATOM     76  O   UNL A   1      46.453  18.092  25.322  1.00  0.00    -0.244 OA
BRANCH  75  77
ATOM     77  C   UNL A   1      45.535  20.185  24.721  1.00  0.00     0.170 A 
ATOM     78  C   UNL A   1      44.736  20.894  23.796  1.00  0.00     0.058 A 
ATOM     79  N   UNL A   1      46.329  21.028  25.425  1.00  0.00    -0.159 NA
ATOM     80  C   UNL A   1      44.936  22.217  24.099  1.00  0.00     0.118 A 
ATOM     81  N   UNL A   1      45.879  22.265  25.100  1.00  0.00    -0.222 N 
BRANCH  81  82
ATOM     82  C   UNL A   1      46.265  23.436  25.809  1.00  0.00     0.158 A 
ATOM     83  C   UNL A   1      45.497  23.890  26.864  1.00  0.00     0.078 A 
ATOM     84  N   UNL A   1      47.413  24.035  25.415  1.00  0.00    -0.209 NA
ATOM     85  C   UNL A   1      46.010  24.978  27.550  1.00  0.00     0.077 A 
ATOM     86  C   UNL A   1      47.753  25.154  26.070  1.00  0.00     0.165 A 
ATOM     87  N   UNL A   1      47.105  25.651  27.131  1.00  0.00    -0.228 NA
BRANCH  85  88
ATOM     88  C   UNL A   1      45.476  25.428  28.843  1.00  0.00     0.003 A 
ATOM     89  C   UNL A   1      45.029  24.499  29.794  1.00  0.00     0.030 A 
ATOM     90  C   UNL A   1      45.469  26.780  29.200  1.00  0.00     0.030 A 
ATOM     91  C   UNL A   1      44.605  24.953  31.033  1.00  0.00     0.111 A 
ATOM     92  C   UNL A   1      45.015  27.139  30.461  1.00  0.00     0.111 A 
ATOM     93  N   UNL A   1      44.589  26.253  31.387  1.00  0.00    -0.265 NA
ENDBRANCH  85  88
BRANCH  86  94
ATOM     94  C   UNL A   1      48.841  25.935  25.500  1.00  0.00     0.055 A 
ATOM     95  C   UNL A   1      48.643  26.695  24.332  1.00  0.00     0.015 A 
ATOM     96  C   UNL A   1      50.115  25.933  26.070  1.00  0.00     0.134 A 
ATOM     97  C   UNL A   1      49.690  27.425  23.760  1.00  0.00     0.001 A 
ATOM     98  C   UNL A   1      51.168  26.652  25.503  1.00  0.00     0.040 A 
ATOM     99  F   UNL A   1      50.366  25.205  27.170  1.00  0.00    -0.206 F 
ATOM    100  C   UNL A   1      50.954  27.400  24.345  1.00  0.00     0.003 A 
ENDBRANCH  86  94
ENDBRANCH  81  82
ENDBRANCH  75  77
ENDBRANCH  74  75
ENDBRANCH  73  74
ENDBRANCH  72  73
ENDBRANCH  71  72
ENDBRANCH   1  71
TORSDOF 20
ENDMDL
