MODEL 1
REMARK VINA RESULT:     -10.9      0.000      0.000
REMARK SMILES O=C(OCCOCCOC(=O)[C@@H]1CC[C@H](CNc2c(F)c(F)c(F)c(F)c2F)O1)c1ccc(-c2c3nc(c(-c4cccc(S(=O)(=O)[O-])c4F)c4ccc([nH]4)c(-c4cccc(S(=O)(=O)[O-])c4F)c4nc(c(-c5cccc(S(=O)(=O)[O-])c5F)c5ccc2[nH]5)C=C4)C=C3)cc1
REMARK SMILES IDX 6 1 5 2 4 3 3 4 2 5 1 6 30 7 31 8 92 9 32 10 91 11 33 12
REMARK SMILES IDX 34 13 35 14 85 15 36 16 90 17 84 18 86 19 37 20 89 21 83 22
REMARK SMILES IDX 82 23 38 25 70 26 50 27 69 28 51 29 54 30 68 31 87 32 52 33
REMARK SMILES IDX 53 34 67 36 88 37 55 38 39 39 40 40 48 41 41 42 43 43 49 44
REMARK SMILES IDX 42 45 44 46 45 47 46 48 47 49 71 50 72 51 80 52 73 53 75 54
REMARK SMILES IDX 81 55 74 56 76 57 77 58 78 59 79 60 56 61 57 62 65 63 58 64
REMARK SMILES IDX 60 65 66 66 59 67 61 68 62 69 63 70 64 71 7 72 8 73 9 74
REMARK SMILES IDX 10 75 11 76 12 77 13 78 29 79 14 80 15 81 16 82 17 83 18 85
REMARK SMILES IDX 19 86 27 87 20 88 21 89 25 90 28 91 22 92 23 93 26 94 24 95
REMARK H PARENT 86 24 54 35 17 84
REMARK Flexibility Score: inf
ROOT
ATOM      1  O   UNL A   1      36.459  20.165  25.210  1.00  0.00    -0.374 OA
ENDROOT
BRANCH   1   2
ATOM      2  C   UNL A   1      37.756  19.611  25.014  1.00  0.00     0.202 C 
BRANCH   2   3
ATOM      3  C   UNL A   1      38.894  20.265  25.803  1.00  0.00     0.261 C 
BRANCH   3   4
ATOM      4  O   UNL A   1      40.046  19.399  25.828  1.00  0.00    -0.460 OA
BRANCH   4   5
ATOM      5  C   UNL A   1      41.302  19.724  26.229  1.00  0.00     0.338 C 
ATOM      6  O   UNL A   1      42.159  18.850  26.300  1.00  0.00    -0.246 OA
BRANCH   5   7
ATOM      7  C   UNL A   1      41.669  21.128  26.555  1.00  0.00     0.060 A 
ATOM      8  C   UNL A   1      41.511  22.171  25.647  1.00  0.00     0.016 A 
ATOM      9  C   UNL A   1      42.131  21.430  27.839  1.00  0.00     0.016 A 
ATOM     10  C   UNL A   1      41.929  23.451  25.927  1.00  0.00     0.010 A 
ATOM     11  C   UNL A   1      42.456  22.749  28.174  1.00  0.00     0.010 A 
ATOM     12  C   UNL A   1      42.367  23.758  27.205  1.00  0.00    -0.014 A 
BRANCH  12  13
ATOM     13  C   UNL A   1      42.740  25.157  27.451  1.00  0.00     0.031 A 
ATOM     14  C   UNL A   1      44.047  25.654  26.931  1.00  0.00     0.074 A 
ATOM     15  C   UNL A   1      41.829  25.975  28.014  1.00  0.00     0.049 A 
ATOM     16  N   UNL A   1      44.591  26.829  27.074  1.00  0.00    -0.248 NA
ATOM     17  C   UNL A   1      44.849  24.709  26.132  1.00  0.00     0.031 C 
ATOM     18  C   UNL A   1      40.482  25.572  28.440  1.00  0.00     0.029 A 
ATOM     19  N   UNL A   1      41.877  27.310  28.300  1.00  0.00    -0.354 N 
ATOM     20  C   UNL A   1      45.828  26.744  26.453  1.00  0.00     0.074 A 
ATOM     21  C   UNL A   1      45.944  25.415  25.895  1.00  0.00     0.031 C 
ATOM     22  C   UNL A   1      39.828  26.642  28.913  1.00  0.00     0.029 A 
ATOM     23  C   UNL A   1      40.737  27.777  28.913  1.00  0.00     0.049 A 
ATOM     24  H   UNL A   1      42.650  27.882  28.089  1.00  0.00     0.167 HD
ATOM     25  C   UNL A   1      46.781  27.698  26.378  1.00  0.00     0.034 A 
ATOM     26  C   UNL A   1      40.484  28.980  29.461  1.00  0.00     0.034 A 
ATOM     27  C   UNL A   1      46.611  29.014  26.925  1.00  0.00     0.049 A 
ATOM     28  C   UNL A   1      41.580  30.006  29.393  1.00  0.00     0.074 A 
ATOM     29  C   UNL A   1      47.508  30.062  26.952  1.00  0.00     0.029 A 
ATOM     30  N   UNL A   1      45.450  29.458  27.547  1.00  0.00    -0.354 N 
ATOM     31  N   UNL A   1      42.753  29.920  28.810  1.00  0.00    -0.248 NA
ATOM     32  C   UNL A   1      41.327  31.292  30.052  1.00  0.00     0.031 C 
ATOM     33  C   UNL A   1      46.898  31.133  27.615  1.00  0.00     0.029 A 
ATOM     34  C   UNL A   1      45.609  30.763  27.970  1.00  0.00     0.049 A 
ATOM     35  H   UNL A   1      44.633  28.921  27.669  1.00  0.00     0.167 HD
ATOM     36  C   UNL A   1      43.372  31.144  29.013  1.00  0.00     0.074 A 
ATOM     37  C   UNL A   1      42.428  31.966  29.747  1.00  0.00     0.031 C 
ATOM     38  C   UNL A   1      44.613  31.552  28.652  1.00  0.00     0.034 A 
BRANCH  25  39
ATOM     39  C   UNL A   1      48.087  27.326  25.735  1.00  0.00     0.023 A 
ATOM     40  C   UNL A   1      49.136  26.792  26.509  1.00  0.00     0.012 A 
ATOM     41  C   UNL A   1      48.271  27.511  24.352  1.00  0.00     0.148 A 
ATOM     42  C   UNL A   1      50.359  26.473  25.917  1.00  0.00     0.002 A 
ATOM     43  C   UNL A   1      49.477  27.155  23.762  1.00  0.00     0.091 A 
ATOM     44  F   UNL A   1      47.269  28.050  23.641  1.00  0.00    -0.205 F 
ATOM     45  C   UNL A   1      50.527  26.646  24.545  1.00  0.00     0.022 A 
BRANCH  43  46
ATOM     46  S   UNL A   1      49.773  27.291  21.996  1.00  0.00     0.127 S 
ATOM     47  O   UNL A   1      49.765  28.741  21.806  1.00  0.00    -0.237 OA
ATOM     48  O   UNL A   1      51.089  26.666  21.860  1.00  0.00    -0.237 OA
ATOM     49  O   UNL A   1      48.685  26.575  21.346  1.00  0.00    -0.744 OA
ENDBRANCH  43  46
ENDBRANCH  25  39
BRANCH  26  50
ATOM     50  C   UNL A   1      39.183  29.254  30.135  1.00  0.00     0.023 A 
ATOM     51  C   UNL A   1      38.904  28.674  31.386  1.00  0.00     0.012 A 
ATOM     52  C   UNL A   1      38.220  30.103  29.548  1.00  0.00     0.148 A 
ATOM     53  C   UNL A   1      37.682  28.904  32.023  1.00  0.00     0.002 A 
ATOM     54  C   UNL A   1      37.032  30.377  30.215  1.00  0.00     0.091 A 
ATOM     55  F   UNL A   1      38.484  30.632  28.345  1.00  0.00    -0.205 F 
ATOM     56  C   UNL A   1      36.751  29.764  31.444  1.00  0.00     0.022 A 
BRANCH  54  57
ATOM     57  S   UNL A   1      35.847  31.580  29.597  1.00  0.00     0.127 S 
ATOM     58  O   UNL A   1      36.724  32.607  29.043  1.00  0.00    -0.237 OA
ATOM     59  O   UNL A   1      35.105  30.801  28.605  1.00  0.00    -0.237 OA
ATOM     60  O   UNL A   1      35.056  31.972  30.757  1.00  0.00    -0.744 OA
ENDBRANCH  54  57
ENDBRANCH  26  50
BRANCH  38  61
ATOM     61  C   UNL A   1      44.997  32.957  29.016  1.00  0.00     0.023 A 
ATOM     62  C   UNL A   1      45.583  33.219  30.269  1.00  0.00     0.012 A 
ATOM     63  C   UNL A   1      44.856  33.994  28.077  1.00  0.00     0.148 A 
ATOM     64  C   UNL A   1      45.998  34.509  30.593  1.00  0.00     0.002 A 
ATOM     65  C   UNL A   1      45.322  35.263  28.386  1.00  0.00     0.091 A 
ATOM     66  F   UNL A   1      44.274  33.719  26.901  1.00  0.00    -0.205 F 
ATOM     67  C   UNL A   1      45.881  35.525  29.647  1.00  0.00     0.022 A 
BRANCH  65  68
ATOM     68  S   UNL A   1      45.312  36.601  27.189  1.00  0.00     0.127 S 
ATOM     69  O   UNL A   1      46.040  37.646  27.905  1.00  0.00    -0.237 OA
ATOM     70  O   UNL A   1      46.036  36.012  26.062  1.00  0.00    -0.237 OA
ATOM     71  O   UNL A   1      43.908  36.886  26.920  1.00  0.00    -0.744 OA
ENDBRANCH  65  68
ENDBRANCH  38  61
ENDBRANCH  12  13
ENDBRANCH   5   7
ENDBRANCH   4   5
ENDBRANCH   3   4
ENDBRANCH   2   3
ENDBRANCH   1   2
BRANCH   1  72
ATOM     72  C   UNL A   1      35.987  21.044  24.187  1.00  0.00     0.202 C 
BRANCH  72  73
ATOM     73  C   UNL A   1      36.943  22.232  24.066  1.00  0.00     0.261 C 
BRANCH  73  74
ATOM     74  O   UNL A   1      36.231  23.419  24.461  1.00  0.00    -0.461 OA
BRANCH  74  75
ATOM     75  C   UNL A   1      36.259  23.692  25.797  1.00  0.00     0.335 C 
ATOM     76  O   UNL A   1      37.270  23.951  26.441  1.00  0.00    -0.249 OA
BRANCH  75  77
ATOM     77  C   UNL A   1      34.848  23.689  26.397  1.00  0.00     0.228 C 
ATOM     78  C   UNL A   1      34.430  22.400  27.083  1.00  0.00     0.047 C 
ATOM     79  O   UNL A   1      33.815  23.915  25.420  1.00  0.00    -0.361 OA
ATOM     80  C   UNL A   1      32.933  22.564  27.164  1.00  0.00     0.037 C 
ATOM     81  C   UNL A   1      32.591  23.315  25.883  1.00  0.00     0.138 C 
BRANCH  81  82
ATOM     82  C   UNL A   1      31.947  22.421  24.798  1.00  0.00     0.145 C 
BRANCH  82  83
ATOM     83  N   UNL A   1      31.814  21.058  25.290  1.00  0.00    -0.378 N 
ATOM     84  H   UNL A   1      31.336  20.926  26.141  1.00  0.00     0.160 HD
BRANCH  83  85
ATOM     85  C   UNL A   1      32.308  19.932  24.651  1.00  0.00     0.113 A 
ATOM     86  C   UNL A   1      32.199  19.663  23.277  1.00  0.00     0.188 A 
ATOM     87  C   UNL A   1      32.920  18.943  25.443  1.00  0.00     0.188 A 
ATOM     88  F   UNL A   1      31.651  20.571  22.454  1.00  0.00    -0.201 F 
ATOM     89  C   UNL A   1      32.679  18.470  22.733  1.00  0.00     0.199 A 
ATOM     90  C   UNL A   1      33.381  17.747  24.908  1.00  0.00     0.199 A 
ATOM     91  F   UNL A   1      33.039  19.158  26.765  1.00  0.00    -0.201 F 
ATOM     92  F   UNL A   1      32.578  18.246  21.415  1.00  0.00    -0.200 F 
ATOM     93  C   UNL A   1      33.260  17.510  23.550  1.00  0.00     0.200 A 
ATOM     94  F   UNL A   1      33.933  16.826  25.710  1.00  0.00    -0.200 F 
ATOM     95  F   UNL A   1      33.706  16.359  23.031  1.00  0.00    -0.200 F 
ENDBRANCH  83  85
ENDBRANCH  82  83
ENDBRANCH  81  82
ENDBRANCH  75  77
ENDBRANCH  74  75
ENDBRANCH  73  74
ENDBRANCH  72  73
ENDBRANCH   1  72
TORSDOF 20
ENDMDL
MODEL 2
REMARK VINA RESULT:     -10.8      5.503     10.985
REMARK SMILES O=C(OCCOCCOC(=O)[C@@H]1CC[C@H](CNc2c(F)c(F)c(F)c(F)c2F)O1)c1ccc(-c2c3nc(c(-c4cccc(S(=O)(=O)[O-])c4F)c4ccc([nH]4)c(-c4cccc(S(=O)(=O)[O-])c4F)c4nc(c(-c5cccc(S(=O)(=O)[O-])c5F)c5ccc2[nH]5)C=C4)C=C3)cc1
REMARK SMILES IDX 6 1 5 2 4 3 3 4 2 5 1 6 30 7 31 8 92 9 32 10 91 11 33 12
REMARK SMILES IDX 34 13 35 14 85 15 36 16 90 17 84 18 86 19 37 20 89 21 83 22
REMARK SMILES IDX 82 23 38 25 70 26 50 27 69 28 51 29 54 30 68 31 87 32 52 33
REMARK SMILES IDX 53 34 67 36 88 37 55 38 39 39 40 40 48 41 41 42 43 43 49 44
REMARK SMILES IDX 42 45 44 46 45 47 46 48 47 49 71 50 72 51 80 52 73 53 75 54
REMARK SMILES IDX 81 55 74 56 76 57 77 58 78 59 79 60 56 61 57 62 65 63 58 64
REMARK SMILES IDX 60 65 66 66 59 67 61 68 62 69 63 70 64 71 7 72 8 73 9 74
REMARK SMILES IDX 10 75 11 76 12 77 13 78 29 79 14 80 15 81 16 82 17 83 18 85
REMARK SMILES IDX 19 86 27 87 20 88 21 89 25 90 28 91 22 92 23 93 26 94 24 95
REMARK H PARENT 86 24 54 35 17 84
REMARK Flexibility Score: inf
ROOT
ATOM      1  O   UNL A   1      32.000  30.821  26.913  1.00  0.00    -0.374 OA
ENDROOT
BRANCH   1   2
ATOM      2  C   UNL A   1      31.143  31.893  26.536  1.00  0.00     0.202 C 
BRANCH   2   3
ATOM      3  C   UNL A   1      31.781  33.285  26.501  1.00  0.00     0.261 C 
BRANCH   3   4
ATOM      4  O   UNL A   1      32.419  33.575  27.760  1.00  0.00    -0.460 OA
BRANCH   4   5
ATOM      5  C   UNL A   1      33.649  34.120  27.943  1.00  0.00     0.338 C 
ATOM      6  O   UNL A   1      33.869  35.262  27.555  1.00  0.00    -0.246 OA
BRANCH   5   7
ATOM      7  C   UNL A   1      34.731  33.370  28.635  1.00  0.00     0.060 A 
ATOM      8  C   UNL A   1      35.960  33.947  28.943  1.00  0.00     0.016 A 
ATOM      9  C   UNL A   1      34.491  32.057  29.052  1.00  0.00     0.016 A 
ATOM     10  C   UNL A   1      36.983  33.224  29.509  1.00  0.00     0.010 A 
ATOM     11  C   UNL A   1      35.487  31.345  29.729  1.00  0.00     0.010 A 
ATOM     12  C   UNL A   1      36.742  31.930  29.942  1.00  0.00    -0.014 A 
BRANCH  12  13
ATOM     13  C   UNL A   1      37.862  31.238  30.593  1.00  0.00     0.031 A 
ATOM     14  C   UNL A   1      38.077  31.438  32.056  1.00  0.00     0.074 A 
ATOM     15  C   UNL A   1      38.567  30.341  29.875  1.00  0.00     0.049 A 
ATOM     16  N   UNL A   1      39.025  30.966  32.815  1.00  0.00    -0.248 NA
ATOM     17  C   UNL A   1      37.090  32.272  32.767  1.00  0.00     0.031 C 
ATOM     18  C   UNL A   1      38.327  30.014  28.463  1.00  0.00     0.029 A 
ATOM     19  N   UNL A   1      39.601  29.522  30.230  1.00  0.00    -0.354 N 
ATOM     20  C   UNL A   1      38.796  31.505  34.073  1.00  0.00     0.074 A 
ATOM     21  C   UNL A   1      37.597  32.309  33.990  1.00  0.00     0.031 C 
ATOM     22  C   UNL A   1      39.177  29.051  28.082  1.00  0.00     0.029 A 
ATOM     23  C   UNL A   1      40.078  28.763  29.186  1.00  0.00     0.049 A 
ATOM     24  H   UNL A   1      39.970  29.478  31.142  1.00  0.00     0.167 HD
ATOM     25  C   UNL A   1      39.541  31.344  35.188  1.00  0.00     0.034 A 
ATOM     26  C   UNL A   1      41.161  27.966  29.124  1.00  0.00     0.034 A 
ATOM     27  C   UNL A   1      40.712  30.513  35.229  1.00  0.00     0.049 A 
ATOM     28  C   UNL A   1      41.990  27.840  30.371  1.00  0.00     0.074 A 
ATOM     29  C   UNL A   1      41.578  30.292  36.280  1.00  0.00     0.029 A 
ATOM     30  N   UNL A   1      41.176  29.762  34.156  1.00  0.00    -0.354 N 
ATOM     31  N   UNL A   1      41.773  28.356  31.559  1.00  0.00    -0.248 NA
ATOM     32  C   UNL A   1      43.206  27.026  30.279  1.00  0.00     0.031 C 
ATOM     33  C   UNL A   1      42.583  29.427  35.834  1.00  0.00     0.029 A 
ATOM     34  C   UNL A   1      42.323  29.082  34.515  1.00  0.00     0.049 A 
ATOM     35  H   UNL A   1      40.750  29.721  33.268  1.00  0.00     0.167 HD
ATOM     36  C   UNL A   1      42.813  27.916  32.362  1.00  0.00     0.074 A 
ATOM     37  C   UNL A   1      43.643  27.063  31.531  1.00  0.00     0.031 C 
ATOM     38  C   UNL A   1      43.081  28.203  33.660  1.00  0.00     0.034 A 
BRANCH  25  39
ATOM     39  C   UNL A   1      39.139  32.119  36.409  1.00  0.00     0.023 A 
ATOM     40  C   UNL A   1      39.623  33.426  36.616  1.00  0.00     0.012 A 
ATOM     41  C   UNL A   1      38.275  31.541  37.360  1.00  0.00     0.148 A 
ATOM     42  C   UNL A   1      39.272  34.136  37.766  1.00  0.00     0.002 A 
ATOM     43  C   UNL A   1      37.898  32.268  38.482  1.00  0.00     0.091 A 
ATOM     44  F   UNL A   1      37.852  30.285  37.157  1.00  0.00    -0.205 F 
ATOM     45  C   UNL A   1      38.405  33.561  38.692  1.00  0.00     0.022 A 
BRANCH  43  46
ATOM     46  S   UNL A   1      36.746  31.637  39.707  1.00  0.00     0.127 S 
ATOM     47  O   UNL A   1      37.651  30.994  40.659  1.00  0.00    -0.237 OA
ATOM     48  O   UNL A   1      36.119  32.865  40.194  1.00  0.00    -0.237 OA
ATOM     49  O   UNL A   1      35.853  30.734  38.995  1.00  0.00    -0.744 OA
ENDBRANCH  43  46
ENDBRANCH  25  39
BRANCH  26  50
ATOM     50  C   UNL A   1      41.529  27.276  27.854  1.00  0.00     0.023 A 
ATOM     51  C   UNL A   1      41.998  28.024  26.758  1.00  0.00     0.012 A 
ATOM     52  C   UNL A   1      41.432  25.873  27.730  1.00  0.00     0.148 A 
ATOM     53  C   UNL A   1      42.328  27.396  25.555  1.00  0.00     0.002 A 
ATOM     54  C   UNL A   1      41.821  25.248  26.551  1.00  0.00     0.091 A 
ATOM     55  F   UNL A   1      40.962  25.171  28.771  1.00  0.00    -0.205 F 
ATOM     56  C   UNL A   1      42.251  26.008  25.455  1.00  0.00     0.022 A 
BRANCH  54  57
ATOM     57  S   UNL A   1      41.880  23.459  26.396  1.00  0.00     0.127 S 
ATOM     58  O   UNL A   1      42.653  23.289  25.169  1.00  0.00    -0.237 OA
ATOM     59  O   UNL A   1      42.575  23.064  27.622  1.00  0.00    -0.237 OA
ATOM     60  O   UNL A   1      40.487  23.030  26.339  1.00  0.00    -0.744 OA
ENDBRANCH  54  57
ENDBRANCH  26  50
BRANCH  38  61
ATOM     61  C   UNL A   1      44.297  27.560  34.260  1.00  0.00     0.023 A 
ATOM     62  C   UNL A   1      45.510  28.271  34.313  1.00  0.00     0.012 A 
ATOM     63  C   UNL A   1      44.205  26.284  34.846  1.00  0.00     0.148 A 
ATOM     64  C   UNL A   1      46.628  27.706  34.922  1.00  0.00     0.002 A 
ATOM     65  C   UNL A   1      45.306  25.752  35.498  1.00  0.00     0.091 A 
ATOM     66  F   UNL A   1      43.042  25.621  34.759  1.00  0.00    -0.205 F 
ATOM     67  C   UNL A   1      46.522  26.455  35.527  1.00  0.00     0.022 A 
BRANCH  65  68
ATOM     68  S   UNL A   1      45.226  24.200  36.397  1.00  0.00     0.127 S 
ATOM     69  O   UNL A   1      46.637  23.836  36.491  1.00  0.00    -0.237 OA
ATOM     70  O   UNL A   1      44.612  24.606  37.662  1.00  0.00    -0.237 OA
ATOM     71  O   UNL A   1      44.402  23.311  35.586  1.00  0.00    -0.744 OA
ENDBRANCH  65  68
ENDBRANCH  38  61
ENDBRANCH  12  13
ENDBRANCH   5   7
ENDBRANCH   4   5
ENDBRANCH   3   4
ENDBRANCH   2   3
ENDBRANCH   1   2
BRANCH   1  72
ATOM     72  C   UNL A   1      31.843  29.602  26.183  1.00  0.00     0.202 C 
BRANCH  72  73
ATOM     73  C   UNL A   1      32.883  29.552  25.063  1.00  0.00     0.261 C 
BRANCH  73  74
ATOM     74  O   UNL A   1      32.722  28.305  24.362  1.00  0.00    -0.461 OA
BRANCH  74  75
ATOM     75  C   UNL A   1      33.087  27.195  25.066  1.00  0.00     0.335 C 
ATOM     76  O   UNL A   1      34.097  27.099  25.755  1.00  0.00    -0.249 OA
BRANCH  75  77
ATOM     77  C   UNL A   1      32.042  26.081  24.934  1.00  0.00     0.228 C 
ATOM     78  C   UNL A   1      30.819  26.221  25.823  1.00  0.00     0.047 C 
ATOM     79  O   UNL A   1      32.559  24.777  25.256  1.00  0.00    -0.361 OA
ATOM     80  C   UNL A   1      30.241  24.828  25.778  1.00  0.00     0.037 C 
ATOM     81  C   UNL A   1      31.476  23.939  25.701  1.00  0.00     0.138 C 
BRANCH  81  82
ATOM     82  C   UNL A   1      31.811  23.232  27.036  1.00  0.00     0.145 C 
BRANCH  82  83
ATOM     83  N   UNL A   1      32.194  21.851  26.785  1.00  0.00    -0.378 N 
ATOM     84  H   UNL A   1      31.526  21.152  26.973  1.00  0.00     0.160 HD
BRANCH  83  85
ATOM     85  C   UNL A   1      33.428  21.445  26.300  1.00  0.00     0.113 A 
ATOM     86  C   UNL A   1      34.635  22.141  26.466  1.00  0.00     0.188 A 
ATOM     87  C   UNL A   1      33.474  20.269  25.529  1.00  0.00     0.188 A 
ATOM     88  F   UNL A   1      34.674  23.257  27.211  1.00  0.00    -0.201 F 
ATOM     89  C   UNL A   1      35.821  21.681  25.888  1.00  0.00     0.199 A 
ATOM     90  C   UNL A   1      34.648  19.818  24.938  1.00  0.00     0.199 A 
ATOM     91  F   UNL A   1      32.339  19.574  25.341  1.00  0.00    -0.201 F 
ATOM     92  F   UNL A   1      36.964  22.356  26.077  1.00  0.00    -0.200 F 
ATOM     93  C   UNL A   1      35.824  20.526  25.118  1.00  0.00     0.200 A 
ATOM     94  F   UNL A   1      34.635  18.707  24.190  1.00  0.00    -0.200 F 
ATOM     95  F   UNL A   1      36.958  20.093  24.551  1.00  0.00    -0.200 F 
ENDBRANCH  83  85
ENDBRANCH  82  83
ENDBRANCH  81  82
ENDBRANCH  75  77
ENDBRANCH  74  75
ENDBRANCH  73  74
ENDBRANCH  72  73
ENDBRANCH   1  72
TORSDOF 20
ENDMDL
MODEL 3
REMARK VINA RESULT:     -10.7      2.737      8.655
REMARK SMILES O=C(OCCOCCOC(=O)[C@@H]1CC[C@H](CNc2c(F)c(F)c(F)c(F)c2F)O1)c1ccc(-c2c3nc(c(-c4cccc(S(=O)(=O)[O-])c4F)c4ccc([nH]4)c(-c4cccc(S(=O)(=O)[O-])c4F)c4nc(c(-c5cccc(S(=O)(=O)[O-])c5F)c5ccc2[nH]5)C=C4)C=C3)cc1
REMARK SMILES IDX 6 1 5 2 4 3 3 4 2 5 1 6 30 7 31 8 92 9 32 10 91 11 33 12
REMARK SMILES IDX 34 13 35 14 85 15 36 16 90 17 84 18 86 19 37 20 89 21 83 22
REMARK SMILES IDX 82 23 38 25 70 26 50 27 69 28 51 29 54 30 68 31 87 32 52 33
REMARK SMILES IDX 53 34 67 36 88 37 55 38 39 39 40 40 48 41 41 42 43 43 49 44
REMARK SMILES IDX 42 45 44 46 45 47 46 48 47 49 71 50 72 51 80 52 73 53 75 54
REMARK SMILES IDX 81 55 74 56 76 57 77 58 78 59 79 60 56 61 57 62 65 63 58 64
REMARK SMILES IDX 60 65 66 66 59 67 61 68 62 69 63 70 64 71 7 72 8 73 9 74
REMARK SMILES IDX 10 75 11 76 12 77 13 78 29 79 14 80 15 81 16 82 17 83 18 85
REMARK SMILES IDX 19 86 27 87 20 88 21 89 25 90 28 91 22 92 23 93 26 94 24 95
REMARK H PARENT 86 24 54 35 17 84
REMARK Flexibility Score: inf
ROOT
ATOM      1  O   UNL A   1      35.269  22.034  24.022  1.00  0.00    -0.374 OA
ENDROOT
BRANCH   1   2
ATOM      2  C   UNL A   1      36.686  22.160  24.068  1.00  0.00     0.202 C 
BRANCH   2   3
ATOM      3  C   UNL A   1      37.441  21.026  24.768  1.00  0.00     0.261 C 
BRANCH   3   4
ATOM      4  O   UNL A   1      38.021  21.498  25.999  1.00  0.00    -0.460 OA
BRANCH   4   5
ATOM      5  C   UNL A   1      39.342  21.557  26.307  1.00  0.00     0.338 C 
ATOM      6  O   UNL A   1      40.030  20.545  26.220  1.00  0.00    -0.246 OA
BRANCH   5   7
ATOM      7  C   UNL A   1      39.982  22.834  26.721  1.00  0.00     0.060 A 
ATOM      8  C   UNL A   1      39.619  24.062  26.177  1.00  0.00     0.016 A 
ATOM      9  C   UNL A   1      40.940  22.817  27.739  1.00  0.00     0.016 A 
ATOM     10  C   UNL A   1      40.270  25.228  26.504  1.00  0.00     0.010 A 
ATOM     11  C   UNL A   1      41.534  24.012  28.161  1.00  0.00     0.010 A 
ATOM     12  C   UNL A   1      41.205  25.218  27.527  1.00  0.00    -0.014 A 
BRANCH  12  13
ATOM     13  C   UNL A   1      41.818  26.508  27.866  1.00  0.00     0.031 A 
ATOM     14  C   UNL A   1      41.021  27.498  28.648  1.00  0.00     0.074 A 
ATOM     15  C   UNL A   1      43.122  26.696  27.580  1.00  0.00     0.049 A 
ATOM     16  N   UNL A   1      41.347  28.706  29.012  1.00  0.00    -0.248 NA
ATOM     17  C   UNL A   1      39.682  27.072  29.094  1.00  0.00     0.031 C 
ATOM     18  C   UNL A   1      43.990  25.713  26.916  1.00  0.00     0.029 A 
ATOM     19  N   UNL A   1      43.953  27.751  27.830  1.00  0.00    -0.354 N 
ATOM     20  C   UNL A   1      40.230  29.213  29.659  1.00  0.00     0.074 A 
ATOM     21  C   UNL A   1      39.228  28.171  29.676  1.00  0.00     0.031 C 
ATOM     22  C   UNL A   1      45.233  26.207  26.832  1.00  0.00     0.029 A 
ATOM     23  C   UNL A   1      45.228  27.567  27.344  1.00  0.00     0.049 A 
ATOM     24  H   UNL A   1      43.669  28.562  28.310  1.00  0.00     0.167 HD
ATOM     25  C   UNL A   1      40.065  30.450  30.175  1.00  0.00     0.034 A 
ATOM     26  C   UNL A   1      46.256  28.432  27.276  1.00  0.00     0.034 A 
ATOM     27  C   UNL A   1      41.101  31.445  30.157  1.00  0.00     0.049 A 
ATOM     28  C   UNL A   1      46.028  29.812  27.825  1.00  0.00     0.074 A 
ATOM     29  C   UNL A   1      41.055  32.748  30.610  1.00  0.00     0.029 A 
ATOM     30  N   UNL A   1      42.379  31.236  29.653  1.00  0.00    -0.354 N 
ATOM     31  N   UNL A   1      44.966  30.291  28.431  1.00  0.00    -0.248 NA
ATOM     32  C   UNL A   1      47.128  30.772  27.686  1.00  0.00     0.031 C 
ATOM     33  C   UNL A   1      42.299  33.336  30.355  1.00  0.00     0.029 A 
ATOM     34  C   UNL A   1      43.131  32.388  29.774  1.00  0.00     0.049 A 
ATOM     35  H   UNL A   1      42.701  30.390  29.264  1.00  0.00     0.167 HD
ATOM     36  C   UNL A   1      45.274  31.600  28.765  1.00  0.00     0.074 A 
ATOM     37  C   UNL A   1      46.637  31.828  28.320  1.00  0.00     0.031 C 
ATOM     38  C   UNL A   1      44.503  32.542  29.361  1.00  0.00     0.034 A 
BRANCH  25  39
ATOM     39  C   UNL A   1      38.717  30.795  30.738  1.00  0.00     0.023 A 
ATOM     40  C   UNL A   1      38.365  30.393  32.042  1.00  0.00     0.012 A 
ATOM     41  C   UNL A   1      37.793  31.523  29.965  1.00  0.00     0.148 A 
ATOM     42  C   UNL A   1      37.102  30.688  32.556  1.00  0.00     0.002 A 
ATOM     43  C   UNL A   1      36.551  31.848  30.497  1.00  0.00     0.091 A 
ATOM     44  F   UNL A   1      38.138  31.868  28.716  1.00  0.00    -0.205 F 
ATOM     45  C   UNL A   1      36.200  31.421  31.789  1.00  0.00     0.022 A 
BRANCH  43  46
ATOM     46  S   UNL A   1      35.341  32.833  29.609  1.00  0.00     0.127 S 
ATOM     47  O   UNL A   1      35.371  32.213  28.284  1.00  0.00    -0.237 OA
ATOM     48  O   UNL A   1      34.121  32.577  30.374  1.00  0.00    -0.237 OA
ATOM     49  O   UNL A   1      35.820  34.207  29.661  1.00  0.00    -0.744 OA
ENDBRANCH  43  46
ENDBRANCH  25  39
BRANCH  26  50
ATOM     50  C   UNL A   1      47.548  28.034  26.647  1.00  0.00     0.023 A 
ATOM     51  C   UNL A   1      48.669  27.762  27.454  1.00  0.00     0.012 A 
ATOM     52  C   UNL A   1      47.672  27.907  25.247  1.00  0.00     0.148 A 
ATOM     53  C   UNL A   1      49.892  27.406  26.880  1.00  0.00     0.002 A 
ATOM     54  C   UNL A   1      48.873  27.493  24.686  1.00  0.00     0.091 A 
ATOM     55  F   UNL A   1      46.606  28.191  24.484  1.00  0.00    -0.205 F 
ATOM     56  C   UNL A   1      49.992  27.261  25.499  1.00  0.00     0.022 A 
BRANCH  54  57
ATOM     57  S   UNL A   1      49.038  27.150  22.929  1.00  0.00     0.127 S 
ATOM     58  O   UNL A   1      48.516  28.377  22.335  1.00  0.00    -0.237 OA
ATOM     59  O   UNL A   1      50.481  26.961  22.785  1.00  0.00    -0.237 OA
ATOM     60  O   UNL A   1      48.255  25.943  22.696  1.00  0.00    -0.744 OA
ENDBRANCH  54  57
ENDBRANCH  26  50
BRANCH  38  61
ATOM     61  C   UNL A   1      45.132  33.885  29.594  1.00  0.00     0.023 A 
ATOM     62  C   UNL A   1      45.861  34.121  30.774  1.00  0.00     0.012 A 
ATOM     63  C   UNL A   1      45.069  34.878  28.598  1.00  0.00     0.148 A 
ATOM     64  C   UNL A   1      46.498  35.343  30.973  1.00  0.00     0.002 A 
ATOM     65  C   UNL A   1      45.752  36.070  28.780  1.00  0.00     0.091 A 
ATOM     66  F   UNL A   1      44.348  34.633  27.494  1.00  0.00    -0.205 F 
ATOM     67  C   UNL A   1      46.456  36.310  29.971  1.00  0.00     0.022 A 
BRANCH  65  68
ATOM     68  S   UNL A   1      45.842  37.323  27.497  1.00  0.00     0.127 S 
ATOM     69  O   UNL A   1      46.655  38.352  28.141  1.00  0.00    -0.237 OA
ATOM     70  O   UNL A   1      46.511  36.605  26.411  1.00  0.00    -0.237 OA
ATOM     71  O   UNL A   1      44.464  37.701  27.209  1.00  0.00    -0.744 OA
ENDBRANCH  65  68
ENDBRANCH  38  61
ENDBRANCH  12  13
ENDBRANCH   5   7
ENDBRANCH   4   5
ENDBRANCH   3   4
ENDBRANCH   2   3
ENDBRANCH   1   2
BRANCH   1  72
ATOM     72  C   UNL A   1      34.708  20.942  24.754  1.00  0.00     0.202 C 
BRANCH  72  73
ATOM     73  C   UNL A   1      33.201  20.891  24.502  1.00  0.00     0.261 C 
BRANCH  73  74
ATOM     74  O   UNL A   1      32.534  21.305  25.709  1.00  0.00    -0.461 OA
BRANCH  74  75
ATOM     75  C   UNL A   1      32.291  22.644  25.804  1.00  0.00     0.335 C 
ATOM     76  O   UNL A   1      32.406  23.310  26.828  1.00  0.00    -0.249 OA
BRANCH  75  77
ATOM     77  C   UNL A   1      31.902  23.240  24.445  1.00  0.00     0.228 C 
ATOM     78  C   UNL A   1      32.854  24.286  23.892  1.00  0.00     0.047 C 
ATOM     79  O   UNL A   1      30.625  23.904  24.462  1.00  0.00    -0.361 OA
ATOM     80  C   UNL A   1      32.006  24.946  22.833  1.00  0.00     0.037 C 
ATOM     81  C   UNL A   1      30.605  24.908  23.431  1.00  0.00     0.138 C 
BRANCH  81  82
ATOM     82  C   UNL A   1      30.129  26.276  23.975  1.00  0.00     0.145 C 
BRANCH  82  83
ATOM     83  N   UNL A   1      31.186  27.265  23.825  1.00  0.00    -0.378 N 
ATOM     84  H   UNL A   1      31.703  27.256  22.987  1.00  0.00     0.160 HD
BRANCH  83  85
ATOM     85  C   UNL A   1      31.518  28.221  24.773  1.00  0.00     0.113 A 
ATOM     86  C   UNL A   1      31.058  29.546  24.788  1.00  0.00     0.188 A 
ATOM     87  C   UNL A   1      32.438  27.858  25.775  1.00  0.00     0.188 A 
ATOM     88  F   UNL A   1      30.159  29.958  23.880  1.00  0.00    -0.201 F 
ATOM     89  C   UNL A   1      31.496  30.454  25.754  1.00  0.00     0.199 A 
ATOM     90  C   UNL A   1      32.890  28.763  26.726  1.00  0.00     0.199 A 
ATOM     91  F   UNL A   1      32.909  26.599  25.793  1.00  0.00    -0.201 F 
ATOM     92  F   UNL A   1      31.026  31.710  25.756  1.00  0.00    -0.200 F 
ATOM     93  C   UNL A   1      32.418  30.064  26.715  1.00  0.00     0.200 A 
ATOM     94  F   UNL A   1      33.787  28.376  27.644  1.00  0.00    -0.200 F 
ATOM     95  F   UNL A   1      32.851  30.939  27.633  1.00  0.00    -0.200 F 
ENDBRANCH  83  85
ENDBRANCH  82  83
ENDBRANCH  81  82
ENDBRANCH  75  77
ENDBRANCH  74  75
ENDBRANCH  73  74
ENDBRANCH  72  73
ENDBRANCH   1  72
TORSDOF 20
ENDMDL
