MODEL 1
REMARK VINA RESULT:     -10.3      0.000      0.000
REMARK SMILES C/C(=C\CN1CC(=O)N2CCC[C@H]2C1=O)C(=O)OCCOCCOC(=O)c1ccc(-c2c3nc(c(-c4cccc(S(=O)(=O)[O-])c4F)c4ccc([nH]4)c(-c4cccc(S(=O)(=O)[O-])c4F)c4nc(c(-c5cccc(S(=O)(=O)[O-])c5F)c5ccc2[nH]5)C=C4)C=C3)cc1
REMARK SMILES IDX 22 1 21 2 20 3 19 4 18 5 16 6 17 7 2 8 1 9 3 10 4 11 5 12
REMARK SMILES IDX 6 13 14 14 7 15 13 16 15 17 8 18 9 19 12 20 10 21 11 22
REMARK SMILES IDX 23 23 24 24 25 25 26 26 27 27 28 28 89 29 29 30 88 31 30 32
REMARK SMILES IDX 31 33 32 34 82 35 33 36 87 37 81 38 83 39 34 40 86 41 80 42
REMARK SMILES IDX 79 43 35 45 67 46 47 47 66 48 48 49 51 50 65 51 84 52 49 53
REMARK SMILES IDX 50 54 64 56 85 57 52 58 36 59 37 60 45 61 38 62 40 63 46 64
REMARK SMILES IDX 39 65 41 66 42 67 43 68 44 69 68 70 69 71 77 72 70 73 72 74
REMARK SMILES IDX 78 75 71 76 73 77 74 78 75 79 76 80 53 81 54 82 62 83 55 84
REMARK SMILES IDX 57 85 63 86 56 87 58 88 59 89 60 90 61 91
REMARK H PARENT 83 44 51 55
REMARK Flexibility Score: inf
ROOT
ATOM      1  C   UNL A   1      33.184  33.580  27.910  1.00  0.00     0.202 C 
ENDROOT
BRANCH   1   2
ATOM      2  O   UNL A   1      34.412  34.271  28.134  1.00  0.00    -0.374 OA
BRANCH   2   3
ATOM      3  C   UNL A   1      34.327  35.660  28.457  1.00  0.00     0.202 C 
BRANCH   3   4
ATOM      4  C   UNL A   1      32.967  36.171  28.945  1.00  0.00     0.261 C 
BRANCH   4   5
ATOM      5  O   UNL A   1      32.693  35.738  30.288  1.00  0.00    -0.460 OA
BRANCH   5   6
ATOM      6  C   UNL A   1      33.102  36.590  31.261  1.00  0.00     0.333 C 
ATOM      7  O   UNL A   1      32.998  37.807  31.246  1.00  0.00    -0.247 OA
BRANCH   6   8
ATOM      8  C   UNL A   1      33.564  35.844  32.473  1.00  0.00     0.032 C 
ATOM      9  C   UNL A   1      33.918  36.754  33.612  1.00  0.00     0.052 C 
ATOM     10  C   UNL A   1      33.666  34.499  32.461  1.00  0.00     0.005 C 
BRANCH  10  11
ATOM     11  C   UNL A   1      34.307  33.636  33.507  1.00  0.00     0.148 C 
BRANCH  11  12
ATOM     12  N   UNL A   1      35.610  33.097  33.142  1.00  0.00    -0.328 N 
ATOM     13  C   UNL A   1      35.948  32.754  31.746  1.00  0.00     0.220 C 
ATOM     14  C   UNL A   1      36.633  33.140  34.102  1.00  0.00     0.246 C 
ATOM     15  C   UNL A   1      37.177  33.528  31.258  1.00  0.00     0.242 C 
ATOM     16  C   UNL A   1      38.046  32.995  33.515  1.00  0.00     0.174 C 
ATOM     17  O   UNL A   1      36.427  33.195  35.313  1.00  0.00    -0.272 OA
ATOM     18  O   UNL A   1      37.360  33.835  30.087  1.00  0.00    -0.273 OA
ATOM     19  N   UNL A   1      38.119  33.707  32.246  1.00  0.00    -0.329 N 
ATOM     20  C   UNL A   1      39.149  33.651  34.343  1.00  0.00     0.037 C 
ATOM     21  C   UNL A   1      39.328  34.490  32.104  1.00  0.00     0.120 C 
ATOM     22  C   UNL A   1      40.181  34.064  33.290  1.00  0.00     0.024 C 
ENDBRANCH  11  12
ENDBRANCH  10  11
ENDBRANCH   6   8
ENDBRANCH   5   6
ENDBRANCH   4   5
ENDBRANCH   3   4
ENDBRANCH   2   3
ENDBRANCH   1   2
BRANCH   1  23
ATOM     23  C   UNL A   1      33.279  32.120  27.452  1.00  0.00     0.261 C 
BRANCH  23  24
ATOM     24  O   UNL A   1      34.620  31.606  27.521  1.00  0.00    -0.460 OA
BRANCH  24  25
ATOM     25  C   UNL A   1      34.706  30.270  27.730  1.00  0.00     0.338 C 
ATOM     26  O   UNL A   1      33.894  29.417  27.392  1.00  0.00    -0.246 OA
BRANCH  25  27
ATOM     27  C   UNL A   1      36.032  29.931  28.276  1.00  0.00     0.060 A 
ATOM     28  C   UNL A   1      37.140  30.082  27.432  1.00  0.00     0.016 A 
ATOM     29  C   UNL A   1      36.190  29.437  29.572  1.00  0.00     0.016 A 
ATOM     30  C   UNL A   1      38.409  29.710  27.872  1.00  0.00     0.010 A 
ATOM     31  C   UNL A   1      37.463  29.057  30.009  1.00  0.00     0.010 A 
ATOM     32  C   UNL A   1      38.575  29.170  29.154  1.00  0.00    -0.014 A 
BRANCH  32  33
ATOM     33  C   UNL A   1      39.899  28.656  29.577  1.00  0.00     0.031 A 
ATOM     34  C   UNL A   1      40.663  29.370  30.657  1.00  0.00     0.074 A 
ATOM     35  C   UNL A   1      40.425  27.570  28.982  1.00  0.00     0.049 A 
ATOM     36  N   UNL A   1      41.852  29.114  31.137  1.00  0.00    -0.248 NA
ATOM     37  C   UNL A   1      40.000  30.529  31.279  1.00  0.00     0.031 C 
ATOM     38  C   UNL A   1      39.780  26.796  27.923  1.00  0.00     0.029 A 
ATOM     39  N   UNL A   1      41.637  26.951  29.164  1.00  0.00    -0.354 N 
ATOM     40  C   UNL A   1      42.095  30.091  32.094  1.00  0.00     0.074 A 
ATOM     41  C   UNL A   1      40.931  30.951  32.123  1.00  0.00     0.031 C 
ATOM     42  C   UNL A   1      40.618  25.824  27.523  1.00  0.00     0.029 A 
ATOM     43  C   UNL A   1      41.866  25.927  28.277  1.00  0.00     0.049 A 
ATOM     44  H   UNL A   1      42.279  27.216  29.861  1.00  0.00     0.167 HD
ATOM     45  C   UNL A   1      43.181  30.249  32.885  1.00  0.00     0.034 A 
ATOM     46  C   UNL A   1      42.968  25.178  28.074  1.00  0.00     0.034 A 
ATOM     47  C   UNL A   1      44.330  29.382  32.865  1.00  0.00     0.049 A 
ATOM     48  C   UNL A   1      44.181  25.403  28.938  1.00  0.00     0.074 A 
ATOM     49  C   UNL A   1      45.451  29.420  33.675  1.00  0.00     0.029 A 
ATOM     50  N   UNL A   1      44.518  28.338  31.973  1.00  0.00    -0.354 N 
ATOM     51  N   UNL A   1      44.341  26.239  29.936  1.00  0.00    -0.248 NA
ATOM     52  C   UNL A   1      45.358  24.564  28.665  1.00  0.00     0.031 C 
ATOM     53  C   UNL A   1      46.332  28.420  33.250  1.00  0.00     0.029 A 
ATOM     54  C   UNL A   1      45.748  27.741  32.192  1.00  0.00     0.049 A 
ATOM     55  H   UNL A   1      43.872  28.061  31.283  1.00  0.00     0.167 HD
ATOM     56  C   UNL A   1      45.625  26.013  30.421  1.00  0.00     0.074 A 
ATOM     57  C   UNL A   1      46.188  24.940  29.628  1.00  0.00     0.031 C 
ATOM     58  C   UNL A   1      46.285  26.649  31.422  1.00  0.00     0.034 A 
BRANCH  45  59
ATOM     59  C   UNL A   1      43.175  31.393  33.866  1.00  0.00     0.023 A 
ATOM     60  C   UNL A   1      43.761  32.623  33.506  1.00  0.00     0.012 A 
ATOM     61  C   UNL A   1      42.534  31.272  35.114  1.00  0.00     0.148 A 
ATOM     62  C   UNL A   1      43.736  33.706  34.384  1.00  0.00     0.002 A 
ATOM     63  C   UNL A   1      42.476  32.367  35.967  1.00  0.00     0.091 A 
ATOM     64  F   UNL A   1      42.001  30.088  35.447  1.00  0.00    -0.205 F 
ATOM     65  C   UNL A   1      43.086  33.581  35.608  1.00  0.00     0.022 A 
BRANCH  63  66
ATOM     66  S   UNL A   1      41.599  32.331  37.535  1.00  0.00     0.127 S 
ATOM     67  O   UNL A   1      42.367  31.334  38.279  1.00  0.00    -0.237 OA
ATOM     68  O   UNL A   1      41.763  33.706  38.011  1.00  0.00    -0.237 OA
ATOM     69  O   UNL A   1      40.228  31.957  37.220  1.00  0.00    -0.744 OA
ENDBRANCH  63  66
ENDBRANCH  45  59
BRANCH  46  70
ATOM     70  C   UNL A   1      42.969  24.132  27.012  1.00  0.00     0.023 A 
ATOM     71  C   UNL A   1      43.667  24.361  25.811  1.00  0.00     0.012 A 
ATOM     72  C   UNL A   1      42.302  22.904  27.196  1.00  0.00     0.148 A 
ATOM     73  C   UNL A   1      43.678  23.398  24.801  1.00  0.00     0.002 A 
ATOM     74  C   UNL A   1      42.366  21.927  26.211  1.00  0.00     0.091 A 
ATOM     75  F   UNL A   1      41.628  22.712  28.338  1.00  0.00    -0.205 F 
ATOM     76  C   UNL A   1      43.040  22.178  25.005  1.00  0.00     0.022 A 
BRANCH  74  77
ATOM     77  S   UNL A   1      41.687  20.280  26.440  1.00  0.00     0.127 S 
ATOM     78  O   UNL A   1      42.227  19.912  27.746  1.00  0.00    -0.237 OA
ATOM     79  O   UNL A   1      40.246  20.543  26.421  1.00  0.00    -0.237 OA
ATOM     80  O   UNL A   1      42.167  19.495  25.312  1.00  0.00    -0.744 OA
ENDBRANCH  74  77
ENDBRANCH  46  70
BRANCH  58  81
ATOM     81  C   UNL A   1      47.692  26.202  31.725  1.00  0.00     0.023 A 
ATOM     82  C   UNL A   1      48.764  26.721  30.972  1.00  0.00     0.012 A 
ATOM     83  C   UNL A   1      47.961  25.333  32.801  1.00  0.00     0.148 A 
ATOM     84  C   UNL A   1      50.079  26.359  31.264  1.00  0.00     0.002 A 
ATOM     85  C   UNL A   1      49.278  25.013  33.117  1.00  0.00     0.091 A 
ATOM     86  F   UNL A   1      46.928  24.839  33.498  1.00  0.00    -0.205 F 
ATOM     87  C   UNL A   1      50.336  25.516  32.342  1.00  0.00     0.022 A 
BRANCH  85  88
ATOM     88  S   UNL A   1      49.716  24.010  34.541  1.00  0.00     0.127 S 
ATOM     89  O   UNL A   1      49.131  22.717  34.185  1.00  0.00    -0.237 OA
ATOM     90  O   UNL A   1      51.178  24.047  34.508  1.00  0.00    -0.237 OA
ATOM     91  O   UNL A   1      49.119  24.665  35.697  1.00  0.00    -0.744 OA
ENDBRANCH  85  88
ENDBRANCH  58  81
ENDBRANCH  32  33
ENDBRANCH  25  27
ENDBRANCH  24  25
ENDBRANCH  23  24
ENDBRANCH   1  23
TORSDOF 19
ENDMDL
MODEL 2
REMARK VINA RESULT:     -10.2      5.510      9.804
REMARK SMILES C/C(=C\CN1CC(=O)N2CCC[C@H]2C1=O)C(=O)OCCOCCOC(=O)c1ccc(-c2c3nc(c(-c4cccc(S(=O)(=O)[O-])c4F)c4ccc([nH]4)c(-c4cccc(S(=O)(=O)[O-])c4F)c4nc(c(-c5cccc(S(=O)(=O)[O-])c5F)c5ccc2[nH]5)C=C4)C=C3)cc1
REMARK SMILES IDX 22 1 21 2 20 3 19 4 18 5 16 6 17 7 2 8 1 9 3 10 4 11 5 12
REMARK SMILES IDX 6 13 14 14 7 15 13 16 15 17 8 18 9 19 12 20 10 21 11 22
REMARK SMILES IDX 23 23 24 24 25 25 26 26 27 27 28 28 89 29 29 30 88 31 30 32
REMARK SMILES IDX 31 33 32 34 82 35 33 36 87 37 81 38 83 39 34 40 86 41 80 42
REMARK SMILES IDX 79 43 35 45 67 46 47 47 66 48 48 49 51 50 65 51 84 52 49 53
REMARK SMILES IDX 50 54 64 56 85 57 52 58 36 59 37 60 45 61 38 62 40 63 46 64
REMARK SMILES IDX 39 65 41 66 42 67 43 68 44 69 68 70 69 71 77 72 70 73 72 74
REMARK SMILES IDX 78 75 71 76 73 77 74 78 75 79 76 80 53 81 54 82 62 83 55 84
REMARK SMILES IDX 57 85 63 86 56 87 58 88 59 89 60 90 61 91
REMARK H PARENT 83 44 51 55
REMARK Flexibility Score: inf
ROOT
ATOM      1  C   UNL A   1      35.363  20.398  24.999  1.00  0.00     0.202 C 
ENDROOT
BRANCH   1   2
ATOM      2  O   UNL A   1      34.848  21.128  26.111  1.00  0.00    -0.374 OA
BRANCH   2   3
ATOM      3  C   UNL A   1      33.452  20.998  26.384  1.00  0.00     0.202 C 
BRANCH   3   4
ATOM      4  C   UNL A   1      32.490  21.591  25.347  1.00  0.00     0.261 C 
BRANCH   4   5
ATOM      5  O   UNL A   1      32.900  22.908  24.941  1.00  0.00    -0.460 OA
BRANCH   5   6
ATOM      6  C   UNL A   1      32.973  23.100  23.601  1.00  0.00     0.333 C 
ATOM      7  O   UNL A   1      32.947  22.229  22.744  1.00  0.00    -0.247 OA
BRANCH   6   8
ATOM      8  C   UNL A   1      32.923  24.556  23.259  1.00  0.00     0.032 C 
ATOM      9  C   UNL A   1      33.910  25.367  24.045  1.00  0.00     0.052 C 
ATOM     10  C   UNL A   1      32.035  25.026  22.360  1.00  0.00     0.005 C 
BRANCH  10  11
ATOM     11  C   UNL A   1      31.721  26.464  22.073  1.00  0.00     0.148 C 
BRANCH  11  12
ATOM     12  N   UNL A   1      31.129  27.196  23.184  1.00  0.00    -0.328 N 
ATOM     13  C   UNL A   1      30.125  26.581  24.076  1.00  0.00     0.220 C 
ATOM     14  C   UNL A   1      31.712  28.420  23.552  1.00  0.00     0.246 C 
ATOM     15  C   UNL A   1      30.586  26.596  25.537  1.00  0.00     0.242 C 
ATOM     16  C   UNL A   1      31.345  28.884  24.970  1.00  0.00     0.174 C 
ATOM     17  O   UNL A   1      32.380  29.112  22.785  1.00  0.00    -0.272 OA
ATOM     18  O   UNL A   1      30.247  25.755  26.360  1.00  0.00    -0.273 OA
ATOM     19  N   UNL A   1      31.294  27.731  25.860  1.00  0.00    -0.329 N 
ATOM     20  C   UNL A   1      32.385  29.786  25.632  1.00  0.00     0.037 C 
ATOM     21  C   UNL A   1      31.942  27.968  27.132  1.00  0.00     0.120 C 
ATOM     22  C   UNL A   1      32.234  29.462  27.121  1.00  0.00     0.024 C 
ENDBRANCH  11  12
ENDBRANCH  10  11
ENDBRANCH   6   8
ENDBRANCH   5   6
ENDBRANCH   4   5
ENDBRANCH   3   4
ENDBRANCH   2   3
ENDBRANCH   1   2
BRANCH   1  23
ATOM     23  C   UNL A   1      36.875  20.149  24.967  1.00  0.00     0.261 C 
BRANCH  23  24
ATOM     24  O   UNL A   1      37.631  21.286  25.418  1.00  0.00    -0.460 OA
BRANCH  24  25
ATOM     25  C   UNL A   1      38.837  20.989  25.957  1.00  0.00     0.338 C 
ATOM     26  O   UNL A   1      39.430  19.919  25.893  1.00  0.00    -0.246 OA
BRANCH  25  27
ATOM     27  C   UNL A   1      39.459  22.209  26.502  1.00  0.00     0.060 A 
ATOM     28  C   UNL A   1      38.933  23.442  26.097  1.00  0.00     0.016 A 
ATOM     29  C   UNL A   1      40.560  22.154  27.358  1.00  0.00     0.016 A 
ATOM     30  C   UNL A   1      39.526  24.629  26.524  1.00  0.00     0.010 A 
ATOM     31  C   UNL A   1      41.159  23.346  27.779  1.00  0.00     0.010 A 
ATOM     32  C   UNL A   1      40.659  24.589  27.347  1.00  0.00    -0.014 A 
BRANCH  32  33
ATOM     33  C   UNL A   1      41.366  25.843  27.698  1.00  0.00     0.031 A 
ATOM     34  C   UNL A   1      40.638  26.921  28.451  1.00  0.00     0.074 A 
ATOM     35  C   UNL A   1      42.646  26.024  27.326  1.00  0.00     0.049 A 
ATOM     36  N   UNL A   1      41.057  28.106  28.811  1.00  0.00    -0.248 NA
ATOM     37  C   UNL A   1      39.251  26.627  28.849  1.00  0.00     0.031 C 
ATOM     38  C   UNL A   1      43.455  25.053  26.593  1.00  0.00     0.029 A 
ATOM     39  N   UNL A   1      43.479  27.104  27.488  1.00  0.00    -0.354 N 
ATOM     40  C   UNL A   1      39.984  28.711  29.452  1.00  0.00     0.074 A 
ATOM     41  C   UNL A   1      38.889  27.765  29.426  1.00  0.00     0.031 C 
ATOM     42  C   UNL A   1      44.659  25.594  26.336  1.00  0.00     0.029 A 
ATOM     43  C   UNL A   1      44.693  26.957  26.862  1.00  0.00     0.049 A 
ATOM     44  H   UNL A   1      43.229  27.906  28.002  1.00  0.00     0.167 HD
ATOM     45  C   UNL A   1      39.919  29.938  30.021  1.00  0.00     0.034 A 
ATOM     46  C   UNL A   1      45.704  27.834  26.701  1.00  0.00     0.034 A 
ATOM     47  C   UNL A   1      41.015  30.870  30.059  1.00  0.00     0.049 A 
ATOM     48  C   UNL A   1      45.591  29.208  27.307  1.00  0.00     0.074 A 
ATOM     49  C   UNL A   1      41.070  32.109  30.673  1.00  0.00     0.029 A 
ATOM     50  N   UNL A   1      42.240  30.678  29.438  1.00  0.00    -0.354 N 
ATOM     51  N   UNL A   1      44.623  29.714  28.033  1.00  0.00    -0.248 NA
ATOM     52  C   UNL A   1      46.720  30.125  27.092  1.00  0.00     0.031 C 
ATOM     53  C   UNL A   1      42.315  32.681  30.393  1.00  0.00     0.029 A 
ATOM     54  C   UNL A   1      43.047  31.787  29.628  1.00  0.00     0.049 A 
ATOM     55  H   UNL A   1      42.498  29.872  28.935  1.00  0.00     0.167 HD
ATOM     56  C   UNL A   1      45.034  30.997  28.378  1.00  0.00     0.074 A 
ATOM     57  C   UNL A   1      46.353  31.179  27.807  1.00  0.00     0.031 C 
ATOM     58  C   UNL A   1      44.373  31.945  29.088  1.00  0.00     0.034 A 
BRANCH  45  59
ATOM     59  C   UNL A   1      38.624  30.340  30.677  1.00  0.00     0.023 A 
ATOM     60  C   UNL A   1      38.411  30.046  32.039  1.00  0.00     0.012 A 
ATOM     61  C   UNL A   1      37.647  31.062  29.965  1.00  0.00     0.148 A 
ATOM     62  C   UNL A   1      37.235  30.439  32.675  1.00  0.00     0.002 A 
ATOM     63  C   UNL A   1      36.495  31.486  30.616  1.00  0.00     0.091 A 
ATOM     64  F   UNL A   1      37.858  31.313  28.665  1.00  0.00    -0.205 F 
ATOM     65  C   UNL A   1      36.283  31.166  31.967  1.00  0.00     0.022 A 
BRANCH  63  66
ATOM     66  S   UNL A   1      35.241  32.492  29.812  1.00  0.00     0.127 S 
ATOM     67  O   UNL A   1      36.031  33.630  29.345  1.00  0.00    -0.237 OA
ATOM     68  O   UNL A   1      34.767  31.602  28.751  1.00  0.00    -0.237 OA
ATOM     69  O   UNL A   1      34.253  32.796  30.837  1.00  0.00    -0.744 OA
ENDBRANCH  63  66
ENDBRANCH  45  59
BRANCH  46  70
ATOM     70  C   UNL A   1      46.923  27.430  25.944  1.00  0.00     0.023 A 
ATOM     71  C   UNL A   1      47.025  27.739  24.574  1.00  0.00     0.012 A 
ATOM     72  C   UNL A   1      47.989  26.763  26.579  1.00  0.00     0.148 A 
ATOM     73  C   UNL A   1      48.154  27.367  23.844  1.00  0.00     0.002 A 
ATOM     74  C   UNL A   1      49.135  26.447  25.860  1.00  0.00     0.091 A 
ATOM     75  F   UNL A   1      47.866  26.460  27.879  1.00  0.00    -0.205 F 
ATOM     76  C   UNL A   1      49.214  26.733  24.487  1.00  0.00     0.022 A 
BRANCH  74  77
ATOM     77  S   UNL A   1      50.599  25.750  26.634  1.00  0.00     0.127 S 
ATOM     78  O   UNL A   1      51.504  25.613  25.496  1.00  0.00    -0.237 OA
ATOM     79  O   UNL A   1      50.963  26.799  27.588  1.00  0.00    -0.237 OA
ATOM     80  O   UNL A   1      50.163  24.505  27.250  1.00  0.00    -0.744 OA
ENDBRANCH  74  77
ENDBRANCH  46  70
BRANCH  58  81
ATOM     81  C   UNL A   1      45.061  33.270  29.296  1.00  0.00     0.023 A 
ATOM     82  C   UNL A   1      45.912  33.444  30.406  1.00  0.00     0.012 A 
ATOM     83  C   UNL A   1      44.930  34.312  28.357  1.00  0.00     0.148 A 
ATOM     84  C   UNL A   1      46.596  34.645  30.595  1.00  0.00     0.002 A 
ATOM     85  C   UNL A   1      45.652  35.488  28.526  1.00  0.00     0.091 A 
ATOM     86  F   UNL A   1      44.106  34.133  27.314  1.00  0.00    -0.205 F 
ATOM     87  C   UNL A   1      46.476  35.660  29.651  1.00  0.00     0.022 A 
BRANCH  85  88
ATOM     88  S   UNL A   1      45.635  36.818  27.317  1.00  0.00     0.127 S 
ATOM     89  O   UNL A   1      46.348  37.877  28.030  1.00  0.00    -0.237 OA
ATOM     90  O   UNL A   1      46.374  36.229  26.200  1.00  0.00    -0.237 OA
ATOM     91  O   UNL A   1      44.232  37.092  27.038  1.00  0.00    -0.744 OA
ENDBRANCH  85  88
ENDBRANCH  58  81
ENDBRANCH  32  33
ENDBRANCH  25  27
ENDBRANCH  24  25
ENDBRANCH  23  24
ENDBRANCH   1  23
TORSDOF 19
ENDMDL
MODEL 3
REMARK VINA RESULT:     -10.1      5.533      9.733
REMARK SMILES C/C(=C\CN1CC(=O)N2CCC[C@H]2C1=O)C(=O)OCCOCCOC(=O)c1ccc(-c2c3nc(c(-c4cccc(S(=O)(=O)[O-])c4F)c4ccc([nH]4)c(-c4cccc(S(=O)(=O)[O-])c4F)c4nc(c(-c5cccc(S(=O)(=O)[O-])c5F)c5ccc2[nH]5)C=C4)C=C3)cc1
REMARK SMILES IDX 22 1 21 2 20 3 19 4 18 5 16 6 17 7 2 8 1 9 3 10 4 11 5 12
REMARK SMILES IDX 6 13 14 14 7 15 13 16 15 17 8 18 9 19 12 20 10 21 11 22
REMARK SMILES IDX 23 23 24 24 25 25 26 26 27 27 28 28 89 29 29 30 88 31 30 32
REMARK SMILES IDX 31 33 32 34 82 35 33 36 87 37 81 38 83 39 34 40 86 41 80 42
REMARK SMILES IDX 79 43 35 45 67 46 47 47 66 48 48 49 51 50 65 51 84 52 49 53
REMARK SMILES IDX 50 54 64 56 85 57 52 58 36 59 37 60 45 61 38 62 40 63 46 64
REMARK SMILES IDX 39 65 41 66 42 67 43 68 44 69 68 70 69 71 77 72 70 73 72 74
REMARK SMILES IDX 78 75 71 76 73 77 74 78 75 79 76 80 53 81 54 82 62 83 55 84
REMARK SMILES IDX 57 85 63 86 56 87 58 88 59 89 60 90 61 91
REMARK H PARENT 83 44 51 55
REMARK Flexibility Score: inf
ROOT
ATOM      1  C   UNL A   1      35.665  20.686  24.964  1.00  0.00     0.202 C 
ENDROOT
BRANCH   1   2
ATOM      2  O   UNL A   1      35.143  21.886  25.529  1.00  0.00    -0.374 OA
BRANCH   2   3
ATOM      3  C   UNL A   1      34.094  21.751  26.490  1.00  0.00     0.202 C 
BRANCH   3   4
ATOM      4  C   UNL A   1      32.660  21.883  25.965  1.00  0.00     0.261 C 
BRANCH   4   5
ATOM      5  O   UNL A   1      32.431  23.177  25.381  1.00  0.00    -0.460 OA
BRANCH   5   6
ATOM      6  C   UNL A   1      32.062  24.146  26.256  1.00  0.00     0.333 C 
ATOM      7  O   UNL A   1      31.441  23.982  27.295  1.00  0.00    -0.247 OA
BRANCH   6   8
ATOM      8  C   UNL A   1      32.659  25.467  25.883  1.00  0.00     0.032 C 
ATOM      9  C   UNL A   1      34.018  25.333  25.262  1.00  0.00     0.052 C 
ATOM     10  C   UNL A   1      32.006  26.618  26.141  1.00  0.00     0.005 C 
BRANCH  10  11
ATOM     11  C   UNL A   1      32.555  28.009  26.025  1.00  0.00     0.148 C 
BRANCH  11  12
ATOM     12  N   UNL A   1      32.097  28.754  24.861  1.00  0.00    -0.328 N 
ATOM     13  C   UNL A   1      32.197  28.203  23.494  1.00  0.00     0.220 C 
ATOM     14  C   UNL A   1      31.325  29.907  25.078  1.00  0.00     0.246 C 
ATOM     15  C   UNL A   1      30.826  28.127  22.816  1.00  0.00     0.242 C 
ATOM     16  C   UNL A   1      30.514  30.355  23.852  1.00  0.00     0.174 C 
ATOM     17  O   UNL A   1      31.359  30.561  26.119  1.00  0.00    -0.272 OA
ATOM     18  O   UNL A   1      30.538  27.294  21.966  1.00  0.00    -0.273 OA
ATOM     19  N   UNL A   1      30.008  29.183  23.151  1.00  0.00    -0.329 N 
ATOM     20  C   UNL A   1      29.244  31.137  24.181  1.00  0.00     0.037 C 
ATOM     21  C   UNL A   1      28.625  29.317  22.747  1.00  0.00     0.120 C 
ATOM     22  C   UNL A   1      28.302  30.778  23.028  1.00  0.00     0.024 C 
ENDBRANCH  11  12
ENDBRANCH  10  11
ENDBRANCH   6   8
ENDBRANCH   5   6
ENDBRANCH   4   5
ENDBRANCH   3   4
ENDBRANCH   2   3
ENDBRANCH   1   2
BRANCH   1  23
ATOM     23  C   UNL A   1      37.181  20.472  25.058  1.00  0.00     0.261 C 
BRANCH  23  24
ATOM     24  O   UNL A   1      37.873  21.634  25.544  1.00  0.00    -0.460 OA
BRANCH  24  25
ATOM     25  C   UNL A   1      39.085  21.385  26.096  1.00  0.00     0.338 C 
ATOM     26  O   UNL A   1      39.731  20.347  26.017  1.00  0.00    -0.246 OA
BRANCH  25  27
ATOM     27  C   UNL A   1      39.636  22.621  26.678  1.00  0.00     0.060 A 
ATOM     28  C   UNL A   1      39.140  23.841  26.202  1.00  0.00     0.016 A 
ATOM     29  C   UNL A   1      40.648  22.594  27.640  1.00  0.00     0.016 A 
ATOM     30  C   UNL A   1      39.674  25.042  26.665  1.00  0.00     0.010 A 
ATOM     31  C   UNL A   1      41.188  23.800  28.098  1.00  0.00     0.010 A 
ATOM     32  C   UNL A   1      40.721  25.029  27.597  1.00  0.00    -0.014 A 
BRANCH  32  33
ATOM     33  C   UNL A   1      41.376  26.297  27.994  1.00  0.00     0.031 A 
ATOM     34  C   UNL A   1      40.574  27.363  28.687  1.00  0.00     0.074 A 
ATOM     35  C   UNL A   1      42.676  26.503  27.717  1.00  0.00     0.049 A 
ATOM     36  N   UNL A   1      40.943  28.556  29.073  1.00  0.00    -0.248 NA
ATOM     37  C   UNL A   1      39.167  27.043  28.984  1.00  0.00     0.031 C 
ATOM     38  C   UNL A   1      43.556  25.545  27.048  1.00  0.00     0.029 A 
ATOM     39  N   UNL A   1      43.474  27.599  27.935  1.00  0.00    -0.354 N 
ATOM     40  C   UNL A   1      39.814  29.143  29.631  1.00  0.00     0.074 A 
ATOM     41  C   UNL A   1      38.742  28.175  29.528  1.00  0.00     0.031 C 
ATOM     42  C   UNL A   1      44.764  26.109  26.879  1.00  0.00     0.029 A 
ATOM     43  C   UNL A   1      44.733  27.474  27.400  1.00  0.00     0.049 A 
ATOM     44  H   UNL A   1      43.172  28.397  28.426  1.00  0.00     0.167 HD
ATOM     45  C   UNL A   1      39.684  30.369  30.190  1.00  0.00     0.034 A 
ATOM     46  C   UNL A   1      45.736  28.370  27.311  1.00  0.00     0.034 A 
ATOM     47  C   UNL A   1      40.756  31.322  30.304  1.00  0.00     0.049 A 
ATOM     48  C   UNL A   1      45.553  29.743  27.902  1.00  0.00     0.074 A 
ATOM     49  C   UNL A   1      40.742  32.563  30.916  1.00  0.00     0.029 A 
ATOM     50  N   UNL A   1      42.027  31.153  29.776  1.00  0.00    -0.354 N 
ATOM     51  N   UNL A   1      44.525  30.231  28.553  1.00  0.00    -0.248 NA
ATOM     52  C   UNL A   1      46.678  30.681  27.767  1.00  0.00     0.031 C 
ATOM     53  C   UNL A   1      41.993  33.159  30.727  1.00  0.00     0.029 A 
ATOM     54  C   UNL A   1      42.797  32.278  30.021  1.00  0.00     0.049 A 
ATOM     55  H   UNL A   1      42.336  30.351  29.296  1.00  0.00     0.167 HD
ATOM     56  C   UNL A   1      44.885  31.523  28.923  1.00  0.00     0.074 A 
ATOM     57  C   UNL A   1      46.239  31.730  28.449  1.00  0.00     0.031 C 
ATOM     58  C   UNL A   1      44.155  32.460  29.578  1.00  0.00     0.034 A 
BRANCH  45  59
ATOM     59  C   UNL A   1      38.337  30.747  30.747  1.00  0.00     0.023 A 
ATOM     60  C   UNL A   1      37.997  30.374  32.064  1.00  0.00     0.012 A 
ATOM     61  C   UNL A   1      37.435  31.523  29.994  1.00  0.00     0.148 A 
ATOM     62  C   UNL A   1      36.770  30.743  32.611  1.00  0.00     0.002 A 
ATOM     63  C   UNL A   1      36.231  31.922  30.561  1.00  0.00     0.091 A 
ATOM     64  F   UNL A   1      37.767  31.849  28.736  1.00  0.00    -0.205 F 
ATOM     65  C   UNL A   1      35.892  31.524  31.865  1.00  0.00     0.022 A 
BRANCH  63  66
ATOM     66  S   UNL A   1      35.064  32.991  29.709  1.00  0.00     0.127 S 
ATOM     67  O   UNL A   1      35.936  34.068  29.244  1.00  0.00    -0.237 OA
ATOM     68  O   UNL A   1      34.561  32.114  28.650  1.00  0.00    -0.237 OA
ATOM     69  O   UNL A   1      34.071  33.374  30.703  1.00  0.00    -0.744 OA
ENDBRANCH  63  66
ENDBRANCH  45  59
BRANCH  46  70
ATOM     70  C   UNL A   1      47.015  27.988  26.647  1.00  0.00     0.023 A 
ATOM     71  C   UNL A   1      48.114  27.589  27.431  1.00  0.00     0.012 A 
ATOM     72  C   UNL A   1      47.141  27.998  25.244  1.00  0.00     0.148 A 
ATOM     73  C   UNL A   1      49.323  27.232  26.833  1.00  0.00     0.002 A 
ATOM     74  C   UNL A   1      48.329  27.586  24.651  1.00  0.00     0.091 A 
ATOM     75  F   UNL A   1      46.091  28.399  24.514  1.00  0.00    -0.205 F 
ATOM     76  C   UNL A   1      49.427  27.218  25.445  1.00  0.00     0.022 A 
BRANCH  74  77
ATOM     77  S   UNL A   1      48.510  27.410  22.873  1.00  0.00     0.127 S 
ATOM     78  O   UNL A   1      49.888  27.846  22.668  1.00  0.00    -0.237 OA
ATOM     79  O   UNL A   1      48.283  25.976  22.687  1.00  0.00    -0.237 OA
ATOM     80  O   UNL A   1      47.483  28.260  22.287  1.00  0.00    -0.744 OA
ENDBRANCH  74  77
ENDBRANCH  46  70
BRANCH  58  81
ATOM     81  C   UNL A   1      44.801  33.798  29.832  1.00  0.00     0.023 A 
ATOM     82  C   UNL A   1      45.552  33.996  31.007  1.00  0.00     0.012 A 
ATOM     83  C   UNL A   1      44.731  34.831  28.875  1.00  0.00     0.148 A 
ATOM     84  C   UNL A   1      46.198  35.210  31.243  1.00  0.00     0.002 A 
ATOM     85  C   UNL A   1      45.417  36.021  29.094  1.00  0.00     0.091 A 
ATOM     86  F   UNL A   1      44.001  34.629  27.769  1.00  0.00    -0.205 F 
ATOM     87  C   UNL A   1      46.140  36.216  30.283  1.00  0.00     0.022 A 
BRANCH  85  88
ATOM     88  S   UNL A   1      45.478  37.340  27.877  1.00  0.00     0.127 S 
ATOM     89  O   UNL A   1      46.097  36.665  26.736  1.00  0.00    -0.237 OA
ATOM     90  O   UNL A   1      44.062  37.663  27.699  1.00  0.00    -0.237 OA
ATOM     91  O   UNL A   1      46.272  38.406  28.473  1.00  0.00    -0.744 OA
ENDBRANCH  85  88
ENDBRANCH  58  81
ENDBRANCH  32  33
ENDBRANCH  25  27
ENDBRANCH  24  25
ENDBRANCH  23  24
ENDBRANCH   1  23
TORSDOF 19
ENDMDL
