MODEL 1
REMARK VINA RESULT:     -11.8      0.000      0.000
REMARK SMILES Cc1c(CC(=O)OCCOCCOC(=O)c2ccc(-c3c4nc(c(-c5cccc(S(=O)(=O)[O-])c5F)c5ccc([nH]5)c(-c5cccc(S(=O)(=O)[O-])c5F)c5nc(c(-c6cccc(S(=O)(=O)[O-])c6F)c6ccc3[nH]6)C=C5)C=C4)cc2)cc(-c2ccc(S(C)(=O)=O)cc2)n1-c1ccccc1
REMARK SMILES IDX 10 1 9 2 8 3 7 4 5 5 6 6 4 7 3 8 1 9 2 10 91 11 79 12 80 13
REMARK SMILES IDX 92 14 93 15 97 16 94 17 96 18 95 19 81 20 82 21 90 22 83 23
REMARK SMILES IDX 89 24 84 25 85 26 86 27 87 28 88 29 11 30 12 31 13 32 14 33
REMARK SMILES IDX 15 34 16 35 17 36 78 37 18 38 77 39 19 40 20 41 21 42 71 43
REMARK SMILES IDX 22 44 76 45 70 46 72 47 23 48 75 49 69 50 68 51 24 53 56 54
REMARK SMILES IDX 36 55 55 56 37 57 40 58 54 59 73 60 38 61 39 62 53 64 74 65
REMARK SMILES IDX 41 66 25 67 26 68 34 69 27 70 29 71 35 72 28 73 30 74 31 75
REMARK SMILES IDX 32 76 33 77 57 78 58 79 66 80 59 81 61 82 67 83 60 84 62 85
REMARK SMILES IDX 63 86 64 87 65 88 42 89 43 90 51 91 44 92 46 93 52 94 45 95
REMARK SMILES IDX 47 96 48 97 49 98 50 99
REMARK H PARENT 72 52 40 63
REMARK Flexibility Score: inf
ROOT
ATOM      1  O   UNL A   1      31.980  30.231  26.729  1.00  0.00    -0.374 OA
ENDROOT
BRANCH   1   2
ATOM      2  C   UNL A   1      31.249  30.293  25.516  1.00  0.00     0.202 C 
BRANCH   2   3
ATOM      3  C   UNL A   1      31.560  29.172  24.512  1.00  0.00     0.261 C 
BRANCH   3   4
ATOM      4  O   UNL A   1      30.534  28.155  24.454  1.00  0.00    -0.463 OA
BRANCH   4   5
ATOM      5  C   UNL A   1      30.295  27.613  23.228  1.00  0.00     0.310 C 
ATOM      6  O   UNL A   1      30.237  28.268  22.188  1.00  0.00    -0.252 OA
BRANCH   5   7
ATOM      7  C   UNL A   1      30.002  26.122  23.221  1.00  0.00     0.160 C 
BRANCH   7   8
ATOM      8  C   UNL A   1      31.099  25.136  23.545  1.00  0.00    -0.015 A 
ATOM      9  C   UNL A   1      33.293  26.449  22.986  1.00  0.00     0.065 C 
ATOM     10  C   UNL A   1      32.487  25.283  23.456  1.00  0.00     0.024 A 
ATOM     11  N   UNL A   1      33.089  24.073  23.817  1.00  0.00    -0.314 N 
ATOM     12  C   UNL A   1      30.877  23.759  23.817  1.00  0.00     0.033 A 
ATOM     13  C   UNL A   1      32.097  23.110  23.884  1.00  0.00     0.053 A 
BRANCH  11  14
ATOM     14  C   UNL A   1      34.480  23.856  24.046  1.00  0.00     0.046 A 
ATOM     15  C   UNL A   1      35.305  23.277  23.091  1.00  0.00     0.026 A 
ATOM     16  C   UNL A   1      35.002  24.120  25.311  1.00  0.00     0.026 A 
ATOM     17  C   UNL A   1      36.661  23.070  23.395  1.00  0.00     0.002 A 
ATOM     18  C   UNL A   1      36.353  23.967  25.606  1.00  0.00     0.002 A 
ATOM     19  C   UNL A   1      37.190  23.444  24.636  1.00  0.00     0.000 A 
ENDBRANCH  11  14
BRANCH  13  20
ATOM     20  C   UNL A   1      32.342  21.682  24.026  1.00  0.00    -0.001 A 
ATOM     21  C   UNL A   1      32.277  20.835  22.917  1.00  0.00     0.011 A 
ATOM     22  C   UNL A   1      32.648  21.154  25.285  1.00  0.00     0.011 A 
ATOM     23  C   UNL A   1      32.502  19.468  23.055  1.00  0.00     0.021 A 
ATOM     24  C   UNL A   1      32.866  19.784  25.435  1.00  0.00     0.021 A 
ATOM     25  C   UNL A   1      32.786  18.949  24.317  1.00  0.00     0.067 A 
BRANCH  25  26
ATOM     26  S   UNL A   1      33.084  17.211  24.500  1.00  0.00     0.175 S 
ATOM     27  C   UNL A   1      34.841  17.079  24.710  1.00  0.00     0.163 C 
ATOM     28  O   UNL A   1      32.427  16.808  25.739  1.00  0.00    -0.224 OA
ATOM     29  O   UNL A   1      32.746  16.580  23.245  1.00  0.00    -0.224 OA
ENDBRANCH  25  26
ENDBRANCH  13  20
ENDBRANCH   7   8
ENDBRANCH   5   7
ENDBRANCH   4   5
ENDBRANCH   3   4
ENDBRANCH   2   3
ENDBRANCH   1   2
BRANCH   1  30
ATOM     30  C   UNL A   1      33.384  30.010  26.573  1.00  0.00     0.202 C 
BRANCH  30  31
ATOM     31  C   UNL A   1      34.365  30.870  27.434  1.00  0.00     0.261 C 
BRANCH  31  32
ATOM     32  O   UNL A   1      33.929  32.126  28.157  1.00  0.00    -0.460 OA
BRANCH  32  33
ATOM     33  C   UNL A   1      34.789  32.590  29.174  1.00  0.00     0.338 C 
ATOM     34  O   UNL A   1      34.556  33.667  29.717  1.00  0.00    -0.246 OA
BRANCH  33  35
ATOM     35  C   UNL A   1      36.061  31.760  29.651  1.00  0.00     0.060 A 
ATOM     36  C   UNL A   1      37.301  31.891  29.022  1.00  0.00     0.016 A 
ATOM     37  C   UNL A   1      36.009  30.570  30.430  1.00  0.00     0.016 A 
ATOM     38  C   UNL A   1      38.424  30.951  29.243  1.00  0.00     0.010 A 
ATOM     39  C   UNL A   1      37.146  29.586  30.619  1.00  0.00     0.010 A 
ATOM     40  C   UNL A   1      38.428  29.734  30.045  1.00  0.00    -0.014 A 
BRANCH  40  41
ATOM     41  C   UNL A   1      39.602  28.537  29.675  1.00  0.00     0.031 A 
ATOM     42  C   UNL A   1      40.404  28.623  30.926  1.00  0.00     0.074 A 
ATOM     43  C   UNL A   1      40.223  27.688  28.702  1.00  0.00     0.049 A 
ATOM     44  N   UNL A   1      40.853  29.795  31.286  1.00  0.00    -0.248 NA
ATOM     45  C   UNL A   1      40.394  27.632  31.999  1.00  0.00     0.031 C 
ATOM     46  C   UNL A   1      40.009  27.648  27.236  1.00  0.00     0.029 A 
ATOM     47  N   UNL A   1      41.243  26.624  28.766  1.00  0.00    -0.354 N 
ATOM     48  C   UNL A   1      41.547  29.598  32.438  1.00  0.00     0.074 A 
ATOM     49  C   UNL A   1      40.976  28.360  32.962  1.00  0.00     0.031 C 
ATOM     50  C   UNL A   1      40.651  26.603  26.618  1.00  0.00     0.029 A 
ATOM     51  C   UNL A   1      41.441  25.798  27.556  1.00  0.00     0.049 A 
ATOM     52  H   UNL A   1      41.772  26.471  29.582  1.00  0.00     0.167 HD
ATOM     53  C   UNL A   1      42.857  29.968  32.355  1.00  0.00     0.034 A 
ATOM     54  C   UNL A   1      42.237  24.655  27.278  1.00  0.00     0.034 A 
ATOM     55  C   UNL A   1      43.730  28.836  32.237  1.00  0.00     0.049 A 
ATOM     56  C   UNL A   1      43.399  24.812  28.155  1.00  0.00     0.074 A 
ATOM     57  C   UNL A   1      43.730  27.584  32.829  1.00  0.00     0.029 A 
ATOM     58  N   UNL A   1      44.459  28.723  31.077  1.00  0.00    -0.354 N 
ATOM     59  N   UNL A   1      44.380  25.604  27.838  1.00  0.00    -0.248 NA
ATOM     60  C   UNL A   1      43.601  23.983  29.336  1.00  0.00     0.031 C 
ATOM     61  C   UNL A   1      43.967  26.688  31.769  1.00  0.00     0.029 A 
ATOM     62  C   UNL A   1      44.587  27.386  30.748  1.00  0.00     0.049 A 
ATOM     63  H   UNL A   1      44.832  29.474  30.561  1.00  0.00     0.167 HD
ATOM     64  C   UNL A   1      45.007  25.774  29.034  1.00  0.00     0.074 A 
ATOM     65  C   UNL A   1      44.681  24.596  29.820  1.00  0.00     0.031 C 
ATOM     66  C   UNL A   1      45.103  27.055  29.449  1.00  0.00     0.034 A 
BRANCH  53  67
ATOM     67  C   UNL A   1      43.086  31.330  31.721  1.00  0.00     0.023 A 
ATOM     68  C   UNL A   1      43.314  31.346  30.337  1.00  0.00     0.012 A 
ATOM     69  C   UNL A   1      43.270  32.537  32.451  1.00  0.00     0.148 A 
ATOM     70  C   UNL A   1      43.771  32.506  29.703  1.00  0.00     0.002 A 
ATOM     71  C   UNL A   1      43.826  33.654  31.835  1.00  0.00     0.091 A 
ATOM     72  F   UNL A   1      42.894  32.588  33.740  1.00  0.00    -0.205 F 
ATOM     73  C   UNL A   1      44.065  33.643  30.455  1.00  0.00     0.022 A 
BRANCH  71  74
ATOM     74  S   UNL A   1      44.452  35.068  32.770  1.00  0.00     0.127 S 
ATOM     75  O   UNL A   1      45.200  35.816  31.754  1.00  0.00    -0.237 OA
ATOM     76  O   UNL A   1      43.232  35.728  33.222  1.00  0.00    -0.237 OA
ATOM     77  O   UNL A   1      45.301  34.526  33.825  1.00  0.00    -0.744 OA
ENDBRANCH  71  74
ENDBRANCH  53  67
BRANCH  54  78
ATOM     78  C   UNL A   1      42.635  23.417  26.299  1.00  0.00     0.023 A 
ATOM     79  C   UNL A   1      43.869  23.487  25.534  1.00  0.00     0.012 A 
ATOM     80  C   UNL A   1      42.166  22.088  26.460  1.00  0.00     0.148 A 
ATOM     81  C   UNL A   1      44.619  22.371  25.085  1.00  0.00     0.002 A 
ATOM     82  C   UNL A   1      42.913  20.962  25.979  1.00  0.00     0.091 A 
ATOM     83  F   UNL A   1      41.041  21.902  27.160  1.00  0.00    -0.205 F 
ATOM     84  C   UNL A   1      44.146  21.101  25.323  1.00  0.00     0.022 A 
BRANCH  82  85
ATOM     85  S   UNL A   1      42.431  19.232  26.245  1.00  0.00     0.127 S 
ATOM     86  O   UNL A   1      43.565  18.491  25.687  1.00  0.00    -0.237 OA
ATOM     87  O   UNL A   1      42.332  19.166  27.702  1.00  0.00    -0.237 OA
ATOM     88  O   UNL A   1      41.183  19.063  25.516  1.00  0.00    -0.744 OA
ENDBRANCH  82  85
ENDBRANCH  54  78
BRANCH  66  89
ATOM     89  C   UNL A   1      45.590  28.083  28.470  1.00  0.00     0.023 A 
ATOM     90  C   UNL A   1      44.785  28.905  27.658  1.00  0.00     0.012 A 
ATOM     91  C   UNL A   1      46.982  28.250  28.425  1.00  0.00     0.148 A 
ATOM     92  C   UNL A   1      45.365  29.883  26.839  1.00  0.00     0.002 A 
ATOM     93  C   UNL A   1      47.550  29.256  27.663  1.00  0.00     0.091 A 
ATOM     94  F   UNL A   1      47.734  27.412  29.155  1.00  0.00    -0.205 F 
ATOM     95  C   UNL A   1      46.747  30.076  26.862  1.00  0.00     0.022 A 
BRANCH  93  96
ATOM     96  S   UNL A   1      49.311  29.567  27.761  1.00  0.00     0.127 S 
ATOM     97  O   UNL A   1      49.867  28.243  27.485  1.00  0.00    -0.237 OA
ATOM     98  O   UNL A   1      49.528  30.558  26.711  1.00  0.00    -0.237 OA
ATOM     99  O   UNL A   1      49.544  30.070  29.112  1.00  0.00    -0.744 OA
ENDBRANCH  93  96
ENDBRANCH  66  89
ENDBRANCH  40  41
ENDBRANCH  33  35
ENDBRANCH  32  33
ENDBRANCH  31  32
ENDBRANCH  30  31
ENDBRANCH   1  30
TORSDOF 21
ENDMDL
MODEL 2
REMARK VINA RESULT:     -11.5      3.298      9.418
REMARK SMILES Cc1c(CC(=O)OCCOCCOC(=O)c2ccc(-c3c4nc(c(-c5cccc(S(=O)(=O)[O-])c5F)c5ccc([nH]5)c(-c5cccc(S(=O)(=O)[O-])c5F)c5nc(c(-c6cccc(S(=O)(=O)[O-])c6F)c6ccc3[nH]6)C=C5)C=C4)cc2)cc(-c2ccc(S(C)(=O)=O)cc2)n1-c1ccccc1
REMARK SMILES IDX 10 1 9 2 8 3 7 4 5 5 6 6 4 7 3 8 1 9 2 10 91 11 79 12 80 13
REMARK SMILES IDX 92 14 93 15 97 16 94 17 96 18 95 19 81 20 82 21 90 22 83 23
REMARK SMILES IDX 89 24 84 25 85 26 86 27 87 28 88 29 11 30 12 31 13 32 14 33
REMARK SMILES IDX 15 34 16 35 17 36 78 37 18 38 77 39 19 40 20 41 21 42 71 43
REMARK SMILES IDX 22 44 76 45 70 46 72 47 23 48 75 49 69 50 68 51 24 53 56 54
REMARK SMILES IDX 36 55 55 56 37 57 40 58 54 59 73 60 38 61 39 62 53 64 74 65
REMARK SMILES IDX 41 66 25 67 26 68 34 69 27 70 29 71 35 72 28 73 30 74 31 75
REMARK SMILES IDX 32 76 33 77 57 78 58 79 66 80 59 81 61 82 67 83 60 84 62 85
REMARK SMILES IDX 63 86 64 87 65 88 42 89 43 90 51 91 44 92 46 93 52 94 45 95
REMARK SMILES IDX 47 96 48 97 49 98 50 99
REMARK H PARENT 72 52 40 63
REMARK Flexibility Score: inf
ROOT
ATOM      1  O   UNL A   1      35.116  20.391  24.681  1.00  0.00    -0.374 OA
ENDROOT
BRANCH   1   2
ATOM      2  C   UNL A   1      34.046  19.580  25.138  1.00  0.00     0.202 C 
BRANCH   2   3
ATOM      3  C   UNL A   1      32.699  19.827  24.440  1.00  0.00     0.261 C 
BRANCH   3   4
ATOM      4  O   UNL A   1      32.401  21.228  24.252  1.00  0.00    -0.463 OA
BRANCH   4   5
ATOM      5  C   UNL A   1      32.521  21.703  22.982  1.00  0.00     0.310 C 
ATOM      6  O   UNL A   1      31.957  21.206  22.008  1.00  0.00    -0.252 OA
BRANCH   5   7
ATOM      7  C   UNL A   1      33.491  22.859  22.808  1.00  0.00     0.160 C 
BRANCH   7   8
ATOM      8  C   UNL A   1      33.118  24.238  23.299  1.00  0.00    -0.015 A 
ATOM      9  C   UNL A   1      33.749  24.179  25.838  1.00  0.00     0.065 C 
ATOM     10  C   UNL A   1      33.241  24.795  24.576  1.00  0.00     0.024 A 
ATOM     11  N   UNL A   1      32.711  26.088  24.552  1.00  0.00    -0.314 N 
ATOM     12  C   UNL A   1      32.358  25.172  22.546  1.00  0.00     0.033 A 
ATOM     13  C   UNL A   1      32.038  26.249  23.353  1.00  0.00     0.053 A 
BRANCH  11  14
ATOM     14  C   UNL A   1      32.815  27.063  25.588  1.00  0.00     0.046 A 
ATOM     15  C   UNL A   1      33.959  27.829  25.772  1.00  0.00     0.026 A 
ATOM     16  C   UNL A   1      31.783  27.167  26.519  1.00  0.00     0.026 A 
ATOM     17  C   UNL A   1      33.999  28.753  26.830  1.00  0.00     0.002 A 
ATOM     18  C   UNL A   1      31.791  28.113  27.539  1.00  0.00     0.002 A 
ATOM     19  C   UNL A   1      32.906  28.918  27.689  1.00  0.00     0.000 A 
ENDBRANCH  11  14
BRANCH  13  20
ATOM     20  C   UNL A   1      31.178  27.380  23.036  1.00  0.00    -0.001 A 
ATOM     21  C   UNL A   1      31.702  28.526  22.434  1.00  0.00     0.011 A 
ATOM     22  C   UNL A   1      29.812  27.317  23.334  1.00  0.00     0.011 A 
ATOM     23  C   UNL A   1      30.881  29.611  22.140  1.00  0.00     0.021 A 
ATOM     24  C   UNL A   1      28.983  28.402  23.052  1.00  0.00     0.021 A 
ATOM     25  C   UNL A   1      29.526  29.546  22.461  1.00  0.00     0.067 A 
BRANCH  25  26
ATOM     26  S   UNL A   1      28.471  30.919  22.080  1.00  0.00     0.175 S 
ATOM     27  C   UNL A   1      27.312  30.977  23.422  1.00  0.00     0.163 C 
ATOM     28  O   UNL A   1      29.312  32.110  22.126  1.00  0.00    -0.224 OA
ATOM     29  O   UNL A   1      27.736  30.581  20.883  1.00  0.00    -0.224 OA
ENDBRANCH  25  26
ENDBRANCH  13  20
ENDBRANCH   7   8
ENDBRANCH   5   7
ENDBRANCH   4   5
ENDBRANCH   3   4
ENDBRANCH   2   3
ENDBRANCH   1   2
BRANCH   1  30
ATOM     30  C   UNL A   1      35.823  21.087  25.710  1.00  0.00     0.202 C 
BRANCH  30  31
ATOM     31  C   UNL A   1      37.033  21.985  25.294  1.00  0.00     0.261 C 
BRANCH  31  32
ATOM     32  O   UNL A   1      38.409  21.422  25.016  1.00  0.00    -0.460 OA
BRANCH  32  33
ATOM     33  C   UNL A   1      39.357  21.551  26.054  1.00  0.00     0.338 C 
ATOM     34  O   UNL A   1      39.758  20.545  26.633  1.00  0.00    -0.246 OA
BRANCH  33  35
ATOM     35  C   UNL A   1      39.933  22.966  26.503  1.00  0.00     0.060 A 
ATOM     36  C   UNL A   1      40.381  23.196  27.805  1.00  0.00     0.016 A 
ATOM     37  C   UNL A   1      39.694  24.193  25.822  1.00  0.00     0.016 A 
ATOM     38  C   UNL A   1      40.659  24.550  28.338  1.00  0.00     0.010 A 
ATOM     39  C   UNL A   1      39.936  25.578  26.386  1.00  0.00     0.010 A 
ATOM     40  C   UNL A   1      40.451  25.832  27.676  1.00  0.00    -0.014 A 
BRANCH  40  41
ATOM     41  C   UNL A   1      40.274  27.223  28.668  1.00  0.00     0.031 A 
ATOM     42  C   UNL A   1      41.384  28.037  28.102  1.00  0.00     0.074 A 
ATOM     43  C   UNL A   1      39.704  27.835  29.830  1.00  0.00     0.049 A 
ATOM     44  N   UNL A   1      42.573  27.500  28.051  1.00  0.00    -0.248 NA
ATOM     45  C   UNL A   1      41.214  29.197  27.230  1.00  0.00     0.031 C 
ATOM     46  C   UNL A   1      38.903  27.209  30.909  1.00  0.00     0.029 A 
ATOM     47  N   UNL A   1      39.702  29.205  30.376  1.00  0.00    -0.354 N 
ATOM     48  C   UNL A   1      43.391  28.440  27.507  1.00  0.00     0.074 A 
ATOM     49  C   UNL A   1      42.468  29.295  26.766  1.00  0.00     0.031 C 
ATOM     50  C   UNL A   1      38.376  28.115  31.796  1.00  0.00     0.029 A 
ATOM     51  C   UNL A   1      38.774  29.494  31.491  1.00  0.00     0.049 A 
ATOM     52  H   UNL A   1      40.297  29.901  30.013  1.00  0.00     0.167 HD
ATOM     53  C   UNL A   1      44.424  28.800  28.323  1.00  0.00     0.034 A 
ATOM     54  C   UNL A   1      38.431  30.682  32.189  1.00  0.00     0.034 A 
ATOM     55  C   UNL A   1      44.206  30.080  28.934  1.00  0.00     0.049 A 
ATOM     56  C   UNL A   1      39.653  31.488  32.135  1.00  0.00     0.074 A 
ATOM     57  C   UNL A   1      43.667  31.265  28.464  1.00  0.00     0.029 A 
ATOM     58  N   UNL A   1      44.092  30.111  30.304  1.00  0.00    -0.354 N 
ATOM     59  N   UNL A   1      40.643  31.265  32.948  1.00  0.00    -0.248 NA
ATOM     60  C   UNL A   1      39.769  32.672  31.294  1.00  0.00     0.031 C 
ATOM     61  C   UNL A   1      42.785  31.683  29.479  1.00  0.00     0.029 A 
ATOM     62  C   UNL A   1      43.178  31.084  30.662  1.00  0.00     0.049 A 
ATOM     63  H   UNL A   1      44.582  29.531  30.930  1.00  0.00     0.167 HD
ATOM     64  C   UNL A   1      41.671  31.904  32.326  1.00  0.00     0.074 A 
ATOM     65  C   UNL A   1      41.057  32.937  31.510  1.00  0.00     0.031 C 
ATOM     66  C   UNL A   1      42.730  31.121  32.026  1.00  0.00     0.034 A 
BRANCH  53  67
ATOM     67  C   UNL A   1      45.160  27.632  28.957  1.00  0.00     0.023 A 
ATOM     68  C   UNL A   1      44.865  27.362  30.302  1.00  0.00     0.012 A 
ATOM     69  C   UNL A   1      46.240  26.935  28.347  1.00  0.00     0.148 A 
ATOM     70  C   UNL A   1      45.655  26.474  31.040  1.00  0.00     0.002 A 
ATOM     71  C   UNL A   1      47.085  26.138  29.114  1.00  0.00     0.091 A 
ATOM     72  F   UNL A   1      46.430  27.049  27.023  1.00  0.00    -0.205 F 
ATOM     73  C   UNL A   1      46.785  25.897  30.461  1.00  0.00     0.022 A 
BRANCH  71  74
ATOM     74  S   UNL A   1      48.682  25.552  28.506  1.00  0.00     0.127 S 
ATOM     75  O   UNL A   1      49.351  25.118  29.738  1.00  0.00    -0.237 OA
ATOM     76  O   UNL A   1      48.313  24.462  27.610  1.00  0.00    -0.237 OA
ATOM     77  O   UNL A   1      49.331  26.695  27.873  1.00  0.00    -0.744 OA
ENDBRANCH  71  74
ENDBRANCH  53  67
BRANCH  54  78
ATOM     78  C   UNL A   1      37.469  31.476  33.234  1.00  0.00     0.023 A 
ATOM     79  C   UNL A   1      38.014  31.907  34.511  1.00  0.00     0.012 A 
ATOM     80  C   UNL A   1      36.313  32.206  32.858  1.00  0.00     0.148 A 
ATOM     81  C   UNL A   1      37.546  33.008  35.272  1.00  0.00     0.002 A 
ATOM     82  C   UNL A   1      35.824  33.302  33.646  1.00  0.00     0.091 A 
ATOM     83  F   UNL A   1      35.732  31.903  31.692  1.00  0.00    -0.205 F 
ATOM     84  C   UNL A   1      36.455  33.719  34.828  1.00  0.00     0.022 A 
BRANCH  82  85
ATOM     85  S   UNL A   1      34.419  34.349  33.172  1.00  0.00     0.127 S 
ATOM     86  O   UNL A   1      33.278  33.442  33.316  1.00  0.00    -0.237 OA
ATOM     87  O   UNL A   1      34.476  35.406  34.181  1.00  0.00    -0.237 OA
ATOM     88  O   UNL A   1      34.691  34.763  31.804  1.00  0.00    -0.744 OA
ENDBRANCH  82  85
ENDBRANCH  54  78
BRANCH  66  89
ATOM     89  C   UNL A   1      43.267  30.215  33.095  1.00  0.00     0.023 A 
ATOM     90  C   UNL A   1      42.979  28.844  33.245  1.00  0.00     0.012 A 
ATOM     91  C   UNL A   1      44.179  30.811  33.978  1.00  0.00     0.148 A 
ATOM     92  C   UNL A   1      43.609  28.090  34.244  1.00  0.00     0.002 A 
ATOM     93  C   UNL A   1      44.847  30.054  34.924  1.00  0.00     0.091 A 
ATOM     94  F   UNL A   1      44.387  32.131  33.861  1.00  0.00    -0.205 F 
ATOM     95  C   UNL A   1      44.565  28.690  35.067  1.00  0.00     0.022 A 
BRANCH  93  96
ATOM     96  S   UNL A   1      46.138  30.798  35.918  1.00  0.00     0.127 S 
ATOM     97  O   UNL A   1      47.033  31.337  34.896  1.00  0.00    -0.237 OA
ATOM     98  O   UNL A   1      45.416  31.801  36.697  1.00  0.00    -0.237 OA
ATOM     99  O   UNL A   1      46.691  29.709  36.717  1.00  0.00    -0.744 OA
ENDBRANCH  93  96
ENDBRANCH  66  89
ENDBRANCH  40  41
ENDBRANCH  33  35
ENDBRANCH  32  33
ENDBRANCH  31  32
ENDBRANCH  30  31
ENDBRANCH   1  30
TORSDOF 21
ENDMDL
MODEL 3
REMARK VINA RESULT:     -11.4      3.701      7.599
REMARK SMILES Cc1c(CC(=O)OCCOCCOC(=O)c2ccc(-c3c4nc(c(-c5cccc(S(=O)(=O)[O-])c5F)c5ccc([nH]5)c(-c5cccc(S(=O)(=O)[O-])c5F)c5nc(c(-c6cccc(S(=O)(=O)[O-])c6F)c6ccc3[nH]6)C=C5)C=C4)cc2)cc(-c2ccc(S(C)(=O)=O)cc2)n1-c1ccccc1
REMARK SMILES IDX 10 1 9 2 8 3 7 4 5 5 6 6 4 7 3 8 1 9 2 10 91 11 79 12 80 13
REMARK SMILES IDX 92 14 93 15 97 16 94 17 96 18 95 19 81 20 82 21 90 22 83 23
REMARK SMILES IDX 89 24 84 25 85 26 86 27 87 28 88 29 11 30 12 31 13 32 14 33
REMARK SMILES IDX 15 34 16 35 17 36 78 37 18 38 77 39 19 40 20 41 21 42 71 43
REMARK SMILES IDX 22 44 76 45 70 46 72 47 23 48 75 49 69 50 68 51 24 53 56 54
REMARK SMILES IDX 36 55 55 56 37 57 40 58 54 59 73 60 38 61 39 62 53 64 74 65
REMARK SMILES IDX 41 66 25 67 26 68 34 69 27 70 29 71 35 72 28 73 30 74 31 75
REMARK SMILES IDX 32 76 33 77 57 78 58 79 66 80 59 81 61 82 67 83 60 84 62 85
REMARK SMILES IDX 63 86 64 87 65 88 42 89 43 90 51 91 44 92 46 93 52 94 45 95
REMARK SMILES IDX 47 96 48 97 49 98 50 99
REMARK H PARENT 72 52 40 63
REMARK Flexibility Score: inf
ROOT
ATOM      1  O   UNL A   1      34.934  19.844  24.627  1.00  0.00    -0.374 OA
ENDROOT
BRANCH   1   2
ATOM      2  C   UNL A   1      33.711  19.403  25.194  1.00  0.00     0.202 C 
BRANCH   2   3
ATOM      3  C   UNL A   1      32.472  19.609  24.309  1.00  0.00     0.261 C 
BRANCH   3   4
ATOM      4  O   UNL A   1      32.110  20.999  24.145  1.00  0.00    -0.463 OA
BRANCH   4   5
ATOM      5  C   UNL A   1      32.329  21.535  22.913  1.00  0.00     0.310 C 
ATOM      6  O   UNL A   1      31.828  21.099  21.877  1.00  0.00    -0.252 OA
BRANCH   5   7
ATOM      7  C   UNL A   1      33.326  22.680  22.869  1.00  0.00     0.160 C 
BRANCH   7   8
ATOM      8  C   UNL A   1      32.931  24.047  23.375  1.00  0.00    -0.015 A 
ATOM      9  C   UNL A   1      33.646  24.002  25.892  1.00  0.00     0.065 C 
ATOM     10  C   UNL A   1      33.079  24.604  24.649  1.00  0.00     0.024 A 
ATOM     11  N   UNL A   1      32.512  25.882  24.646  1.00  0.00    -0.314 N 
ATOM     12  C   UNL A   1      32.120  24.960  22.650  1.00  0.00     0.033 A 
ATOM     13  C   UNL A   1      31.795  26.025  23.470  1.00  0.00     0.053 A 
BRANCH  11  14
ATOM     14  C   UNL A   1      32.622  26.859  25.680  1.00  0.00     0.046 A 
ATOM     15  C   UNL A   1      31.614  27.064  26.614  1.00  0.00     0.026 A 
ATOM     16  C   UNL A   1      33.721  27.716  25.681  1.00  0.00     0.026 A 
ATOM     17  C   UNL A   1      31.781  28.061  27.589  1.00  0.00     0.002 A 
ATOM     18  C   UNL A   1      33.919  28.672  26.672  1.00  0.00     0.002 A 
ATOM     19  C   UNL A   1      32.943  28.840  27.639  1.00  0.00     0.000 A 
ENDBRANCH  11  14
BRANCH  13  20
ATOM     20  C   UNL A   1      30.893  27.132  23.184  1.00  0.00    -0.001 A 
ATOM     21  C   UNL A   1      29.529  27.030  23.469  1.00  0.00     0.011 A 
ATOM     22  C   UNL A   1      31.397  28.309  22.620  1.00  0.00     0.011 A 
ATOM     23  C   UNL A   1      28.665  28.084  23.186  1.00  0.00     0.021 A 
ATOM     24  C   UNL A   1      30.538  29.367  22.324  1.00  0.00     0.021 A 
ATOM     25  C   UNL A   1      29.174  29.244  22.605  1.00  0.00     0.067 A 
BRANCH  25  26
ATOM     26  S   UNL A   1      28.082  30.595  22.251  1.00  0.00     0.175 S 
ATOM     27  C   UNL A   1      29.058  32.047  22.550  1.00  0.00     0.163 C 
ATOM     28  O   UNL A   1      27.775  30.515  20.827  1.00  0.00    -0.224 OA
ATOM     29  O   UNL A   1      27.027  30.568  23.237  1.00  0.00    -0.224 OA
ENDBRANCH  25  26
ENDBRANCH  13  20
ENDBRANCH   7   8
ENDBRANCH   5   7
ENDBRANCH   4   5
ENDBRANCH   3   4
ENDBRANCH   2   3
ENDBRANCH   1   2
BRANCH   1  30
ATOM     30  C   UNL A   1      35.581  20.899  25.341  1.00  0.00     0.202 C 
BRANCH  30  31
ATOM     31  C   UNL A   1      36.963  21.406  24.814  1.00  0.00     0.261 C 
BRANCH  31  32
ATOM     32  O   UNL A   1      38.120  21.726  25.736  1.00  0.00    -0.460 OA
BRANCH  32  33
ATOM     33  C   UNL A   1      38.233  23.069  26.151  1.00  0.00     0.338 C 
ATOM     34  O   UNL A   1      37.312  23.850  25.927  1.00  0.00    -0.246 OA
BRANCH  33  35
ATOM     35  C   UNL A   1      39.523  23.615  26.908  1.00  0.00     0.060 A 
ATOM     36  C   UNL A   1      39.987  24.919  26.722  1.00  0.00     0.016 A 
ATOM     37  C   UNL A   1      40.529  22.795  27.493  1.00  0.00     0.016 A 
ATOM     38  C   UNL A   1      41.320  25.377  27.179  1.00  0.00     0.010 A 
ATOM     39  C   UNL A   1      41.909  23.256  27.919  1.00  0.00     0.010 A 
ATOM     40  C   UNL A   1      42.374  24.584  27.799  1.00  0.00    -0.014 A 
BRANCH  40  41
ATOM     41  C   UNL A   1      43.985  25.169  27.686  1.00  0.00     0.031 A 
ATOM     42  C   UNL A   1      44.182  25.542  29.114  1.00  0.00     0.074 A 
ATOM     43  C   UNL A   1      45.078  25.602  26.868  1.00  0.00     0.049 A 
ATOM     44  N   UNL A   1      43.306  26.337  29.667  1.00  0.00    -0.248 NA
ATOM     45  C   UNL A   1      45.002  24.800  30.069  1.00  0.00     0.031 C 
ATOM     46  C   UNL A   1      45.110  25.812  25.401  1.00  0.00     0.029 A 
ATOM     47  N   UNL A   1      46.474  25.992  27.137  1.00  0.00    -0.354 N 
ATOM     48  C   UNL A   1      43.716  26.520  30.949  1.00  0.00     0.074 A 
ATOM     49  C   UNL A   1      44.544  25.345  31.205  1.00  0.00     0.031 C 
ATOM     50  C   UNL A   1      46.366  26.079  24.913  1.00  0.00     0.029 A 
ATOM     51  C   UNL A   1      47.376  26.140  25.974  1.00  0.00     0.049 A 
ATOM     52  H   UNL A   1      46.794  26.149  28.055  1.00  0.00     0.167 HD
ATOM     53  C   UNL A   1      43.962  27.826  31.260  1.00  0.00     0.034 A 
ATOM     54  C   UNL A   1      48.767  26.400  25.849  1.00  0.00     0.034 A 
ATOM     55  C   UNL A   1      45.368  28.111  31.310  1.00  0.00     0.049 A 
ATOM     56  C   UNL A   1      49.081  27.216  27.024  1.00  0.00     0.074 A 
ATOM     57  C   UNL A   1      46.454  27.399  31.788  1.00  0.00     0.029 A 
ATOM     58  N   UNL A   1      45.859  29.010  30.393  1.00  0.00    -0.354 N 
ATOM     59  N   UNL A   1      48.819  28.489  27.049  1.00  0.00    -0.248 NA
ATOM     60  C   UNL A   1      49.841  26.696  28.153  1.00  0.00     0.031 C 
ATOM     61  C   UNL A   1      47.426  27.508  30.776  1.00  0.00     0.029 A 
ATOM     62  C   UNL A   1      47.134  28.628  30.019  1.00  0.00     0.049 A 
ATOM     63  H   UNL A   1      45.379  29.801  30.056  1.00  0.00     0.167 HD
ATOM     64  C   UNL A   1      48.868  28.764  28.380  1.00  0.00     0.074 A 
ATOM     65  C   UNL A   1      49.734  27.751  28.960  1.00  0.00     0.031 C 
ATOM     66  C   UNL A   1      47.736  29.289  28.895  1.00  0.00     0.034 A 
BRANCH  53  67
ATOM     67  C   UNL A   1      42.880  28.793  30.812  1.00  0.00     0.023 A 
ATOM     68  C   UNL A   1      43.102  29.464  29.600  1.00  0.00     0.012 A 
ATOM     69  C   UNL A   1      41.776  29.195  31.616  1.00  0.00     0.148 A 
ATOM     70  C   UNL A   1      42.294  30.542  29.223  1.00  0.00     0.002 A 
ATOM     71  C   UNL A   1      41.045  30.333  31.289  1.00  0.00     0.091 A 
ATOM     72  F   UNL A   1      41.445  28.458  32.689  1.00  0.00    -0.205 F 
ATOM     73  C   UNL A   1      41.296  31.001  30.083  1.00  0.00     0.022 A 
BRANCH  71  74
ATOM     74  S   UNL A   1      39.909  31.123  32.450  1.00  0.00     0.127 S 
ATOM     75  O   UNL A   1      40.819  31.844  33.345  1.00  0.00    -0.237 OA
ATOM     76  O   UNL A   1      39.108  31.986  31.589  1.00  0.00    -0.237 OA
ATOM     77  O   UNL A   1      39.181  30.048  33.115  1.00  0.00    -0.744 OA
ENDBRANCH  71  74
ENDBRANCH  53  67
BRANCH  54  78
ATOM     78  C   UNL A   1      50.111  26.474  24.934  1.00  0.00     0.023 A 
ATOM     79  C   UNL A   1      50.305  27.613  24.051  1.00  0.00     0.012 A 
ATOM     80  C   UNL A   1      51.324  25.807  25.242  1.00  0.00     0.148 A 
ATOM     81  C   UNL A   1      51.560  28.109  23.619  1.00  0.00     0.002 A 
ATOM     82  C   UNL A   1      52.592  26.296  24.779  1.00  0.00     0.091 A 
ATOM     83  F   UNL A   1      51.268  24.749  26.059  1.00  0.00    -0.205 F 
ATOM     84  C   UNL A   1      52.711  27.457  23.999  1.00  0.00     0.022 A 
BRANCH  82  85
ATOM     85  S   UNL A   1      54.191  25.561  25.223  1.00  0.00     0.127 S 
ATOM     86  O   UNL A   1      55.112  26.197  24.278  1.00  0.00    -0.237 OA
ATOM     87  O   UNL A   1      54.353  26.002  26.607  1.00  0.00    -0.237 OA
ATOM     88  O   UNL A   1      54.022  24.128  25.029  1.00  0.00    -0.744 OA
ENDBRANCH  82  85
ENDBRANCH  54  78
BRANCH  66  89
ATOM     89  C   UNL A   1      47.087  30.429  28.165  1.00  0.00     0.023 A 
ATOM     90  C   UNL A   1      46.068  30.324  27.198  1.00  0.00     0.012 A 
ATOM     91  C   UNL A   1      47.524  31.706  28.546  1.00  0.00     0.148 A 
ATOM     92  C   UNL A   1      45.492  31.475  26.645  1.00  0.00     0.002 A 
ATOM     93  C   UNL A   1      46.912  32.842  28.046  1.00  0.00     0.091 A 
ATOM     94  F   UNL A   1      48.540  31.782  29.418  1.00  0.00    -0.205 F 
ATOM     95  C   UNL A   1      45.895  32.735  27.089  1.00  0.00     0.022 A 
BRANCH  93  96
ATOM     96  S   UNL A   1      47.362  34.455  28.681  1.00  0.00     0.127 S 
ATOM     97  O   UNL A   1      46.267  35.289  28.189  1.00  0.00    -0.237 OA
ATOM     98  O   UNL A   1      47.378  34.246  30.126  1.00  0.00    -0.237 OA
ATOM     99  O   UNL A   1      48.672  34.747  28.108  1.00  0.00    -0.744 OA
ENDBRANCH  93  96
ENDBRANCH  66  89
ENDBRANCH  40  41
ENDBRANCH  33  35
ENDBRANCH  32  33
ENDBRANCH  31  32
ENDBRANCH  30  31
ENDBRANCH   1  30
TORSDOF 21
ENDMDL
