MODEL 1
REMARK VINA RESULT:      -9.2      0.000      0.000
REMARK SMILES C=CCN1C(=O)/C(=C/c2ccccc2[N+](=O)[O-])S/C1=[NH+]\c1ccc(O)cc1C(=O)OCCOCCOC(=O)c1ccc(-c2c3nc(c(-c4cccc(S(=O)(=O)[O-])c4F)c4ccc([nH]4)c(-c4cccc(S(=O)(=O)[O-])c4F)c4nc(c(-c5cccc(S(=O)(=O)[O-])c5F)c5ccc2[nH]5)C=C4)C=C3)cc1
REMARK SMILES IDX 33 1 32 2 31 3 30 4 28 5 29 6 27 7 21 8 22 9 23 10 26 11
REMARK SMILES IDX 24 12 20 13 4 14 5 15 19 16 6 17 7 18 18 19 8 20 3 22 2 23
REMARK SMILES IDX 1 24 9 25 10 26 14 27 11 28 13 29 12 30 15 31 16 32 17 33
REMARK SMILES IDX 25 34 34 36 35 37 36 38 37 39 38 40 39 41 40 42 101 43 41 44
REMARK SMILES IDX 100 45 42 46 43 47 44 48 94 49 45 50 99 51 93 52 95 53 46 54
REMARK SMILES IDX 98 55 92 56 91 57 47 59 79 60 59 61 78 62 60 63 63 64 77 65
REMARK SMILES IDX 96 66 61 67 62 68 76 70 97 71 64 72 48 73 49 74 57 75 50 76
REMARK SMILES IDX 52 77 58 78 51 79 53 80 54 81 55 82 56 83 80 84 81 85 89 86
REMARK SMILES IDX 82 87 84 88 90 89 83 90 85 91 86 92 87 93 88 94 65 95 66 96
REMARK SMILES IDX 74 97 67 98 69 99 75 100 68 101 70 102 71 103 72 104 73 105
REMARK H PARENT 20 21 25 35 95 58 63 69
REMARK Flexibility Score: inf
ROOT
ATOM      1  O   UNL A   1      31.738  29.026  25.524  1.00  0.00    -0.374 OA
ENDROOT
BRANCH   1   2
ATOM      2  C   UNL A   1      31.425  28.179  26.625  1.00  0.00     0.202 C 
BRANCH   2   3
ATOM      3  C   UNL A   1      32.401  27.051  26.968  1.00  0.00     0.261 C 
BRANCH   3   4
ATOM      4  O   UNL A   1      31.825  25.746  26.807  1.00  0.00    -0.460 OA
BRANCH   4   5
ATOM      5  C   UNL A   1      32.601  24.858  26.139  1.00  0.00     0.342 C 
ATOM      6  O   UNL A   1      33.072  23.827  26.603  1.00  0.00    -0.246 OA
BRANCH   5   7
ATOM      7  C   UNL A   1      32.736  25.186  24.698  1.00  0.00     0.110 A 
ATOM      8  C   UNL A   1      33.907  25.048  23.919  1.00  0.00     0.140 A 
ATOM      9  C   UNL A   1      33.826  25.390  22.558  1.00  0.00     0.056 A 
ATOM     10  C   UNL A   1      32.638  25.849  21.981  1.00  0.00     0.050 A 
ATOM     11  C   UNL A   1      31.540  25.650  24.108  1.00  0.00     0.066 A 
ATOM     12  C   UNL A   1      31.505  25.984  22.765  1.00  0.00     0.116 A 
BRANCH   8  13
ATOM     13  N   UNL A   1      35.193  24.709  24.384  1.00  0.00    -0.234 N 
ATOM     14  N   UNL A   1      36.862  23.165  24.925  1.00  0.00    -0.182 N 
ATOM     15  C   UNL A   1      36.984  21.834  25.264  1.00  0.00     0.348 C 
ATOM     16  C   UNL A   1      35.671  23.510  24.348  1.00  0.00     0.324 C 
ATOM     17  O   UNL A   1      37.760  21.358  26.075  1.00  0.00    -0.240 OA
ATOM     18  C   UNL A   1      35.873  21.053  24.654  1.00  0.00     0.110 C 
ATOM     19  S   UNL A   1      34.904  22.083  23.689  1.00  0.00     0.007 SA
ATOM     20  C   UNL A   1      35.663  19.774  24.994  1.00  0.00     0.039 C 
ATOM     21  H   UNL A   1      35.757  25.425  24.757  1.00  0.00     0.313 HD
BRANCH  14  22
ATOM     22  C   UNL A   1      37.852  24.126  25.371  1.00  0.00     0.275 C 
BRANCH  22  23
ATOM     23  C   UNL A   1      37.865  24.128  26.873  1.00  0.00     0.011 C 
ATOM     24  C   UNL A   1      38.839  24.623  27.648  1.00  0.00     0.008 C 
ENDBRANCH  22  23
ENDBRANCH  14  22
BRANCH  20  25
ATOM     25  C   UNL A   1      34.503  18.929  24.662  1.00  0.00     0.054 A 
ATOM     26  C   UNL A   1      34.792  17.795  23.878  1.00  0.00     0.015 A 
ATOM     27  C   UNL A   1      33.163  19.136  25.024  1.00  0.00     0.276 A 
ATOM     28  C   UNL A   1      33.789  16.899  23.493  1.00  0.00     0.001 A 
ATOM     29  C   UNL A   1      32.153  18.230  24.653  1.00  0.00     0.086 A 
ATOM     30  C   UNL A   1      32.471  17.111  23.887  1.00  0.00     0.007 A 
BRANCH  27  31
ATOM     31  N   UNL A   1      32.735  20.316  25.765  1.00  0.00     0.063 N 
ATOM     32  O   UNL A   1      31.851  21.016  25.245  1.00  0.00    -0.258 OA
ATOM     33  O   UNL A   1      33.312  20.570  26.828  1.00  0.00    -0.258 OA
ENDBRANCH  27  31
ENDBRANCH  20  25
ENDBRANCH   8  13
BRANCH  12  34
ATOM     34  O   UNL A   1      30.367  26.459  22.184  1.00  0.00    -0.508 OA
ATOM     35  H   UNL A   1      29.706  26.863  22.711  1.00  0.00     0.293 HD
ENDBRANCH  12  34
ENDBRANCH   5   7
ENDBRANCH   4   5
ENDBRANCH   3   4
ENDBRANCH   2   3
ENDBRANCH   1   2
BRANCH   1  36
ATOM     36  C   UNL A   1      31.749  30.436  25.734  1.00  0.00     0.202 C 
BRANCH  36  37
ATOM     37  C   UNL A   1      32.370  30.996  27.022  1.00  0.00     0.261 C 
BRANCH  37  38
ATOM     38  O   UNL A   1      33.806  30.960  27.062  1.00  0.00    -0.460 OA
BRANCH  38  39
ATOM     39  C   UNL A   1      34.374  32.033  27.665  1.00  0.00     0.338 C 
ATOM     40  O   UNL A   1      33.963  33.185  27.660  1.00  0.00    -0.246 OA
BRANCH  39  41
ATOM     41  C   UNL A   1      35.521  31.620  28.491  1.00  0.00     0.060 A 
ATOM     42  C   UNL A   1      36.687  32.392  28.422  1.00  0.00     0.016 A 
ATOM     43  C   UNL A   1      35.501  30.423  29.209  1.00  0.00     0.016 A 
ATOM     44  C   UNL A   1      37.855  31.945  29.037  1.00  0.00     0.010 A 
ATOM     45  C   UNL A   1      36.678  29.976  29.822  1.00  0.00     0.010 A 
ATOM     46  C   UNL A   1      37.868  30.716  29.709  1.00  0.00    -0.014 A 
BRANCH  46  47
ATOM     47  C   UNL A   1      39.154  30.170  30.212  1.00  0.00     0.031 A 
ATOM     48  C   UNL A   1      39.720  30.664  31.514  1.00  0.00     0.074 A 
ATOM     49  C   UNL A   1      39.811  29.229  29.510  1.00  0.00     0.049 A 
ATOM     50  N   UNL A   1      40.817  30.303  32.126  1.00  0.00    -0.248 NA
ATOM     51  C   UNL A   1      38.948  31.700  32.219  1.00  0.00     0.031 C 
ATOM     52  C   UNL A   1      39.363  28.673  28.239  1.00  0.00     0.029 A 
ATOM     53  N   UNL A   1      41.001  28.593  29.755  1.00  0.00    -0.354 N 
ATOM     54  C   UNL A   1      40.885  31.080  33.274  1.00  0.00     0.074 A 
ATOM     55  C   UNL A   1      39.724  31.946  33.266  1.00  0.00     0.031 C 
ATOM     56  C   UNL A   1      40.280  27.799  27.793  1.00  0.00     0.029 A 
ATOM     57  C   UNL A   1      41.385  27.743  28.744  1.00  0.00     0.049 A 
ATOM     58  H   UNL A   1      41.530  28.730  30.574  1.00  0.00     0.167 HD
ATOM     59  C   UNL A   1      41.818  31.063  34.255  1.00  0.00     0.034 A 
ATOM     60  C   UNL A   1      42.506  27.010  28.597  1.00  0.00     0.034 A 
ATOM     61  C   UNL A   1      42.960  30.188  34.268  1.00  0.00     0.049 A 
ATOM     62  C   UNL A   1      43.538  27.023  29.692  1.00  0.00     0.074 A 
ATOM     63  C   UNL A   1      43.929  30.053  35.248  1.00  0.00     0.029 A 
ATOM     64  N   UNL A   1      43.302  29.313  33.247  1.00  0.00    -0.354 N 
ATOM     65  N   UNL A   1      43.519  27.663  30.836  1.00  0.00    -0.248 NA
ATOM     66  C   UNL A   1      44.727  26.181  29.495  1.00  0.00     0.031 C 
ATOM     67  C   UNL A   1      44.873  29.119  34.805  1.00  0.00     0.029 A 
ATOM     68  C   UNL A   1      44.475  28.648  33.564  1.00  0.00     0.049 A 
ATOM     69  H   UNL A   1      42.785  29.183  32.420  1.00  0.00     0.167 HD
ATOM     70  C   UNL A   1      44.672  27.275  31.510  1.00  0.00     0.074 A 
ATOM     71  C   UNL A   1      45.356  26.328  30.654  1.00  0.00     0.031 C 
ATOM     72  C   UNL A   1      45.126  27.675  32.723  1.00  0.00     0.034 A 
BRANCH  59  73
ATOM     73  C   UNL A   1      41.629  32.007  35.413  1.00  0.00     0.023 A 
ATOM     74  C   UNL A   1      40.814  31.627  36.499  1.00  0.00     0.012 A 
ATOM     75  C   UNL A   1      42.293  33.248  35.451  1.00  0.00     0.148 A 
ATOM     76  C   UNL A   1      40.636  32.480  37.588  1.00  0.00     0.002 A 
ATOM     77  C   UNL A   1      42.146  34.075  36.558  1.00  0.00     0.091 A 
ATOM     78  F   UNL A   1      43.044  33.603  34.398  1.00  0.00    -0.205 F 
ATOM     79  C   UNL A   1      41.310  33.698  37.622  1.00  0.00     0.022 A 
BRANCH  77  80
ATOM     80  S   UNL A   1      43.032  35.628  36.728  1.00  0.00     0.127 S 
ATOM     81  O   UNL A   1      42.581  36.357  35.544  1.00  0.00    -0.237 OA
ATOM     82  O   UNL A   1      42.510  36.144  37.995  1.00  0.00    -0.237 OA
ATOM     83  O   UNL A   1      44.446  35.283  36.752  1.00  0.00    -0.744 OA
ENDBRANCH  77  80
ENDBRANCH  59  73
BRANCH  60  84
ATOM     84  C   UNL A   1      42.685  26.168  27.382  1.00  0.00     0.023 A 
ATOM     85  C   UNL A   1      43.206  26.743  26.207  1.00  0.00     0.012 A 
ATOM     86  C   UNL A   1      42.368  24.795  27.394  1.00  0.00     0.148 A 
ATOM     87  C   UNL A   1      43.385  25.973  25.057  1.00  0.00     0.002 A 
ATOM     88  C   UNL A   1      42.597  24.023  26.262  1.00  0.00     0.091 A 
ATOM     89  F   UNL A   1      41.856  24.271  28.517  1.00  0.00    -0.205 F 
ATOM     90  C   UNL A   1      43.092  24.612  25.088  1.00  0.00     0.022 A 
BRANCH  88  91
ATOM     91  S   UNL A   1      42.360  22.243  26.249  1.00  0.00     0.127 S 
ATOM     92  O   UNL A   1      40.903  22.136  26.229  1.00  0.00    -0.237 OA
ATOM     93  O   UNL A   1      43.023  21.861  25.001  1.00  0.00    -0.237 OA
ATOM     94  O   UNL A   1      43.014  21.749  27.453  1.00  0.00    -0.744 OA
ENDBRANCH  88  91
ENDBRANCH  60  84
BRANCH  72  95
ATOM     95  C   UNL A   1      46.415  27.070  33.219  1.00  0.00     0.023 A 
ATOM     96  C   UNL A   1      47.636  27.736  32.992  1.00  0.00     0.012 A 
ATOM     97  C   UNL A   1      46.409  25.873  33.964  1.00  0.00     0.148 A 
ATOM     98  C   UNL A   1      48.834  27.203  33.467  1.00  0.00     0.002 A 
ATOM     99  C   UNL A   1      47.600  25.374  34.476  1.00  0.00     0.091 A 
ATOM    100  F   UNL A   1      45.241  25.242  34.153  1.00  0.00    -0.205 F 
ATOM    101  C   UNL A   1      48.815  26.029  34.217  1.00  0.00     0.022 A 
BRANCH  99 102
ATOM    102  S   UNL A   1      47.660  23.923  35.534  1.00  0.00     0.127 S 
ATOM    103  O   UNL A   1      46.707  23.033  34.874  1.00  0.00    -0.237 OA
ATOM    104  O   UNL A   1      49.060  23.511  35.419  1.00  0.00    -0.237 OA
ATOM    105  O   UNL A   1      47.273  24.380  36.862  1.00  0.00    -0.744 OA
ENDBRANCH  99 102
ENDBRANCH  72  95
ENDBRANCH  46  47
ENDBRANCH  39  41
ENDBRANCH  38  39
ENDBRANCH  37  38
ENDBRANCH  36  37
ENDBRANCH   1  36
TORSDOF 23
ENDMDL
MODEL 2
REMARK VINA RESULT:      -8.9     12.310     16.938
REMARK SMILES C=CCN1C(=O)/C(=C/c2ccccc2[N+](=O)[O-])S/C1=[NH+]\c1ccc(O)cc1C(=O)OCCOCCOC(=O)c1ccc(-c2c3nc(c(-c4cccc(S(=O)(=O)[O-])c4F)c4ccc([nH]4)c(-c4cccc(S(=O)(=O)[O-])c4F)c4nc(c(-c5cccc(S(=O)(=O)[O-])c5F)c5ccc2[nH]5)C=C4)C=C3)cc1
REMARK SMILES IDX 33 1 32 2 31 3 30 4 28 5 29 6 27 7 21 8 22 9 23 10 26 11
REMARK SMILES IDX 24 12 20 13 4 14 5 15 19 16 6 17 7 18 18 19 8 20 3 22 2 23
REMARK SMILES IDX 1 24 9 25 10 26 14 27 11 28 13 29 12 30 15 31 16 32 17 33
REMARK SMILES IDX 25 34 34 36 35 37 36 38 37 39 38 40 39 41 40 42 101 43 41 44
REMARK SMILES IDX 100 45 42 46 43 47 44 48 94 49 45 50 99 51 93 52 95 53 46 54
REMARK SMILES IDX 98 55 92 56 91 57 47 59 79 60 59 61 78 62 60 63 63 64 77 65
REMARK SMILES IDX 96 66 61 67 62 68 76 70 97 71 64 72 48 73 49 74 57 75 50 76
REMARK SMILES IDX 52 77 58 78 51 79 53 80 54 81 55 82 56 83 80 84 81 85 89 86
REMARK SMILES IDX 82 87 84 88 90 89 83 90 85 91 86 92 87 93 88 94 65 95 66 96
REMARK SMILES IDX 74 97 67 98 69 99 75 100 68 101 70 102 71 103 72 104 73 105
REMARK H PARENT 20 21 25 35 95 58 63 69
REMARK Flexibility Score: inf
ROOT
ATOM      1  O   UNL A   1      44.858  41.965  26.949  1.00  0.00    -0.374 OA
ENDROOT
BRANCH   1   2
ATOM      2  C   UNL A   1      46.128  42.365  26.444  1.00  0.00     0.202 C 
BRANCH   2   3
ATOM      3  C   UNL A   1      46.427  42.115  24.964  1.00  0.00     0.261 C 
BRANCH   3   4
ATOM      4  O   UNL A   1      46.469  43.323  24.191  1.00  0.00    -0.460 OA
BRANCH   4   5
ATOM      5  C   UNL A   1      45.324  44.049  24.204  1.00  0.00     0.342 C 
ATOM      6  O   UNL A   1      45.142  45.089  24.824  1.00  0.00    -0.246 OA
BRANCH   5   7
ATOM      7  C   UNL A   1      44.303  43.525  23.262  1.00  0.00     0.110 A 
ATOM      8  C   UNL A   1      44.552  43.009  21.970  1.00  0.00     0.140 A 
ATOM      9  C   UNL A   1      43.450  42.535  21.237  1.00  0.00     0.056 A 
ATOM     10  C   UNL A   1      42.152  42.563  21.754  1.00  0.00     0.050 A 
ATOM     11  C   UNL A   1      42.990  43.549  23.778  1.00  0.00     0.066 A 
ATOM     12  C   UNL A   1      41.930  43.079  23.019  1.00  0.00     0.116 A 
BRANCH   8  13
ATOM     13  N   UNL A   1      45.780  43.021  21.279  1.00  0.00    -0.234 N 
ATOM     14  N   UNL A   1      47.368  44.031  19.893  1.00  0.00    -0.182 N 
ATOM     15  C   UNL A   1      47.442  45.019  18.934  1.00  0.00     0.348 C 
ATOM     16  C   UNL A   1      46.247  44.064  20.676  1.00  0.00     0.324 C 
ATOM     17  O   UNL A   1      48.125  45.003  17.924  1.00  0.00    -0.240 OA
ATOM     18  C   UNL A   1      46.394  46.046  19.185  1.00  0.00     0.110 C 
ATOM     19  S   UNL A   1      45.540  45.662  20.619  1.00  0.00     0.007 SA
ATOM     20  C   UNL A   1      46.137  47.002  18.283  1.00  0.00     0.039 C 
ATOM     21  H   UNL A   1      46.309  42.191  21.253  1.00  0.00     0.313 HD
BRANCH  14  22
ATOM     22  C   UNL A   1      48.316  42.932  19.884  1.00  0.00     0.275 C 
BRANCH  22  23
ATOM     23  C   UNL A   1      49.606  43.416  20.484  1.00  0.00     0.011 C 
ATOM     24  C   UNL A   1      50.825  43.261  19.951  1.00  0.00     0.008 C 
ENDBRANCH  22  23
ENDBRANCH  14  22
BRANCH  20  25
ATOM     25  C   UNL A   1      45.011  47.951  18.267  1.00  0.00     0.054 A 
ATOM     26  C   UNL A   1      45.329  49.267  18.658  1.00  0.00     0.015 A 
ATOM     27  C   UNL A   1      43.675  47.687  17.923  1.00  0.00     0.276 A 
ATOM     28  C   UNL A   1      44.359  50.275  18.683  1.00  0.00     0.001 A 
ATOM     29  C   UNL A   1      42.700  48.700  17.931  1.00  0.00     0.086 A 
ATOM     30  C   UNL A   1      43.047  49.994  18.312  1.00  0.00     0.007 A 
BRANCH  27  31
ATOM     31  N   UNL A   1      43.216  46.347  17.580  1.00  0.00     0.063 N 
ATOM     32  O   UNL A   1      43.329  46.001  16.393  1.00  0.00    -0.258 OA
ATOM     33  O   UNL A   1      42.700  45.668  18.474  1.00  0.00    -0.258 OA
ENDBRANCH  27  31
ENDBRANCH  20  25
ENDBRANCH   8  13
BRANCH  12  34
ATOM     34  O   UNL A   1      40.652  43.120  23.489  1.00  0.00    -0.508 OA
ATOM     35  H   UNL A   1      40.245  43.945  23.667  1.00  0.00     0.293 HD
ENDBRANCH  12  34
ENDBRANCH   5   7
ENDBRANCH   4   5
ENDBRANCH   3   4
ENDBRANCH   2   3
ENDBRANCH   1   2
BRANCH   1  36
ATOM     36  C   UNL A   1      44.127  40.969  26.238  1.00  0.00     0.202 C 
BRANCH  36  37
ATOM     37  C   UNL A   1      42.596  40.940  26.352  1.00  0.00     0.261 C 
BRANCH  37  38
ATOM     38  O   UNL A   1      42.021  39.624  26.404  1.00  0.00    -0.460 OA
BRANCH  38  39
ATOM     39  C   UNL A   1      42.020  39.064  27.638  1.00  0.00     0.338 C 
ATOM     40  O   UNL A   1      41.400  39.446  28.620  1.00  0.00    -0.246 OA
BRANCH  39  41
ATOM     41  C   UNL A   1      42.768  37.796  27.635  1.00  0.00     0.060 A 
ATOM     42  C   UNL A   1      43.670  37.568  28.681  1.00  0.00     0.016 A 
ATOM     43  C   UNL A   1      42.691  36.913  26.556  1.00  0.00     0.016 A 
ATOM     44  C   UNL A   1      44.532  36.474  28.630  1.00  0.00     0.010 A 
ATOM     45  C   UNL A   1      43.562  35.819  26.506  1.00  0.00     0.010 A 
ATOM     46  C   UNL A   1      44.510  35.614  27.524  1.00  0.00    -0.014 A 
BRANCH  46  47
ATOM     47  C   UNL A   1      45.545  34.557  27.399  1.00  0.00     0.031 A 
ATOM     48  C   UNL A   1      46.949  34.925  27.009  1.00  0.00     0.074 A 
ATOM     49  C   UNL A   1      45.233  33.271  27.642  1.00  0.00     0.049 A 
ATOM     50  N   UNL A   1      47.993  34.153  26.862  1.00  0.00    -0.248 NA
ATOM     51  C   UNL A   1      47.212  36.350  26.752  1.00  0.00     0.031 C 
ATOM     52  C   UNL A   1      43.910  32.793  28.026  1.00  0.00     0.029 A 
ATOM     53  N   UNL A   1      45.996  32.133  27.579  1.00  0.00    -0.354 N 
ATOM     54  C   UNL A   1      49.032  34.987  26.472  1.00  0.00     0.074 A 
ATOM     55  C   UNL A   1      48.487  36.326  26.389  1.00  0.00     0.031 C 
ATOM     56  C   UNL A   1      43.940  31.455  28.137  1.00  0.00     0.029 A 
ATOM     57  C   UNL A   1      45.283  30.982  27.819  1.00  0.00     0.049 A 
ATOM     58  H   UNL A   1      46.961  32.139  27.382  1.00  0.00     0.167 HD
ATOM     59  C   UNL A   1      50.325  34.671  26.222  1.00  0.00     0.034 A 
ATOM     60  C   UNL A   1      45.667  29.692  27.778  1.00  0.00     0.034 A 
ATOM     61  C   UNL A   1      50.866  33.342  26.323  1.00  0.00     0.049 A 
ATOM     62  C   UNL A   1      47.106  29.365  27.479  1.00  0.00     0.074 A 
ATOM     63  C   UNL A   1      52.177  32.932  26.150  1.00  0.00     0.029 A 
ATOM     64  N   UNL A   1      50.126  32.203  26.604  1.00  0.00    -0.354 N 
ATOM     65  N   UNL A   1      48.105  30.181  27.246  1.00  0.00    -0.248 NA
ATOM     66  C   UNL A   1      47.478  27.942  27.478  1.00  0.00     0.031 C 
ATOM     67  C   UNL A   1      52.223  31.540  26.296  1.00  0.00     0.029 A 
ATOM     68  C   UNL A   1      50.947  31.088  26.592  1.00  0.00     0.049 A 
ATOM     69  H   UNL A   1      49.159  32.190  26.787  1.00  0.00     0.167 HD
ATOM     70  C   UNL A   1      49.231  29.375  27.106  1.00  0.00     0.074 A 
ATOM     71  C   UNL A   1      48.791  28.009  27.301  1.00  0.00     0.031 C 
ATOM     72  C   UNL A   1      50.508  29.735  26.830  1.00  0.00     0.034 A 
BRANCH  59  73
ATOM     73  C   UNL A   1      51.254  35.793  25.837  1.00  0.00     0.023 A 
ATOM     74  C   UNL A   1      51.600  35.981  24.483  1.00  0.00     0.012 A 
ATOM     75  C   UNL A   1      51.745  36.689  26.805  1.00  0.00     0.148 A 
ATOM     76  C   UNL A   1      52.448  37.021  24.104  1.00  0.00     0.002 A 
ATOM     77  C   UNL A   1      52.555  37.750  26.415  1.00  0.00     0.091 A 
ATOM     78  F   UNL A   1      51.425  36.481  28.091  1.00  0.00    -0.205 F 
ATOM     79  C   UNL A   1      52.916  37.910  25.067  1.00  0.00     0.022 A 
BRANCH  77  80
ATOM     80  S   UNL A   1      53.145  38.991  27.571  1.00  0.00     0.127 S 
ATOM     81  O   UNL A   1      53.998  39.812  26.713  1.00  0.00    -0.237 OA
ATOM     82  O   UNL A   1      51.901  39.639  27.990  1.00  0.00    -0.237 OA
ATOM     83  O   UNL A   1      53.833  38.262  28.626  1.00  0.00    -0.744 OA
ENDBRANCH  77  80
ENDBRANCH  59  73
BRANCH  60  84
ATOM     84  C   UNL A   1      44.681  28.616  28.073  1.00  0.00     0.023 A 
ATOM     85  C   UNL A   1      44.467  28.216  29.407  1.00  0.00     0.012 A 
ATOM     86  C   UNL A   1      43.935  28.008  27.044  1.00  0.00     0.148 A 
ATOM     87  C   UNL A   1      43.546  27.211  29.708  1.00  0.00     0.002 A 
ATOM     88  C   UNL A   1      42.983  27.046  27.357  1.00  0.00     0.091 A 
ATOM     89  F   UNL A   1      44.168  28.390  25.780  1.00  0.00    -0.205 F 
ATOM     90  C   UNL A   1      42.797  26.635  28.686  1.00  0.00     0.022 A 
BRANCH  88  91
ATOM     91  S   UNL A   1      41.892  26.336  26.119  1.00  0.00     0.127 S 
ATOM     92  O   UNL A   1      42.321  24.939  26.109  1.00  0.00    -0.237 OA
ATOM     93  O   UNL A   1      40.574  26.572  26.711  1.00  0.00    -0.237 OA
ATOM     94  O   UNL A   1      42.144  27.085  24.895  1.00  0.00    -0.744 OA
ENDBRANCH  88  91
ENDBRANCH  60  84
BRANCH  72  95
ATOM     95  C   UNL A   1      51.539  28.639  26.750  1.00  0.00     0.023 A 
ATOM     96  C   UNL A   1      51.993  28.014  27.929  1.00  0.00     0.012 A 
ATOM     97  C   UNL A   1      52.012  28.184  25.502  1.00  0.00     0.148 A 
ATOM     98  C   UNL A   1      52.928  26.981  27.870  1.00  0.00     0.002 A 
ATOM     99  C   UNL A   1      52.905  27.120  25.448  1.00  0.00     0.091 A 
ATOM    100  F   UNL A   1      51.585  28.802  24.392  1.00  0.00    -0.205 F 
ATOM    101  C   UNL A   1      53.374  26.527  26.631  1.00  0.00     0.022 A 
BRANCH  99 102
ATOM    102  S   UNL A   1      53.459  26.406  23.896  1.00  0.00     0.127 S 
ATOM    103  O   UNL A   1      53.967  25.106  24.330  1.00  0.00    -0.237 OA
ATOM    104  O   UNL A   1      52.220  26.349  23.119  1.00  0.00    -0.237 OA
ATOM    105  O   UNL A   1      54.460  27.324  23.368  1.00  0.00    -0.744 OA
ENDBRANCH  99 102
ENDBRANCH  72  95
ENDBRANCH  46  47
ENDBRANCH  39  41
ENDBRANCH  38  39
ENDBRANCH  37  38
ENDBRANCH  36  37
ENDBRANCH   1  36
TORSDOF 23
ENDMDL
MODEL 3
REMARK VINA RESULT:      -8.9      1.302      7.191
REMARK SMILES C=CCN1C(=O)/C(=C/c2ccccc2[N+](=O)[O-])S/C1=[NH+]\c1ccc(O)cc1C(=O)OCCOCCOC(=O)c1ccc(-c2c3nc(c(-c4cccc(S(=O)(=O)[O-])c4F)c4ccc([nH]4)c(-c4cccc(S(=O)(=O)[O-])c4F)c4nc(c(-c5cccc(S(=O)(=O)[O-])c5F)c5ccc2[nH]5)C=C4)C=C3)cc1
REMARK SMILES IDX 33 1 32 2 31 3 30 4 28 5 29 6 27 7 21 8 22 9 23 10 26 11
REMARK SMILES IDX 24 12 20 13 4 14 5 15 19 16 6 17 7 18 18 19 8 20 3 22 2 23
REMARK SMILES IDX 1 24 9 25 10 26 14 27 11 28 13 29 12 30 15 31 16 32 17 33
REMARK SMILES IDX 25 34 34 36 35 37 36 38 37 39 38 40 39 41 40 42 101 43 41 44
REMARK SMILES IDX 100 45 42 46 43 47 44 48 94 49 45 50 99 51 93 52 95 53 46 54
REMARK SMILES IDX 98 55 92 56 91 57 47 59 79 60 59 61 78 62 60 63 63 64 77 65
REMARK SMILES IDX 96 66 61 67 62 68 76 70 97 71 64 72 48 73 49 74 57 75 50 76
REMARK SMILES IDX 52 77 58 78 51 79 53 80 54 81 55 82 56 83 80 84 81 85 89 86
REMARK SMILES IDX 82 87 84 88 90 89 83 90 85 91 86 92 87 93 88 94 65 95 66 96
REMARK SMILES IDX 74 97 67 98 69 99 75 100 68 101 70 102 71 103 72 104 73 105
REMARK H PARENT 20 21 25 35 95 58 63 69
REMARK Flexibility Score: inf
ROOT
ATOM      1  O   UNL A   1      32.344  28.834  25.692  1.00  0.00    -0.374 OA
ENDROOT
BRANCH   1   2
ATOM      2  C   UNL A   1      31.531  28.070  26.577  1.00  0.00     0.202 C 
BRANCH   2   3
ATOM      3  C   UNL A   1      32.166  26.871  27.287  1.00  0.00     0.261 C 
BRANCH   3   4
ATOM      4  O   UNL A   1      31.752  25.613  26.736  1.00  0.00    -0.460 OA
BRANCH   4   5
ATOM      5  C   UNL A   1      32.734  24.905  26.126  1.00  0.00     0.342 C 
ATOM      6  O   UNL A   1      33.406  24.021  26.642  1.00  0.00    -0.246 OA
BRANCH   5   7
ATOM      7  C   UNL A   1      32.850  25.216  24.679  1.00  0.00     0.110 A 
ATOM      8  C   UNL A   1      34.012  25.071  23.888  1.00  0.00     0.140 A 
ATOM      9  C   UNL A   1      33.912  25.397  22.523  1.00  0.00     0.056 A 
ATOM     10  C   UNL A   1      32.716  25.845  21.956  1.00  0.00     0.050 A 
ATOM     11  C   UNL A   1      31.645  25.669  24.099  1.00  0.00     0.066 A 
ATOM     12  C   UNL A   1      31.592  25.986  22.752  1.00  0.00     0.116 A 
BRANCH   8  13
ATOM     13  N   UNL A   1      35.305  24.743  24.340  1.00  0.00    -0.234 N 
ATOM     14  N   UNL A   1      36.982  23.210  24.887  1.00  0.00    -0.182 N 
ATOM     15  C   UNL A   1      37.110  21.886  25.250  1.00  0.00     0.348 C 
ATOM     16  C   UNL A   1      35.782  23.543  24.320  1.00  0.00     0.324 C 
ATOM     17  O   UNL A   1      37.898  21.426  26.059  1.00  0.00    -0.240 OA
ATOM     18  C   UNL A   1      35.991  21.092  24.671  1.00  0.00     0.110 C 
ATOM     19  S   UNL A   1      35.007  22.103  23.700  1.00  0.00     0.007 SA
ATOM     20  C   UNL A   1      35.787  19.820  25.039  1.00  0.00     0.039 C 
ATOM     21  H   UNL A   1      35.873  25.466  24.690  1.00  0.00     0.313 HD
BRANCH  14  22
ATOM     22  C   UNL A   1      37.978  24.180  25.300  1.00  0.00     0.275 C 
BRANCH  22  23
ATOM     23  C   UNL A   1      37.969  24.256  26.800  1.00  0.00     0.011 C 
ATOM     24  C   UNL A   1      38.820  24.965  27.554  1.00  0.00     0.008 C 
ENDBRANCH  22  23
ENDBRANCH  14  22
BRANCH  20  25
ATOM     25  C   UNL A   1      34.623  18.969  24.740  1.00  0.00     0.054 A 
ATOM     26  C   UNL A   1      34.904  17.813  23.986  1.00  0.00     0.015 A 
ATOM     27  C   UNL A   1      33.286  19.188  25.108  1.00  0.00     0.276 A 
ATOM     28  C   UNL A   1      33.896  16.908  23.634  1.00  0.00     0.001 A 
ATOM     29  C   UNL A   1      32.272  18.274  24.771  1.00  0.00     0.086 A 
ATOM     30  C   UNL A   1      32.582  17.134  24.033  1.00  0.00     0.007 A 
BRANCH  27  31
ATOM     31  N   UNL A   1      32.867  20.389  25.820  1.00  0.00     0.063 N 
ATOM     32  O   UNL A   1      32.022  21.107  25.261  1.00  0.00    -0.258 OA
ATOM     33  O   UNL A   1      33.412  20.639  26.900  1.00  0.00    -0.258 OA
ENDBRANCH  27  31
ENDBRANCH  20  25
ENDBRANCH   8  13
BRANCH  12  34
ATOM     34  O   UNL A   1      30.446  26.451  22.180  1.00  0.00    -0.508 OA
ATOM     35  H   UNL A   1      29.621  26.307  22.601  1.00  0.00     0.293 HD
ENDBRANCH  12  34
ENDBRANCH   5   7
ENDBRANCH   4   5
ENDBRANCH   3   4
ENDBRANCH   2   3
ENDBRANCH   1   2
BRANCH   1  36
ATOM     36  C   UNL A   1      32.417  30.245  25.885  1.00  0.00     0.202 C 
BRANCH  36  37
ATOM     37  C   UNL A   1      32.934  30.790  27.224  1.00  0.00     0.261 C 
BRANCH  37  38
ATOM     38  O   UNL A   1      34.229  31.410  27.162  1.00  0.00    -0.460 OA
BRANCH  38  39
ATOM     39  C   UNL A   1      34.435  32.370  28.097  1.00  0.00     0.338 C 
ATOM     40  O   UNL A   1      33.674  33.277  28.401  1.00  0.00    -0.246 OA
BRANCH  39  41
ATOM     41  C   UNL A   1      35.672  32.106  28.850  1.00  0.00     0.060 A 
ATOM     42  C   UNL A   1      36.797  32.882  28.548  1.00  0.00     0.016 A 
ATOM     43  C   UNL A   1      35.766  31.029  29.734  1.00  0.00     0.016 A 
ATOM     44  C   UNL A   1      38.036  32.555  29.097  1.00  0.00     0.010 A 
ATOM     45  C   UNL A   1      37.012  30.701  30.279  1.00  0.00     0.010 A 
ATOM     46  C   UNL A   1      38.159  31.440  29.936  1.00  0.00    -0.014 A 
BRANCH  46  47
ATOM     47  C   UNL A   1      39.507  31.000  30.377  1.00  0.00     0.031 A 
ATOM     48  C   UNL A   1      40.236  29.935  29.607  1.00  0.00     0.074 A 
ATOM     49  C   UNL A   1      40.082  31.558  31.457  1.00  0.00     0.049 A 
ATOM     50  N   UNL A   1      41.422  29.428  29.822  1.00  0.00    -0.248 NA
ATOM     51  C   UNL A   1      39.540  29.367  28.441  1.00  0.00     0.031 C 
ATOM     52  C   UNL A   1      39.475  32.597  32.281  1.00  0.00     0.029 A 
ATOM     53  N   UNL A   1      41.291  31.315  32.059  1.00  0.00    -0.354 N 
ATOM     54  C   UNL A   1      41.608  28.465  28.839  1.00  0.00     0.074 A 
ATOM     55  C   UNL A   1      40.404  28.448  28.035  1.00  0.00     0.031 C 
ATOM     56  C   UNL A   1      40.297  32.885  33.303  1.00  0.00     0.029 A 
ATOM     57  C   UNL A   1      41.485  32.041  33.210  1.00  0.00     0.049 A 
ATOM     58  H   UNL A   1      41.955  30.683  31.701  1.00  0.00     0.167 HD
ATOM     59  C   UNL A   1      42.688  27.681  28.615  1.00  0.00     0.034 A 
ATOM     60  C   UNL A   1      42.500  32.022  34.095  1.00  0.00     0.034 A 
ATOM     61  C   UNL A   1      43.889  27.715  29.406  1.00  0.00     0.049 A 
ATOM     62  C   UNL A   1      43.681  31.126  33.835  1.00  0.00     0.074 A 
ATOM     63  C   UNL A   1      45.062  27.002  29.220  1.00  0.00     0.029 A 
ATOM     64  N   UNL A   1      44.069  28.487  30.544  1.00  0.00    -0.354 N 
ATOM     65  N   UNL A   1      43.898  30.321  32.823  1.00  0.00    -0.248 NA
ATOM     66  C   UNL A   1      44.776  31.167  34.815  1.00  0.00     0.031 C 
ATOM     67  C   UNL A   1      45.938  27.321  30.264  1.00  0.00     0.029 A 
ATOM     68  C   UNL A   1      45.324  28.257  31.082  1.00  0.00     0.049 A 
ATOM     69  H   UNL A   1      43.402  29.110  30.913  1.00  0.00     0.167 HD
ATOM     70  C   UNL A   1      45.166  29.786  33.026  1.00  0.00     0.074 A 
ATOM     71  C   UNL A   1      45.676  30.376  34.246  1.00  0.00     0.031 C 
ATOM     72  C   UNL A   1      45.840  28.881  32.274  1.00  0.00     0.034 A 
BRANCH  59  73
ATOM     73  C   UNL A   1      42.629  26.730  27.448  1.00  0.00     0.023 A 
ATOM     74  C   UNL A   1      42.800  27.221  26.137  1.00  0.00     0.012 A 
ATOM     75  C   UNL A   1      42.453  25.348  27.649  1.00  0.00     0.148 A 
ATOM     76  C   UNL A   1      42.762  26.356  25.043  1.00  0.00     0.002 A 
ATOM     77  C   UNL A   1      42.459  24.486  26.559  1.00  0.00     0.091 A 
ATOM     78  F   UNL A   1      42.268  24.902  28.900  1.00  0.00    -0.205 F 
ATOM     79  C   UNL A   1      42.602  24.989  25.255  1.00  0.00     0.022 A 
BRANCH  77  80
ATOM     80  S   UNL A   1      42.337  22.703  26.735  1.00  0.00     0.127 S 
ATOM     81  O   UNL A   1      41.026  22.558  27.366  1.00  0.00    -0.237 OA
ATOM     82  O   UNL A   1      42.396  22.250  25.344  1.00  0.00    -0.237 OA
ATOM     83  O   UNL A   1      43.473  22.302  27.551  1.00  0.00    -0.744 OA
ENDBRANCH  77  80
ENDBRANCH  59  73
BRANCH  60  84
ATOM     84  C   UNL A   1      42.461  32.915  35.286  1.00  0.00     0.023 A 
ATOM     85  C   UNL A   1      43.003  34.212  35.200  1.00  0.00     0.012 A 
ATOM     86  C   UNL A   1      41.866  32.496  36.492  1.00  0.00     0.148 A 
ATOM     87  C   UNL A   1      42.977  35.067  36.302  1.00  0.00     0.002 A 
ATOM     88  C   UNL A   1      41.797  33.371  37.569  1.00  0.00     0.091 A 
ATOM     89  F   UNL A   1      41.373  31.251  36.559  1.00  0.00    -0.205 F 
ATOM     90  C   UNL A   1      42.364  34.651  37.482  1.00  0.00     0.022 A 
BRANCH  88  91
ATOM     91  S   UNL A   1      40.924  32.963  39.084  1.00  0.00     0.127 S 
ATOM     92  O   UNL A   1      39.634  32.506  38.571  1.00  0.00    -0.237 OA
ATOM     93  O   UNL A   1      41.771  31.911  39.646  1.00  0.00    -0.237 OA
ATOM     94  O   UNL A   1      40.894  34.193  39.866  1.00  0.00    -0.744 OA
ENDBRANCH  88  91
ENDBRANCH  60  84
BRANCH  72  95
ATOM     95  C   UNL A   1      47.222  28.489  32.730  1.00  0.00     0.023 A 
ATOM     96  C   UNL A   1      48.322  29.319  32.433  1.00  0.00     0.012 A 
ATOM     97  C   UNL A   1      47.423  27.330  33.507  1.00  0.00     0.148 A 
ATOM     98  C   UNL A   1      49.603  28.983  32.870  1.00  0.00     0.002 A 
ATOM     99  C   UNL A   1      48.694  27.028  33.981  1.00  0.00     0.091 A 
ATOM    100  F   UNL A   1      46.369  26.541  33.763  1.00  0.00    -0.205 F 
ATOM    101  C   UNL A   1      49.787  27.845  33.652  1.00  0.00     0.022 A 
BRANCH  99 102
ATOM    102  S   UNL A   1      49.008  25.638  35.074  1.00  0.00     0.127 S 
ATOM    103  O   UNL A   1      48.928  24.507  34.151  1.00  0.00    -0.237 OA
ATOM    104  O   UNL A   1      50.355  25.928  35.567  1.00  0.00    -0.237 OA
ATOM    105  O   UNL A   1      47.969  25.688  36.094  1.00  0.00    -0.744 OA
ENDBRANCH  99 102
ENDBRANCH  72  95
ENDBRANCH  46  47
ENDBRANCH  39  41
ENDBRANCH  38  39
ENDBRANCH  37  38
ENDBRANCH  36  37
ENDBRANCH   1  36
TORSDOF 23
ENDMDL
