MODEL 1
REMARK VINA RESULT:     -11.9      0.000      0.000
REMARK SMILES CC1(C)S[C@@H]2[C@H]([NH2+]Cn3nnc4ccccc43)C(=O)N2[C@@H]1C(=O)OCCOCCOC(=O)c1ccc(-c2c3nc(c(-c4cccc(S(=O)(=O)[O-])c4F)c4ccc([nH]4)c(-c4cccc(S(=O)(=O)[O-])c4F)c4nc(c(-c5cccc(S(=O)(=O)[O-])c5F)c5ccc2[nH]5)C=C4)C=C3)cc1
REMARK SMILES IDX 27 1 26 2 25 3 24 4 22 5 23 6 21 7 1 8 2 9 3 10 4 11 5 12
REMARK SMILES IDX 20 13 6 14 18 15 19 16 7 17 8 20 9 21 10 22 17 23 11 24
REMARK SMILES IDX 12 25 16 26 13 27 15 28 14 29 28 30 29 31 30 32 31 33 32 34
REMARK SMILES IDX 33 35 34 36 95 37 35 38 94 39 36 40 37 41 38 42 88 43 39 44
REMARK SMILES IDX 93 45 87 46 89 47 40 48 92 49 86 50 85 51 41 53 73 54 53 55
REMARK SMILES IDX 72 56 54 57 57 58 71 59 90 60 55 61 56 62 70 64 91 65 58 66
REMARK SMILES IDX 42 67 43 68 51 69 44 70 46 71 52 72 45 73 47 74 48 75 49 76
REMARK SMILES IDX 50 77 74 78 75 79 83 80 76 81 78 82 84 83 77 84 79 85 80 86
REMARK SMILES IDX 81 87 82 88 59 89 60 90 68 91 61 92 63 93 69 94 62 95 64 96
REMARK SMILES IDX 65 97 66 98 67 99
REMARK H PARENT 7 18 7 19 89 52 57 63
REMARK Flexibility Score: inf
ROOT
ATOM      1  O   UNL A   1      33.690  28.873  27.118  1.00  0.00    -0.374 OA
ENDROOT
BRANCH   1   2
ATOM      2  C   UNL A   1      33.889  27.830  26.174  1.00  0.00     0.202 C 
BRANCH   2   3
ATOM      3  C   UNL A   1      34.082  28.209  24.703  1.00  0.00     0.261 C 
BRANCH   3   4
ATOM      4  O   UNL A   1      33.560  27.249  23.774  1.00  0.00    -0.462 OA
BRANCH   4   5
ATOM      5  C   UNL A   1      32.304  27.538  23.340  1.00  0.00     0.330 C 
ATOM      6  O   UNL A   1      31.864  28.668  23.154  1.00  0.00    -0.250 OA
BRANCH   5   7
ATOM      7  C   UNL A   1      31.410  26.309  23.212  1.00  0.00     0.212 C 
ATOM      8  C   UNL A   1      30.656  27.253  25.560  1.00  0.00     0.026 C 
ATOM      9  C   UNL A   1      30.454  26.213  24.444  1.00  0.00     0.044 C 
ATOM     10  C   UNL A   1      29.003  26.252  23.958  1.00  0.00     0.026 C 
ATOM     11  S   UNL A   1      30.723  24.519  25.224  1.00  0.00    -0.121 SA
ATOM     12  C   UNL A   1      31.415  23.846  23.711  1.00  0.00     0.213 C 
ATOM     13  N   UNL A   1      32.060  25.020  23.139  1.00  0.00    -0.304 N 
ATOM     14  C   UNL A   1      32.754  23.095  23.398  1.00  0.00     0.307 C 
ATOM     15  C   UNL A   1      32.813  24.293  22.294  1.00  0.00     0.285 C 
ATOM     16  O   UNL A   1      33.248  24.525  21.201  1.00  0.00    -0.268 OA
BRANCH  14  17
ATOM     17  N   UNL A   1      33.933  23.113  24.313  1.00  0.00    -0.315 N 
ATOM     18  H   UNL A   1      34.035  24.052  24.700  1.00  0.00     0.348 HD
ATOM     19  H   UNL A   1      34.755  22.845  23.770  1.00  0.00     0.348 HD
BRANCH  17  20
ATOM     20  C   UNL A   1      33.796  22.171  25.404  1.00  0.00     0.415 C 
BRANCH  20  21
ATOM     21  N   UNL A   1      34.539  20.924  25.273  1.00  0.00    -0.194 N 
ATOM     22  N   UNL A   1      35.876  20.790  25.321  1.00  0.00    -0.061 NA
ATOM     23  C   UNL A   1      33.917  19.779  24.846  1.00  0.00     0.095 A 
ATOM     24  N   UNL A   1      36.153  19.547  24.924  1.00  0.00    -0.130 NA
ATOM     25  C   UNL A   1      34.973  18.924  24.590  1.00  0.00     0.113 A 
ATOM     26  C   UNL A   1      32.571  19.464  24.626  1.00  0.00     0.030 A 
ATOM     27  C   UNL A   1      34.691  17.668  24.036  1.00  0.00     0.032 A 
ATOM     28  C   UNL A   1      32.308  18.225  24.057  1.00  0.00     0.002 A 
ATOM     29  C   UNL A   1      33.351  17.357  23.737  1.00  0.00     0.002 A 
ENDBRANCH  20  21
ENDBRANCH  17  20
ENDBRANCH  14  17
ENDBRANCH   5   7
ENDBRANCH   4   5
ENDBRANCH   3   4
ENDBRANCH   2   3
ENDBRANCH   1   2
BRANCH   1  30
ATOM     30  C   UNL A   1      33.459  30.196  26.621  1.00  0.00     0.202 C 
BRANCH  30  31
ATOM     31  C   UNL A   1      33.468  31.378  27.611  1.00  0.00     0.261 C 
BRANCH  31  32
ATOM     32  O   UNL A   1      34.581  31.315  28.520  1.00  0.00    -0.460 OA
BRANCH  32  33
ATOM     33  C   UNL A   1      35.720  31.909  28.057  1.00  0.00     0.338 C 
ATOM     34  O   UNL A   1      35.825  33.019  27.572  1.00  0.00    -0.246 OA
BRANCH  33  35
ATOM     35  C   UNL A   1      36.829  31.120  28.633  1.00  0.00     0.060 A 
ATOM     36  C   UNL A   1      37.901  31.756  29.258  1.00  0.00     0.016 A 
ATOM     37  C   UNL A   1      36.926  29.784  28.220  1.00  0.00     0.016 A 
ATOM     38  C   UNL A   1      39.118  31.092  29.349  1.00  0.00     0.010 A 
ATOM     39  C   UNL A   1      38.157  29.136  28.275  1.00  0.00     0.010 A 
ATOM     40  C   UNL A   1      39.268  29.811  28.787  1.00  0.00    -0.014 A 
BRANCH  40  41
ATOM     41  C   UNL A   1      40.551  29.121  28.977  1.00  0.00     0.031 A 
ATOM     42  C   UNL A   1      40.816  28.857  30.421  1.00  0.00     0.074 A 
ATOM     43  C   UNL A   1      41.360  28.660  27.993  1.00  0.00     0.049 A 
ATOM     44  N   UNL A   1      41.816  29.262  31.134  1.00  0.00    -0.248 NA
ATOM     45  C   UNL A   1      39.743  28.210  31.201  1.00  0.00     0.031 C 
ATOM     46  C   UNL A   1      41.112  28.665  26.550  1.00  0.00     0.029 A 
ATOM     47  N   UNL A   1      42.543  27.969  28.083  1.00  0.00    -0.354 N 
ATOM     48  C   UNL A   1      41.594  28.740  32.406  1.00  0.00     0.074 A 
ATOM     49  C   UNL A   1      40.237  28.264  32.435  1.00  0.00     0.031 C 
ATOM     50  C   UNL A   1      41.964  27.810  25.940  1.00  0.00     0.029 A 
ATOM     51  C   UNL A   1      42.880  27.262  26.921  1.00  0.00     0.049 A 
ATOM     52  H   UNL A   1      43.104  27.970  28.892  1.00  0.00     0.167 HD
ATOM     53  C   UNL A   1      42.608  28.506  33.278  1.00  0.00     0.034 A 
ATOM     54  C   UNL A   1      43.778  26.245  26.793  1.00  0.00     0.034 A 
ATOM     55  C   UNL A   1      43.809  29.192  32.922  1.00  0.00     0.049 A 
ATOM     56  C   UNL A   1      44.716  26.355  27.926  1.00  0.00     0.074 A 
ATOM     57  C   UNL A   1      44.226  30.498  32.910  1.00  0.00     0.029 A 
ATOM     58  N   UNL A   1      44.731  28.497  32.192  1.00  0.00    -0.354 N 
ATOM     59  N   UNL A   1      45.534  27.352  28.088  1.00  0.00    -0.248 NA
ATOM     60  C   UNL A   1      44.425  25.563  29.106  1.00  0.00     0.031 C 
ATOM     61  C   UNL A   1      45.059  30.607  31.763  1.00  0.00     0.029 A 
ATOM     62  C   UNL A   1      45.213  29.330  31.220  1.00  0.00     0.049 A 
ATOM     63  H   UNL A   1      45.003  27.562  32.340  1.00  0.00     0.167 HD
ATOM     64  C   UNL A   1      45.471  27.609  29.448  1.00  0.00     0.074 A 
ATOM     65  C   UNL A   1      44.847  26.423  30.033  1.00  0.00     0.031 C 
ATOM     66  C   UNL A   1      45.661  28.870  29.929  1.00  0.00     0.034 A 
BRANCH  53  67
ATOM     67  C   UNL A   1      42.630  27.364  34.248  1.00  0.00     0.023 A 
ATOM     68  C   UNL A   1      42.288  27.636  35.588  1.00  0.00     0.012 A 
ATOM     69  C   UNL A   1      43.266  26.134  33.967  1.00  0.00     0.148 A 
ATOM     70  C   UNL A   1      42.592  26.733  36.610  1.00  0.00     0.002 A 
ATOM     71  C   UNL A   1      43.510  25.215  34.975  1.00  0.00     0.091 A 
ATOM     72  F   UNL A   1      43.760  25.907  32.745  1.00  0.00    -0.205 F 
ATOM     73  C   UNL A   1      43.196  25.519  36.303  1.00  0.00     0.022 A 
BRANCH  71  74
ATOM     74  S   UNL A   1      44.299  23.637  34.640  1.00  0.00     0.127 S 
ATOM     75  O   UNL A   1      43.451  23.110  33.574  1.00  0.00    -0.237 OA
ATOM     76  O   UNL A   1      45.636  24.058  34.222  1.00  0.00    -0.237 OA
ATOM     77  O   UNL A   1      44.268  22.907  35.900  1.00  0.00    -0.744 OA
ENDBRANCH  71  74
ENDBRANCH  53  67
BRANCH  54  78
ATOM     78  C   UNL A   1      43.712  24.987  25.989  1.00  0.00     0.023 A 
ATOM     79  C   UNL A   1      44.716  24.714  25.027  1.00  0.00     0.012 A 
ATOM     80  C   UNL A   1      42.867  23.921  26.361  1.00  0.00     0.148 A 
ATOM     81  C   UNL A   1      44.902  23.423  24.505  1.00  0.00     0.002 A 
ATOM     82  C   UNL A   1      43.040  22.648  25.823  1.00  0.00     0.091 A 
ATOM     83  F   UNL A   1      41.959  24.117  27.322  1.00  0.00    -0.205 F 
ATOM     84  C   UNL A   1      44.067  22.387  24.910  1.00  0.00     0.022 A 
BRANCH  82  85
ATOM     85  S   UNL A   1      41.981  21.277  26.303  1.00  0.00     0.127 S 
ATOM     86  O   UNL A   1      42.472  20.197  25.446  1.00  0.00    -0.237 OA
ATOM     87  O   UNL A   1      42.298  21.130  27.720  1.00  0.00    -0.237 OA
ATOM     88  O   UNL A   1      40.621  21.706  25.998  1.00  0.00    -0.744 OA
ENDBRANCH  82  85
ENDBRANCH  54  78
BRANCH  66  89
ATOM     89  C   UNL A   1      46.174  29.930  28.981  1.00  0.00     0.023 A 
ATOM     90  C   UNL A   1      47.531  30.028  28.604  1.00  0.00     0.012 A 
ATOM     91  C   UNL A   1      45.224  30.712  28.305  1.00  0.00     0.148 A 
ATOM     92  C   UNL A   1      47.927  30.886  27.572  1.00  0.00     0.002 A 
ATOM     93  C   UNL A   1      45.614  31.528  27.253  1.00  0.00     0.091 A 
ATOM     94  F   UNL A   1      43.940  30.604  28.676  1.00  0.00    -0.205 F 
ATOM     95  C   UNL A   1      46.966  31.622  26.883  1.00  0.00     0.022 A 
BRANCH  93  96
ATOM     96  S   UNL A   1      44.415  32.406  26.247  1.00  0.00     0.127 S 
ATOM     97  O   UNL A   1      43.469  31.345  25.905  1.00  0.00    -0.237 OA
ATOM     98  O   UNL A   1      43.903  33.405  27.186  1.00  0.00    -0.237 OA
ATOM     99  O   UNL A   1      45.156  32.965  25.125  1.00  0.00    -0.744 OA
ENDBRANCH  93  96
ENDBRANCH  66  89
ENDBRANCH  40  41
ENDBRANCH  33  35
ENDBRANCH  32  33
ENDBRANCH  31  32
ENDBRANCH  30  31
ENDBRANCH   1  30
TORSDOF 20
ENDMDL
MODEL 2
REMARK VINA RESULT:     -11.5      3.623      7.883
REMARK SMILES CC1(C)S[C@@H]2[C@H]([NH2+]Cn3nnc4ccccc43)C(=O)N2[C@@H]1C(=O)OCCOCCOC(=O)c1ccc(-c2c3nc(c(-c4cccc(S(=O)(=O)[O-])c4F)c4ccc([nH]4)c(-c4cccc(S(=O)(=O)[O-])c4F)c4nc(c(-c5cccc(S(=O)(=O)[O-])c5F)c5ccc2[nH]5)C=C4)C=C3)cc1
REMARK SMILES IDX 27 1 26 2 25 3 24 4 22 5 23 6 21 7 1 8 2 9 3 10 4 11 5 12
REMARK SMILES IDX 20 13 6 14 18 15 19 16 7 17 8 20 9 21 10 22 17 23 11 24
REMARK SMILES IDX 12 25 16 26 13 27 15 28 14 29 28 30 29 31 30 32 31 33 32 34
REMARK SMILES IDX 33 35 34 36 95 37 35 38 94 39 36 40 37 41 38 42 88 43 39 44
REMARK SMILES IDX 93 45 87 46 89 47 40 48 92 49 86 50 85 51 41 53 73 54 53 55
REMARK SMILES IDX 72 56 54 57 57 58 71 59 90 60 55 61 56 62 70 64 91 65 58 66
REMARK SMILES IDX 42 67 43 68 51 69 44 70 46 71 52 72 45 73 47 74 48 75 49 76
REMARK SMILES IDX 50 77 74 78 75 79 83 80 76 81 78 82 84 83 77 84 79 85 80 86
REMARK SMILES IDX 81 87 82 88 59 89 60 90 68 91 61 92 63 93 69 94 62 95 64 96
REMARK SMILES IDX 65 97 66 98 67 99
REMARK H PARENT 7 18 7 19 89 52 57 63
REMARK Flexibility Score: inf
ROOT
ATOM      1  O   UNL A   1      33.155  22.046  24.644  1.00  0.00    -0.374 OA
ENDROOT
BRANCH   1   2
ATOM      2  C   UNL A   1      32.355  22.163  25.812  1.00  0.00     0.202 C 
BRANCH   2   3
ATOM      3  C   UNL A   1      32.281  23.526  26.508  1.00  0.00     0.261 C 
BRANCH   3   4
ATOM      4  O   UNL A   1      31.826  24.593  25.665  1.00  0.00    -0.462 OA
BRANCH   4   5
ATOM      5  C   UNL A   1      32.684  25.646  25.608  1.00  0.00     0.330 C 
ATOM      6  O   UNL A   1      33.829  25.649  26.049  1.00  0.00    -0.250 OA
BRANCH   5   7
ATOM      7  C   UNL A   1      32.052  26.913  25.041  1.00  0.00     0.212 C 
ATOM      8  C   UNL A   1      33.536  26.123  23.006  1.00  0.00     0.026 C 
ATOM      9  C   UNL A   1      32.501  27.117  23.559  1.00  0.00     0.044 C 
ATOM     10  C   UNL A   1      31.264  27.132  22.657  1.00  0.00     0.026 C 
ATOM     11  S   UNL A   1      33.278  28.831  23.446  1.00  0.00    -0.121 SA
ATOM     12  C   UNL A   1      32.440  29.393  24.930  1.00  0.00     0.213 C 
ATOM     13  N   UNL A   1      32.357  28.162  25.703  1.00  0.00    -0.304 N 
ATOM     14  C   UNL A   1      32.954  30.057  26.252  1.00  0.00     0.307 C 
ATOM     15  C   UNL A   1      32.098  28.807  26.854  1.00  0.00     0.285 C 
ATOM     16  O   UNL A   1      31.462  28.500  27.823  1.00  0.00    -0.268 OA
BRANCH  14  17
ATOM     17  N   UNL A   1      34.383  30.021  26.683  1.00  0.00    -0.315 N 
ATOM     18  H   UNL A   1      34.977  30.098  25.857  1.00  0.00     0.348 HD
ATOM     19  H   UNL A   1      34.540  29.140  27.173  1.00  0.00     0.348 HD
BRANCH  17  20
ATOM     20  C   UNL A   1      34.709  31.099  27.593  1.00  0.00     0.415 C 
BRANCH  20  21
ATOM     21  N   UNL A   1      35.517  30.739  28.751  1.00  0.00    -0.194 N 
ATOM     22  N   UNL A   1      36.175  29.580  28.929  1.00  0.00    -0.061 NA
ATOM     23  C   UNL A   1      35.481  31.497  29.895  1.00  0.00     0.095 A 
ATOM     24  N   UNL A   1      36.583  29.559  30.199  1.00  0.00    -0.130 NA
ATOM     25  C   UNL A   1      36.134  30.702  30.819  1.00  0.00     0.113 A 
ATOM     26  C   UNL A   1      34.903  32.738  30.183  1.00  0.00     0.030 A 
ATOM     27  C   UNL A   1      36.194  31.142  32.147  1.00  0.00     0.032 A 
ATOM     28  C   UNL A   1      34.952  33.151  31.509  1.00  0.00     0.002 A 
ATOM     29  C   UNL A   1      35.556  32.353  32.478  1.00  0.00     0.002 A 
ENDBRANCH  20  21
ENDBRANCH  17  20
ENDBRANCH  14  17
ENDBRANCH   5   7
ENDBRANCH   4   5
ENDBRANCH   3   4
ENDBRANCH   2   3
ENDBRANCH   1   2
BRANCH   1  30
ATOM     30  C   UNL A   1      34.345  21.254  24.718  1.00  0.00     0.202 C 
BRANCH  30  31
ATOM     31  C   UNL A   1      35.301  21.452  25.911  1.00  0.00     0.261 C 
BRANCH  31  32
ATOM     32  O   UNL A   1      36.526  22.098  25.522  1.00  0.00    -0.460 OA
BRANCH  32  33
ATOM     33  C   UNL A   1      37.628  21.294  25.576  1.00  0.00     0.338 C 
ATOM     34  O   UNL A   1      37.752  20.184  25.092  1.00  0.00    -0.246 OA
BRANCH  33  35
ATOM     35  C   UNL A   1      38.740  22.186  25.963  1.00  0.00     0.060 A 
ATOM     36  C   UNL A   1      39.894  21.669  26.549  1.00  0.00     0.016 A 
ATOM     37  C   UNL A   1      38.443  23.555  26.043  1.00  0.00     0.016 A 
ATOM     38  C   UNL A   1      40.685  22.501  27.331  1.00  0.00     0.010 A 
ATOM     39  C   UNL A   1      39.214  24.377  26.859  1.00  0.00     0.010 A 
ATOM     40  C   UNL A   1      40.302  23.837  27.550  1.00  0.00    -0.014 A 
BRANCH  40  41
ATOM     41  C   UNL A   1      41.211  24.697  28.320  1.00  0.00     0.031 A 
ATOM     42  C   UNL A   1      40.652  26.071  28.479  1.00  0.00     0.074 A 
ATOM     43  C   UNL A   1      42.356  24.304  28.927  1.00  0.00     0.049 A 
ATOM     44  N   UNL A   1      41.172  27.191  28.094  1.00  0.00    -0.248 NA
ATOM     45  C   UNL A   1      39.265  26.188  28.968  1.00  0.00     0.031 C 
ATOM     46  C   UNL A   1      42.900  22.947  29.027  1.00  0.00     0.029 A 
ATOM     47  N   UNL A   1      43.232  25.026  29.699  1.00  0.00    -0.354 N 
ATOM     48  C   UNL A   1      40.261  28.171  28.484  1.00  0.00     0.074 A 
ATOM     49  C   UNL A   1      39.046  27.495  28.848  1.00  0.00     0.031 C 
ATOM     50  C   UNL A   1      43.842  22.906  29.997  1.00  0.00     0.029 A 
ATOM     51  C   UNL A   1      44.043  24.240  30.529  1.00  0.00     0.049 A 
ATOM     52  H   UNL A   1      43.285  26.008  29.673  1.00  0.00     0.167 HD
ATOM     53  C   UNL A   1      40.638  29.453  28.722  1.00  0.00     0.034 A 
ATOM     54  C   UNL A   1      44.755  24.638  31.620  1.00  0.00     0.034 A 
ATOM     55  C   UNL A   1      41.917  29.763  28.166  1.00  0.00     0.049 A 
ATOM     56  C   UNL A   1      44.969  26.091  31.487  1.00  0.00     0.074 A 
ATOM     57  C   UNL A   1      42.423  29.931  26.903  1.00  0.00     0.029 A 
ATOM     58  N   UNL A   1      43.000  29.652  28.992  1.00  0.00    -0.354 N 
ATOM     59  N   UNL A   1      45.690  26.628  30.548  1.00  0.00    -0.248 NA
ATOM     60  C   UNL A   1      44.019  26.964  32.149  1.00  0.00     0.031 C 
ATOM     61  C   UNL A   1      43.738  29.393  26.960  1.00  0.00     0.029 A 
ATOM     62  C   UNL A   1      44.007  29.054  28.287  1.00  0.00     0.049 A 
ATOM     63  H   UNL A   1      43.047  29.951  29.929  1.00  0.00     0.167 HD
ATOM     64  C   UNL A   1      44.956  27.741  30.170  1.00  0.00     0.074 A 
ATOM     65  C   UNL A   1      43.989  27.946  31.248  1.00  0.00     0.031 C 
ATOM     66  C   UNL A   1      45.008  28.209  28.891  1.00  0.00     0.034 A 
BRANCH  53  67
ATOM     67  C   UNL A   1      40.022  30.325  29.773  1.00  0.00     0.023 A 
ATOM     68  C   UNL A   1      39.531  31.585  29.375  1.00  0.00     0.012 A 
ATOM     69  C   UNL A   1      40.192  30.092  31.157  1.00  0.00     0.148 A 
ATOM     70  C   UNL A   1      39.248  32.580  30.314  1.00  0.00     0.002 A 
ATOM     71  C   UNL A   1      39.852  31.061  32.087  1.00  0.00     0.091 A 
ATOM     72  F   UNL A   1      40.813  28.981  31.570  1.00  0.00    -0.205 F 
ATOM     73  C   UNL A   1      39.401  32.316  31.670  1.00  0.00     0.022 A 
BRANCH  71  74
ATOM     74  S   UNL A   1      40.042  30.781  33.850  1.00  0.00     0.127 S 
ATOM     75  O   UNL A   1      41.495  30.776  33.989  1.00  0.00    -0.237 OA
ATOM     76  O   UNL A   1      39.366  31.951  34.411  1.00  0.00    -0.237 OA
ATOM     77  O   UNL A   1      39.371  29.516  34.121  1.00  0.00    -0.744 OA
ENDBRANCH  71  74
ENDBRANCH  53  67
BRANCH  54  78
ATOM     78  C   UNL A   1      44.976  23.960  32.934  1.00  0.00     0.023 A 
ATOM     79  C   UNL A   1      44.024  23.025  33.412  1.00  0.00     0.012 A 
ATOM     80  C   UNL A   1      46.234  23.983  33.570  1.00  0.00     0.148 A 
ATOM     81  C   UNL A   1      44.337  22.118  34.437  1.00  0.00     0.002 A 
ATOM     82  C   UNL A   1      46.532  23.097  34.603  1.00  0.00     0.091 A 
ATOM     83  F   UNL A   1      47.185  24.795  33.099  1.00  0.00    -0.205 F 
ATOM     84  C   UNL A   1      45.594  22.149  35.028  1.00  0.00     0.022 A 
BRANCH  82  85
ATOM     85  S   UNL A   1      48.138  23.104  35.410  1.00  0.00     0.127 S 
ATOM     86  O   UNL A   1      47.924  22.179  36.523  1.00  0.00    -0.237 OA
ATOM     87  O   UNL A   1      49.011  22.602  34.352  1.00  0.00    -0.237 OA
ATOM     88  O   UNL A   1      48.367  24.485  35.818  1.00  0.00    -0.744 OA
ENDBRANCH  82  85
ENDBRANCH  54  78
BRANCH  66  89
ATOM     89  C   UNL A   1      46.056  27.642  27.961  1.00  0.00     0.023 A 
ATOM     90  C   UNL A   1      47.417  28.008  28.028  1.00  0.00     0.012 A 
ATOM     91  C   UNL A   1      45.682  26.567  27.140  1.00  0.00     0.148 A 
ATOM     92  C   UNL A   1      48.383  27.311  27.293  1.00  0.00     0.002 A 
ATOM     93  C   UNL A   1      46.647  25.849  26.447  1.00  0.00     0.091 A 
ATOM     94  F   UNL A   1      44.384  26.233  27.091  1.00  0.00    -0.205 F 
ATOM     95  C   UNL A   1      48.000  26.219  26.517  1.00  0.00     0.022 A 
BRANCH  93  96
ATOM     96  S   UNL A   1      46.238  24.361  25.531  1.00  0.00     0.127 S 
ATOM     97  O   UNL A   1      46.526  23.313  26.508  1.00  0.00    -0.237 OA
ATOM     98  O   UNL A   1      44.815  24.560  25.246  1.00  0.00    -0.237 OA
ATOM     99  O   UNL A   1      47.090  24.364  24.350  1.00  0.00    -0.744 OA
ENDBRANCH  93  96
ENDBRANCH  66  89
ENDBRANCH  40  41
ENDBRANCH  33  35
ENDBRANCH  32  33
ENDBRANCH  31  32
ENDBRANCH  30  31
ENDBRANCH   1  30
TORSDOF 20
ENDMDL
MODEL 3
REMARK VINA RESULT:     -11.5      1.794      2.166
REMARK SMILES CC1(C)S[C@@H]2[C@H]([NH2+]Cn3nnc4ccccc43)C(=O)N2[C@@H]1C(=O)OCCOCCOC(=O)c1ccc(-c2c3nc(c(-c4cccc(S(=O)(=O)[O-])c4F)c4ccc([nH]4)c(-c4cccc(S(=O)(=O)[O-])c4F)c4nc(c(-c5cccc(S(=O)(=O)[O-])c5F)c5ccc2[nH]5)C=C4)C=C3)cc1
REMARK SMILES IDX 27 1 26 2 25 3 24 4 22 5 23 6 21 7 1 8 2 9 3 10 4 11 5 12
REMARK SMILES IDX 20 13 6 14 18 15 19 16 7 17 8 20 9 21 10 22 17 23 11 24
REMARK SMILES IDX 12 25 16 26 13 27 15 28 14 29 28 30 29 31 30 32 31 33 32 34
REMARK SMILES IDX 33 35 34 36 95 37 35 38 94 39 36 40 37 41 38 42 88 43 39 44
REMARK SMILES IDX 93 45 87 46 89 47 40 48 92 49 86 50 85 51 41 53 73 54 53 55
REMARK SMILES IDX 72 56 54 57 57 58 71 59 90 60 55 61 56 62 70 64 91 65 58 66
REMARK SMILES IDX 42 67 43 68 51 69 44 70 46 71 52 72 45 73 47 74 48 75 49 76
REMARK SMILES IDX 50 77 74 78 75 79 83 80 76 81 78 82 84 83 77 84 79 85 80 86
REMARK SMILES IDX 81 87 82 88 59 89 60 90 68 91 61 92 63 93 69 94 62 95 64 96
REMARK SMILES IDX 65 97 66 98 67 99
REMARK H PARENT 7 18 7 19 89 52 57 63
REMARK Flexibility Score: inf
ROOT
ATOM      1  O   UNL A   1      32.868  28.662  27.415  1.00  0.00    -0.374 OA
ENDROOT
BRANCH   1   2
ATOM      2  C   UNL A   1      33.787  27.929  26.618  1.00  0.00     0.202 C 
BRANCH   2   3
ATOM      3  C   UNL A   1      33.882  28.265  25.126  1.00  0.00     0.261 C 
BRANCH   3   4
ATOM      4  O   UNL A   1      33.363  27.248  24.259  1.00  0.00    -0.462 OA
BRANCH   4   5
ATOM      5  C   UNL A   1      32.203  27.598  23.643  1.00  0.00     0.330 C 
ATOM      6  O   UNL A   1      31.788  28.746  23.518  1.00  0.00    -0.250 OA
BRANCH   5   7
ATOM      7  C   UNL A   1      31.364  26.402  23.206  1.00  0.00     0.212 C 
ATOM      8  C   UNL A   1      30.524  26.742  25.685  1.00  0.00     0.026 C 
ATOM      9  C   UNL A   1      30.389  25.985  24.353  1.00  0.00     0.044 C 
ATOM     10  C   UNL A   1      28.947  26.084  23.847  1.00  0.00     0.026 C 
ATOM     11  S   UNL A   1      30.713  24.167  24.724  1.00  0.00    -0.121 SA
ATOM     12  C   UNL A   1      31.462  23.892  23.117  1.00  0.00     0.213 C 
ATOM     13  N   UNL A   1      32.068  25.190  22.853  1.00  0.00    -0.304 N 
ATOM     14  C   UNL A   1      32.838  23.284  22.677  1.00  0.00     0.307 C 
ATOM     15  C   UNL A   1      32.868  24.709  21.884  1.00  0.00     0.285 C 
ATOM     16  O   UNL A   1      33.315  25.206  20.889  1.00  0.00    -0.268 OA
BRANCH  14  17
ATOM     17  N   UNL A   1      33.997  23.131  23.605  1.00  0.00    -0.315 N 
ATOM     18  H   UNL A   1      34.289  24.056  23.922  1.00  0.00     0.348 HD
ATOM     19  H   UNL A   1      34.746  22.660  23.095  1.00  0.00     0.348 HD
BRANCH  17  20
ATOM     20  C   UNL A   1      33.671  22.322  24.761  1.00  0.00     0.415 C 
BRANCH  20  21
ATOM     21  N   UNL A   1      34.441  21.096  24.925  1.00  0.00    -0.194 N 
ATOM     22  N   UNL A   1      35.763  21.016  25.158  1.00  0.00    -0.061 NA
ATOM     23  C   UNL A   1      33.893  19.877  24.614  1.00  0.00     0.095 A 
ATOM     24  N   UNL A   1      36.104  19.735  25.004  1.00  0.00    -0.130 NA
ATOM     25  C   UNL A   1      34.984  19.028  24.631  1.00  0.00     0.113 A 
ATOM     26  C   UNL A   1      32.590  19.487  24.284  1.00  0.00     0.030 A 
ATOM     27  C   UNL A   1      34.792  17.692  24.256  1.00  0.00     0.032 A 
ATOM     28  C   UNL A   1      32.418  18.165  23.894  1.00  0.00     0.002 A 
ATOM     29  C   UNL A   1      33.505  17.293  23.849  1.00  0.00     0.002 A 
ENDBRANCH  20  21
ENDBRANCH  17  20
ENDBRANCH  14  17
ENDBRANCH   5   7
ENDBRANCH   4   5
ENDBRANCH   3   4
ENDBRANCH   2   3
ENDBRANCH   1   2
BRANCH   1  30
ATOM     30  C   UNL A   1      32.194  29.775  26.817  1.00  0.00     0.202 C 
BRANCH  30  31
ATOM     31  C   UNL A   1      32.744  31.196  27.055  1.00  0.00     0.261 C 
BRANCH  31  32
ATOM     32  O   UNL A   1      34.172  31.203  27.225  1.00  0.00    -0.460 OA
BRANCH  32  33
ATOM     33  C   UNL A   1      34.633  32.175  28.067  1.00  0.00     0.338 C 
ATOM     34  O   UNL A   1      34.031  33.158  28.454  1.00  0.00    -0.246 OA
BRANCH  33  35
ATOM     35  C   UNL A   1      35.821  31.588  28.721  1.00  0.00     0.060 A 
ATOM     36  C   UNL A   1      36.920  32.384  29.041  1.00  0.00     0.016 A 
ATOM     37  C   UNL A   1      35.932  30.191  28.677  1.00  0.00     0.016 A 
ATOM     38  C   UNL A   1      38.165  31.787  29.186  1.00  0.00     0.010 A 
ATOM     39  C   UNL A   1      37.188  29.599  28.782  1.00  0.00     0.010 A 
ATOM     40  C   UNL A   1      38.313  30.403  28.980  1.00  0.00    -0.014 A 
BRANCH  40  41
ATOM     41  C   UNL A   1      39.635  29.807  29.220  1.00  0.00     0.031 A 
ATOM     42  C   UNL A   1      40.055  29.976  30.642  1.00  0.00     0.074 A 
ATOM     43  C   UNL A   1      40.357  29.086  28.329  1.00  0.00     0.049 A 
ATOM     44  N   UNL A   1      41.106  30.579  31.094  1.00  0.00    -0.248 NA
ATOM     45  C   UNL A   1      39.093  29.577  31.686  1.00  0.00     0.031 C 
ATOM     46  C   UNL A   1      39.965  28.669  26.981  1.00  0.00     0.029 A 
ATOM     47  N   UNL A   1      41.569  28.461  28.486  1.00  0.00    -0.354 N 
ATOM     48  C   UNL A   1      41.034  30.449  32.480  1.00  0.00     0.074 A 
ATOM     49  C   UNL A   1      39.707  29.990  32.791  1.00  0.00     0.031 C 
ATOM     50  C   UNL A   1      40.783  27.680  26.555  1.00  0.00     0.029 A 
ATOM     51  C   UNL A   1      41.814  27.448  27.548  1.00  0.00     0.049 A 
ATOM     52  H   UNL A   1      42.209  28.701  29.194  1.00  0.00     0.167 HD
ATOM     53  C   UNL A   1      42.140  30.485  33.267  1.00  0.00     0.034 A 
ATOM     54  C   UNL A   1      42.733  26.446  27.622  1.00  0.00     0.034 A 
ATOM     55  C   UNL A   1      43.271  31.047  32.600  1.00  0.00     0.049 A 
ATOM     56  C   UNL A   1      43.776  26.887  28.567  1.00  0.00     0.074 A 
ATOM     57  C   UNL A   1      43.634  32.297  32.167  1.00  0.00     0.029 A 
ATOM     58  N   UNL A   1      44.141  30.177  32.006  1.00  0.00    -0.354 N 
ATOM     59  N   UNL A   1      44.567  27.895  28.344  1.00  0.00    -0.248 NA
ATOM     60  C   UNL A   1      43.638  26.470  29.949  1.00  0.00     0.031 C 
ATOM     61  C   UNL A   1      44.341  32.074  30.954  1.00  0.00     0.029 A 
ATOM     62  C   UNL A   1      44.489  30.695  30.789  1.00  0.00     0.049 A 
ATOM     63  H   UNL A   1      44.462  29.328  32.387  1.00  0.00     0.167 HD
ATOM     64  C   UNL A   1      44.633  28.535  29.571  1.00  0.00     0.074 A 
ATOM     65  C   UNL A   1      44.117  27.566  30.538  1.00  0.00     0.031 C 
ATOM     66  C   UNL A   1      44.821  29.883  29.644  1.00  0.00     0.034 A 
BRANCH  53  67
ATOM     67  C   UNL A   1      42.305  29.675  34.517  1.00  0.00     0.023 A 
ATOM     68  C   UNL A   1      42.956  30.282  35.610  1.00  0.00     0.012 A 
ATOM     69  C   UNL A   1      42.133  28.273  34.548  1.00  0.00     0.148 A 
ATOM     70  C   UNL A   1      43.441  29.521  36.675  1.00  0.00     0.002 A 
ATOM     71  C   UNL A   1      42.562  27.530  35.636  1.00  0.00     0.091 A 
ATOM     72  F   UNL A   1      41.678  27.637  33.462  1.00  0.00    -0.205 F 
ATOM     73  C   UNL A   1      43.238  28.146  36.693  1.00  0.00     0.022 A 
BRANCH  71  74
ATOM     74  S   UNL A   1      42.339  25.750  35.707  1.00  0.00     0.127 S 
ATOM     75  O   UNL A   1      40.892  25.633  35.550  1.00  0.00    -0.237 OA
ATOM     76  O   UNL A   1      43.127  25.306  34.557  1.00  0.00    -0.237 OA
ATOM     77  O   UNL A   1      42.876  25.338  36.997  1.00  0.00    -0.744 OA
ENDBRANCH  71  74
ENDBRANCH  53  67
BRANCH  54  78
ATOM     78  C   UNL A   1      42.634  25.007  27.227  1.00  0.00     0.023 A 
ATOM     79  C   UNL A   1      41.380  24.349  27.278  1.00  0.00     0.012 A 
ATOM     80  C   UNL A   1      43.671  24.367  26.517  1.00  0.00     0.148 A 
ATOM     81  C   UNL A   1      41.159  23.138  26.604  1.00  0.00     0.002 A 
ATOM     82  C   UNL A   1      43.453  23.153  25.870  1.00  0.00     0.091 A 
ATOM     83  F   UNL A   1      44.845  24.992  26.379  1.00  0.00    -0.205 F 
ATOM     84  C   UNL A   1      42.195  22.542  25.893  1.00  0.00     0.022 A 
BRANCH  82  85
ATOM     85  S   UNL A   1      44.762  22.336  24.947  1.00  0.00     0.127 S 
ATOM     86  O   UNL A   1      44.124  21.076  24.564  1.00  0.00    -0.237 OA
ATOM     87  O   UNL A   1      44.987  23.270  23.848  1.00  0.00    -0.237 OA
ATOM     88  O   UNL A   1      45.868  22.182  25.886  1.00  0.00    -0.744 OA
ENDBRANCH  82  85
ENDBRANCH  54  78
BRANCH  66  89
ATOM     89  C   UNL A   1      45.194  30.626  28.382  1.00  0.00     0.023 A 
ATOM     90  C   UNL A   1      44.235  31.201  27.521  1.00  0.00     0.012 A 
ATOM     91  C   UNL A   1      46.551  30.919  28.177  1.00  0.00     0.148 A 
ATOM     92  C   UNL A   1      44.624  32.052  26.481  1.00  0.00     0.002 A 
ATOM     93  C   UNL A   1      46.931  31.799  27.173  1.00  0.00     0.091 A 
ATOM     94  F   UNL A   1      47.448  30.365  29.007  1.00  0.00    -0.205 F 
ATOM     95  C   UNL A   1      45.972  32.366  26.319  1.00  0.00     0.022 A 
BRANCH  93  96
ATOM     96  S   UNL A   1      48.632  32.340  26.989  1.00  0.00     0.127 S 
ATOM     97  O   UNL A   1      48.930  32.868  28.320  1.00  0.00    -0.237 OA
ATOM     98  O   UNL A   1      49.317  31.089  26.658  1.00  0.00    -0.237 OA
ATOM     99  O   UNL A   1      48.633  33.323  25.915  1.00  0.00    -0.744 OA
ENDBRANCH  93  96
ENDBRANCH  66  89
ENDBRANCH  40  41
ENDBRANCH  33  35
ENDBRANCH  32  33
ENDBRANCH  31  32
ENDBRANCH  30  31
ENDBRANCH   1  30
TORSDOF 20
ENDMDL
