MODEL 1
REMARK VINA RESULT:     -11.3      0.000      0.000
REMARK SMILES NS(=O)(=O)c1ccc(-n2nc(C(=O)OCCOCCOC(=O)c3ccc(-c4c5nc(c(-c6cccc(S(=O)(=O)[O-])c6F)c6ccc([nH]6)c(-c6cccc(S(=O)(=O)[O-])c6F)c6nc(c(-c7cccc(S(=O)(=O)[O-])c7F)c7ccc4[nH]7)C=C6)C=C5)cc3)cc2-c2cc3ccccc3s2)cc1
REMARK SMILES IDX 17 1 16 2 15 3 14 4 12 5 13 6 11 7 9 8 10 9 87 10 86 11 8 12
REMARK SMILES IDX 5 13 6 14 98 15 7 16 97 17 2 18 3 19 4 20 1 21 88 24 89 25
REMARK SMILES IDX 96 26 90 27 95 28 91 29 94 30 92 31 93 32 18 33 19 34 20 35
REMARK SMILES IDX 21 36 22 37 23 38 24 39 85 40 25 41 84 42 26 43 27 44 28 45
REMARK SMILES IDX 78 46 29 47 83 48 77 49 79 50 30 51 82 52 76 53 75 54 31 56
REMARK SMILES IDX 63 57 43 58 62 59 44 60 47 61 61 62 80 63 45 64 46 65 60 67
REMARK SMILES IDX 81 68 48 69 32 70 33 71 41 72 34 73 36 74 42 75 35 76 37 77
REMARK SMILES IDX 38 78 39 79 40 80 64 81 65 82 73 83 66 84 68 85 74 86 67 87
REMARK SMILES IDX 69 88 70 89 71 90 72 91 49 92 50 93 58 94 51 95 53 96 59 97
REMARK SMILES IDX 52 98 54 99 55 100 56 101 57 102
REMARK H PARENT 1 22 1 23 79 55 47 66
REMARK Flexibility Score: inf
ROOT
ATOM      1  O   UNL A   1      33.921  35.314  29.547  1.00  0.00    -0.374 OA
ENDROOT
BRANCH   1   2
ATOM      2  C   UNL A   1      33.325  34.345  28.685  1.00  0.00     0.202 C 
BRANCH   2   3
ATOM      3  C   UNL A   1      34.233  33.314  28.016  1.00  0.00     0.261 C 
BRANCH   3   4
ATOM      4  O   UNL A   1      33.550  32.074  27.814  1.00  0.00    -0.458 OA
BRANCH   4   5
ATOM      5  C   UNL A   1      34.349  31.013  27.486  1.00  0.00     0.358 C 
ATOM      6  O   UNL A   1      35.551  30.950  27.719  1.00  0.00    -0.244 OA
BRANCH   5   7
ATOM      7  C   UNL A   1      33.570  29.933  26.871  1.00  0.00     0.171 A 
ATOM      8  N   UNL A   1      33.138  28.002  26.088  1.00  0.00    -0.231 N 
ATOM      9  N   UNL A   1      33.782  28.626  27.110  1.00  0.00    -0.160 NA
ATOM     10  C   UNL A   1      32.604  28.912  25.208  1.00  0.00     0.085 A 
ATOM     11  C   UNL A   1      32.529  30.090  25.934  1.00  0.00     0.068 A 
BRANCH   8  12
ATOM     12  C   UNL A   1      33.116  26.601  26.043  1.00  0.00     0.065 A 
ATOM     13  C   UNL A   1      33.044  23.838  26.080  1.00  0.00     0.082 A 
ATOM     14  C   UNL A   1      34.202  24.501  25.645  1.00  0.00     0.024 A 
ATOM     15  C   UNL A   1      31.913  24.552  26.484  1.00  0.00     0.024 A 
ATOM     16  C   UNL A   1      34.235  25.894  25.610  1.00  0.00     0.030 A 
ATOM     17  C   UNL A   1      31.960  25.944  26.494  1.00  0.00     0.030 A 
BRANCH  13  18
ATOM     18  S   UNL A   1      33.021  22.072  26.081  1.00  0.00     0.238 S 
ATOM     19  O   UNL A   1      33.387  21.584  27.384  1.00  0.00    -0.207 OA
ATOM     20  O   UNL A   1      33.631  21.574  24.862  1.00  0.00    -0.207 OA
BRANCH  18  21
ATOM     21  N   UNL A   1      31.379  21.751  25.921  1.00  0.00    -0.225 NA
ATOM     22  H   UNL A   1      31.202  20.769  26.131  1.00  0.00     0.137 HD
ATOM     23  H   UNL A   1      31.084  21.954  24.967  1.00  0.00     0.137 HD
ENDBRANCH  18  21
ENDBRANCH  13  18
ENDBRANCH   8  12
BRANCH  10  24
ATOM     24  C   UNL A   1      32.442  28.836  23.778  1.00  0.00     0.054 A 
ATOM     25  C   UNL A   1      32.967  27.865  22.929  1.00  0.00     0.031 A 
ATOM     26  S   UNL A   1      30.780  29.010  23.231  1.00  0.00    -0.134 S 
ATOM     27  C   UNL A   1      31.979  26.794  22.876  1.00  0.00    -0.007 A 
ATOM     28  C   UNL A   1      30.712  27.270  23.245  1.00  0.00     0.035 A 
ATOM     29  C   UNL A   1      32.137  25.404  22.691  1.00  0.00     0.009 A 
ATOM     30  C   UNL A   1      29.656  26.416  23.597  1.00  0.00     0.019 A 
ATOM     31  C   UNL A   1      31.100  24.541  23.068  1.00  0.00     0.001 A 
ATOM     32  C   UNL A   1      29.896  25.041  23.556  1.00  0.00     0.001 A 
ENDBRANCH  10  24
ENDBRANCH   5   7
ENDBRANCH   4   5
ENDBRANCH   3   4
ENDBRANCH   2   3
ENDBRANCH   1   2
BRANCH   1  33
ATOM     33  C   UNL A   1      33.342  35.623  30.812  1.00  0.00     0.202 C 
BRANCH  33  34
ATOM     34  C   UNL A   1      34.125  35.353  32.085  1.00  0.00     0.261 C 
BRANCH  34  35
ATOM     35  O   UNL A   1      35.250  34.523  31.861  1.00  0.00    -0.460 OA
BRANCH  35  36
ATOM     36  C   UNL A   1      34.939  33.206  31.825  1.00  0.00     0.338 C 
ATOM     37  O   UNL A   1      34.032  32.645  32.416  1.00  0.00    -0.246 OA
BRANCH  36  38
ATOM     38  C   UNL A   1      35.996  32.508  31.095  1.00  0.00     0.060 A 
ATOM     39  C   UNL A   1      35.983  31.112  31.175  1.00  0.00     0.016 A 
ATOM     40  C   UNL A   1      37.129  33.233  30.706  1.00  0.00     0.016 A 
ATOM     41  C   UNL A   1      37.186  30.454  31.106  1.00  0.00     0.010 A 
ATOM     42  C   UNL A   1      38.330  32.582  30.686  1.00  0.00     0.010 A 
ATOM     43  C   UNL A   1      38.347  31.219  30.972  1.00  0.00    -0.014 A 
BRANCH  43  44
ATOM     44  C   UNL A   1      39.626  30.555  30.978  1.00  0.00     0.031 A 
ATOM     45  C   UNL A   1      40.250  30.634  32.314  1.00  0.00     0.074 A 
ATOM     46  C   UNL A   1      40.061  29.845  29.922  1.00  0.00     0.049 A 
ATOM     47  N   UNL A   1      41.232  31.395  32.665  1.00  0.00    -0.248 NA
ATOM     48  C   UNL A   1      39.538  30.017  33.449  1.00  0.00     0.031 C 
ATOM     49  C   UNL A   1      39.344  29.535  28.681  1.00  0.00     0.029 A 
ATOM     50  N   UNL A   1      41.203  29.119  29.800  1.00  0.00    -0.354 N 
ATOM     51  C   UNL A   1      41.433  31.098  34.006  1.00  0.00     0.074 A 
ATOM     52  C   UNL A   1      40.204  30.533  34.483  1.00  0.00     0.031 C 
ATOM     53  C   UNL A   1      39.953  28.492  28.069  1.00  0.00     0.029 A 
ATOM     54  C   UNL A   1      41.149  28.138  28.814  1.00  0.00     0.049 A 
ATOM     55  H   UNL A   1      41.998  29.273  30.359  1.00  0.00     0.167 HD
ATOM     56  C   UNL A   1      42.694  30.974  34.501  1.00  0.00     0.034 A 
ATOM     57  C   UNL A   1      41.981  27.069  28.695  1.00  0.00     0.034 A 
ATOM     58  C   UNL A   1      43.663  31.546  33.598  1.00  0.00     0.049 A 
ATOM     59  C   UNL A   1      43.197  27.368  29.492  1.00  0.00     0.074 A 
ATOM     60  C   UNL A   1      43.836  32.787  33.018  1.00  0.00     0.029 A 
ATOM     61  N   UNL A   1      44.389  30.661  32.837  1.00  0.00    -0.354 N 
ATOM     62  N   UNL A   1      44.047  28.299  29.164  1.00  0.00    -0.248 NA
ATOM     63  C   UNL A   1      43.209  26.977  30.893  1.00  0.00     0.031 C 
ATOM     64  C   UNL A   1      44.276  32.516  31.690  1.00  0.00     0.029 A 
ATOM     65  C   UNL A   1      44.437  31.136  31.553  1.00  0.00     0.049 A 
ATOM     66  H   UNL A   1      44.805  29.828  33.159  1.00  0.00     0.167 HD
ATOM     67  C   UNL A   1      44.319  28.945  30.362  1.00  0.00     0.074 A 
ATOM     68  C   UNL A   1      43.876  28.018  31.405  1.00  0.00     0.031 C 
ATOM     69  C   UNL A   1      44.572  30.287  30.389  1.00  0.00     0.034 A 
BRANCH  56  70
ATOM     70  C   UNL A   1      43.093  29.972  35.562  1.00  0.00     0.023 A 
ATOM     71  C   UNL A   1      43.908  30.448  36.609  1.00  0.00     0.012 A 
ATOM     72  C   UNL A   1      42.946  28.567  35.457  1.00  0.00     0.148 A 
ATOM     73  C   UNL A   1      44.582  29.575  37.469  1.00  0.00     0.002 A 
ATOM     74  C   UNL A   1      43.545  27.706  36.365  1.00  0.00     0.091 A 
ATOM     75  F   UNL A   1      42.344  28.025  34.398  1.00  0.00    -0.205 F 
ATOM     76  C   UNL A   1      44.392  28.202  37.354  1.00  0.00     0.022 A 
BRANCH  74  77
ATOM     77  S   UNL A   1      43.289  25.927  36.281  1.00  0.00     0.127 S 
ATOM     78  O   UNL A   1      41.833  25.844  36.216  1.00  0.00    -0.237 OA
ATOM     79  O   UNL A   1      43.989  25.586  35.041  1.00  0.00    -0.237 OA
ATOM     80  O   UNL A   1      43.907  25.381  37.483  1.00  0.00    -0.744 OA
ENDBRANCH  74  77
ENDBRANCH  56  70
BRANCH  57  81
ATOM     81  C   UNL A   1      41.718  25.704  28.175  1.00  0.00     0.023 A 
ATOM     82  C   UNL A   1      40.413  25.171  28.225  1.00  0.00     0.012 A 
ATOM     83  C   UNL A   1      42.674  25.039  27.375  1.00  0.00     0.148 A 
ATOM     84  C   UNL A   1      40.064  24.034  27.481  1.00  0.00     0.002 A 
ATOM     85  C   UNL A   1      42.324  23.909  26.642  1.00  0.00     0.091 A 
ATOM     86  F   UNL A   1      43.896  25.570  27.256  1.00  0.00    -0.205 F 
ATOM     87  C   UNL A   1      41.018  23.408  26.682  1.00  0.00     0.022 A 
BRANCH  85  88
ATOM     88  S   UNL A   1      43.495  23.078  25.557  1.00  0.00     0.127 S 
ATOM     89  O   UNL A   1      44.556  22.698  26.490  1.00  0.00    -0.237 OA
ATOM     90  O   UNL A   1      42.697  21.965  25.048  1.00  0.00    -0.237 OA
ATOM     91  O   UNL A   1      43.894  24.070  24.566  1.00  0.00    -0.744 OA
ENDBRANCH  85  88
ENDBRANCH  57  81
BRANCH  69  92
ATOM     92  C   UNL A   1      44.788  30.986  29.067  1.00  0.00     0.023 A 
ATOM     93  C   UNL A   1      43.737  31.575  28.330  1.00  0.00     0.012 A 
ATOM     94  C   UNL A   1      46.107  31.174  28.628  1.00  0.00     0.148 A 
ATOM     95  C   UNL A   1      43.996  32.302  27.164  1.00  0.00     0.002 A 
ATOM     96  C   UNL A   1      46.364  31.936  27.495  1.00  0.00     0.091 A 
ATOM     97  F   UNL A   1      47.098  30.617  29.340  1.00  0.00    -0.205 F 
ATOM     98  C   UNL A   1      45.311  32.491  26.752  1.00  0.00     0.022 A 
BRANCH  96  99
ATOM     99  S   UNL A   1      48.043  32.310  26.991  1.00  0.00     0.127 S 
ATOM    100  O   UNL A   1      48.600  32.904  28.204  1.00  0.00    -0.237 OA
ATOM    101  O   UNL A   1      48.575  30.988  26.656  1.00  0.00    -0.237 OA
ATOM    102  O   UNL A   1      47.925  33.207  25.847  1.00  0.00    -0.744 OA
ENDBRANCH  96  99
ENDBRANCH  69  92
ENDBRANCH  43  44
ENDBRANCH  36  38
ENDBRANCH  35  36
ENDBRANCH  34  35
ENDBRANCH  33  34
ENDBRANCH   1  33
TORSDOF 21
ENDMDL
MODEL 2
REMARK VINA RESULT:     -11.2      1.827      2.320
REMARK SMILES NS(=O)(=O)c1ccc(-n2nc(C(=O)OCCOCCOC(=O)c3ccc(-c4c5nc(c(-c6cccc(S(=O)(=O)[O-])c6F)c6ccc([nH]6)c(-c6cccc(S(=O)(=O)[O-])c6F)c6nc(c(-c7cccc(S(=O)(=O)[O-])c7F)c7ccc4[nH]7)C=C6)C=C5)cc3)cc2-c2cc3ccccc3s2)cc1
REMARK SMILES IDX 17 1 16 2 15 3 14 4 12 5 13 6 11 7 9 8 10 9 87 10 86 11 8 12
REMARK SMILES IDX 5 13 6 14 98 15 7 16 97 17 2 18 3 19 4 20 1 21 88 24 89 25
REMARK SMILES IDX 96 26 90 27 95 28 91 29 94 30 92 31 93 32 18 33 19 34 20 35
REMARK SMILES IDX 21 36 22 37 23 38 24 39 85 40 25 41 84 42 26 43 27 44 28 45
REMARK SMILES IDX 78 46 29 47 83 48 77 49 79 50 30 51 82 52 76 53 75 54 31 56
REMARK SMILES IDX 63 57 43 58 62 59 44 60 47 61 61 62 80 63 45 64 46 65 60 67
REMARK SMILES IDX 81 68 48 69 32 70 33 71 41 72 34 73 36 74 42 75 35 76 37 77
REMARK SMILES IDX 38 78 39 79 40 80 64 81 65 82 73 83 66 84 68 85 74 86 67 87
REMARK SMILES IDX 69 88 70 89 71 90 72 91 49 92 50 93 58 94 51 95 53 96 59 97
REMARK SMILES IDX 52 98 54 99 55 100 56 101 57 102
REMARK H PARENT 1 22 1 23 79 55 47 66
REMARK Flexibility Score: inf
ROOT
ATOM      1  O   UNL A   1      34.960  34.733  28.937  1.00  0.00    -0.374 OA
ENDROOT
BRANCH   1   2
ATOM      2  C   UNL A   1      33.576  34.502  28.673  1.00  0.00     0.202 C 
BRANCH   2   3
ATOM      3  C   UNL A   1      33.203  33.464  27.615  1.00  0.00     0.261 C 
BRANCH   3   4
ATOM      4  O   UNL A   1      33.176  32.145  28.168  1.00  0.00    -0.458 OA
BRANCH   4   5
ATOM      5  C   UNL A   1      34.033  31.251  27.589  1.00  0.00     0.358 C 
ATOM      6  O   UNL A   1      35.255  31.338  27.625  1.00  0.00    -0.244 OA
BRANCH   5   7
ATOM      7  C   UNL A   1      33.302  30.141  26.968  1.00  0.00     0.171 A 
ATOM      8  N   UNL A   1      32.964  28.208  26.146  1.00  0.00    -0.231 N 
ATOM      9  N   UNL A   1      33.600  28.844  27.165  1.00  0.00    -0.160 NA
ATOM     10  C   UNL A   1      32.349  29.106  25.306  1.00  0.00     0.085 A 
ATOM     11  C   UNL A   1      32.225  30.258  26.066  1.00  0.00     0.068 A 
BRANCH   8  12
ATOM     12  C   UNL A   1      33.024  26.810  26.063  1.00  0.00     0.065 A 
ATOM     13  C   UNL A   1      33.121  24.047  26.027  1.00  0.00     0.082 A 
ATOM     14  C   UNL A   1      34.222  24.791  25.575  1.00  0.00     0.024 A 
ATOM     15  C   UNL A   1      31.962  24.681  26.487  1.00  0.00     0.024 A 
ATOM     16  C   UNL A   1      34.169  26.184  25.576  1.00  0.00     0.030 A 
ATOM     17  C   UNL A   1      31.925  26.073  26.533  1.00  0.00     0.030 A 
BRANCH  13  18
ATOM     18  S   UNL A   1      33.204  22.284  25.981  1.00  0.00     0.238 S 
ATOM     19  O   UNL A   1      32.218  21.777  25.064  1.00  0.00    -0.207 OA
ATOM     20  O   UNL A   1      33.356  21.766  27.327  1.00  0.00    -0.207 OA
BRANCH  18  21
ATOM     21  N   UNL A   1      34.688  22.031  25.235  1.00  0.00    -0.225 NA
ATOM     22  H   UNL A   1      35.295  21.496  25.856  1.00  0.00     0.137 HD
ATOM     23  H   UNL A   1      35.122  22.930  25.027  1.00  0.00     0.137 HD
ENDBRANCH  18  21
ENDBRANCH  13  18
ENDBRANCH   8  12
BRANCH  10  24
ATOM     24  C   UNL A   1      32.148  29.056  23.880  1.00  0.00     0.054 A 
ATOM     25  C   UNL A   1      32.674  28.119  22.996  1.00  0.00     0.031 A 
ATOM     26  S   UNL A   1      30.466  29.196  23.384  1.00  0.00    -0.134 S 
ATOM     27  C   UNL A   1      31.714  27.022  22.946  1.00  0.00    -0.007 A 
ATOM     28  C   UNL A   1      30.446  27.455  23.362  1.00  0.00     0.035 A 
ATOM     29  C   UNL A   1      31.904  25.641  22.726  1.00  0.00     0.009 A 
ATOM     30  C   UNL A   1      29.424  26.565  23.724  1.00  0.00     0.019 A 
ATOM     31  C   UNL A   1      30.902  24.742  23.112  1.00  0.00     0.001 A 
ATOM     32  C   UNL A   1      29.699  25.198  23.646  1.00  0.00     0.001 A 
ENDBRANCH  10  24
ENDBRANCH   5   7
ENDBRANCH   4   5
ENDBRANCH   3   4
ENDBRANCH   2   3
ENDBRANCH   1   2
BRANCH   1  33
ATOM     33  C   UNL A   1      35.599  34.141  30.064  1.00  0.00     0.202 C 
BRANCH  33  34
ATOM     34  C   UNL A   1      34.780  33.328  31.052  1.00  0.00     0.261 C 
BRANCH  34  35
ATOM     35  O   UNL A   1      34.973  31.934  30.897  1.00  0.00    -0.460 OA
BRANCH  35  36
ATOM     36  C   UNL A   1      35.959  31.445  31.683  1.00  0.00     0.338 C 
ATOM     37  O   UNL A   1      36.098  31.610  32.883  1.00  0.00    -0.246 OA
BRANCH  36  38
ATOM     38  C   UNL A   1      36.962  30.821  30.822  1.00  0.00     0.060 A 
ATOM     39  C   UNL A   1      36.952  29.424  30.773  1.00  0.00     0.016 A 
ATOM     40  C   UNL A   1      38.069  31.583  30.428  1.00  0.00     0.016 A 
ATOM     41  C   UNL A   1      38.146  28.780  30.564  1.00  0.00     0.010 A 
ATOM     42  C   UNL A   1      39.264  30.942  30.267  1.00  0.00     0.010 A 
ATOM     43  C   UNL A   1      39.297  29.558  30.423  1.00  0.00    -0.014 A 
BRANCH  43  44
ATOM     44  C   UNL A   1      40.572  28.901  30.283  1.00  0.00     0.031 A 
ATOM     45  C   UNL A   1      41.181  28.653  31.604  1.00  0.00     0.074 A 
ATOM     46  C   UNL A   1      41.015  28.461  29.091  1.00  0.00     0.049 A 
ATOM     47  N   UNL A   1      42.164  29.300  32.136  1.00  0.00    -0.248 NA
ATOM     48  C   UNL A   1      40.453  27.788  32.552  1.00  0.00     0.031 C 
ATOM     49  C   UNL A   1      40.309  28.462  27.806  1.00  0.00     0.029 A 
ATOM     50  N   UNL A   1      42.153  27.776  28.810  1.00  0.00    -0.354 N 
ATOM     51  C   UNL A   1      42.349  28.690  33.369  1.00  0.00     0.074 A 
ATOM     52  C   UNL A   1      41.111  28.037  33.686  1.00  0.00     0.031 C 
ATOM     53  C   UNL A   1      40.919  27.591  26.967  1.00  0.00     0.029 A 
ATOM     54  C   UNL A   1      42.105  27.060  27.617  1.00  0.00     0.049 A 
ATOM     55  H   UNL A   1      42.943  27.785  29.397  1.00  0.00     0.167 HD
ATOM     56  C   UNL A   1      43.604  28.439  33.832  1.00  0.00     0.034 A 
ATOM     57  C   UNL A   1      42.931  26.043  27.253  1.00  0.00     0.034 A 
ATOM     58  C   UNL A   1      44.586  29.203  33.101  1.00  0.00     0.049 A 
ATOM     59  C   UNL A   1      44.141  26.133  28.110  1.00  0.00     0.074 A 
ATOM     60  C   UNL A   1      44.772  30.546  32.836  1.00  0.00     0.029 A 
ATOM     61  N   UNL A   1      45.315  28.520  32.157  1.00  0.00    -0.354 N 
ATOM     62  N   UNL A   1      44.999  27.108  28.022  1.00  0.00    -0.248 NA
ATOM     63  C   UNL A   1      44.135  25.418  29.377  1.00  0.00     0.031 C 
ATOM     64  C   UNL A   1      45.225  30.597  31.486  1.00  0.00     0.029 A 
ATOM     65  C   UNL A   1      45.380  29.288  31.024  1.00  0.00     0.049 A 
ATOM     66  H   UNL A   1      45.723  27.631  32.274  1.00  0.00     0.167 HD
ATOM     67  C   UNL A   1      45.262  27.446  29.343  1.00  0.00     0.074 A 
ATOM     68  C   UNL A   1      44.802  26.301  30.129  1.00  0.00     0.031 C 
ATOM     69  C   UNL A   1      45.523  28.741  29.693  1.00  0.00     0.034 A 
BRANCH  56  70
ATOM     70  C   UNL A   1      43.985  27.210  34.626  1.00  0.00     0.023 A 
ATOM     71  C   UNL A   1      43.736  25.962  34.020  1.00  0.00     0.012 A 
ATOM     72  C   UNL A   1      44.313  27.196  36.004  1.00  0.00     0.148 A 
ATOM     73  C   UNL A   1      43.761  24.772  34.756  1.00  0.00     0.002 A 
ATOM     74  C   UNL A   1      44.423  26.007  36.711  1.00  0.00     0.091 A 
ATOM     75  F   UNL A   1      44.388  28.333  36.696  1.00  0.00    -0.205 F 
ATOM     76  C   UNL A   1      44.115  24.793  36.100  1.00  0.00     0.022 A 
BRANCH  74  77
ATOM     77  S   UNL A   1      44.923  25.985  38.439  1.00  0.00     0.127 S 
ATOM     78  O   UNL A   1      46.257  26.572  38.365  1.00  0.00    -0.237 OA
ATOM     79  O   UNL A   1      43.901  26.834  39.053  1.00  0.00    -0.237 OA
ATOM     80  O   UNL A   1      44.862  24.588  38.851  1.00  0.00    -0.744 OA
ENDBRANCH  74  77
ENDBRANCH  56  70
BRANCH  57  81
ATOM     81  C   UNL A   1      42.666  24.844  26.419  1.00  0.00     0.023 A 
ATOM     82  C   UNL A   1      43.545  24.509  25.368  1.00  0.00     0.012 A 
ATOM     83  C   UNL A   1      41.723  23.875  26.827  1.00  0.00     0.148 A 
ATOM     84  C   UNL A   1      43.507  23.243  24.766  1.00  0.00     0.002 A 
ATOM     85  C   UNL A   1      41.686  22.621  26.224  1.00  0.00     0.091 A 
ATOM     86  F   UNL A   1      40.930  24.146  27.871  1.00  0.00    -0.205 F 
ATOM     87  C   UNL A   1      42.584  22.296  25.200  1.00  0.00     0.022 A 
BRANCH  85  88
ATOM     88  S   UNL A   1      40.548  21.337  26.765  1.00  0.00     0.127 S 
ATOM     89  O   UNL A   1      40.800  21.296  28.206  1.00  0.00    -0.237 OA
ATOM     90  O   UNL A   1      39.255  21.900  26.383  1.00  0.00    -0.237 OA
ATOM     91  O   UNL A   1      40.942  20.128  26.052  1.00  0.00    -0.744 OA
ENDBRANCH  85  88
ENDBRANCH  57  81
BRANCH  69  92
ATOM     92  C   UNL A   1      45.757  29.734  28.578  1.00  0.00     0.023 A 
ATOM     93  C   UNL A   1      44.706  30.386  27.897  1.00  0.00     0.012 A 
ATOM     94  C   UNL A   1      47.078  30.123  28.308  1.00  0.00     0.148 A 
ATOM     95  C   UNL A   1      44.969  31.375  26.944  1.00  0.00     0.002 A 
ATOM     96  C   UNL A   1      47.334  31.138  27.394  1.00  0.00     0.091 A 
ATOM     97  F   UNL A   1      48.069  29.503  28.966  1.00  0.00    -0.205 F 
ATOM     98  C   UNL A   1      46.284  31.758  26.700  1.00  0.00     0.022 A 
BRANCH  96  99
ATOM     99  S   UNL A   1      48.998  31.752  27.134  1.00  0.00     0.127 S 
ATOM    100  O   UNL A   1      48.772  32.864  26.215  1.00  0.00    -0.237 OA
ATOM    101  O   UNL A   1      49.405  32.145  28.485  1.00  0.00    -0.237 OA
ATOM    102  O   UNL A   1      49.755  30.629  26.592  1.00  0.00    -0.744 OA
ENDBRANCH  96  99
ENDBRANCH  69  92
ENDBRANCH  43  44
ENDBRANCH  36  38
ENDBRANCH  35  36
ENDBRANCH  34  35
ENDBRANCH  33  34
ENDBRANCH   1  33
TORSDOF 21
ENDMDL
MODEL 3
REMARK VINA RESULT:     -11.0      1.986      2.568
REMARK SMILES NS(=O)(=O)c1ccc(-n2nc(C(=O)OCCOCCOC(=O)c3ccc(-c4c5nc(c(-c6cccc(S(=O)(=O)[O-])c6F)c6ccc([nH]6)c(-c6cccc(S(=O)(=O)[O-])c6F)c6nc(c(-c7cccc(S(=O)(=O)[O-])c7F)c7ccc4[nH]7)C=C6)C=C5)cc3)cc2-c2cc3ccccc3s2)cc1
REMARK SMILES IDX 17 1 16 2 15 3 14 4 12 5 13 6 11 7 9 8 10 9 87 10 86 11 8 12
REMARK SMILES IDX 5 13 6 14 98 15 7 16 97 17 2 18 3 19 4 20 1 21 88 24 89 25
REMARK SMILES IDX 96 26 90 27 95 28 91 29 94 30 92 31 93 32 18 33 19 34 20 35
REMARK SMILES IDX 21 36 22 37 23 38 24 39 85 40 25 41 84 42 26 43 27 44 28 45
REMARK SMILES IDX 78 46 29 47 83 48 77 49 79 50 30 51 82 52 76 53 75 54 31 56
REMARK SMILES IDX 63 57 43 58 62 59 44 60 47 61 61 62 80 63 45 64 46 65 60 67
REMARK SMILES IDX 81 68 48 69 32 70 33 71 41 72 34 73 36 74 42 75 35 76 37 77
REMARK SMILES IDX 38 78 39 79 40 80 64 81 65 82 73 83 66 84 68 85 74 86 67 87
REMARK SMILES IDX 69 88 70 89 71 90 72 91 49 92 50 93 58 94 51 95 53 96 59 97
REMARK SMILES IDX 52 98 54 99 55 100 56 101 57 102
REMARK H PARENT 1 22 1 23 79 55 47 66
REMARK Flexibility Score: inf
ROOT
ATOM      1  O   UNL A   1      34.197  34.218  28.678  1.00  0.00    -0.374 OA
ENDROOT
BRANCH   1   2
ATOM      2  C   UNL A   1      33.514  33.243  27.890  1.00  0.00     0.202 C 
BRANCH   2   3
ATOM      3  C   UNL A   1      33.643  31.772  28.282  1.00  0.00     0.261 C 
BRANCH   3   4
ATOM      4  O   UNL A   1      33.153  30.913  27.250  1.00  0.00    -0.458 OA
BRANCH   4   5
ATOM      5  C   UNL A   1      33.971  29.868  26.920  1.00  0.00     0.358 C 
ATOM      6  O   UNL A   1      35.185  29.854  27.096  1.00  0.00    -0.244 OA
BRANCH   5   7
ATOM      7  C   UNL A   1      33.202  28.741  26.381  1.00  0.00     0.171 A 
ATOM      8  N   UNL A   1      32.820  26.800  25.599  1.00  0.00    -0.231 N 
ATOM      9  N   UNL A   1      33.549  27.451  26.543  1.00  0.00    -0.160 NA
ATOM     10  C   UNL A   1      32.098  27.683  24.832  1.00  0.00     0.085 A 
ATOM     11  C   UNL A   1      32.032  28.833  25.602  1.00  0.00     0.068 A 
BRANCH   8  12
ATOM     12  C   UNL A   1      32.902  25.404  25.509  1.00  0.00     0.065 A 
ATOM     13  C   UNL A   1      33.014  22.642  25.450  1.00  0.00     0.082 A 
ATOM     14  C   UNL A   1      34.186  23.392  25.268  1.00  0.00     0.024 A 
ATOM     15  C   UNL A   1      31.780  23.268  25.647  1.00  0.00     0.024 A 
ATOM     16  C   UNL A   1      34.130  24.785  25.281  1.00  0.00     0.030 A 
ATOM     17  C   UNL A   1      31.729  24.659  25.707  1.00  0.00     0.030 A 
BRANCH  13  18
ATOM     18  S   UNL A   1      33.112  20.879  25.394  1.00  0.00     0.238 S 
ATOM     19  O   UNL A   1      34.292  20.483  24.673  1.00  0.00    -0.207 OA
ATOM     20  O   UNL A   1      31.802  20.326  25.110  1.00  0.00    -0.207 OA
BRANCH  18  21
ATOM     21  N   UNL A   1      33.416  20.503  27.003  1.00  0.00    -0.225 NA
ATOM     22  H   UNL A   1      32.570  20.125  27.431  1.00  0.00     0.137 HD
ATOM     23  H   UNL A   1      33.702  21.345  27.502  1.00  0.00     0.137 HD
ENDBRANCH  18  21
ENDBRANCH  13  18
ENDBRANCH   8  12
BRANCH  10  24
ATOM     24  C   UNL A   1      31.745  27.627  23.435  1.00  0.00     0.054 A 
ATOM     25  C   UNL A   1      30.599  27.058  22.887  1.00  0.00     0.031 A 
ATOM     26  S   UNL A   1      31.888  29.165  22.594  1.00  0.00    -0.134 S 
ATOM     27  C   UNL A   1      29.588  28.110  22.872  1.00  0.00    -0.007 A 
ATOM     28  C   UNL A   1      30.191  29.376  22.927  1.00  0.00     0.035 A 
ATOM     29  C   UNL A   1      28.184  28.039  22.983  1.00  0.00     0.009 A 
ATOM     30  C   UNL A   1      29.479  30.539  23.252  1.00  0.00     0.019 A 
ATOM     31  C   UNL A   1      27.466  29.189  23.337  1.00  0.00     0.001 A 
ATOM     32  C   UNL A   1      28.113  30.409  23.513  1.00  0.00     0.001 A 
ENDBRANCH  10  24
ENDBRANCH   5   7
ENDBRANCH   4   5
ENDBRANCH   3   4
ENDBRANCH   2   3
ENDBRANCH   1   2
BRANCH   1  33
ATOM     33  C   UNL A   1      34.136  34.180  30.101  1.00  0.00     0.202 C 
BRANCH  33  34
ATOM     34  C   UNL A   1      35.374  33.805  30.897  1.00  0.00     0.261 C 
BRANCH  34  35
ATOM     35  O   UNL A   1      36.204  32.889  30.206  1.00  0.00    -0.460 OA
BRANCH  35  36
ATOM     36  C   UNL A   1      36.437  31.754  30.905  1.00  0.00     0.338 C 
ATOM     37  O   UNL A   1      35.945  31.428  31.971  1.00  0.00    -0.246 OA
BRANCH  36  38
ATOM     38  C   UNL A   1      37.538  31.040  30.260  1.00  0.00     0.060 A 
ATOM     39  C   UNL A   1      37.468  29.644  30.284  1.00  0.00     0.016 A 
ATOM     40  C   UNL A   1      38.731  31.733  30.017  1.00  0.00     0.016 A 
ATOM     41  C   UNL A   1      38.648  28.942  30.314  1.00  0.00     0.010 A 
ATOM     42  C   UNL A   1      39.904  31.037  30.095  1.00  0.00     0.010 A 
ATOM     43  C   UNL A   1      39.842  29.665  30.328  1.00  0.00    -0.014 A 
BRANCH  43  44
ATOM     44  C   UNL A   1      41.089  28.951  30.440  1.00  0.00     0.031 A 
ATOM     45  C   UNL A   1      41.524  28.875  31.849  1.00  0.00     0.074 A 
ATOM     46  C   UNL A   1      41.647  28.330  29.385  1.00  0.00     0.049 A 
ATOM     47  N   UNL A   1      42.469  29.558  32.404  1.00  0.00    -0.248 NA
ATOM     48  C   UNL A   1      40.645  28.181  32.809  1.00  0.00     0.031 C 
ATOM     49  C   UNL A   1      41.100  28.171  28.035  1.00  0.00     0.029 A 
ATOM     50  N   UNL A   1      42.774  27.573  29.346  1.00  0.00    -0.354 N 
ATOM     51  C   UNL A   1      42.474  29.125  33.724  1.00  0.00     0.074 A 
ATOM     52  C   UNL A   1      41.175  28.567  33.970  1.00  0.00     0.031 C 
ATOM     53  C   UNL A   1      41.759  27.168  27.407  1.00  0.00     0.029 A 
ATOM     54  C   UNL A   1      42.831  26.695  28.267  1.00  0.00     0.049 A 
ATOM     55  H   UNL A   1      43.488  27.639  30.020  1.00  0.00     0.167 HD
ATOM     56  C   UNL A   1      43.650  28.901  34.369  1.00  0.00     0.034 A 
ATOM     57  C   UNL A   1      43.641  25.609  28.154  1.00  0.00     0.034 A 
ATOM     58  C   UNL A   1      44.751  29.518  33.668  1.00  0.00     0.049 A 
ATOM     59  C   UNL A   1      44.743  25.779  29.134  1.00  0.00     0.074 A 
ATOM     60  C   UNL A   1      45.036  30.801  33.245  1.00  0.00     0.029 A 
ATOM     61  N   UNL A   1      45.551  28.681  32.926  1.00  0.00    -0.354 N 
ATOM     62  N   UNL A   1      45.655  26.702  29.020  1.00  0.00    -0.248 NA
ATOM     63  C   UNL A   1      44.550  25.254  30.477  1.00  0.00     0.031 C 
ATOM     64  C   UNL A   1      45.648  30.642  31.968  1.00  0.00     0.029 A 
ATOM     65  C   UNL A   1      45.789  29.276  31.715  1.00  0.00     0.049 A 
ATOM     66  H   UNL A   1      45.895  27.805  33.215  1.00  0.00     0.167 HD
ATOM     67  C   UNL A   1      45.777  27.217  30.303  1.00  0.00     0.074 A 
ATOM     68  C   UNL A   1      45.168  26.212  31.177  1.00  0.00     0.031 C 
ATOM     69  C   UNL A   1      46.060  28.539  30.501  1.00  0.00     0.034 A 
BRANCH  56  70
ATOM     70  C   UNL A   1      43.871  27.786  35.367  1.00  0.00     0.023 A 
ATOM     71  C   UNL A   1      44.333  28.161  36.645  1.00  0.00     0.012 A 
ATOM     72  C   UNL A   1      43.911  26.404  35.055  1.00  0.00     0.148 A 
ATOM     73  C   UNL A   1      44.855  27.222  37.540  1.00  0.00     0.002 A 
ATOM     74  C   UNL A   1      44.347  25.465  35.978  1.00  0.00     0.091 A 
ATOM     75  F   UNL A   1      43.664  25.982  33.815  1.00  0.00    -0.205 F 
ATOM     76  C   UNL A   1      44.853  25.871  37.212  1.00  0.00     0.022 A 
BRANCH  74  77
ATOM     77  S   UNL A   1      44.318  23.705  35.610  1.00  0.00     0.127 S 
ATOM     78  O   UNL A   1      44.868  23.140  36.839  1.00  0.00    -0.237 OA
ATOM     79  O   UNL A   1      42.889  23.468  35.401  1.00  0.00    -0.237 OA
ATOM     80  O   UNL A   1      45.131  23.537  34.411  1.00  0.00    -0.744 OA
ENDBRANCH  74  77
ENDBRANCH  56  70
BRANCH  57  81
ATOM     81  C   UNL A   1      43.415  24.312  27.467  1.00  0.00     0.023 A 
ATOM     82  C   UNL A   1      42.132  23.727  27.472  1.00  0.00     0.012 A 
ATOM     83  C   UNL A   1      44.375  23.793  26.571  1.00  0.00     0.148 A 
ATOM     84  C   UNL A   1      41.807  22.683  26.595  1.00  0.00     0.002 A 
ATOM     85  C   UNL A   1      44.050  22.753  25.705  1.00  0.00     0.091 A 
ATOM     86  F   UNL A   1      45.575  24.381  26.498  1.00  0.00    -0.205 F 
ATOM     87  C   UNL A   1      42.763  22.202  25.705  1.00  0.00     0.022 A 
BRANCH  85  88
ATOM     88  S   UNL A   1      45.224  22.114  24.501  1.00  0.00     0.127 S 
ATOM     89  O   UNL A   1      46.341  21.706  25.354  1.00  0.00    -0.237 OA
ATOM     90  O   UNL A   1      44.473  21.012  23.903  1.00  0.00    -0.237 OA
ATOM     91  O   UNL A   1      45.526  23.226  23.608  1.00  0.00    -0.744 OA
ENDBRANCH  85  88
ENDBRANCH  57  81
BRANCH  69  92
ATOM     92  C   UNL A   1      46.476  29.352  29.297  1.00  0.00     0.023 A 
ATOM     93  C   UNL A   1      47.758  29.258  28.712  1.00  0.00     0.012 A 
ATOM     94  C   UNL A   1      45.498  30.128  28.656  1.00  0.00     0.148 A 
ATOM     95  C   UNL A   1      48.065  29.951  27.537  1.00  0.00     0.002 A 
ATOM     96  C   UNL A   1      45.794  30.778  27.463  1.00  0.00     0.091 A 
ATOM     97  F   UNL A   1      44.281  30.204  29.216  1.00  0.00    -0.205 F 
ATOM     98  C   UNL A   1      47.079  30.703  26.907  1.00  0.00     0.022 A 
BRANCH  96  99
ATOM     99  S   UNL A   1      44.527  31.658  26.551  1.00  0.00     0.127 S 
ATOM    100  O   UNL A   1      44.170  32.727  27.479  1.00  0.00    -0.237 OA
ATOM    101  O   UNL A   1      45.248  32.100  25.355  1.00  0.00    -0.237 OA
ATOM    102  O   UNL A   1      43.479  30.680  26.281  1.00  0.00    -0.744 OA
ENDBRANCH  96  99
ENDBRANCH  69  92
ENDBRANCH  43  44
ENDBRANCH  36  38
ENDBRANCH  35  36
ENDBRANCH  34  35
ENDBRANCH  33  34
ENDBRANCH   1  33
TORSDOF 21
ENDMDL
