MODEL 1
REMARK VINA RESULT:     -11.1      0.000      0.000
REMARK SMILES O=C(CSc1nc2cnccc2n1CCC(F)(F)F)OCCOCCOC(=O)c1ccc(-c2c3nc(c(-c4cccc(S(=O)(=O)[O-])c4F)c4ccc([nH]4)c(-c4cccc(S(=O)(=O)[O-])c4F)c4nc(c(-c5cccc(S(=O)(=O)[O-])c5F)c5ccc2[nH]5)C=C4)C=C3)cc1
REMARK SMILES IDX 22 1 21 2 20 3 2 4 1 5 3 6 4 7 5 8 6 9 13 10 7 11 12 12 8 13
REMARK SMILES IDX 11 14 9 15 10 16 14 17 15 18 16 19 17 20 18 21 19 22 23 23
REMARK SMILES IDX 24 24 25 25 26 26 27 27 28 28 29 29 30 30 91 31 31 32 90 33
REMARK SMILES IDX 32 34 33 35 34 36 84 37 35 38 89 39 83 40 85 41 36 42 88 43
REMARK SMILES IDX 82 44 81 45 37 47 69 48 49 49 68 50 50 51 53 52 67 53 86 54
REMARK SMILES IDX 51 55 52 56 66 58 87 59 54 60 38 61 39 62 47 63 40 64 42 65
REMARK SMILES IDX 48 66 41 67 43 68 44 69 45 70 46 71 70 72 71 73 79 74 72 75
REMARK SMILES IDX 74 76 80 77 73 78 75 79 76 80 77 81 78 82 55 83 56 84 64 85
REMARK SMILES IDX 57 86 59 87 65 88 58 89 60 90 61 91 62 92 63 93
REMARK H PARENT 85 46 53 57
REMARK Flexibility Score: inf
ROOT
ATOM      1  C   UNL A   1      35.382  22.541  23.926  1.00  0.00     0.202 C 
ENDROOT
BRANCH   1   2
ATOM      2  C   UNL A   1      33.849  22.584  23.933  1.00  0.00     0.261 C 
BRANCH   2   3
ATOM      3  O   UNL A   1      33.264  23.882  24.057  1.00  0.00    -0.463 OA
BRANCH   3   4
ATOM      4  C   UNL A   1      33.081  24.768  23.053  1.00  0.00     0.316 C 
ATOM      5  O   UNL A   1      33.892  24.762  22.119  1.00  0.00    -0.251 OA
BRANCH   4   6
ATOM      6  C   UNL A   1      32.119  25.930  23.170  1.00  0.00     0.200 C 
BRANCH   6   7
ATOM      7  S   UNL A   1      32.566  27.557  22.553  1.00  0.00    -0.076 SA
BRANCH   7   8
ATOM      8  C   UNL A   1      31.086  28.412  22.773  1.00  0.00     0.169 A 
ATOM      9  N   UNL A   1      30.109  28.412  21.903  1.00  0.00    -0.221 NA
ATOM     10  N   UNL A   1      30.843  29.251  23.831  1.00  0.00    -0.318 N 
ATOM     11  C   UNL A   1      29.297  29.444  22.282  1.00  0.00     0.108 A 
ATOM     12  C   UNL A   1      29.766  30.035  23.458  1.00  0.00     0.072 A 
ATOM     13  C   UNL A   1      28.182  29.987  21.639  1.00  0.00     0.141 A 
ATOM     14  C   UNL A   1      29.179  31.188  23.978  1.00  0.00     0.049 A 
ATOM     15  N   UNL A   1      27.621  31.134  22.102  1.00  0.00    -0.262 NA
ATOM     16  C   UNL A   1      28.123  31.692  23.226  1.00  0.00     0.113 A 
BRANCH  10  17
ATOM     17  C   UNL A   1      31.666  29.443  25.010  1.00  0.00     0.134 C 
BRANCH  17  18
ATOM     18  C   UNL A   1      31.681  28.291  26.014  1.00  0.00     0.137 C 
BRANCH  18  19
ATOM     19  C   UNL A   1      32.153  28.688  27.392  1.00  0.00     0.390 C 
ATOM     20  F   UNL A   1      31.372  28.138  28.346  1.00  0.00    -0.171 F 
ATOM     21  F   UNL A   1      33.409  28.246  27.597  1.00  0.00    -0.171 F 
ATOM     22  F   UNL A   1      32.151  30.024  27.561  1.00  0.00    -0.171 F 
ENDBRANCH  18  19
ENDBRANCH  17  18
ENDBRANCH  10  17
ENDBRANCH   7   8
ENDBRANCH   6   7
ENDBRANCH   4   6
ENDBRANCH   3   4
ENDBRANCH   2   3
ENDBRANCH   1   2
BRANCH   1  23
ATOM     23  O   UNL A   1      36.063  22.065  25.082  1.00  0.00    -0.374 OA
BRANCH  23  24
ATOM     24  C   UNL A   1      37.244  22.760  25.506  1.00  0.00     0.202 C 
BRANCH  24  25
ATOM     25  C   UNL A   1      38.548  21.962  25.609  1.00  0.00     0.261 C 
BRANCH  25  26
ATOM     26  O   UNL A   1      39.177  22.227  26.866  1.00  0.00    -0.460 OA
BRANCH  26  27
ATOM     27  C   UNL A   1      40.454  22.689  26.767  1.00  0.00     0.338 C 
ATOM     28  O   UNL A   1      41.286  22.377  25.947  1.00  0.00    -0.246 OA
BRANCH  27  29
ATOM     29  C   UNL A   1      40.467  23.916  27.588  1.00  0.00     0.060 A 
ATOM     30  C   UNL A   1      39.376  24.789  27.580  1.00  0.00     0.016 A 
ATOM     31  C   UNL A   1      41.713  24.307  28.102  1.00  0.00     0.016 A 
ATOM     32  C   UNL A   1      39.551  26.082  28.056  1.00  0.00     0.010 A 
ATOM     33  C   UNL A   1      41.893  25.612  28.543  1.00  0.00     0.010 A 
ATOM     34  C   UNL A   1      40.814  26.500  28.507  1.00  0.00    -0.014 A 
BRANCH  34  35
ATOM     35  C   UNL A   1      40.885  27.787  29.197  1.00  0.00     0.031 A 
ATOM     36  C   UNL A   1      41.852  28.721  28.558  1.00  0.00     0.074 A 
ATOM     37  C   UNL A   1      40.072  28.234  30.173  1.00  0.00     0.049 A 
ATOM     38  N   UNL A   1      42.933  29.220  29.065  1.00  0.00    -0.248 NA
ATOM     39  C   UNL A   1      41.643  29.027  27.134  1.00  0.00     0.031 C 
ATOM     40  C   UNL A   1      38.862  27.604  30.695  1.00  0.00     0.029 A 
ATOM     41  N   UNL A   1      40.094  29.448  30.807  1.00  0.00    -0.354 N 
ATOM     42  C   UNL A   1      43.430  30.069  28.081  1.00  0.00     0.074 A 
ATOM     43  C   UNL A   1      42.702  29.789  26.870  1.00  0.00     0.031 C 
ATOM     44  C   UNL A   1      38.145  28.530  31.373  1.00  0.00     0.029 A 
ATOM     45  C   UNL A   1      38.894  29.774  31.430  1.00  0.00     0.049 A 
ATOM     46  H   UNL A   1      40.884  30.035  30.819  1.00  0.00     0.167 HD
ATOM     47  C   UNL A   1      44.243  31.120  28.362  1.00  0.00     0.034 A 
ATOM     48  C   UNL A   1      38.519  31.000  31.876  1.00  0.00     0.034 A 
ATOM     49  C   UNL A   1      44.811  31.065  29.675  1.00  0.00     0.049 A 
ATOM     50  C   UNL A   1      39.754  31.804  32.036  1.00  0.00     0.074 A 
ATOM     51  C   UNL A   1      45.601  30.172  30.368  1.00  0.00     0.029 A 
ATOM     52  N   UNL A   1      44.289  31.921  30.611  1.00  0.00    -0.354 N 
ATOM     53  N   UNL A   1      40.659  31.588  32.947  1.00  0.00    -0.248 NA
ATOM     54  C   UNL A   1      40.146  32.701  30.961  1.00  0.00     0.031 C 
ATOM     55  C   UNL A   1      45.162  30.259  31.720  1.00  0.00     0.029 A 
ATOM     56  C   UNL A   1      44.139  31.208  31.769  1.00  0.00     0.049 A 
ATOM     57  H   UNL A   1      44.066  32.872  30.476  1.00  0.00     0.167 HD
ATOM     58  C   UNL A   1      41.850  31.974  32.350  1.00  0.00     0.074 A 
ATOM     59  C   UNL A   1      41.456  32.771  31.195  1.00  0.00     0.031 C 
ATOM     60  C   UNL A   1      43.027  31.372  32.679  1.00  0.00     0.034 A 
BRANCH  47  61
ATOM     61  C   UNL A   1      44.234  32.382  27.553  1.00  0.00     0.023 A 
ATOM     62  C   UNL A   1      45.174  32.527  26.516  1.00  0.00     0.012 A 
ATOM     63  C   UNL A   1      43.496  33.525  27.935  1.00  0.00     0.148 A 
ATOM     64  C   UNL A   1      45.355  33.757  25.874  1.00  0.00     0.002 A 
ATOM     65  C   UNL A   1      43.614  34.716  27.236  1.00  0.00     0.091 A 
ATOM     66  F   UNL A   1      42.769  33.498  29.060  1.00  0.00    -0.205 F 
ATOM     67  C   UNL A   1      44.559  34.845  26.217  1.00  0.00     0.022 A 
BRANCH  65  68
ATOM     68  S   UNL A   1      42.547  36.110  27.606  1.00  0.00     0.127 S 
ATOM     69  O   UNL A   1      42.812  36.991  26.474  1.00  0.00    -0.237 OA
ATOM     70  O   UNL A   1      41.223  35.486  27.614  1.00  0.00    -0.237 OA
ATOM     71  O   UNL A   1      42.987  36.581  28.914  1.00  0.00    -0.744 OA
ENDBRANCH  65  68
ENDBRANCH  47  61
BRANCH  48  72
ATOM     72  C   UNL A   1      37.177  31.632  32.000  1.00  0.00     0.023 A 
ATOM     73  C   UNL A   1      36.705  31.983  33.286  1.00  0.00     0.012 A 
ATOM     74  C   UNL A   1      36.482  32.147  30.885  1.00  0.00     0.148 A 
ATOM     75  C   UNL A   1      35.628  32.861  33.454  1.00  0.00     0.002 A 
ATOM     76  C   UNL A   1      35.396  33.004  31.058  1.00  0.00     0.091 A 
ATOM     77  F   UNL A   1      36.936  31.887  29.654  1.00  0.00    -0.205 F 
ATOM     78  C   UNL A   1      34.979  33.380  32.340  1.00  0.00     0.022 A 
BRANCH  76  79
ATOM     79  S   UNL A   1      34.510  33.696  29.653  1.00  0.00     0.127 S 
ATOM     80  O   UNL A   1      34.041  32.496  28.958  1.00  0.00    -0.237 OA
ATOM     81  O   UNL A   1      33.461  34.474  30.306  1.00  0.00    -0.237 OA
ATOM     82  O   UNL A   1      35.504  34.460  28.908  1.00  0.00    -0.744 OA
ENDBRANCH  76  79
ENDBRANCH  48  72
BRANCH  60  83
ATOM     83  C   UNL A   1      43.080  30.543  33.932  1.00  0.00     0.023 A 
ATOM     84  C   UNL A   1      43.378  31.109  35.188  1.00  0.00     0.012 A 
ATOM     85  C   UNL A   1      42.611  29.220  33.867  1.00  0.00     0.148 A 
ATOM     86  C   UNL A   1      43.213  30.366  36.359  1.00  0.00     0.002 A 
ATOM     87  C   UNL A   1      42.410  28.497  35.036  1.00  0.00     0.091 A 
ATOM     88  F   UNL A   1      42.324  28.710  32.660  1.00  0.00    -0.205 F 
ATOM     89  C   UNL A   1      42.714  29.066  36.285  1.00  0.00     0.022 A 
BRANCH  87  90
ATOM     90  S   UNL A   1      41.660  26.867  35.027  1.00  0.00     0.127 S 
ATOM     91  O   UNL A   1      40.512  27.065  34.145  1.00  0.00    -0.237 OA
ATOM     92  O   UNL A   1      42.728  26.038  34.468  1.00  0.00    -0.237 OA
ATOM     93  O   UNL A   1      41.329  26.564  36.414  1.00  0.00    -0.744 OA
ENDBRANCH  87  90
ENDBRANCH  60  83
ENDBRANCH  34  35
ENDBRANCH  27  29
ENDBRANCH  26  27
ENDBRANCH  25  26
ENDBRANCH  24  25
ENDBRANCH  23  24
ENDBRANCH   1  23
TORSDOF 22
ENDMDL
MODEL 2
REMARK VINA RESULT:     -10.7      3.744      8.265
REMARK SMILES O=C(CSc1nc2cnccc2n1CCC(F)(F)F)OCCOCCOC(=O)c1ccc(-c2c3nc(c(-c4cccc(S(=O)(=O)[O-])c4F)c4ccc([nH]4)c(-c4cccc(S(=O)(=O)[O-])c4F)c4nc(c(-c5cccc(S(=O)(=O)[O-])c5F)c5ccc2[nH]5)C=C4)C=C3)cc1
REMARK SMILES IDX 22 1 21 2 20 3 2 4 1 5 3 6 4 7 5 8 6 9 13 10 7 11 12 12 8 13
REMARK SMILES IDX 11 14 9 15 10 16 14 17 15 18 16 19 17 20 18 21 19 22 23 23
REMARK SMILES IDX 24 24 25 25 26 26 27 27 28 28 29 29 30 30 91 31 31 32 90 33
REMARK SMILES IDX 32 34 33 35 34 36 84 37 35 38 89 39 83 40 85 41 36 42 88 43
REMARK SMILES IDX 82 44 81 45 37 47 69 48 49 49 68 50 50 51 53 52 67 53 86 54
REMARK SMILES IDX 51 55 52 56 66 58 87 59 54 60 38 61 39 62 47 63 40 64 42 65
REMARK SMILES IDX 48 66 41 67 43 68 44 69 45 70 46 71 70 72 71 73 79 74 72 75
REMARK SMILES IDX 74 76 80 77 73 78 75 79 76 80 77 81 78 82 55 83 56 84 64 85
REMARK SMILES IDX 57 86 59 87 65 88 58 89 60 90 61 91 62 92 63 93
REMARK H PARENT 85 46 53 57
REMARK Flexibility Score: inf
ROOT
ATOM      1  C   UNL A   1      32.777  29.919  27.119  1.00  0.00     0.202 C 
ENDROOT
BRANCH   1   2
ATOM      2  C   UNL A   1      32.268  28.486  27.312  1.00  0.00     0.261 C 
BRANCH   2   3
ATOM      3  O   UNL A   1      32.367  27.631  26.171  1.00  0.00    -0.463 OA
BRANCH   3   4
ATOM      4  C   UNL A   1      31.698  26.472  25.987  1.00  0.00     0.316 C 
ATOM      5  O   UNL A   1      31.667  25.666  26.925  1.00  0.00    -0.251 OA
BRANCH   4   6
ATOM      6  C   UNL A   1      31.246  26.010  24.619  1.00  0.00     0.200 C 
BRANCH   6   7
ATOM      7  S   UNL A   1      32.442  25.478  23.389  1.00  0.00    -0.076 SA
BRANCH   7   8
ATOM      8  C   UNL A   1      33.580  24.640  24.376  1.00  0.00     0.169 A 
ATOM      9  N   UNL A   1      34.704  25.163  24.794  1.00  0.00    -0.221 NA
ATOM     10  N   UNL A   1      33.457  23.319  24.724  1.00  0.00    -0.318 N 
ATOM     11  C   UNL A   1      35.444  24.102  25.238  1.00  0.00     0.108 A 
ATOM     12  C   UNL A   1      34.711  22.917  25.148  1.00  0.00     0.072 A 
ATOM     13  C   UNL A   1      36.773  24.056  25.665  1.00  0.00     0.141 A 
ATOM     14  C   UNL A   1      35.291  21.679  25.424  1.00  0.00     0.049 A 
ATOM     15  N   UNL A   1      37.372  22.859  25.898  1.00  0.00    -0.262 NA
ATOM     16  C   UNL A   1      36.637  21.731  25.771  1.00  0.00     0.113 A 
BRANCH  10  17
ATOM     17  C   UNL A   1      32.318  22.450  24.495  1.00  0.00     0.134 C 
BRANCH  17  18
ATOM     18  C   UNL A   1      32.441  21.476  23.324  1.00  0.00     0.137 C 
BRANCH  18  19
ATOM     19  C   UNL A   1      32.470  20.025  23.738  1.00  0.00     0.390 C 
ATOM     20  F   UNL A   1      33.736  19.612  23.961  1.00  0.00    -0.171 F 
ATOM     21  F   UNL A   1      31.786  19.856  24.887  1.00  0.00    -0.171 F 
ATOM     22  F   UNL A   1      31.920  19.223  22.806  1.00  0.00    -0.171 F 
ENDBRANCH  18  19
ENDBRANCH  17  18
ENDBRANCH  10  17
ENDBRANCH   7   8
ENDBRANCH   6   7
ENDBRANCH   4   6
ENDBRANCH   3   4
ENDBRANCH   2   3
ENDBRANCH   1   2
BRANCH   1  23
ATOM     23  O   UNL A   1      32.100  30.772  26.200  1.00  0.00    -0.374 OA
BRANCH  23  24
ATOM     24  C   UNL A   1      31.330  31.860  26.728  1.00  0.00     0.202 C 
BRANCH  24  25
ATOM     25  C   UNL A   1      32.020  33.220  26.881  1.00  0.00     0.261 C 
BRANCH  25  26
ATOM     26  O   UNL A   1      32.149  33.542  28.268  1.00  0.00    -0.460 OA
BRANCH  26  27
ATOM     27  C   UNL A   1      32.774  34.727  28.513  1.00  0.00     0.338 C 
ATOM     28  O   UNL A   1      32.256  35.794  28.754  1.00  0.00    -0.246 OA
BRANCH  27  29
ATOM     29  C   UNL A   1      34.167  34.353  28.823  1.00  0.00     0.060 A 
ATOM     30  C   UNL A   1      35.127  34.282  27.809  1.00  0.00     0.016 A 
ATOM     31  C   UNL A   1      34.392  33.780  30.084  1.00  0.00     0.016 A 
ATOM     32  C   UNL A   1      36.307  33.592  28.053  1.00  0.00     0.010 A 
ATOM     33  C   UNL A   1      35.558  33.060  30.311  1.00  0.00     0.010 A 
ATOM     34  C   UNL A   1      36.508  32.957  29.291  1.00  0.00    -0.014 A 
BRANCH  34  35
ATOM     35  C   UNL A   1      37.847  32.442  29.568  1.00  0.00     0.031 A 
ATOM     36  C   UNL A   1      37.995  31.012  29.184  1.00  0.00     0.074 A 
ATOM     37  C   UNL A   1      38.933  33.149  29.937  1.00  0.00     0.049 A 
ATOM     38  N   UNL A   1      38.245  30.001  29.952  1.00  0.00    -0.248 NA
ATOM     39  C   UNL A   1      37.701  30.662  27.786  1.00  0.00     0.031 C 
ATOM     40  C   UNL A   1      39.071  34.600  30.034  1.00  0.00     0.029 A 
ATOM     41  N   UNL A   1      40.205  32.696  30.165  1.00  0.00    -0.354 N 
ATOM     42  C   UNL A   1      38.339  28.912  29.091  1.00  0.00     0.074 A 
ATOM     43  C   UNL A   1      37.838  29.339  27.811  1.00  0.00     0.031 C 
ATOM     44  C   UNL A   1      40.386  34.913  30.059  1.00  0.00     0.029 A 
ATOM     45  C   UNL A   1      41.173  33.692  30.095  1.00  0.00     0.049 A 
ATOM     46  H   UNL A   1      40.414  31.754  30.359  1.00  0.00     0.167 HD
ATOM     47  C   UNL A   1      39.042  27.792  29.401  1.00  0.00     0.034 A 
ATOM     48  C   UNL A   1      42.514  33.512  29.987  1.00  0.00     0.034 A 
ATOM     49  C   UNL A   1      39.368  27.690  30.791  1.00  0.00     0.049 A 
ATOM     50  C   UNL A   1      42.809  32.133  30.441  1.00  0.00     0.074 A 
ATOM     51  C   UNL A   1      38.653  27.657  31.970  1.00  0.00     0.029 A 
ATOM     52  N   UNL A   1      40.670  27.944  31.141  1.00  0.00    -0.354 N 
ATOM     53  N   UNL A   1      42.707  31.727  31.675  1.00  0.00    -0.248 NA
ATOM     54  C   UNL A   1      42.941  31.083  29.443  1.00  0.00     0.031 C 
ATOM     55  C   UNL A   1      39.471  28.331  32.920  1.00  0.00     0.029 A 
ATOM     56  C   UNL A   1      40.640  28.723  32.265  1.00  0.00     0.049 A 
ATOM     57  H   UNL A   1      41.475  27.623  30.672  1.00  0.00     0.167 HD
ATOM     58  C   UNL A   1      42.341  30.393  31.571  1.00  0.00     0.074 A 
ATOM     59  C   UNL A   1      42.635  30.023  30.191  1.00  0.00     0.031 C 
ATOM     60  C   UNL A   1      41.569  29.801  32.525  1.00  0.00     0.034 A 
BRANCH  47  61
ATOM     61  C   UNL A   1      39.734  26.963  28.361  1.00  0.00     0.023 A 
ATOM     62  C   UNL A   1      39.468  25.583  28.308  1.00  0.00     0.012 A 
ATOM     63  C   UNL A   1      40.815  27.454  27.594  1.00  0.00     0.148 A 
ATOM     64  C   UNL A   1      40.238  24.730  27.510  1.00  0.00     0.002 A 
ATOM     65  C   UNL A   1      41.516  26.621  26.735  1.00  0.00     0.091 A 
ATOM     66  F   UNL A   1      41.252  28.705  27.790  1.00  0.00    -0.205 F 
ATOM     67  C   UNL A   1      41.246  25.252  26.705  1.00  0.00     0.022 A 
BRANCH  65  68
ATOM     68  S   UNL A   1      42.766  27.280  25.630  1.00  0.00     0.127 S 
ATOM     69  O   UNL A   1      43.155  26.089  24.883  1.00  0.00    -0.237 OA
ATOM     70  O   UNL A   1      42.007  28.273  24.870  1.00  0.00    -0.237 OA
ATOM     71  O   UNL A   1      43.777  27.854  26.511  1.00  0.00    -0.744 OA
ENDBRANCH  65  68
ENDBRANCH  47  61
BRANCH  48  72
ATOM     72  C   UNL A   1      43.567  34.345  29.344  1.00  0.00     0.023 A 
ATOM     73  C   UNL A   1      44.319  35.232  30.148  1.00  0.00     0.012 A 
ATOM     74  C   UNL A   1      44.036  34.088  28.038  1.00  0.00     0.148 A 
ATOM     75  C   UNL A   1      45.521  35.789  29.693  1.00  0.00     0.002 A 
ATOM     76  C   UNL A   1      45.221  34.663  27.581  1.00  0.00     0.091 A 
ATOM     77  F   UNL A   1      43.385  33.206  27.271  1.00  0.00    -0.205 F 
ATOM     78  C   UNL A   1      45.977  35.497  28.413  1.00  0.00     0.022 A 
BRANCH  76  79
ATOM     79  S   UNL A   1      45.855  34.331  25.931  1.00  0.00     0.127 S 
ATOM     80  O   UNL A   1      44.635  34.336  25.122  1.00  0.00    -0.237 OA
ATOM     81  O   UNL A   1      46.742  35.469  25.708  1.00  0.00    -0.237 OA
ATOM     82  O   UNL A   1      46.498  33.025  26.020  1.00  0.00    -0.744 OA
ENDBRANCH  76  79
ENDBRANCH  48  72
BRANCH  60  83
ATOM     83  C   UNL A   1      41.413  30.494  33.849  1.00  0.00     0.023 A 
ATOM     84  C   UNL A   1      42.343  30.320  34.895  1.00  0.00     0.012 A 
ATOM     85  C   UNL A   1      40.434  31.496  33.957  1.00  0.00     0.148 A 
ATOM     86  C   UNL A   1      42.294  31.132  36.030  1.00  0.00     0.002 A 
ATOM     87  C   UNL A   1      40.414  32.328  35.069  1.00  0.00     0.091 A 
ATOM     88  F   UNL A   1      39.570  31.647  32.942  1.00  0.00    -0.205 F 
ATOM     89  C   UNL A   1      41.340  32.146  36.110  1.00  0.00     0.022 A 
BRANCH  87  90
ATOM     90  S   UNL A   1      39.296  33.727  35.188  1.00  0.00     0.127 S 
ATOM     91  O   UNL A   1      37.991  33.070  35.248  1.00  0.00    -0.237 OA
ATOM     92  O   UNL A   1      39.722  34.359  36.437  1.00  0.00    -0.237 OA
ATOM     93  O   UNL A   1      39.526  34.534  33.997  1.00  0.00    -0.744 OA
ENDBRANCH  87  90
ENDBRANCH  60  83
ENDBRANCH  34  35
ENDBRANCH  27  29
ENDBRANCH  26  27
ENDBRANCH  25  26
ENDBRANCH  24  25
ENDBRANCH  23  24
ENDBRANCH   1  23
TORSDOF 22
ENDMDL
MODEL 3
REMARK VINA RESULT:     -10.7      3.483      8.984
REMARK SMILES O=C(CSc1nc2cnccc2n1CCC(F)(F)F)OCCOCCOC(=O)c1ccc(-c2c3nc(c(-c4cccc(S(=O)(=O)[O-])c4F)c4ccc([nH]4)c(-c4cccc(S(=O)(=O)[O-])c4F)c4nc(c(-c5cccc(S(=O)(=O)[O-])c5F)c5ccc2[nH]5)C=C4)C=C3)cc1
REMARK SMILES IDX 22 1 21 2 20 3 2 4 1 5 3 6 4 7 5 8 6 9 13 10 7 11 12 12 8 13
REMARK SMILES IDX 11 14 9 15 10 16 14 17 15 18 16 19 17 20 18 21 19 22 23 23
REMARK SMILES IDX 24 24 25 25 26 26 27 27 28 28 29 29 30 30 91 31 31 32 90 33
REMARK SMILES IDX 32 34 33 35 34 36 84 37 35 38 89 39 83 40 85 41 36 42 88 43
REMARK SMILES IDX 82 44 81 45 37 47 69 48 49 49 68 50 50 51 53 52 67 53 86 54
REMARK SMILES IDX 51 55 52 56 66 58 87 59 54 60 38 61 39 62 47 63 40 64 42 65
REMARK SMILES IDX 48 66 41 67 43 68 44 69 45 70 46 71 70 72 71 73 79 74 72 75
REMARK SMILES IDX 74 76 80 77 73 78 75 79 76 80 77 81 78 82 55 83 56 84 64 85
REMARK SMILES IDX 57 86 59 87 65 88 58 89 60 90 61 91 62 92 63 93
REMARK H PARENT 85 46 53 57
REMARK Flexibility Score: inf
ROOT
ATOM      1  C   UNL A   1      33.535  28.086  26.479  1.00  0.00     0.202 C 
ENDROOT
BRANCH   1   2
ATOM      2  C   UNL A   1      33.315  27.344  25.155  1.00  0.00     0.261 C 
BRANCH   2   3
ATOM      3  O   UNL A   1      32.277  27.860  24.318  1.00  0.00    -0.463 OA
BRANCH   3   4
ATOM      4  C   UNL A   1      32.318  27.955  22.971  1.00  0.00     0.316 C 
ATOM      5  O   UNL A   1      32.721  29.014  22.477  1.00  0.00    -0.251 OA
BRANCH   4   6
ATOM      6  C   UNL A   1      31.634  26.949  22.072  1.00  0.00     0.200 C 
BRANCH   6   7
ATOM      7  S   UNL A   1      32.393  25.358  21.730  1.00  0.00    -0.076 SA
BRANCH   7   8
ATOM      8  C   UNL A   1      31.983  24.483  23.156  1.00  0.00     0.169 A 
ATOM      9  N   UNL A   1      30.893  24.691  23.849  1.00  0.00    -0.221 NA
ATOM     10  N   UNL A   1      32.810  23.562  23.748  1.00  0.00    -0.318 N 
ATOM     11  C   UNL A   1      31.106  24.058  25.043  1.00  0.00     0.108 A 
ATOM     12  C   UNL A   1      32.333  23.391  25.035  1.00  0.00     0.072 A 
ATOM     13  C   UNL A   1      30.336  24.065  26.208  1.00  0.00     0.141 A 
ATOM     14  C   UNL A   1      32.833  22.774  26.181  1.00  0.00     0.049 A 
ATOM     15  N   UNL A   1      30.822  23.510  27.348  1.00  0.00    -0.262 NA
ATOM     16  C   UNL A   1      32.027  22.898  27.308  1.00  0.00     0.113 A 
BRANCH  10  17
ATOM     17  C   UNL A   1      34.057  23.036  23.227  1.00  0.00     0.134 C 
BRANCH  17  18
ATOM     18  C   UNL A   1      35.336  23.605  23.839  1.00  0.00     0.137 C 
BRANCH  18  19
ATOM     19  C   UNL A   1      36.524  22.680  23.741  1.00  0.00     0.390 C 
ATOM     20  F   UNL A   1      36.212  21.444  24.188  1.00  0.00    -0.171 F 
ATOM     21  F   UNL A   1      36.910  22.555  22.456  1.00  0.00    -0.171 F 
ATOM     22  F   UNL A   1      37.577  23.134  24.448  1.00  0.00    -0.171 F 
ENDBRANCH  18  19
ENDBRANCH  17  18
ENDBRANCH  10  17
ENDBRANCH   7   8
ENDBRANCH   6   7
ENDBRANCH   4   6
ENDBRANCH   3   4
ENDBRANCH   2   3
ENDBRANCH   1   2
BRANCH   1  23
ATOM     23  O   UNL A   1      32.414  28.669  27.137  1.00  0.00    -0.374 OA
BRANCH  23  24
ATOM     24  C   UNL A   1      32.308  30.099  27.154  1.00  0.00     0.202 C 
BRANCH  24  25
ATOM     25  C   UNL A   1      33.605  30.914  27.136  1.00  0.00     0.261 C 
BRANCH  25  26
ATOM     26  O   UNL A   1      34.298  30.746  28.376  1.00  0.00    -0.460 OA
BRANCH  26  27
ATOM     27  C   UNL A   1      35.155  31.759  28.680  1.00  0.00     0.338 C 
ATOM     28  O   UNL A   1      34.874  32.908  28.935  1.00  0.00    -0.246 OA
BRANCH  27  29
ATOM     29  C   UNL A   1      36.418  31.080  29.031  1.00  0.00     0.060 A 
ATOM     30  C   UNL A   1      37.550  31.822  29.384  1.00  0.00     0.016 A 
ATOM     31  C   UNL A   1      36.511  29.723  28.690  1.00  0.00     0.016 A 
ATOM     32  C   UNL A   1      38.792  31.201  29.352  1.00  0.00     0.010 A 
ATOM     33  C   UNL A   1      37.760  29.116  28.625  1.00  0.00     0.010 A 
ATOM     34  C   UNL A   1      38.898  29.861  28.944  1.00  0.00    -0.014 A 
BRANCH  34  35
ATOM     35  C   UNL A   1      40.188  29.202  29.143  1.00  0.00     0.031 A 
ATOM     36  C   UNL A   1      40.460  28.908  30.576  1.00  0.00     0.074 A 
ATOM     37  C   UNL A   1      41.003  28.704  28.194  1.00  0.00     0.049 A 
ATOM     38  N   UNL A   1      41.411  29.372  31.320  1.00  0.00    -0.248 NA
ATOM     39  C   UNL A   1      39.466  28.092  31.290  1.00  0.00     0.031 C 
ATOM     40  C   UNL A   1      40.752  28.593  26.759  1.00  0.00     0.029 A 
ATOM     41  N   UNL A   1      42.196  28.050  28.356  1.00  0.00    -0.354 N 
ATOM     42  C   UNL A   1      41.247  28.740  32.548  1.00  0.00     0.074 A 
ATOM     43  C   UNL A   1      39.956  28.101  32.527  1.00  0.00     0.031 C 
ATOM     44  C   UNL A   1      41.630  27.712  26.228  1.00  0.00     0.029 A 
ATOM     45  C   UNL A   1      42.569  27.289  27.253  1.00  0.00     0.049 A 
ATOM     46  H   UNL A   1      42.737  28.113  29.176  1.00  0.00     0.167 HD
ATOM     47  C   UNL A   1      42.268  28.570  33.427  1.00  0.00     0.034 A 
ATOM     48  C   UNL A   1      43.522  26.322  27.222  1.00  0.00     0.034 A 
ATOM     49  C   UNL A   1      43.408  29.386  33.141  1.00  0.00     0.049 A 
ATOM     50  C   UNL A   1      44.413  26.547  28.384  1.00  0.00     0.074 A 
ATOM     51  C   UNL A   1      43.642  30.740  33.017  1.00  0.00     0.029 A 
ATOM     52  N   UNL A   1      44.498  28.758  32.593  1.00  0.00    -0.354 N 
ATOM     53  N   UNL A   1      45.231  27.554  28.500  1.00  0.00    -0.248 NA
ATOM     54  C   UNL A   1      44.178  25.785  29.601  1.00  0.00     0.031 C 
ATOM     55  C   UNL A   1      44.641  30.854  32.009  1.00  0.00     0.029 A 
ATOM     56  C   UNL A   1      44.962  29.562  31.588  1.00  0.00     0.049 A 
ATOM     57  H   UNL A   1      44.876  27.892  32.873  1.00  0.00     0.167 HD
ATOM     58  C   UNL A   1      45.280  27.805  29.863  1.00  0.00     0.074 A 
ATOM     59  C   UNL A   1      44.729  26.611  30.491  1.00  0.00     0.031 C 
ATOM     60  C   UNL A   1      45.491  29.065  30.337  1.00  0.00     0.034 A 
BRANCH  47  61
ATOM     61  C   UNL A   1      42.349  27.387  34.346  1.00  0.00     0.023 A 
ATOM     62  C   UNL A   1      41.849  27.513  35.655  1.00  0.00     0.012 A 
ATOM     63  C   UNL A   1      43.117  26.241  34.043  1.00  0.00     0.148 A 
ATOM     64  C   UNL A   1      42.089  26.526  36.616  1.00  0.00     0.002 A 
ATOM     65  C   UNL A   1      43.275  25.223  34.972  1.00  0.00     0.091 A 
ATOM     66  F   UNL A   1      43.805  26.188  32.895  1.00  0.00    -0.205 F 
ATOM     67  C   UNL A   1      42.781  25.370  36.269  1.00  0.00     0.022 A 
BRANCH  65  68
ATOM     68  S   UNL A   1      44.095  23.690  34.527  1.00  0.00     0.127 S 
ATOM     69  O   UNL A   1      44.314  23.084  35.836  1.00  0.00    -0.237 OA
ATOM     70  O   UNL A   1      43.083  23.034  33.698  1.00  0.00    -0.237 OA
ATOM     71  O   UNL A   1      45.285  24.103  33.793  1.00  0.00    -0.744 OA
ENDBRANCH  65  68
ENDBRANCH  47  61
BRANCH  48  72
ATOM     72  C   UNL A   1      43.642  25.089  26.396  1.00  0.00     0.023 A 
ATOM     73  C   UNL A   1      44.795  24.915  25.596  1.00  0.00     0.012 A 
ATOM     74  C   UNL A   1      42.804  23.970  26.588  1.00  0.00     0.148 A 
ATOM     75  C   UNL A   1      45.132  23.664  25.064  1.00  0.00     0.002 A 
ATOM     76  C   UNL A   1      43.131  22.733  26.037  1.00  0.00     0.091 A 
ATOM     77  F   UNL A   1      41.738  24.082  27.390  1.00  0.00    -0.205 F 
ATOM     78  C   UNL A   1      44.305  22.570  25.292  1.00  0.00     0.022 A 
BRANCH  76  79
ATOM     79  S   UNL A   1      42.094  21.285  26.290  1.00  0.00     0.127 S 
ATOM     80  O   UNL A   1      42.717  20.297  25.406  1.00  0.00    -0.237 OA
ATOM     81  O   UNL A   1      42.270  21.027  27.716  1.00  0.00    -0.237 OA
ATOM     82  O   UNL A   1      40.757  21.690  25.872  1.00  0.00    -0.744 OA
ENDBRANCH  76  79
ENDBRANCH  48  72
BRANCH  60  83
ATOM     83  C   UNL A   1      46.015  30.108  29.389  1.00  0.00     0.023 A 
ATOM     84  C   UNL A   1      47.394  30.263  29.142  1.00  0.00     0.012 A 
ATOM     85  C   UNL A   1      45.089  30.787  28.580  1.00  0.00     0.148 A 
ATOM     86  C   UNL A   1      47.841  31.087  28.106  1.00  0.00     0.002 A 
ATOM     87  C   UNL A   1      45.536  31.573  27.525  1.00  0.00     0.091 A 
ATOM     88  F   UNL A   1      43.783  30.611  28.829  1.00  0.00    -0.205 F 
ATOM     89  C   UNL A   1      46.912  31.729  27.288  1.00  0.00     0.022 A 
BRANCH  87  90
ATOM     90  S   UNL A   1      44.402  32.331  26.360  1.00  0.00     0.127 S 
ATOM     91  O   UNL A   1      43.507  31.221  26.039  1.00  0.00    -0.237 OA
ATOM     92  O   UNL A   1      43.796  33.394  27.164  1.00  0.00    -0.237 OA
ATOM     93  O   UNL A   1      45.217  32.809  25.250  1.00  0.00    -0.744 OA
ENDBRANCH  87  90
ENDBRANCH  60  83
ENDBRANCH  34  35
ENDBRANCH  27  29
ENDBRANCH  26  27
ENDBRANCH  25  26
ENDBRANCH  24  25
ENDBRANCH  23  24
ENDBRANCH   1  23
TORSDOF 22
ENDMDL
