MODEL 1
REMARK VINA RESULT:     -11.8      0.000      0.000
REMARK SMILES COc1ccccc1C(=O)N/C(=C/c1ccc(Cl)cc1)C(=O)OCCOCCOC(=O)c1ccc(-c2c3nc(c(-c4cccc(S(=O)(=O)[O-])c4F)c4ccc([nH]4)c(-c4cccc(S(=O)(=O)[O-])c4F)c4nc(c(-c5cccc(S(=O)(=O)[O-])c5F)c5ccc2[nH]5)C=C4)C=C3)cc1
REMARK SMILES IDX 26 1 25 2 24 3 23 4 21 5 22 6 12 7 13 8 11 9 9 10 10 11 8 13
REMARK SMILES IDX 3 14 4 15 5 16 7 17 6 18 2 19 1 20 14 21 15 22 20 23 16 24
REMARK SMILES IDX 19 25 17 26 18 27 27 28 28 29 29 30 30 31 31 32 32 33 33 34
REMARK SMILES IDX 94 35 34 36 93 37 35 38 36 39 37 40 87 41 38 42 92 43 86 44
REMARK SMILES IDX 88 45 39 46 91 47 85 48 84 49 40 51 72 52 52 53 71 54 53 55
REMARK SMILES IDX 56 56 70 57 89 58 54 59 55 60 69 62 90 63 57 64 41 65 42 66
REMARK SMILES IDX 50 67 43 68 45 69 51 70 44 71 46 72 47 73 48 74 49 75 73 76
REMARK SMILES IDX 74 77 82 78 75 79 77 80 83 81 76 82 78 83 79 84 80 85 81 86
REMARK SMILES IDX 58 87 59 88 67 89 60 90 62 91 68 92 61 93 63 94 64 95 65 96
REMARK SMILES IDX 66 97
REMARK H PARENT 11 12 88 50 56 61
REMARK Flexibility Score: inf
ROOT
ATOM      1  O   UNL A   1      35.956  20.941  25.567  1.00  0.00    -0.374 OA
ENDROOT
BRANCH   1   2
ATOM      2  C   UNL A   1      35.512  22.041  24.752  1.00  0.00     0.202 C 
BRANCH   2   3
ATOM      3  C   UNL A   1      35.866  23.432  25.300  1.00  0.00     0.261 C 
BRANCH   3   4
ATOM      4  O   UNL A   1      34.723  24.018  25.943  1.00  0.00    -0.459 OA
BRANCH   4   5
ATOM      5  C   UNL A   1      33.748  24.495  25.120  1.00  0.00     0.354 C 
ATOM      6  O   UNL A   1      33.911  24.942  23.993  1.00  0.00    -0.244 OA
BRANCH   5   7
ATOM      7  C   UNL A   1      32.394  24.369  25.768  1.00  0.00     0.128 C 
ATOM      8  C   UNL A   1      31.633  23.269  25.567  1.00  0.00     0.042 C 
BRANCH   7   9
ATOM      9  N   UNL A   1      31.886  25.350  26.617  1.00  0.00    -0.316 N 
ATOM     10  C   UNL A   1      31.353  26.616  26.447  1.00  0.00     0.259 C 
ATOM     11  O   UNL A   1      31.085  27.267  27.461  1.00  0.00    -0.269 OA
ATOM     12  H   UNL A   1      31.913  25.078  27.563  1.00  0.00     0.170 HD
BRANCH  10  13
ATOM     13  C   UNL A   1      30.990  27.212  25.139  1.00  0.00     0.082 A 
ATOM     14  C   UNL A   1      31.688  28.263  24.561  1.00  0.00     0.131 A 
ATOM     15  C   UNL A   1      31.106  28.978  23.506  1.00  0.00     0.047 A 
ATOM     16  C   UNL A   1      29.966  28.502  22.870  1.00  0.00     0.004 A 
ATOM     17  C   UNL A   1      29.907  26.667  24.431  1.00  0.00     0.018 A 
ATOM     18  C   UNL A   1      29.411  27.299  23.286  1.00  0.00     0.001 A 
BRANCH  14  19
ATOM     19  O   UNL A   1      32.873  28.715  25.053  1.00  0.00    -0.496 OA
ATOM     20  C   UNL A   1      32.783  29.872  25.879  1.00  0.00     0.278 C 
ENDBRANCH  14  19
ENDBRANCH  10  13
ENDBRANCH   7   9
BRANCH   8  21
ATOM     21  C   UNL A   1      31.880  22.139  24.658  1.00  0.00    -0.023 A 
ATOM     22  C   UNL A   1      32.174  20.890  25.227  1.00  0.00     0.010 A 
ATOM     23  C   UNL A   1      31.831  22.259  23.264  1.00  0.00     0.010 A 
ATOM     24  C   UNL A   1      32.367  19.769  24.418  1.00  0.00     0.021 A 
ATOM     25  C   UNL A   1      32.016  21.132  22.453  1.00  0.00     0.021 A 
ATOM     26  C   UNL A   1      32.272  19.891  23.035  1.00  0.00     0.041 A 
ATOM     27  Cl  UNL A   1      32.458  18.496  22.051  1.00  0.00    -0.084 Cl
ENDBRANCH   8  21
ENDBRANCH   5   7
ENDBRANCH   4   5
ENDBRANCH   3   4
ENDBRANCH   2   3
ENDBRANCH   1   2
BRANCH   1  28
ATOM     28  C   UNL A   1      36.511  19.842  24.840  1.00  0.00     0.202 C 
BRANCH  28  29
ATOM     29  C   UNL A   1      38.014  19.650  25.013  1.00  0.00     0.261 C 
BRANCH  29  30
ATOM     30  O   UNL A   1      38.570  20.869  25.482  1.00  0.00    -0.460 OA
BRANCH  30  31
ATOM     31  C   UNL A   1      39.710  20.663  26.184  1.00  0.00     0.338 C 
ATOM     32  O   UNL A   1      40.432  19.689  26.147  1.00  0.00    -0.246 OA
BRANCH  31  33
ATOM     33  C   UNL A   1      40.054  21.928  26.851  1.00  0.00     0.060 A 
ATOM     34  C   UNL A   1      39.377  23.071  26.413  1.00  0.00     0.016 A 
ATOM     35  C   UNL A   1      41.000  21.993  27.881  1.00  0.00     0.016 A 
ATOM     36  C   UNL A   1      39.727  24.309  26.923  1.00  0.00     0.010 A 
ATOM     37  C   UNL A   1      41.352  23.233  28.395  1.00  0.00     0.010 A 
ATOM     38  C   UNL A   1      40.767  24.391  27.855  1.00  0.00    -0.014 A 
BRANCH  38  39
ATOM     39  C   UNL A   1      41.438  25.688  28.034  1.00  0.00     0.031 A 
ATOM     40  C   UNL A   1      40.649  26.788  28.687  1.00  0.00     0.074 A 
ATOM     41  C   UNL A   1      42.710  25.857  27.645  1.00  0.00     0.049 A 
ATOM     42  N   UNL A   1      41.005  28.014  28.949  1.00  0.00    -0.248 NA
ATOM     43  C   UNL A   1      39.271  26.463  29.104  1.00  0.00     0.031 C 
ATOM     44  C   UNL A   1      43.545  24.837  27.012  1.00  0.00     0.029 A 
ATOM     45  N   UNL A   1      43.510  26.966  27.701  1.00  0.00    -0.354 N 
ATOM     46  C   UNL A   1      39.893  28.612  29.529  1.00  0.00     0.074 A 
ATOM     47  C   UNL A   1      38.843  27.623  29.577  1.00  0.00     0.031 C 
ATOM     48  C   UNL A   1      44.727  25.386  26.685  1.00  0.00     0.029 A 
ATOM     49  C   UNL A   1      44.720  26.792  27.078  1.00  0.00     0.049 A 
ATOM     50  H   UNL A   1      43.242  27.803  28.143  1.00  0.00     0.167 HD
ATOM     51  C   UNL A   1      39.769  29.873  29.998  1.00  0.00     0.034 A 
ATOM     52  C   UNL A   1      45.694  27.690  26.833  1.00  0.00     0.034 A 
ATOM     53  C   UNL A   1      40.839  30.829  29.972  1.00  0.00     0.049 A 
ATOM     54  C   UNL A   1      45.524  29.091  27.362  1.00  0.00     0.074 A 
ATOM     55  C   UNL A   1      40.854  32.114  30.478  1.00  0.00     0.029 A 
ATOM     56  N   UNL A   1      42.078  30.605  29.394  1.00  0.00    -0.354 N 
ATOM     57  N   UNL A   1      44.522  29.604  28.037  1.00  0.00    -0.248 NA
ATOM     58  C   UNL A   1      46.635  30.025  27.136  1.00  0.00     0.031 C 
ATOM     59  C   UNL A   1      42.098  32.678  30.180  1.00  0.00     0.029 A 
ATOM     60  C   UNL A   1      42.865  31.733  29.517  1.00  0.00     0.049 A 
ATOM     61  H   UNL A   1      42.356  29.765  28.962  1.00  0.00     0.167 HD
ATOM     62  C   UNL A   1      44.898  30.903  28.352  1.00  0.00     0.074 A 
ATOM     63  C   UNL A   1      46.229  31.092  27.809  1.00  0.00     0.031 C 
ATOM     64  C   UNL A   1      44.208  31.862  29.018  1.00  0.00     0.034 A 
BRANCH  51  65
ATOM     65  C   UNL A   1      38.454  30.283  30.596  1.00  0.00     0.023 A 
ATOM     66  C   UNL A   1      38.176  29.996  31.947  1.00  0.00     0.012 A 
ATOM     67  C   UNL A   1      37.525  31.023  29.838  1.00  0.00     0.148 A 
ATOM     68  C   UNL A   1      36.988  30.430  32.533  1.00  0.00     0.002 A 
ATOM     69  C   UNL A   1      36.362  31.488  30.441  1.00  0.00     0.091 A 
ATOM     70  F   UNL A   1      37.798  31.259  28.547  1.00  0.00    -0.205 F 
ATOM     71  C   UNL A   1      36.089  31.186  31.785  1.00  0.00     0.022 A 
BRANCH  69  72
ATOM     72  S   UNL A   1      35.178  32.531  29.586  1.00  0.00     0.127 S 
ATOM     73  O   UNL A   1      34.535  31.572  28.686  1.00  0.00    -0.237 OA
ATOM     74  O   UNL A   1      34.332  32.996  30.684  1.00  0.00    -0.237 OA
ATOM     75  O   UNL A   1      35.954  33.571  28.926  1.00  0.00    -0.744 OA
ENDBRANCH  69  72
ENDBRANCH  51  65
BRANCH  52  76
ATOM     76  C   UNL A   1      46.914  27.285  26.084  1.00  0.00     0.023 A 
ATOM     77  C   UNL A   1      47.009  27.556  24.705  1.00  0.00     0.012 A 
ATOM     78  C   UNL A   1      47.985  26.638  26.731  1.00  0.00     0.148 A 
ATOM     79  C   UNL A   1      48.129  27.152  23.978  1.00  0.00     0.002 A 
ATOM     80  C   UNL A   1      49.120  26.286  26.012  1.00  0.00     0.091 A 
ATOM     81  F   UNL A   1      47.870  26.372  28.041  1.00  0.00    -0.205 F 
ATOM     82  C   UNL A   1      49.187  26.525  24.631  1.00  0.00     0.022 A 
BRANCH  80  83
ATOM     83  S   UNL A   1      50.577  25.594  26.804  1.00  0.00     0.127 S 
ATOM     84  O   UNL A   1      50.978  26.680  27.694  1.00  0.00    -0.237 OA
ATOM     85  O   UNL A   1      50.029  24.416  27.478  1.00  0.00    -0.237 OA
ATOM     86  O   UNL A   1      51.497  25.282  25.719  1.00  0.00    -0.744 OA
ENDBRANCH  80  83
ENDBRANCH  52  76
BRANCH  64  87
ATOM     87  C   UNL A   1      44.892  33.183  29.240  1.00  0.00     0.023 A 
ATOM     88  C   UNL A   1      45.657  33.390  30.404  1.00  0.00     0.012 A 
ATOM     89  C   UNL A   1      44.847  34.184  28.249  1.00  0.00     0.148 A 
ATOM     90  C   UNL A   1      46.341  34.588  30.594  1.00  0.00     0.002 A 
ATOM     91  C   UNL A   1      45.574  35.353  28.422  1.00  0.00     0.091 A 
ATOM     92  F   UNL A   1      44.100  33.970  27.156  1.00  0.00    -0.205 F 
ATOM     93  C   UNL A   1      46.310  35.563  29.599  1.00  0.00     0.022 A 
BRANCH  91  94
ATOM     94  S   UNL A   1      45.677  36.614  27.147  1.00  0.00     0.127 S 
ATOM     95  O   UNL A   1      44.280  37.025  27.021  1.00  0.00    -0.237 OA
ATOM     96  O   UNL A   1      46.553  37.611  27.765  1.00  0.00    -0.237 OA
ATOM     97  O   UNL A   1      46.244  35.957  25.977  1.00  0.00    -0.744 OA
ENDBRANCH  91  94
ENDBRANCH  64  87
ENDBRANCH  38  39
ENDBRANCH  31  33
ENDBRANCH  30  31
ENDBRANCH  29  30
ENDBRANCH  28  29
ENDBRANCH   1  28
TORSDOF 21
ENDMDL
MODEL 2
REMARK VINA RESULT:     -11.6      4.734      7.909
REMARK SMILES COc1ccccc1C(=O)N/C(=C/c1ccc(Cl)cc1)C(=O)OCCOCCOC(=O)c1ccc(-c2c3nc(c(-c4cccc(S(=O)(=O)[O-])c4F)c4ccc([nH]4)c(-c4cccc(S(=O)(=O)[O-])c4F)c4nc(c(-c5cccc(S(=O)(=O)[O-])c5F)c5ccc2[nH]5)C=C4)C=C3)cc1
REMARK SMILES IDX 26 1 25 2 24 3 23 4 21 5 22 6 12 7 13 8 11 9 9 10 10 11 8 13
REMARK SMILES IDX 3 14 4 15 5 16 7 17 6 18 2 19 1 20 14 21 15 22 20 23 16 24
REMARK SMILES IDX 19 25 17 26 18 27 27 28 28 29 29 30 30 31 31 32 32 33 33 34
REMARK SMILES IDX 94 35 34 36 93 37 35 38 36 39 37 40 87 41 38 42 92 43 86 44
REMARK SMILES IDX 88 45 39 46 91 47 85 48 84 49 40 51 72 52 52 53 71 54 53 55
REMARK SMILES IDX 56 56 70 57 89 58 54 59 55 60 69 62 90 63 57 64 41 65 42 66
REMARK SMILES IDX 50 67 43 68 45 69 51 70 44 71 46 72 47 73 48 74 49 75 73 76
REMARK SMILES IDX 74 77 82 78 75 79 77 80 83 81 76 82 78 83 79 84 80 85 81 86
REMARK SMILES IDX 58 87 59 88 67 89 60 90 62 91 68 92 61 93 63 94 64 95 65 96
REMARK SMILES IDX 66 97
REMARK H PARENT 11 12 88 50 56 61
REMARK Flexibility Score: inf
ROOT
ATOM      1  O   UNL A   1      32.181  28.307  26.271  1.00  0.00    -0.374 OA
ENDROOT
BRANCH   1   2
ATOM      2  C   UNL A   1      33.337  27.454  26.186  1.00  0.00     0.202 C 
BRANCH   2   3
ATOM      3  C   UNL A   1      33.023  25.956  26.047  1.00  0.00     0.261 C 
BRANCH   3   4
ATOM      4  O   UNL A   1      31.609  25.757  25.889  1.00  0.00    -0.459 OA
BRANCH   4   5
ATOM      5  C   UNL A   1      31.145  24.504  26.155  1.00  0.00     0.354 C 
ATOM      6  O   UNL A   1      30.809  24.077  27.251  1.00  0.00    -0.244 OA
BRANCH   5   7
ATOM      7  C   UNL A   1      31.055  23.689  24.890  1.00  0.00     0.128 C 
ATOM      8  C   UNL A   1      30.716  24.271  23.718  1.00  0.00     0.042 C 
BRANCH   7   9
ATOM      9  N   UNL A   1      31.343  22.327  24.867  1.00  0.00    -0.316 N 
ATOM     10  C   UNL A   1      32.491  21.569  24.711  1.00  0.00     0.259 C 
ATOM     11  O   UNL A   1      32.365  20.343  24.641  1.00  0.00    -0.269 OA
ATOM     12  H   UNL A   1      30.540  21.771  24.990  1.00  0.00     0.170 HD
BRANCH  10  13
ATOM     13  C   UNL A   1      33.871  22.112  24.717  1.00  0.00     0.082 A 
ATOM     14  C   UNL A   1      34.678  22.129  25.845  1.00  0.00     0.131 A 
ATOM     15  C   UNL A   1      35.821  22.937  25.862  1.00  0.00     0.047 A 
ATOM     16  C   UNL A   1      36.293  23.523  24.693  1.00  0.00     0.004 A 
ATOM     17  C   UNL A   1      34.403  22.605  23.515  1.00  0.00     0.018 A 
ATOM     18  C   UNL A   1      35.623  23.289  23.501  1.00  0.00     0.001 A 
BRANCH  14  19
ATOM     19  O   UNL A   1      34.344  21.482  26.996  1.00  0.00    -0.496 OA
ATOM     20  C   UNL A   1      33.686  22.285  27.971  1.00  0.00     0.278 C 
ENDBRANCH  14  19
ENDBRANCH  10  13
ENDBRANCH   7   9
BRANCH   8  21
ATOM     21  C   UNL A   1      30.276  25.654  23.475  1.00  0.00    -0.023 A 
ATOM     22  C   UNL A   1      31.168  26.524  22.829  1.00  0.00     0.010 A 
ATOM     23  C   UNL A   1      29.016  26.130  23.859  1.00  0.00     0.010 A 
ATOM     24  C   UNL A   1      30.788  27.834  22.525  1.00  0.00     0.021 A 
ATOM     25  C   UNL A   1      28.633  27.440  23.546  1.00  0.00     0.021 A 
ATOM     26  C   UNL A   1      29.517  28.281  22.871  1.00  0.00     0.041 A 
ATOM     27  Cl  UNL A   1      29.041  29.875  22.446  1.00  0.00    -0.084 Cl
ENDBRANCH   8  21
ENDBRANCH   5   7
ENDBRANCH   4   5
ENDBRANCH   3   4
ENDBRANCH   2   3
ENDBRANCH   1   2
BRANCH   1  28
ATOM     28  C   UNL A   1      32.284  29.531  25.539  1.00  0.00     0.202 C 
BRANCH  28  29
ATOM     29  C   UNL A   1      32.006  30.791  26.352  1.00  0.00     0.261 C 
BRANCH  29  30
ATOM     30  O   UNL A   1      32.799  30.750  27.528  1.00  0.00    -0.460 OA
BRANCH  30  31
ATOM     31  C   UNL A   1      33.607  31.833  27.626  1.00  0.00     0.338 C 
ATOM     32  O   UNL A   1      33.275  32.998  27.680  1.00  0.00    -0.246 OA
BRANCH  31  33
ATOM     33  C   UNL A   1      34.972  31.345  27.877  1.00  0.00     0.060 A 
ATOM     34  C   UNL A   1      35.148  29.958  27.893  1.00  0.00     0.016 A 
ATOM     35  C   UNL A   1      36.048  32.218  28.081  1.00  0.00     0.016 A 
ATOM     36  C   UNL A   1      36.383  29.431  28.228  1.00  0.00     0.010 A 
ATOM     37  C   UNL A   1      37.288  31.691  28.415  1.00  0.00     0.010 A 
ATOM     38  C   UNL A   1      37.426  30.301  28.563  1.00  0.00    -0.014 A 
BRANCH  38  39
ATOM     39  C   UNL A   1      38.548  29.768  29.351  1.00  0.00     0.031 A 
ATOM     40  C   UNL A   1      38.661  30.217  30.782  1.00  0.00     0.074 A 
ATOM     41  C   UNL A   1      39.413  28.900  28.806  1.00  0.00     0.049 A 
ATOM     42  N   UNL A   1      39.555  29.903  31.676  1.00  0.00    -0.248 NA
ATOM     43  C   UNL A   1      37.623  31.145  31.273  1.00  0.00     0.031 C 
ATOM     44  C   UNL A   1      39.367  28.410  27.430  1.00  0.00     0.029 A 
ATOM     45  N   UNL A   1      40.519  28.302  29.344  1.00  0.00    -0.354 N 
ATOM     46  C   UNL A   1      39.208  30.613  32.819  1.00  0.00     0.074 A 
ATOM     47  C   UNL A   1      38.028  31.384  32.510  1.00  0.00     0.031 C 
ATOM     48  C   UNL A   1      40.436  27.626  27.212  1.00  0.00     0.029 A 
ATOM     49  C   UNL A   1      41.239  27.572  28.431  1.00  0.00     0.049 A 
ATOM     50  H   UNL A   1      40.773  28.387  30.291  1.00  0.00     0.167 HD
ATOM     51  C   UNL A   1      39.815  30.605  34.026  1.00  0.00     0.034 A 
ATOM     52  C   UNL A   1      42.429  26.957  28.572  1.00  0.00     0.034 A 
ATOM     53  C   UNL A   1      40.968  29.804  34.321  1.00  0.00     0.049 A 
ATOM     54  C   UNL A   1      43.085  26.973  29.928  1.00  0.00     0.074 A 
ATOM     55  C   UNL A   1      41.630  29.661  35.525  1.00  0.00     0.029 A 
ATOM     56  N   UNL A   1      41.637  29.021  33.393  1.00  0.00    -0.354 N 
ATOM     57  N   UNL A   1      42.671  27.533  31.041  1.00  0.00    -0.248 NA
ATOM     58  C   UNL A   1      44.348  26.235  30.063  1.00  0.00     0.031 C 
ATOM     59  C   UNL A   1      42.719  28.810  35.317  1.00  0.00     0.029 A 
ATOM     60  C   UNL A   1      42.716  28.401  33.992  1.00  0.00     0.049 A 
ATOM     61  H   UNL A   1      41.380  28.921  32.448  1.00  0.00     0.167 HD
ATOM     62  C   UNL A   1      43.597  27.181  32.014  1.00  0.00     0.074 A 
ATOM     63  C   UNL A   1      44.585  26.345  31.362  1.00  0.00     0.031 C 
ATOM     64  C   UNL A   1      43.641  27.525  33.326  1.00  0.00     0.034 A 
BRANCH  51  65
ATOM     65  C   UNL A   1      39.239  31.462  35.117  1.00  0.00     0.023 A 
ATOM     66  C   UNL A   1      38.302  30.916  36.017  1.00  0.00     0.012 A 
ATOM     67  C   UNL A   1      39.684  32.786  35.296  1.00  0.00     0.148 A 
ATOM     68  C   UNL A   1      37.810  31.679  37.075  1.00  0.00     0.002 A 
ATOM     69  C   UNL A   1      39.221  33.526  36.377  1.00  0.00     0.091 A 
ATOM     70  F   UNL A   1      40.553  33.292  34.410  1.00  0.00    -0.205 F 
ATOM     71  C   UNL A   1      38.278  32.977  37.262  1.00  0.00     0.022 A 
BRANCH  69  72
ATOM     72  S   UNL A   1      39.817  35.178  36.748  1.00  0.00     0.127 S 
ATOM     73  O   UNL A   1      41.267  34.982  36.721  1.00  0.00    -0.237 OA
ATOM     74  O   UNL A   1      39.287  35.952  35.627  1.00  0.00    -0.237 OA
ATOM     75  O   UNL A   1      39.265  35.526  38.049  1.00  0.00    -0.744 OA
ENDBRANCH  69  72
ENDBRANCH  51  65
BRANCH  52  76
ATOM     76  C   UNL A   1      43.053  26.261  27.415  1.00  0.00     0.023 A 
ATOM     77  C   UNL A   1      44.025  26.924  26.641  1.00  0.00     0.012 A 
ATOM     78  C   UNL A   1      42.692  24.941  27.079  1.00  0.00     0.148 A 
ATOM     79  C   UNL A   1      44.595  26.301  25.531  1.00  0.00     0.002 A 
ATOM     80  C   UNL A   1      43.304  24.307  26.004  1.00  0.00     0.091 A 
ATOM     81  F   UNL A   1      41.753  24.330  27.815  1.00  0.00    -0.205 F 
ATOM     82  C   UNL A   1      44.241  24.992  25.217  1.00  0.00     0.022 A 
BRANCH  80  83
ATOM     83  S   UNL A   1      42.999  22.580  25.615  1.00  0.00     0.127 S 
ATOM     84  O   UNL A   1      43.548  22.476  24.265  1.00  0.00    -0.237 OA
ATOM     85  O   UNL A   1      43.772  21.891  26.649  1.00  0.00    -0.237 OA
ATOM     86  O   UNL A   1      41.558  22.403  25.736  1.00  0.00    -0.744 OA
ENDBRANCH  80  83
ENDBRANCH  52  76
BRANCH  64  87
ATOM     87  C   UNL A   1      44.763  26.961  34.154  1.00  0.00     0.023 A 
ATOM     88  C   UNL A   1      45.989  27.649  34.234  1.00  0.00     0.012 A 
ATOM     89  C   UNL A   1      44.566  25.797  34.923  1.00  0.00     0.148 A 
ATOM     90  C   UNL A   1      47.016  27.168  35.043  1.00  0.00     0.002 A 
ATOM     91  C   UNL A   1      45.574  25.354  35.767  1.00  0.00     0.091 A 
ATOM     92  F   UNL A   1      43.395  25.152  34.819  1.00  0.00    -0.205 F 
ATOM     93  C   UNL A   1      46.804  26.029  35.818  1.00  0.00     0.022 A 
BRANCH  91  94
ATOM     94  S   UNL A   1      45.350  23.961  36.877  1.00  0.00     0.127 S 
ATOM     95  O   UNL A   1      44.310  24.460  37.775  1.00  0.00    -0.237 OA
ATOM     96  O   UNL A   1      44.914  22.902  35.966  1.00  0.00    -0.237 OA
ATOM     97  O   UNL A   1      46.650  23.726  37.494  1.00  0.00    -0.744 OA
ENDBRANCH  91  94
ENDBRANCH  64  87
ENDBRANCH  38  39
ENDBRANCH  31  33
ENDBRANCH  30  31
ENDBRANCH  29  30
ENDBRANCH  28  29
ENDBRANCH   1  28
TORSDOF 21
ENDMDL
MODEL 3
REMARK VINA RESULT:     -11.4      4.912      8.317
REMARK SMILES COc1ccccc1C(=O)N/C(=C/c1ccc(Cl)cc1)C(=O)OCCOCCOC(=O)c1ccc(-c2c3nc(c(-c4cccc(S(=O)(=O)[O-])c4F)c4ccc([nH]4)c(-c4cccc(S(=O)(=O)[O-])c4F)c4nc(c(-c5cccc(S(=O)(=O)[O-])c5F)c5ccc2[nH]5)C=C4)C=C3)cc1
REMARK SMILES IDX 26 1 25 2 24 3 23 4 21 5 22 6 12 7 13 8 11 9 9 10 10 11 8 13
REMARK SMILES IDX 3 14 4 15 5 16 7 17 6 18 2 19 1 20 14 21 15 22 20 23 16 24
REMARK SMILES IDX 19 25 17 26 18 27 27 28 28 29 29 30 30 31 31 32 32 33 33 34
REMARK SMILES IDX 94 35 34 36 93 37 35 38 36 39 37 40 87 41 38 42 92 43 86 44
REMARK SMILES IDX 88 45 39 46 91 47 85 48 84 49 40 51 72 52 52 53 71 54 53 55
REMARK SMILES IDX 56 56 70 57 89 58 54 59 55 60 69 62 90 63 57 64 41 65 42 66
REMARK SMILES IDX 50 67 43 68 45 69 51 70 44 71 46 72 47 73 48 74 49 75 73 76
REMARK SMILES IDX 74 77 82 78 75 79 77 80 83 81 76 82 78 83 79 84 80 85 81 86
REMARK SMILES IDX 58 87 59 88 67 89 60 90 62 91 68 92 61 93 63 94 64 95 65 96
REMARK SMILES IDX 66 97
REMARK H PARENT 11 12 88 50 56 61
REMARK Flexibility Score: inf
ROOT
ATOM      1  O   UNL A   1      32.201  30.877  25.855  1.00  0.00    -0.374 OA
ENDROOT
BRANCH   1   2
ATOM      2  C   UNL A   1      32.443  29.698  26.644  1.00  0.00     0.202 C 
BRANCH   2   3
ATOM      3  C   UNL A   1      33.532  28.766  26.091  1.00  0.00     0.261 C 
BRANCH   3   4
ATOM      4  O   UNL A   1      33.476  27.490  26.749  1.00  0.00    -0.459 OA
BRANCH   4   5
ATOM      5  C   UNL A   1      32.587  26.591  26.242  1.00  0.00     0.354 C 
ATOM      6  O   UNL A   1      31.513  26.280  26.739  1.00  0.00    -0.244 OA
BRANCH   5   7
ATOM      7  C   UNL A   1      33.081  26.033  24.933  1.00  0.00     0.128 C 
ATOM      8  C   UNL A   1      32.383  26.231  23.792  1.00  0.00     0.042 C 
BRANCH   7   9
ATOM      9  N   UNL A   1      34.278  25.328  24.834  1.00  0.00    -0.316 N 
ATOM     10  C   UNL A   1      34.624  23.995  24.695  1.00  0.00     0.259 C 
ATOM     11  O   UNL A   1      35.823  23.704  24.741  1.00  0.00    -0.269 OA
ATOM     12  H   UNL A   1      35.066  25.918  24.872  1.00  0.00     0.170 HD
BRANCH  10  13
ATOM     13  C   UNL A   1      33.669  22.899  24.400  1.00  0.00     0.082 A 
ATOM     14  C   UNL A   1      33.087  22.110  25.381  1.00  0.00     0.131 A 
ATOM     15  C   UNL A   1      32.465  20.909  25.019  1.00  0.00     0.047 A 
ATOM     16  C   UNL A   1      32.202  20.620  23.685  1.00  0.00     0.004 A 
ATOM     17  C   UNL A   1      33.307  22.668  23.063  1.00  0.00     0.018 A 
ATOM     18  C   UNL A   1      32.555  21.542  22.710  1.00  0.00     0.001 A 
BRANCH  14  19
ATOM     19  O   UNL A   1      33.199  22.390  26.708  1.00  0.00    -0.496 OA
ATOM     20  C   UNL A   1      34.171  21.620  27.409  1.00  0.00     0.278 C 
ENDBRANCH  14  19
ENDBRANCH  10  13
ENDBRANCH   7   9
BRANCH   8  21
ATOM     21  C   UNL A   1      31.059  26.851  23.624  1.00  0.00    -0.023 A 
ATOM     22  C   UNL A   1      29.927  26.040  23.795  1.00  0.00     0.010 A 
ATOM     23  C   UNL A   1      30.887  28.204  23.306  1.00  0.00     0.010 A 
ATOM     24  C   UNL A   1      28.643  26.582  23.699  1.00  0.00     0.021 A 
ATOM     25  C   UNL A   1      29.601  28.749  23.219  1.00  0.00     0.021 A 
ATOM     26  C   UNL A   1      28.486  27.938  23.428  1.00  0.00     0.041 A 
ATOM     27  Cl  UNL A   1      26.905  28.606  23.365  1.00  0.00    -0.084 Cl
ENDBRANCH   8  21
ENDBRANCH   5   7
ENDBRANCH   4   5
ENDBRANCH   3   4
ENDBRANCH   2   3
ENDBRANCH   1   2
BRANCH   1  28
ATOM     28  C   UNL A   1      31.309  31.824  26.450  1.00  0.00     0.202 C 
BRANCH  28  29
ATOM     29  C   UNL A   1      31.972  33.098  26.961  1.00  0.00     0.261 C 
BRANCH  29  30
ATOM     30  O   UNL A   1      32.798  32.762  28.065  1.00  0.00    -0.460 OA
BRANCH  30  31
ATOM     31  C   UNL A   1      33.812  33.646  28.220  1.00  0.00     0.338 C 
ATOM     32  O   UNL A   1      33.727  34.845  28.382  1.00  0.00    -0.246 OA
BRANCH  31  33
ATOM     33  C   UNL A   1      35.053  32.873  28.378  1.00  0.00     0.060 A 
ATOM     34  C   UNL A   1      34.911  31.513  28.669  1.00  0.00     0.016 A 
ATOM     35  C   UNL A   1      36.318  33.457  28.234  1.00  0.00     0.016 A 
ATOM     36  C   UNL A   1      36.034  30.750  28.934  1.00  0.00     0.010 A 
ATOM     37  C   UNL A   1      37.446  32.693  28.498  1.00  0.00     0.010 A 
ATOM     38  C   UNL A   1      37.291  31.363  28.923  1.00  0.00    -0.014 A 
BRANCH  38  39
ATOM     39  C   UNL A   1      38.392  30.704  29.642  1.00  0.00     0.031 A 
ATOM     40  C   UNL A   1      38.626  31.114  31.070  1.00  0.00     0.074 A 
ATOM     41  C   UNL A   1      39.132  29.761  29.042  1.00  0.00     0.049 A 
ATOM     42  N   UNL A   1      39.529  30.693  31.911  1.00  0.00    -0.248 NA
ATOM     43  C   UNL A   1      37.718  32.136  31.628  1.00  0.00     0.031 C 
ATOM     44  C   UNL A   1      38.962  29.303  27.664  1.00  0.00     0.029 A 
ATOM     45  N   UNL A   1      40.197  29.042  29.511  1.00  0.00    -0.354 N 
ATOM     46  C   UNL A   1      39.319  31.416  33.079  1.00  0.00     0.074 A 
ATOM     47  C   UNL A   1      38.210  32.310  32.844  1.00  0.00     0.031 C 
ATOM     48  C   UNL A   1      39.931  28.416  27.380  1.00  0.00     0.029 A 
ATOM     49  C   UNL A   1      40.787  28.258  28.552  1.00  0.00     0.049 A 
ATOM     50  H   UNL A   1      40.508  29.085  30.444  1.00  0.00     0.167 HD
ATOM     51  C   UNL A   1      39.984  31.325  34.251  1.00  0.00     0.034 A 
ATOM     52  C   UNL A   1      41.912  27.521  28.621  1.00  0.00     0.034 A 
ATOM     53  C   UNL A   1      41.061  30.403  34.474  1.00  0.00     0.049 A 
ATOM     54  C   UNL A   1      42.637  27.446  29.940  1.00  0.00     0.074 A 
ATOM     55  C   UNL A   1      41.767  30.172  35.638  1.00  0.00     0.029 A 
ATOM     56  N   UNL A   1      41.595  29.572  33.502  1.00  0.00    -0.354 N 
ATOM     57  N   UNL A   1      42.343  28.025  31.080  1.00  0.00    -0.248 NA
ATOM     58  C   UNL A   1      43.822  26.579  29.997  1.00  0.00     0.031 C 
ATOM     59  C   UNL A   1      42.749  29.217  35.362  1.00  0.00     0.029 A 
ATOM     60  C   UNL A   1      42.633  28.834  34.035  1.00  0.00     0.049 A 
ATOM     61  H   UNL A   1      41.279  29.515  32.571  1.00  0.00     0.167 HD
ATOM     62  C   UNL A   1      43.278  27.563  31.997  1.00  0.00     0.074 A 
ATOM     63  C   UNL A   1      44.137  26.641  31.283  1.00  0.00     0.031 C 
ATOM     64  C   UNL A   1      43.426  27.878  33.308  1.00  0.00     0.034 A 
BRANCH  51  65
ATOM     65  C   UNL A   1      39.558  32.217  35.382  1.00  0.00     0.023 A 
ATOM     66  C   UNL A   1      39.933  33.575  35.384  1.00  0.00     0.012 A 
ATOM     67  C   UNL A   1      38.721  31.727  36.403  1.00  0.00     0.148 A 
ATOM     68  C   UNL A   1      39.489  34.431  36.391  1.00  0.00     0.002 A 
ATOM     69  C   UNL A   1      38.249  32.594  37.380  1.00  0.00     0.091 A 
ATOM     70  F   UNL A   1      38.402  30.425  36.396  1.00  0.00    -0.205 F 
ATOM     71  C   UNL A   1      38.638  33.944  37.380  1.00  0.00     0.022 A 
BRANCH  69  72
ATOM     72  S   UNL A   1      37.091  32.084  38.653  1.00  0.00     0.127 S 
ATOM     73  O   UNL A   1      37.000  30.644  38.409  1.00  0.00    -0.237 OA
ATOM     74  O   UNL A   1      37.802  32.449  39.877  1.00  0.00    -0.237 OA
ATOM     75  O   UNL A   1      35.865  32.830  38.409  1.00  0.00    -0.744 OA
ENDBRANCH  69  72
ENDBRANCH  51  65
BRANCH  52  76
ATOM     76  C   UNL A   1      42.398  26.785  27.424  1.00  0.00     0.023 A 
ATOM     77  C   UNL A   1      43.119  27.469  26.426  1.00  0.00     0.012 A 
ATOM     78  C   UNL A   1      42.157  25.405  27.270  1.00  0.00     0.148 A 
ATOM     79  C   UNL A   1      43.551  26.804  25.279  1.00  0.00     0.002 A 
ATOM     80  C   UNL A   1      42.638  24.736  26.151  1.00  0.00     0.091 A 
ATOM     81  F   UNL A   1      41.455  24.772  28.221  1.00  0.00    -0.205 F 
ATOM     82  C   UNL A   1      43.318  25.438  25.144  1.00  0.00     0.022 A 
BRANCH  80  83
ATOM     83  S   UNL A   1      42.493  22.955  25.966  1.00  0.00     0.127 S 
ATOM     84  O   UNL A   1      43.033  22.748  24.625  1.00  0.00    -0.237 OA
ATOM     85  O   UNL A   1      43.340  22.464  27.054  1.00  0.00    -0.237 OA
ATOM     86  O   UNL A   1      41.077  22.661  26.139  1.00  0.00    -0.744 OA
ENDBRANCH  80  83
ENDBRANCH  52  76
BRANCH  64  87
ATOM     87  C   UNL A   1      44.525  27.187  34.068  1.00  0.00     0.023 A 
ATOM     88  C   UNL A   1      45.810  27.761  34.118  1.00  0.00     0.012 A 
ATOM     89  C   UNL A   1      44.256  26.017  34.805  1.00  0.00     0.148 A 
ATOM     90  C   UNL A   1      46.821  27.161  34.865  1.00  0.00     0.002 A 
ATOM     91  C   UNL A   1      45.253  25.455  35.589  1.00  0.00     0.091 A 
ATOM     92  F   UNL A   1      43.029  25.481  34.730  1.00  0.00    -0.205 F 
ATOM     93  C   UNL A   1      46.540  26.017  35.610  1.00  0.00     0.022 A 
BRANCH  91  94
ATOM     94  S   UNL A   1      44.950  24.046  36.660  1.00  0.00     0.127 S 
ATOM     95  O   UNL A   1      46.303  23.712  37.103  1.00  0.00    -0.237 OA
ATOM     96  O   UNL A   1      44.094  24.622  37.698  1.00  0.00    -0.237 OA
ATOM     97  O   UNL A   1      44.298  23.043  35.829  1.00  0.00    -0.744 OA
ENDBRANCH  91  94
ENDBRANCH  64  87
ENDBRANCH  38  39
ENDBRANCH  31  33
ENDBRANCH  30  31
ENDBRANCH  29  30
ENDBRANCH  28  29
ENDBRANCH   1  28
TORSDOF 21
ENDMDL
