MODEL 1
REMARK VINA RESULT:     -11.6      0.000      0.000
REMARK SMILES CNC(=O)c1cc(S(=O)(=O)N2CCC(C(=O)OCCOCCOC(=O)c3ccc(-c4c5nc(c(-c6cccc(S(=O)(=O)[O-])c6F)c6ccc([nH]6)c(-c6cccc(S(=O)(=O)[O-])c6F)c6nc(c(-c7cccc(S(=O)(=O)[O-])c7F)c7ccc4[nH]7)C=C6)C=C5)cc3)CC2)ccc1OC
REMARK SMILES IDX 20 1 19 2 18 3 17 4 15 5 16 6 14 7 11 8 12 9 90 10 13 11
REMARK SMILES IDX 89 12 8 13 9 14 10 15 7 16 5 17 6 18 93 19 92 20 91 21 3 22
REMARK SMILES IDX 1 23 2 24 4 26 94 27 95 28 21 29 22 30 23 31 24 32 25 33
REMARK SMILES IDX 26 34 27 35 88 36 28 37 87 38 29 39 30 40 31 41 81 42 32 43
REMARK SMILES IDX 86 44 80 45 82 46 33 47 85 48 79 49 78 50 34 52 66 53 46 54
REMARK SMILES IDX 65 55 47 56 50 57 64 58 83 59 48 60 49 61 63 63 84 64 51 65
REMARK SMILES IDX 35 66 36 67 44 68 37 69 39 70 45 71 38 72 40 73 41 74 42 75
REMARK SMILES IDX 43 76 67 77 68 78 76 79 69 80 71 81 77 82 70 83 72 84 73 85
REMARK SMILES IDX 74 86 75 87 52 88 53 89 61 90 54 91 56 92 62 93 55 94 57 95
REMARK SMILES IDX 58 96 59 97 60 98
REMARK H PARENT 2 25 82 51 50 62
REMARK Flexibility Score: inf
ROOT
ATOM      1  O   UNL A   1      41.980  21.792  27.383  1.00  0.00    -0.374 OA
ENDROOT
BRANCH   1   2
ATOM      2  C   UNL A   1      40.556  21.676  27.347  1.00  0.00     0.202 C 
BRANCH   2   3
ATOM      3  C   UNL A   1      39.926  21.577  25.956  1.00  0.00     0.261 C 
BRANCH   3   4
ATOM      4  O   UNL A   1      38.508  21.818  26.010  1.00  0.00    -0.463 OA
BRANCH   4   5
ATOM      5  C   UNL A   1      37.738  20.981  25.273  1.00  0.00     0.309 C 
ATOM      6  O   UNL A   1      38.099  19.905  24.811  1.00  0.00    -0.252 OA
BRANCH   5   7
ATOM      7  C   UNL A   1      36.336  21.501  25.059  1.00  0.00     0.102 C 
ATOM      8  N   UNL A   1      33.667  22.029  24.175  1.00  0.00    -0.198 NA
ATOM      9  C   UNL A   1      34.720  23.045  23.945  1.00  0.00     0.103 C 
ATOM     10  C   UNL A   1      33.943  20.836  25.011  1.00  0.00     0.103 C 
ATOM     11  C   UNL A   1      36.125  22.457  23.891  1.00  0.00     0.032 C 
ATOM     12  C   UNL A   1      35.373  20.339  24.885  1.00  0.00     0.032 C 
BRANCH   8  13
ATOM     13  S   UNL A   1      32.060  22.604  24.210  1.00  0.00     0.243 S 
ATOM     14  O   UNL A   1      31.396  21.969  25.328  1.00  0.00    -0.207 OA
ATOM     15  O   UNL A   1      31.525  22.540  22.866  1.00  0.00    -0.207 OA
BRANCH  13  16
ATOM     16  C   UNL A   1      32.119  24.346  24.617  1.00  0.00     0.083 A 
ATOM     17  C   UNL A   1      31.897  26.625  23.803  1.00  0.00     0.083 A 
ATOM     18  C   UNL A   1      31.880  25.243  23.567  1.00  0.00     0.039 A 
ATOM     19  C   UNL A   1      32.087  27.110  25.102  1.00  0.00     0.131 A 
ATOM     20  C   UNL A   1      32.358  26.212  26.137  1.00  0.00     0.048 A 
ATOM     21  C   UNL A   1      32.373  24.833  25.900  1.00  0.00     0.025 A 
BRANCH  17  22
ATOM     22  C   UNL A   1      31.699  27.497  22.628  1.00  0.00     0.254 C 
ATOM     23  C   UNL A   1      34.008  28.539  22.793  1.00  0.00     0.143 C 
ATOM     24  N   UNL A   1      32.694  28.350  22.224  1.00  0.00    -0.355 N 
ATOM     25  H   UNL A   1      32.483  28.909  21.442  1.00  0.00     0.163 HD
ATOM     26  O   UNL A   1      30.645  27.434  22.004  1.00  0.00    -0.269 OA
ENDBRANCH  17  22
BRANCH  19  27
ATOM     27  O   UNL A   1      32.082  28.431  25.466  1.00  0.00    -0.496 OA
ATOM     28  C   UNL A   1      31.712  28.636  26.831  1.00  0.00     0.278 C 
ENDBRANCH  19  27
ENDBRANCH  13  16
ENDBRANCH   8  13
ENDBRANCH   5   7
ENDBRANCH   4   5
ENDBRANCH   3   4
ENDBRANCH   2   3
ENDBRANCH   1   2
BRANCH   1  29
ATOM     29  C   UNL A   1      42.707  21.273  26.272  1.00  0.00     0.202 C 
BRANCH  29  30
ATOM     30  C   UNL A   1      43.522  22.282  25.452  1.00  0.00     0.261 C 
BRANCH  30  31
ATOM     31  O   UNL A   1      42.764  23.454  25.105  1.00  0.00    -0.460 OA
BRANCH  31  32
ATOM     32  C   UNL A   1      43.428  24.623  25.289  1.00  0.00     0.338 C 
ATOM     33  O   UNL A   1      44.427  24.997  24.695  1.00  0.00    -0.246 OA
BRANCH  32  34
ATOM     34  C   UNL A   1      42.686  25.510  26.206  1.00  0.00     0.060 A 
ATOM     35  C   UNL A   1      43.177  26.812  26.367  1.00  0.00     0.016 A 
ATOM     36  C   UNL A   1      41.605  25.061  26.968  1.00  0.00     0.016 A 
ATOM     37  C   UNL A   1      42.637  27.647  27.342  1.00  0.00     0.010 A 
ATOM     38  C   UNL A   1      41.065  25.902  27.950  1.00  0.00     0.010 A 
ATOM     39  C   UNL A   1      41.611  27.180  28.173  1.00  0.00    -0.014 A 
BRANCH  39  40
ATOM     40  C   UNL A   1      41.239  27.972  29.371  1.00  0.00     0.031 A 
ATOM     41  C   UNL A   1      39.959  28.765  29.354  1.00  0.00     0.074 A 
ATOM     42  C   UNL A   1      42.008  27.958  30.475  1.00  0.00     0.049 A 
ATOM     43  N   UNL A   1      39.424  29.493  30.299  1.00  0.00    -0.248 NA
ATOM     44  C   UNL A   1      39.178  28.734  28.105  1.00  0.00     0.031 C 
ATOM     45  C   UNL A   1      43.269  27.233  30.616  1.00  0.00     0.029 A 
ATOM     46  N   UNL A   1      41.844  28.588  31.683  1.00  0.00    -0.354 N 
ATOM     47  C   UNL A   1      38.260  30.025  29.755  1.00  0.00     0.074 A 
ATOM     48  C   UNL A   1      38.173  29.549  28.392  1.00  0.00     0.031 C 
ATOM     49  C   UNL A   1      43.778  27.477  31.835  1.00  0.00     0.029 A 
ATOM     50  C   UNL A   1      42.887  28.386  32.555  1.00  0.00     0.049 A 
ATOM     51  H   UNL A   1      41.055  29.134  31.904  1.00  0.00     0.167 HD
ATOM     52  C   UNL A   1      37.335  30.820  30.342  1.00  0.00     0.034 A 
ATOM     53  C   UNL A   1      43.101  28.883  33.791  1.00  0.00     0.034 A 
ATOM     54  C   UNL A   1      37.404  31.270  31.706  1.00  0.00     0.049 A 
ATOM     55  C   UNL A   1      42.056  29.766  34.421  1.00  0.00     0.074 A 
ATOM     56  C   UNL A   1      36.491  32.039  32.406  1.00  0.00     0.029 A 
ATOM     57  N   UNL A   1      38.448  30.999  32.576  1.00  0.00    -0.354 N 
ATOM     58  N   UNL A   1      40.898  30.150  33.939  1.00  0.00    -0.248 NA
ATOM     59  C   UNL A   1      42.327  30.251  35.783  1.00  0.00     0.031 C 
ATOM     60  C   UNL A   1      36.992  32.246  33.696  1.00  0.00     0.029 A 
ATOM     61  C   UNL A   1      38.207  31.590  33.805  1.00  0.00     0.049 A 
ATOM     62  H   UNL A   1      39.245  30.466  32.353  1.00  0.00     0.167 HD
ATOM     63  C   UNL A   1      40.288  30.886  34.950  1.00  0.00     0.074 A 
ATOM     64  C   UNL A   1      41.196  30.880  36.077  1.00  0.00     0.031 C 
ATOM     65  C   UNL A   1      39.089  31.521  34.940  1.00  0.00     0.034 A 
BRANCH  52  66
ATOM     66  C   UNL A   1      36.142  31.229  29.521  1.00  0.00     0.023 A 
ATOM     67  C   UNL A   1      35.462  30.260  28.755  1.00  0.00     0.012 A 
ATOM     68  C   UNL A   1      35.657  32.551  29.554  1.00  0.00     0.148 A 
ATOM     69  C   UNL A   1      34.334  30.606  28.014  1.00  0.00     0.002 A 
ATOM     70  C   UNL A   1      34.508  32.879  28.843  1.00  0.00     0.091 A 
ATOM     71  F   UNL A   1      36.333  33.463  30.268  1.00  0.00    -0.205 F 
ATOM     72  C   UNL A   1      33.850  31.912  28.066  1.00  0.00     0.022 A 
BRANCH  70  73
ATOM     73  S   UNL A   1      33.769  34.515  28.906  1.00  0.00     0.127 S 
ATOM     74  O   UNL A   1      32.560  34.325  28.106  1.00  0.00    -0.237 OA
ATOM     75  O   UNL A   1      33.531  34.693  30.339  1.00  0.00    -0.237 OA
ATOM     76  O   UNL A   1      34.759  35.422  28.341  1.00  0.00    -0.744 OA
ENDBRANCH  70  73
ENDBRANCH  52  66
BRANCH  53  77
ATOM     77  C   UNL A   1      44.338  28.514  34.534  1.00  0.00     0.023 A 
ATOM     78  C   UNL A   1      45.481  29.331  34.434  1.00  0.00     0.012 A 
ATOM     79  C   UNL A   1      44.383  27.370  35.354  1.00  0.00     0.148 A 
ATOM     80  C   UNL A   1      46.653  29.001  35.117  1.00  0.00     0.002 A 
ATOM     81  C   UNL A   1      45.534  27.077  36.074  1.00  0.00     0.091 A 
ATOM     82  F   UNL A   1      43.293  26.592  35.418  1.00  0.00    -0.205 F 
ATOM     83  C   UNL A   1      46.676  27.882  35.944  1.00  0.00     0.022 A 
BRANCH  81  84
ATOM     84  S   UNL A   1      45.604  25.734  37.264  1.00  0.00     0.127 S 
ATOM     85  O   UNL A   1      45.624  24.562  36.393  1.00  0.00    -0.237 OA
ATOM     86  O   UNL A   1      46.862  26.008  37.959  1.00  0.00    -0.237 OA
ATOM     87  O   UNL A   1      44.417  25.889  38.095  1.00  0.00    -0.744 OA
ENDBRANCH  81  84
ENDBRANCH  53  77
BRANCH  65  88
ATOM     88  C   UNL A   1      38.659  32.232  36.197  1.00  0.00     0.023 A 
ATOM     89  C   UNL A   1      38.842  33.625  36.310  1.00  0.00     0.012 A 
ATOM     90  C   UNL A   1      38.001  31.534  37.228  1.00  0.00     0.148 A 
ATOM     91  C   UNL A   1      38.402  34.306  37.444  1.00  0.00     0.002 A 
ATOM     92  C   UNL A   1      37.524  32.228  38.335  1.00  0.00     0.091 A 
ATOM     93  F   UNL A   1      37.854  30.206  37.111  1.00  0.00    -0.205 F 
ATOM     94  C   UNL A   1      37.733  33.612  38.450  1.00  0.00     0.022 A 
BRANCH  92  95
ATOM     95  S   UNL A   1      36.569  31.424  39.628  1.00  0.00     0.127 S 
ATOM     96  O   UNL A   1      37.483  30.371  40.064  1.00  0.00    -0.237 OA
ATOM     97  O   UNL A   1      36.378  32.505  40.596  1.00  0.00    -0.237 OA
ATOM     98  O   UNL A   1      35.342  30.969  38.990  1.00  0.00    -0.744 OA
ENDBRANCH  92  95
ENDBRANCH  65  88
ENDBRANCH  39  40
ENDBRANCH  32  34
ENDBRANCH  31  32
ENDBRANCH  30  31
ENDBRANCH  29  30
ENDBRANCH   1  29
TORSDOF 21
ENDMDL
MODEL 2
REMARK VINA RESULT:     -11.0      5.413      7.848
REMARK SMILES CNC(=O)c1cc(S(=O)(=O)N2CCC(C(=O)OCCOCCOC(=O)c3ccc(-c4c5nc(c(-c6cccc(S(=O)(=O)[O-])c6F)c6ccc([nH]6)c(-c6cccc(S(=O)(=O)[O-])c6F)c6nc(c(-c7cccc(S(=O)(=O)[O-])c7F)c7ccc4[nH]7)C=C6)C=C5)cc3)CC2)ccc1OC
REMARK SMILES IDX 20 1 19 2 18 3 17 4 15 5 16 6 14 7 11 8 12 9 90 10 13 11
REMARK SMILES IDX 89 12 8 13 9 14 10 15 7 16 5 17 6 18 93 19 92 20 91 21 3 22
REMARK SMILES IDX 1 23 2 24 4 26 94 27 95 28 21 29 22 30 23 31 24 32 25 33
REMARK SMILES IDX 26 34 27 35 88 36 28 37 87 38 29 39 30 40 31 41 81 42 32 43
REMARK SMILES IDX 86 44 80 45 82 46 33 47 85 48 79 49 78 50 34 52 66 53 46 54
REMARK SMILES IDX 65 55 47 56 50 57 64 58 83 59 48 60 49 61 63 63 84 64 51 65
REMARK SMILES IDX 35 66 36 67 44 68 37 69 39 70 45 71 38 72 40 73 41 74 42 75
REMARK SMILES IDX 43 76 67 77 68 78 76 79 69 80 71 81 77 82 70 83 72 84 73 85
REMARK SMILES IDX 74 86 75 87 52 88 53 89 61 90 54 91 56 92 62 93 55 94 57 95
REMARK SMILES IDX 58 96 59 97 60 98
REMARK H PARENT 2 25 82 51 50 62
REMARK Flexibility Score: inf
ROOT
ATOM      1  O   UNL A   1      39.994  21.029  25.727  1.00  0.00    -0.374 OA
ENDROOT
BRANCH   1   2
ATOM      2  C   UNL A   1      39.714  22.249  26.416  1.00  0.00     0.202 C 
BRANCH   2   3
ATOM      3  C   UNL A   1      38.324  22.846  26.184  1.00  0.00     0.261 C 
BRANCH   3   4
ATOM      4  O   UNL A   1      37.736  22.338  24.972  1.00  0.00    -0.463 OA
BRANCH   4   5
ATOM      5  C   UNL A   1      36.649  21.546  25.129  1.00  0.00     0.309 C 
ATOM      6  O   UNL A   1      36.663  20.322  25.182  1.00  0.00    -0.252 OA
BRANCH   5   7
ATOM      7  C   UNL A   1      35.360  22.326  25.241  1.00  0.00     0.102 C 
ATOM      8  N   UNL A   1      32.644  23.200  25.451  1.00  0.00    -0.198 NA
ATOM      9  C   UNL A   1      33.399  23.473  24.205  1.00  0.00     0.103 C 
ATOM     10  C   UNL A   1      33.333  22.647  26.641  1.00  0.00     0.103 C 
ATOM     11  C   UNL A   1      34.542  22.494  23.966  1.00  0.00     0.032 C 
ATOM     12  C   UNL A   1      34.459  21.691  26.287  1.00  0.00     0.032 C 
BRANCH   8  13
ATOM     13  S   UNL A   1      31.320  24.229  25.771  1.00  0.00     0.243 S 
ATOM     14  O   UNL A   1      30.901  23.986  27.135  1.00  0.00    -0.207 OA
ATOM     15  O   UNL A   1      30.396  24.140  24.660  1.00  0.00    -0.207 OA
BRANCH  13  16
ATOM     16  C   UNL A   1      31.929  25.912  25.752  1.00  0.00     0.083 A 
ATOM     17  C   UNL A   1      31.829  28.090  24.677  1.00  0.00     0.083 A 
ATOM     18  C   UNL A   1      31.413  26.753  24.757  1.00  0.00     0.039 A 
ATOM     19  C   UNL A   1      32.711  28.606  25.635  1.00  0.00     0.131 A 
ATOM     20  C   UNL A   1      33.246  27.753  26.604  1.00  0.00     0.048 A 
ATOM     21  C   UNL A   1      32.858  26.411  26.667  1.00  0.00     0.025 A 
BRANCH  17  22
ATOM     22  C   UNL A   1      31.284  28.886  23.559  1.00  0.00     0.254 C 
ATOM     23  C   UNL A   1      33.462  28.867  22.255  1.00  0.00     0.143 C 
ATOM     24  N   UNL A   1      32.079  29.213  22.491  1.00  0.00    -0.355 N 
ATOM     25  H   UNL A   1      31.649  29.755  21.792  1.00  0.00     0.163 HD
ATOM     26  O   UNL A   1      30.107  29.231  23.586  1.00  0.00    -0.269 OA
ENDBRANCH  17  22
BRANCH  19  27
ATOM     27  O   UNL A   1      33.156  29.900  25.691  1.00  0.00    -0.496 OA
ATOM     28  C   UNL A   1      32.990  30.496  26.979  1.00  0.00     0.278 C 
ENDBRANCH  19  27
ENDBRANCH  13  16
ENDBRANCH   8  13
ENDBRANCH   5   7
ENDBRANCH   4   5
ENDBRANCH   3   4
ENDBRANCH   2   3
ENDBRANCH   1   2
BRANCH   1  29
ATOM     29  C   UNL A   1      40.089  19.841  26.511  1.00  0.00     0.202 C 
BRANCH  29  30
ATOM     30  C   UNL A   1      41.365  19.005  26.341  1.00  0.00     0.261 C 
BRANCH  30  31
ATOM     31  O   UNL A   1      42.124  19.384  25.180  1.00  0.00    -0.460 OA
BRANCH  31  32
ATOM     32  C   UNL A   1      43.378  19.826  25.453  1.00  0.00     0.338 C 
ATOM     33  O   UNL A   1      44.423  19.226  25.257  1.00  0.00    -0.246 OA
BRANCH  32  34
ATOM     34  C   UNL A   1      43.356  21.240  25.877  1.00  0.00     0.060 A 
ATOM     35  C   UNL A   1      43.414  22.208  24.866  1.00  0.00     0.016 A 
ATOM     36  C   UNL A   1      43.381  21.617  27.222  1.00  0.00     0.016 A 
ATOM     37  C   UNL A   1      43.573  23.552  25.193  1.00  0.00     0.010 A 
ATOM     38  C   UNL A   1      43.544  22.969  27.549  1.00  0.00     0.010 A 
ATOM     39  C   UNL A   1      43.689  23.935  26.536  1.00  0.00    -0.014 A 
BRANCH  39  40
ATOM     40  C   UNL A   1      44.127  25.317  26.853  1.00  0.00     0.031 A 
ATOM     41  C   UNL A   1      43.140  26.274  27.465  1.00  0.00     0.074 A 
ATOM     42  C   UNL A   1      45.397  25.706  26.637  1.00  0.00     0.049 A 
ATOM     43  N   UNL A   1      43.318  27.510  27.856  1.00  0.00    -0.248 NA
ATOM     44  C   UNL A   1      41.768  25.774  27.664  1.00  0.00     0.031 C 
ATOM     45  C   UNL A   1      46.446  24.875  26.049  1.00  0.00     0.029 A 
ATOM     46  N   UNL A   1      46.013  26.909  26.874  1.00  0.00    -0.354 N 
ATOM     47  C   UNL A   1      42.081  27.942  28.322  1.00  0.00     0.074 A 
ATOM     48  C   UNL A   1      41.156  26.842  28.154  1.00  0.00     0.031 C 
ATOM     49  C   UNL A   1      47.572  25.601  25.949  1.00  0.00     0.029 A 
ATOM     50  C   UNL A   1      47.321  26.950  26.453  1.00  0.00     0.049 A 
ATOM     51  H   UNL A   1      45.561  27.671  27.303  1.00  0.00     0.167 HD
ATOM     52  C   UNL A   1      41.749  29.137  28.863  1.00  0.00     0.034 A 
ATOM     53  C   UNL A   1      48.211  27.963  26.466  1.00  0.00     0.034 A 
ATOM     54  C   UNL A   1      42.673  30.221  29.060  1.00  0.00     0.049 A 
ATOM     55  C   UNL A   1      47.815  29.284  27.074  1.00  0.00     0.074 A 
ATOM     56  C   UNL A   1      42.442  31.454  29.644  1.00  0.00     0.029 A 
ATOM     57  N   UNL A   1      44.003  30.206  28.672  1.00  0.00    -0.354 N 
ATOM     58  N   UNL A   1      46.680  29.630  27.631  1.00  0.00    -0.248 NA
ATOM     59  C   UNL A   1      48.838  30.342  27.092  1.00  0.00     0.031 C 
ATOM     60  C   UNL A   1      43.630  32.191  29.594  1.00  0.00     0.029 A 
ATOM     61  C   UNL A   1      44.605  31.409  28.998  1.00  0.00     0.049 A 
ATOM     62  H   UNL A   1      44.453  29.451  28.229  1.00  0.00     0.167 HD
ATOM     63  C   UNL A   1      46.863  30.928  28.100  1.00  0.00     0.074 A 
ATOM     64  C   UNL A   1      48.225  31.299  27.776  1.00  0.00     0.031 C 
ATOM     65  C   UNL A   1      45.980  31.742  28.729  1.00  0.00     0.034 A 
BRANCH  52  66
ATOM     66  C   UNL A   1      40.326  29.328  29.318  1.00  0.00     0.023 A 
ATOM     67  C   UNL A   1      39.339  29.685  28.377  1.00  0.00     0.012 A 
ATOM     68  C   UNL A   1      39.956  29.097  30.657  1.00  0.00     0.148 A 
ATOM     69  C   UNL A   1      38.009  29.833  28.766  1.00  0.00     0.002 A 
ATOM     70  C   UNL A   1      38.621  29.208  31.029  1.00  0.00     0.091 A 
ATOM     71  F   UNL A   1      40.913  28.784  31.541  1.00  0.00    -0.205 F 
ATOM     72  C   UNL A   1      37.648  29.584  30.089  1.00  0.00     0.022 A 
BRANCH  70  73
ATOM     73  S   UNL A   1      38.049  28.839  32.691  1.00  0.00     0.127 S 
ATOM     74  O   UNL A   1      36.654  29.271  32.627  1.00  0.00    -0.237 OA
ATOM     75  O   UNL A   1      38.235  27.389  32.768  1.00  0.00    -0.237 OA
ATOM     76  O   UNL A   1      38.903  29.606  33.587  1.00  0.00    -0.744 OA
ENDBRANCH  70  73
ENDBRANCH  52  66
BRANCH  53  77
ATOM     77  C   UNL A   1      49.584  27.750  25.929  1.00  0.00     0.023 A 
ATOM     78  C   UNL A   1      49.809  27.818  24.541  1.00  0.00     0.012 A 
ATOM     79  C   UNL A   1      50.672  27.501  26.788  1.00  0.00     0.148 A 
ATOM     80  C   UNL A   1      51.086  27.616  24.016  1.00  0.00     0.002 A 
ATOM     81  C   UNL A   1      51.951  27.355  26.264  1.00  0.00     0.091 A 
ATOM     82  F   UNL A   1      50.436  27.418  28.105  1.00  0.00    -0.205 F 
ATOM     83  C   UNL A   1      52.157  27.396  24.877  1.00  0.00     0.022 A 
BRANCH  81  84
ATOM     84  S   UNL A   1      53.403  27.204  27.309  1.00  0.00     0.127 S 
ATOM     85  O   UNL A   1      54.485  27.275  26.331  1.00  0.00    -0.237 OA
ATOM     86  O   UNL A   1      53.277  28.376  28.177  1.00  0.00    -0.237 OA
ATOM     87  O   UNL A   1      53.253  25.930  28.001  1.00  0.00    -0.744 OA
ENDBRANCH  81  84
ENDBRANCH  53  77
BRANCH  65  88
ATOM     88  C   UNL A   1      46.459  33.106  29.153  1.00  0.00     0.023 A 
ATOM     89  C   UNL A   1      47.071  33.273  30.412  1.00  0.00     0.012 A 
ATOM     90  C   UNL A   1      46.377  34.202  28.272  1.00  0.00     0.148 A 
ATOM     91  C   UNL A   1      47.568  34.517  30.797  1.00  0.00     0.002 A 
ATOM     92  C   UNL A   1      46.916  35.429  28.647  1.00  0.00     0.091 A 
ATOM     93  F   UNL A   1      45.773  34.030  27.088  1.00  0.00    -0.205 F 
ATOM     94  C   UNL A   1      47.502  35.591  29.912  1.00  0.00     0.022 A 
BRANCH  92  95
ATOM     95  S   UNL A   1      46.957  36.836  27.529  1.00  0.00     0.127 S 
ATOM     96  O   UNL A   1      47.714  37.814  28.307  1.00  0.00    -0.237 OA
ATOM     97  O   UNL A   1      47.669  36.295  26.370  1.00  0.00    -0.237 OA
ATOM     98  O   UNL A   1      45.565  37.178  27.271  1.00  0.00    -0.744 OA
ENDBRANCH  92  95
ENDBRANCH  65  88
ENDBRANCH  39  40
ENDBRANCH  32  34
ENDBRANCH  31  32
ENDBRANCH  30  31
ENDBRANCH  29  30
ENDBRANCH   1  29
TORSDOF 21
ENDMDL
MODEL 3
REMARK VINA RESULT:     -10.9      4.728      8.844
REMARK SMILES CNC(=O)c1cc(S(=O)(=O)N2CCC(C(=O)OCCOCCOC(=O)c3ccc(-c4c5nc(c(-c6cccc(S(=O)(=O)[O-])c6F)c6ccc([nH]6)c(-c6cccc(S(=O)(=O)[O-])c6F)c6nc(c(-c7cccc(S(=O)(=O)[O-])c7F)c7ccc4[nH]7)C=C6)C=C5)cc3)CC2)ccc1OC
REMARK SMILES IDX 20 1 19 2 18 3 17 4 15 5 16 6 14 7 11 8 12 9 90 10 13 11
REMARK SMILES IDX 89 12 8 13 9 14 10 15 7 16 5 17 6 18 93 19 92 20 91 21 3 22
REMARK SMILES IDX 1 23 2 24 4 26 94 27 95 28 21 29 22 30 23 31 24 32 25 33
REMARK SMILES IDX 26 34 27 35 88 36 28 37 87 38 29 39 30 40 31 41 81 42 32 43
REMARK SMILES IDX 86 44 80 45 82 46 33 47 85 48 79 49 78 50 34 52 66 53 46 54
REMARK SMILES IDX 65 55 47 56 50 57 64 58 83 59 48 60 49 61 63 63 84 64 51 65
REMARK SMILES IDX 35 66 36 67 44 68 37 69 39 70 45 71 38 72 40 73 41 74 42 75
REMARK SMILES IDX 43 76 67 77 68 78 76 79 69 80 71 81 77 82 70 83 72 84 73 85
REMARK SMILES IDX 74 86 75 87 52 88 53 89 61 90 54 91 56 92 62 93 55 94 57 95
REMARK SMILES IDX 58 96 59 97 60 98
REMARK H PARENT 2 25 82 51 50 62
REMARK Flexibility Score: inf
ROOT
ATOM      1  O   UNL A   1      39.923  21.121  25.724  1.00  0.00    -0.374 OA
ENDROOT
BRANCH   1   2
ATOM      2  C   UNL A   1      39.601  22.285  26.488  1.00  0.00     0.202 C 
BRANCH   2   3
ATOM      3  C   UNL A   1      38.172  22.810  26.341  1.00  0.00     0.261 C 
BRANCH   3   4
ATOM      4  O   UNL A   1      37.631  22.487  25.046  1.00  0.00    -0.463 OA
BRANCH   4   5
ATOM      5  C   UNL A   1      36.621  21.585  25.036  1.00  0.00     0.309 C 
ATOM      6  O   UNL A   1      36.755  20.367  24.978  1.00  0.00    -0.252 OA
BRANCH   5   7
ATOM      7  C   UNL A   1      35.254  22.224  25.106  1.00  0.00     0.102 C 
ATOM      8  N   UNL A   1      32.543  22.945  25.664  1.00  0.00    -0.198 NA
ATOM      9  C   UNL A   1      32.896  22.441  24.316  1.00  0.00     0.103 C 
ATOM     10  C   UNL A   1      33.603  23.247  26.654  1.00  0.00     0.103 C 
ATOM     11  C   UNL A   1      34.139  21.560  24.307  1.00  0.00     0.032 C 
ATOM     12  C   UNL A   1      34.797  22.314  26.552  1.00  0.00     0.032 C 
BRANCH   8  13
ATOM     13  S   UNL A   1      31.136  23.908  25.764  1.00  0.00     0.243 S 
ATOM     14  O   UNL A   1      30.632  23.801  27.116  1.00  0.00    -0.207 OA
ATOM     15  O   UNL A   1      30.306  23.621  24.613  1.00  0.00    -0.207 OA
BRANCH  13  16
ATOM     16  C   UNL A   1      31.638  25.616  25.576  1.00  0.00     0.083 A 
ATOM     17  C   UNL A   1      31.819  27.521  24.078  1.00  0.00     0.083 A 
ATOM     18  C   UNL A   1      31.462  26.185  24.308  1.00  0.00     0.039 A 
ATOM     19  C   UNL A   1      32.291  28.310  25.134  1.00  0.00     0.131 A 
ATOM     20  C   UNL A   1      32.496  27.727  26.387  1.00  0.00     0.048 A 
ATOM     21  C   UNL A   1      32.171  26.385  26.612  1.00  0.00     0.025 A 
BRANCH  17  22
ATOM     22  C   UNL A   1      31.659  28.019  22.697  1.00  0.00     0.254 C 
ATOM     23  C   UNL A   1      34.153  28.309  22.327  1.00  0.00     0.143 C 
ATOM     24  N   UNL A   1      32.759  28.368  21.956  1.00  0.00    -0.355 N 
ATOM     25  H   UNL A   1      32.571  28.703  21.050  1.00  0.00     0.163 HD
ATOM     26  O   UNL A   1      30.535  28.096  22.213  1.00  0.00    -0.269 OA
ENDBRANCH  17  22
BRANCH  19  27
ATOM     27  O   UNL A   1      32.631  29.634  25.047  1.00  0.00    -0.496 OA
ATOM     28  C   UNL A   1      31.956  30.452  26.005  1.00  0.00     0.278 C 
ENDBRANCH  19  27
ENDBRANCH  13  16
ENDBRANCH   8  13
ENDBRANCH   5   7
ENDBRANCH   4   5
ENDBRANCH   3   4
ENDBRANCH   2   3
ENDBRANCH   1   2
BRANCH   1  29
ATOM     29  C   UNL A   1      40.124  19.903  26.438  1.00  0.00     0.202 C 
BRANCH  29  30
ATOM     30  C   UNL A   1      41.489  19.223  26.270  1.00  0.00     0.261 C 
BRANCH  30  31
ATOM     31  O   UNL A   1      42.259  19.788  25.194  1.00  0.00    -0.460 OA
BRANCH  31  32
ATOM     32  C   UNL A   1      43.415  20.380  25.587  1.00  0.00     0.338 C 
ATOM     33  O   UNL A   1      44.549  19.989  25.362  1.00  0.00    -0.246 OA
BRANCH  32  34
ATOM     34  C   UNL A   1      43.149  21.697  26.198  1.00  0.00     0.060 A 
ATOM     35  C   UNL A   1      43.018  22.787  25.328  1.00  0.00     0.016 A 
ATOM     36  C   UNL A   1      43.130  21.888  27.582  1.00  0.00     0.016 A 
ATOM     37  C   UNL A   1      42.941  24.081  25.836  1.00  0.00     0.010 A 
ATOM     38  C   UNL A   1      43.056  23.191  28.090  1.00  0.00     0.010 A 
ATOM     39  C   UNL A   1      43.010  24.295  27.218  1.00  0.00    -0.014 A 
BRANCH  39  40
ATOM     40  C   UNL A   1      43.201  25.677  27.723  1.00  0.00     0.031 A 
ATOM     41  C   UNL A   1      44.589  26.260  27.750  1.00  0.00     0.074 A 
ATOM     42  C   UNL A   1      42.151  26.420  28.117  1.00  0.00     0.049 A 
ATOM     43  N   UNL A   1      44.978  27.455  28.113  1.00  0.00    -0.248 NA
ATOM     44  C   UNL A   1      45.685  25.380  27.309  1.00  0.00     0.031 C 
ATOM     45  C   UNL A   1      40.760  25.970  28.141  1.00  0.00     0.029 A 
ATOM     46  N   UNL A   1      42.097  27.708  28.590  1.00  0.00    -0.354 N 
ATOM     47  C   UNL A   1      46.361  27.463  27.969  1.00  0.00     0.074 A 
ATOM     48  C   UNL A   1      46.747  26.151  27.498  1.00  0.00     0.031 C 
ATOM     49  C   UNL A   1      39.991  26.959  28.626  1.00  0.00     0.029 A 
ATOM     50  C   UNL A   1      40.835  28.106  28.960  1.00  0.00     0.049 A 
ATOM     51  H   UNL A   1      42.888  28.290  28.658  1.00  0.00     0.167 HD
ATOM     52  C   UNL A   1      47.231  28.478  28.186  1.00  0.00     0.034 A 
ATOM     53  C   UNL A   1      40.411  29.261  29.511  1.00  0.00     0.034 A 
ATOM     54  C   UNL A   1      46.847  29.792  28.625  1.00  0.00     0.049 A 
ATOM     55  C   UNL A   1      41.399  30.374  29.743  1.00  0.00     0.074 A 
ATOM     56  C   UNL A   1      47.650  30.901  28.827  1.00  0.00     0.029 A 
ATOM     57  N   UNL A   1      45.552  30.175  28.936  1.00  0.00    -0.354 N 
ATOM     58  N   UNL A   1      42.682  30.409  29.475  1.00  0.00    -0.248 NA
ATOM     59  C   UNL A   1      40.874  31.623  30.315  1.00  0.00     0.031 C 
ATOM     60  C   UNL A   1      46.841  31.950  29.276  1.00  0.00     0.029 A 
ATOM     61  C   UNL A   1      45.533  31.500  29.335  1.00  0.00     0.049 A 
ATOM     62  H   UNL A   1      44.762  29.590  28.882  1.00  0.00     0.167 HD
ATOM     63  C   UNL A   1      43.109  31.691  29.808  1.00  0.00     0.074 A 
ATOM     64  C   UNL A   1      41.943  32.408  30.281  1.00  0.00     0.031 C 
ATOM     65  C   UNL A   1      44.355  32.222  29.741  1.00  0.00     0.034 A 
BRANCH  52  66
ATOM     66  C   UNL A   1      48.689  28.218  27.917  1.00  0.00     0.023 A 
ATOM     67  C   UNL A   1      49.551  27.922  28.994  1.00  0.00     0.012 A 
ATOM     68  C   UNL A   1      49.193  28.208  26.603  1.00  0.00     0.148 A 
ATOM     69  C   UNL A   1      50.898  27.644  28.767  1.00  0.00     0.002 A 
ATOM     70  C   UNL A   1      50.529  27.891  26.382  1.00  0.00     0.091 A 
ATOM     71  F   UNL A   1      48.364  28.518  25.596  1.00  0.00    -0.205 F 
ATOM     72  C   UNL A   1      51.384  27.617  27.461  1.00  0.00     0.022 A 
BRANCH  70  73
ATOM     73  S   UNL A   1      51.230  27.761  24.733  1.00  0.00     0.127 S 
ATOM     74  O   UNL A   1      52.634  27.482  25.030  1.00  0.00    -0.237 OA
ATOM     75  O   UNL A   1      50.490  26.632  24.169  1.00  0.00    -0.237 OA
ATOM     76  O   UNL A   1      50.967  29.039  24.086  1.00  0.00    -0.744 OA
ENDBRANCH  70  73
ENDBRANCH  52  66
BRANCH  53  77
ATOM     77  C   UNL A   1      38.968  29.441  29.836  1.00  0.00     0.023 A 
ATOM     78  C   UNL A   1      38.504  29.154  31.135  1.00  0.00     0.012 A 
ATOM     79  C   UNL A   1      38.057  29.914  28.872  1.00  0.00     0.148 A 
ATOM     80  C   UNL A   1      37.156  29.310  31.459  1.00  0.00     0.002 A 
ATOM     81  C   UNL A   1      36.726  30.120  29.215  1.00  0.00     0.091 A 
ATOM     82  F   UNL A   1      38.512  30.161  27.635  1.00  0.00    -0.205 F 
ATOM     83  C   UNL A   1      36.270  29.803  30.504  1.00  0.00     0.022 A 
BRANCH  81  84
ATOM     84  S   UNL A   1      35.551  30.877  28.088  1.00  0.00     0.127 S 
ATOM     85  O   UNL A   1      34.428  31.163  28.975  1.00  0.00    -0.237 OA
ATOM     86  O   UNL A   1      36.289  32.054  27.626  1.00  0.00    -0.237 OA
ATOM     87  O   UNL A   1      35.308  29.880  27.054  1.00  0.00    -0.744 OA
ENDBRANCH  81  84
ENDBRANCH  53  77
BRANCH  65  88
ATOM     88  C   UNL A   1      44.529  33.662  30.147  1.00  0.00     0.023 A 
ATOM     89  C   UNL A   1      44.415  34.681  29.180  1.00  0.00     0.012 A 
ATOM     90  C   UNL A   1      44.724  34.009  31.498  1.00  0.00     0.148 A 
ATOM     91  C   UNL A   1      44.520  36.021  29.549  1.00  0.00     0.002 A 
ATOM     92  C   UNL A   1      44.783  35.350  31.865  1.00  0.00     0.091 A 
ATOM     93  F   UNL A   1      44.851  33.026  32.401  1.00  0.00    -0.205 F 
ATOM     94  C   UNL A   1      44.691  36.356  30.890  1.00  0.00     0.022 A 
BRANCH  92  95
ATOM     95  S   UNL A   1      44.906  35.867  33.581  1.00  0.00     0.127 S 
ATOM     96  O   UNL A   1      44.618  37.296  33.484  1.00  0.00    -0.237 OA
ATOM     97  O   UNL A   1      43.856  35.075  34.225  1.00  0.00    -0.237 OA
ATOM     98  O   UNL A   1      46.258  35.524  34.003  1.00  0.00    -0.744 OA
ENDBRANCH  92  95
ENDBRANCH  65  88
ENDBRANCH  39  40
ENDBRANCH  32  34
ENDBRANCH  31  32
ENDBRANCH  30  31
ENDBRANCH  29  30
ENDBRANCH   1  29
TORSDOF 21
ENDMDL
