MODEL 1
REMARK VINA RESULT:     -11.5      0.000      0.000
REMARK SMILES CCOC(=O)c1c(NC(=O)[C@@H]2[C@@H](C(=O)OCCOCCOC(=O)c3ccc(-c4c5nc(c(-c6cccc(S(=O)(=O)[O-])c6F)c6ccc([nH]6)c(-c6cccc(S(=O)(=O)[O-])c6F)c6nc(c(-c7cccc(S(=O)(=O)[O-])c7F)c7ccc4[nH]7)C=C6)C=C5)cc3)[C@@H]3C=C[C@H]2CC3)sc2c1CCC2
REMARK SMILES IDX 17 1 16 2 15 3 13 4 14 5 12 6 11 7 90 8 87 9 89 10 91 11
REMARK SMILES IDX 88 12 92 13 9 14 8 15 10 17 7 18 6 19 95 20 93 21 94 22
REMARK SMILES IDX 96 23 98 24 97 25 4 26 5 27 3 28 2 29 1 30 18 31 19 32 20 33
REMARK SMILES IDX 21 34 22 35 23 36 24 37 25 38 86 39 26 40 85 41 27 42 28 43
REMARK SMILES IDX 29 44 79 45 30 46 84 47 78 48 80 49 31 50 83 51 77 52 76 53
REMARK SMILES IDX 32 55 64 56 44 57 63 58 45 59 48 60 62 61 81 62 46 63 47 64
REMARK SMILES IDX 61 66 82 67 49 68 33 69 34 70 42 71 35 72 37 73 43 74 36 75
REMARK SMILES IDX 38 76 39 77 40 78 41 79 65 80 66 81 74 82 67 83 69 84 75 85
REMARK SMILES IDX 68 86 70 87 71 88 72 89 73 90 50 91 51 92 59 93 52 94 54 95
REMARK SMILES IDX 60 96 53 97 55 98 56 99 57 100 58 101
REMARK H PARENT 8 16 80 54 48 65
REMARK Flexibility Score: inf
ROOT
ATOM      1  C   UNL A   1      37.820  21.781  25.296  1.00  0.00     0.202 C 
ENDROOT
BRANCH   1   2
ATOM      2  C   UNL A   1      37.573  23.280  25.487  1.00  0.00     0.261 C 
BRANCH   2   3
ATOM      3  O   UNL A   1      36.216  23.683  25.245  1.00  0.00    -0.463 OA
BRANCH   3   4
ATOM      4  C   UNL A   1      35.651  23.181  24.111  1.00  0.00     0.310 C 
ATOM      5  O   UNL A   1      36.183  23.193  23.006  1.00  0.00    -0.252 OA
BRANCH   4   6
ATOM      6  C   UNL A   1      34.244  22.654  24.337  1.00  0.00     0.119 C 
ATOM      7  C   UNL A   1      33.150  23.686  24.646  1.00  0.00     0.100 C 
ATOM      8  C   UNL A   1      32.340  23.131  25.879  1.00  0.00     0.025 C 
ATOM      9  C   UNL A   1      34.202  21.431  25.277  1.00  0.00     0.026 C 
ATOM     10  C   UNL A   1      31.824  21.757  25.491  1.00  0.00    -0.027 C 
ATOM     11  C   UNL A   1      33.303  22.898  27.084  1.00  0.00     0.009 C 
ATOM     12  C   UNL A   1      32.787  20.878  25.170  1.00  0.00    -0.027 C 
ATOM     13  C   UNL A   1      34.413  21.889  26.717  1.00  0.00     0.009 C 
BRANCH   7  14
ATOM     14  C   UNL A   1      32.164  24.119  23.510  1.00  0.00     0.229 C 
ATOM     15  N   UNL A   1      31.381  25.240  23.395  1.00  0.00    -0.317 N 
ATOM     16  H   UNL A   1      30.904  25.299  22.536  1.00  0.00     0.170 HD
ATOM     17  O   UNL A   1      32.152  23.386  22.504  1.00  0.00    -0.274 OA
BRANCH  15  18
ATOM     18  C   UNL A   1      31.126  26.300  24.239  1.00  0.00     0.110 A 
ATOM     19  C   UNL A   1      30.994  27.674  23.991  1.00  0.00     0.098 A 
ATOM     20  C   UNL A   1      31.317  28.330  25.221  1.00  0.00    -0.017 A 
ATOM     21  S   UNL A   1      30.419  26.059  25.808  1.00  0.00    -0.122 S 
ATOM     22  C   UNL A   1      31.264  27.444  26.266  1.00  0.00     0.011 A 
ATOM     23  C   UNL A   1      31.632  29.684  25.739  1.00  0.00     0.038 C 
ATOM     24  C   UNL A   1      31.781  27.933  27.554  1.00  0.00     0.047 C 
ATOM     25  C   UNL A   1      32.220  29.380  27.165  1.00  0.00     0.010 C 
BRANCH  19  26
ATOM     26  C   UNL A   1      30.658  28.206  22.686  1.00  0.00     0.341 C 
ATOM     27  O   UNL A   1      30.807  27.536  21.671  1.00  0.00    -0.246 OA
BRANCH  26  28
ATOM     28  O   UNL A   1      30.060  29.430  22.723  1.00  0.00    -0.462 OA
BRANCH  28  29
ATOM     29  C   UNL A   1      28.624  29.412  22.811  1.00  0.00     0.230 C 
ATOM     30  C   UNL A   1      27.909  30.249  21.760  1.00  0.00     0.049 C 
ENDBRANCH  28  29
ENDBRANCH  26  28
ENDBRANCH  19  26
ENDBRANCH  15  18
ENDBRANCH   7  14
ENDBRANCH   4   6
ENDBRANCH   3   4
ENDBRANCH   2   3
ENDBRANCH   1   2
BRANCH   1  31
ATOM     31  O   UNL A   1      38.812  21.143  26.096  1.00  0.00    -0.374 OA
BRANCH  31  32
ATOM     32  C   UNL A   1      40.096  21.740  26.238  1.00  0.00     0.202 C 
BRANCH  32  33
ATOM     33  C   UNL A   1      40.795  21.689  27.587  1.00  0.00     0.261 C 
BRANCH  33  34
ATOM     34  O   UNL A   1      42.129  22.158  27.498  1.00  0.00    -0.460 OA
BRANCH  34  35
ATOM     35  C   UNL A   1      42.221  23.379  26.920  1.00  0.00     0.338 C 
ATOM     36  O   UNL A   1      42.668  23.635  25.823  1.00  0.00    -0.246 OA
BRANCH  35  37
ATOM     37  C   UNL A   1      41.847  24.388  27.913  1.00  0.00     0.060 A 
ATOM     38  C   UNL A   1      40.657  25.059  27.636  1.00  0.00     0.016 A 
ATOM     39  C   UNL A   1      42.774  24.854  28.859  1.00  0.00     0.016 A 
ATOM     40  C   UNL A   1      40.516  26.333  28.120  1.00  0.00     0.010 A 
ATOM     41  C   UNL A   1      42.625  26.129  29.351  1.00  0.00     0.010 A 
ATOM     42  C   UNL A   1      41.546  26.880  28.897  1.00  0.00    -0.014 A 
BRANCH  42  43
ATOM     43  C   UNL A   1      41.373  28.245  29.332  1.00  0.00     0.031 A 
ATOM     44  C   UNL A   1      42.336  29.141  28.665  1.00  0.00     0.074 A 
ATOM     45  C   UNL A   1      40.458  28.627  30.238  1.00  0.00     0.049 A 
ATOM     46  N   UNL A   1      43.435  29.591  29.170  1.00  0.00    -0.248 NA
ATOM     47  C   UNL A   1      42.205  29.340  27.215  1.00  0.00     0.031 C 
ATOM     48  C   UNL A   1      39.338  27.849  30.778  1.00  0.00     0.029 A 
ATOM     49  N   UNL A   1      40.280  29.854  30.795  1.00  0.00    -0.354 N 
ATOM     50  C   UNL A   1      43.994  30.371  28.166  1.00  0.00     0.074 A 
ATOM     51  C   UNL A   1      43.341  29.985  26.944  1.00  0.00     0.031 C 
ATOM     52  C   UNL A   1      38.470  28.689  31.391  1.00  0.00     0.029 A 
ATOM     53  C   UNL A   1      39.049  30.022  31.417  1.00  0.00     0.049 A 
ATOM     54  H   UNL A   1      40.964  30.562  30.762  1.00  0.00     0.167 HD
ATOM     55  C   UNL A   1      44.700  31.486  28.489  1.00  0.00     0.034 A 
ATOM     56  C   UNL A   1      38.544  31.192  31.874  1.00  0.00     0.034 A 
ATOM     57  C   UNL A   1      45.027  31.498  29.894  1.00  0.00     0.049 A 
ATOM     58  C   UNL A   1      39.691  32.090  32.125  1.00  0.00     0.074 A 
ATOM     59  C   UNL A   1      45.885  30.821  30.730  1.00  0.00     0.029 A 
ATOM     60  N   UNL A   1      44.064  32.086  30.675  1.00  0.00    -0.354 N 
ATOM     61  N   UNL A   1      40.562  31.877  33.071  1.00  0.00    -0.248 NA
ATOM     62  C   UNL A   1      40.097  33.049  31.106  1.00  0.00     0.031 C 
ATOM     63  C   UNL A   1      45.271  30.843  32.018  1.00  0.00     0.029 A 
ATOM     64  C   UNL A   1      44.077  31.560  31.936  1.00  0.00     0.049 A 
ATOM     65  H   UNL A   1      43.447  32.790  30.368  1.00  0.00     0.167 HD
ATOM     66  C   UNL A   1      41.762  32.289  32.519  1.00  0.00     0.074 A 
ATOM     67  C   UNL A   1      41.392  33.170  31.417  1.00  0.00     0.031 C 
ATOM     68  C   UNL A   1      42.920  31.628  32.804  1.00  0.00     0.034 A 
BRANCH  55  69
ATOM     69  C   UNL A   1      44.658  32.783  27.708  1.00  0.00     0.023 A 
ATOM     70  C   UNL A   1      45.812  33.110  26.961  1.00  0.00     0.012 A 
ATOM     71  C   UNL A   1      43.714  33.817  27.909  1.00  0.00     0.148 A 
ATOM     72  C   UNL A   1      46.039  34.407  26.491  1.00  0.00     0.002 A 
ATOM     73  C   UNL A   1      43.911  35.086  27.381  1.00  0.00     0.091 A 
ATOM     74  F   UNL A   1      42.679  33.635  28.730  1.00  0.00    -0.205 F 
ATOM     75  C   UNL A   1      45.087  35.396  26.697  1.00  0.00     0.022 A 
BRANCH  73  76
ATOM     76  S   UNL A   1      42.697  36.396  27.598  1.00  0.00     0.127 S 
ATOM     77  O   UNL A   1      41.488  35.761  27.081  1.00  0.00    -0.237 OA
ATOM     78  O   UNL A   1      42.727  36.589  29.048  1.00  0.00    -0.237 OA
ATOM     79  O   UNL A   1      43.199  37.531  26.834  1.00  0.00    -0.744 OA
ENDBRANCH  73  76
ENDBRANCH  55  69
BRANCH  56  80
ATOM     80  C   UNL A   1      37.153  31.678  31.971  1.00  0.00     0.023 A 
ATOM     81  C   UNL A   1      36.617  32.021  33.229  1.00  0.00     0.012 A 
ATOM     82  C   UNL A   1      36.469  32.103  30.811  1.00  0.00     0.148 A 
ATOM     83  C   UNL A   1      35.462  32.806  33.330  1.00  0.00     0.002 A 
ATOM     84  C   UNL A   1      35.325  32.888  30.916  1.00  0.00     0.091 A 
ATOM     85  F   UNL A   1      36.997  31.812  29.614  1.00  0.00    -0.205 F 
ATOM     86  C   UNL A   1      34.826  33.252  32.176  1.00  0.00     0.022 A 
BRANCH  84  87
ATOM     87  S   UNL A   1      34.472  33.555  29.481  1.00  0.00     0.127 S 
ATOM     88  O   UNL A   1      35.562  34.224  28.769  1.00  0.00    -0.237 OA
ATOM     89  O   UNL A   1      33.974  32.342  28.835  1.00  0.00    -0.237 OA
ATOM     90  O   UNL A   1      33.452  34.454  30.003  1.00  0.00    -0.744 OA
ENDBRANCH  84  87
ENDBRANCH  56  80
BRANCH  68  91
ATOM     91  C   UNL A   1      42.922  30.749  34.024  1.00  0.00     0.023 A 
ATOM     92  C   UNL A   1      42.944  31.264  35.336  1.00  0.00     0.012 A 
ATOM     93  C   UNL A   1      42.791  29.365  33.834  1.00  0.00     0.148 A 
ATOM     94  C   UNL A   1      42.858  30.408  36.438  1.00  0.00     0.002 A 
ATOM     95  C   UNL A   1      42.659  28.522  34.928  1.00  0.00     0.091 A 
ATOM     96  F   UNL A   1      42.774  28.899  32.575  1.00  0.00    -0.205 F 
ATOM     97  C   UNL A   1      42.703  29.039  36.233  1.00  0.00     0.022 A 
BRANCH  95  98
ATOM     98  S   UNL A   1      42.338  26.770  34.729  1.00  0.00     0.127 S 
ATOM     99  O   UNL A   1      42.861  26.218  35.977  1.00  0.00    -0.237 OA
ATOM    100  O   UNL A   1      40.881  26.732  34.604  1.00  0.00    -0.237 OA
ATOM    101  O   UNL A   1      43.049  26.366  33.521  1.00  0.00    -0.744 OA
ENDBRANCH  95  98
ENDBRANCH  68  91
ENDBRANCH  42  43
ENDBRANCH  35  37
ENDBRANCH  34  35
ENDBRANCH  33  34
ENDBRANCH  32  33
ENDBRANCH  31  32
ENDBRANCH   1  31
TORSDOF 22
ENDMDL
MODEL 2
REMARK VINA RESULT:     -10.9      1.651      2.070
REMARK SMILES CCOC(=O)c1c(NC(=O)[C@@H]2[C@@H](C(=O)OCCOCCOC(=O)c3ccc(-c4c5nc(c(-c6cccc(S(=O)(=O)[O-])c6F)c6ccc([nH]6)c(-c6cccc(S(=O)(=O)[O-])c6F)c6nc(c(-c7cccc(S(=O)(=O)[O-])c7F)c7ccc4[nH]7)C=C6)C=C5)cc3)[C@@H]3C=C[C@H]2CC3)sc2c1CCC2
REMARK SMILES IDX 17 1 16 2 15 3 13 4 14 5 12 6 11 7 90 8 87 9 89 10 91 11
REMARK SMILES IDX 88 12 92 13 9 14 8 15 10 17 7 18 6 19 95 20 93 21 94 22
REMARK SMILES IDX 96 23 98 24 97 25 4 26 5 27 3 28 2 29 1 30 18 31 19 32 20 33
REMARK SMILES IDX 21 34 22 35 23 36 24 37 25 38 86 39 26 40 85 41 27 42 28 43
REMARK SMILES IDX 29 44 79 45 30 46 84 47 78 48 80 49 31 50 83 51 77 52 76 53
REMARK SMILES IDX 32 55 64 56 44 57 63 58 45 59 48 60 62 61 81 62 46 63 47 64
REMARK SMILES IDX 61 66 82 67 49 68 33 69 34 70 42 71 35 72 37 73 43 74 36 75
REMARK SMILES IDX 38 76 39 77 40 78 41 79 65 80 66 81 74 82 67 83 69 84 75 85
REMARK SMILES IDX 68 86 70 87 71 88 72 89 73 90 50 91 51 92 59 93 52 94 54 95
REMARK SMILES IDX 60 96 53 97 55 98 56 99 57 100 58 101
REMARK H PARENT 8 16 80 54 48 65
REMARK Flexibility Score: inf
ROOT
ATOM      1  C   UNL A   1      37.629  21.516  24.968  1.00  0.00     0.202 C 
ENDROOT
BRANCH   1   2
ATOM      2  C   UNL A   1      36.317  22.127  25.470  1.00  0.00     0.261 C 
BRANCH   2   3
ATOM      3  O   UNL A   1      35.925  23.320  24.773  1.00  0.00    -0.463 OA
BRANCH   3   4
ATOM      4  C   UNL A   1      35.638  23.157  23.451  1.00  0.00     0.310 C 
ATOM      5  O   UNL A   1      36.463  22.860  22.593  1.00  0.00    -0.252 OA
BRANCH   4   6
ATOM      6  C   UNL A   1      34.183  23.448  23.123  1.00  0.00     0.119 C 
ATOM      7  C   UNL A   1      33.588  24.752  23.673  1.00  0.00     0.100 C 
ATOM      8  C   UNL A   1      32.195  24.380  24.308  1.00  0.00     0.025 C 
ATOM      9  C   UNL A   1      33.262  22.228  23.335  1.00  0.00     0.026 C 
ATOM     10  C   UNL A   1      31.371  23.717  23.219  1.00  0.00    -0.027 C 
ATOM     11  C   UNL A   1      32.388  23.296  25.414  1.00  0.00     0.009 C 
ATOM     12  C   UNL A   1      31.927  22.607  22.708  1.00  0.00    -0.027 C 
ATOM     13  C   UNL A   1      33.030  22.019  24.828  1.00  0.00     0.009 C 
BRANCH   7  14
ATOM     14  C   UNL A   1      33.429  25.982  22.718  1.00  0.00     0.229 C 
ATOM     15  N   UNL A   1      33.085  27.280  22.995  1.00  0.00    -0.317 N 
ATOM     16  H   UNL A   1      33.129  27.874  22.211  1.00  0.00     0.170 HD
ATOM     17  O   UNL A   1      33.756  25.785  21.533  1.00  0.00    -0.274 OA
BRANCH  15  18
ATOM     18  C   UNL A   1      32.690  27.924  24.149  1.00  0.00     0.110 A 
ATOM     19  C   UNL A   1      31.588  28.746  24.424  1.00  0.00     0.098 A 
ATOM     20  C   UNL A   1      31.975  29.569  25.528  1.00  0.00    -0.017 A 
ATOM     21  S   UNL A   1      33.278  27.429  25.708  1.00  0.00    -0.122 S 
ATOM     22  C   UNL A   1      33.071  29.040  26.160  1.00  0.00     0.011 A 
ATOM     23  C   UNL A   1      31.530  30.786  26.251  1.00  0.00     0.038 C 
ATOM     24  C   UNL A   1      33.705  29.894  27.178  1.00  0.00     0.047 C 
ATOM     25  C   UNL A   1      32.793  31.160  27.108  1.00  0.00     0.010 C 
BRANCH  19  26
ATOM     26  C   UNL A   1      30.376  28.723  23.630  1.00  0.00     0.341 C 
ATOM     27  O   UNL A   1      30.107  27.769  22.911  1.00  0.00    -0.246 OA
BRANCH  26  28
ATOM     28  O   UNL A   1      29.540  29.774  23.864  1.00  0.00    -0.462 OA
BRANCH  28  29
ATOM     29  C   UNL A   1      29.193  30.557  22.708  1.00  0.00     0.230 C 
ATOM     30  C   UNL A   1      28.187  31.669  22.968  1.00  0.00     0.049 C 
ENDBRANCH  28  29
ENDBRANCH  26  28
ENDBRANCH  19  26
ENDBRANCH  15  18
ENDBRANCH   7  14
ENDBRANCH   4   6
ENDBRANCH   3   4
ENDBRANCH   2   3
ENDBRANCH   1   2
BRANCH   1  31
ATOM     31  O   UNL A   1      38.690  21.312  25.898  1.00  0.00    -0.374 OA
BRANCH  31  32
ATOM     32  C   UNL A   1      39.376  22.434  26.442  1.00  0.00     0.202 C 
BRANCH  32  33
ATOM     33  C   UNL A   1      40.839  22.294  26.830  1.00  0.00     0.261 C 
BRANCH  33  34
ATOM     34  O   UNL A   1      41.695  22.559  25.734  1.00  0.00    -0.460 OA
BRANCH  34  35
ATOM     35  C   UNL A   1      42.980  22.770  26.107  1.00  0.00     0.338 C 
ATOM     36  O   UNL A   1      43.814  21.928  26.361  1.00  0.00    -0.246 OA
BRANCH  35  37
ATOM     37  C   UNL A   1      43.166  24.206  26.328  1.00  0.00     0.060 A 
ATOM     38  C   UNL A   1      43.899  24.526  27.468  1.00  0.00     0.016 A 
ATOM     39  C   UNL A   1      42.390  25.152  25.638  1.00  0.00     0.016 A 
ATOM     40  C   UNL A   1      43.652  25.733  28.067  1.00  0.00     0.010 A 
ATOM     41  C   UNL A   1      42.152  26.366  26.236  1.00  0.00     0.010 A 
ATOM     42  C   UNL A   1      42.713  26.597  27.487  1.00  0.00    -0.014 A 
BRANCH  42  43
ATOM     43  C   UNL A   1      42.446  27.829  28.190  1.00  0.00     0.031 A 
ATOM     44  C   UNL A   1      43.470  28.845  27.888  1.00  0.00     0.074 A 
ATOM     45  C   UNL A   1      41.402  28.002  29.018  1.00  0.00     0.049 A 
ATOM     46  N   UNL A   1      44.475  29.160  28.634  1.00  0.00    -0.248 NA
ATOM     47  C   UNL A   1      43.541  29.370  26.518  1.00  0.00     0.031 C 
ATOM     48  C   UNL A   1      40.237  27.130  29.203  1.00  0.00     0.029 A 
ATOM     49  N   UNL A   1      41.117  29.071  29.808  1.00  0.00    -0.354 N 
ATOM     50  C   UNL A   1      45.151  30.143  27.923  1.00  0.00     0.074 A 
ATOM     51  C   UNL A   1      44.687  30.051  26.566  1.00  0.00     0.031 C 
ATOM     52  C   UNL A   1      39.271  27.816  29.859  1.00  0.00     0.029 A 
ATOM     53  C   UNL A   1      39.807  29.103  30.268  1.00  0.00     0.049 A 
ATOM     54  H   UNL A   1      41.781  29.763  30.034  1.00  0.00     0.167 HD
ATOM     55  C   UNL A   1      45.776  31.150  28.588  1.00  0.00     0.034 A 
ATOM     56  C   UNL A   1      39.213  30.142  30.902  1.00  0.00     0.034 A 
ATOM     57  C   UNL A   1      45.902  30.840  29.991  1.00  0.00     0.049 A 
ATOM     58  C   UNL A   1      40.291  30.950  31.511  1.00  0.00     0.074 A 
ATOM     59  C   UNL A   1      46.649  29.983  30.766  1.00  0.00     0.029 A 
ATOM     60  N   UNL A   1      44.823  31.242  30.739  1.00  0.00    -0.354 N 
ATOM     61  N   UNL A   1      41.024  30.520  32.499  1.00  0.00    -0.248 NA
ATOM     62  C   UNL A   1      40.813  32.113  30.804  1.00  0.00     0.031 C 
ATOM     63  C   UNL A   1      45.858  29.716  31.925  1.00  0.00     0.029 A 
ATOM     64  C   UNL A   1      44.671  30.442  31.837  1.00  0.00     0.049 A 
ATOM     65  H   UNL A   1      44.239  32.002  30.514  1.00  0.00     0.167 HD
ATOM     66  C   UNL A   1      42.279  31.038  32.232  1.00  0.00     0.074 A 
ATOM     67  C   UNL A   1      42.047  32.149  31.316  1.00  0.00     0.031 C 
ATOM     68  C   UNL A   1      43.402  30.320  32.523  1.00  0.00     0.034 A 
BRANCH  55  69
ATOM     69  C   UNL A   1      45.813  32.591  28.123  1.00  0.00     0.023 A 
ATOM     70  C   UNL A   1      47.062  33.249  28.197  1.00  0.00     0.012 A 
ATOM     71  C   UNL A   1      44.673  33.406  27.926  1.00  0.00     0.148 A 
ATOM     72  C   UNL A   1      47.162  34.642  28.135  1.00  0.00     0.002 A 
ATOM     73  C   UNL A   1      44.786  34.784  27.796  1.00  0.00     0.091 A 
ATOM     74  F   UNL A   1      43.449  32.882  28.002  1.00  0.00    -0.205 F 
ATOM     75  C   UNL A   1      46.024  35.411  27.931  1.00  0.00     0.022 A 
BRANCH  73  76
ATOM     76  S   UNL A   1      43.346  35.823  27.506  1.00  0.00     0.127 S 
ATOM     77  O   UNL A   1      42.558  35.573  28.709  1.00  0.00    -0.237 OA
ATOM     78  O   UNL A   1      43.953  37.151  27.424  1.00  0.00    -0.237 OA
ATOM     79  O   UNL A   1      42.766  35.354  26.254  1.00  0.00    -0.744 OA
ENDBRANCH  73  76
ENDBRANCH  55  69
BRANCH  56  80
ATOM     80  C   UNL A   1      37.811  30.605  30.905  1.00  0.00     0.023 A 
ATOM     81  C   UNL A   1      37.028  30.456  32.068  1.00  0.00     0.012 A 
ATOM     82  C   UNL A   1      37.347  31.468  29.889  1.00  0.00     0.148 A 
ATOM     83  C   UNL A   1      35.844  31.183  32.237  1.00  0.00     0.002 A 
ATOM     84  C   UNL A   1      36.172  32.194  30.064  1.00  0.00     0.091 A 
ATOM     85  F   UNL A   1      38.108  31.641  28.800  1.00  0.00    -0.205 F 
ATOM     86  C   UNL A   1      35.425  32.063  31.243  1.00  0.00     0.022 A 
BRANCH  84  87
ATOM     87  S   UNL A   1      35.586  33.393  28.859  1.00  0.00     0.127 S 
ATOM     88  O   UNL A   1      36.532  34.494  29.049  1.00  0.00    -0.237 OA
ATOM     89  O   UNL A   1      35.745  32.661  27.604  1.00  0.00    -0.237 OA
ATOM     90  O   UNL A   1      34.215  33.703  29.237  1.00  0.00    -0.744 OA
ENDBRANCH  84  87
ENDBRANCH  56  80
BRANCH  68  91
ATOM     91  C   UNL A   1      43.254  29.187  33.499  1.00  0.00     0.023 A 
ATOM     92  C   UNL A   1      42.757  27.920  33.130  1.00  0.00     0.012 A 
ATOM     93  C   UNL A   1      43.731  29.380  34.805  1.00  0.00     0.148 A 
ATOM     94  C   UNL A   1      42.719  26.873  34.055  1.00  0.00     0.002 A 
ATOM     95  C   UNL A   1      43.736  28.327  35.707  1.00  0.00     0.091 A 
ATOM     96  F   UNL A   1      44.198  30.596  35.134  1.00  0.00    -0.205 F 
ATOM     97  C   UNL A   1      43.220  27.074  35.340  1.00  0.00     0.022 A 
BRANCH  95  98
ATOM     98  S   UNL A   1      44.473  28.488  37.334  1.00  0.00     0.127 S 
ATOM     99  O   UNL A   1      43.783  29.659  37.869  1.00  0.00    -0.237 OA
ATOM    100  O   UNL A   1      44.110  27.219  37.966  1.00  0.00    -0.237 OA
ATOM    101  O   UNL A   1      45.905  28.653  37.112  1.00  0.00    -0.744 OA
ENDBRANCH  95  98
ENDBRANCH  68  91
ENDBRANCH  42  43
ENDBRANCH  35  37
ENDBRANCH  34  35
ENDBRANCH  33  34
ENDBRANCH  32  33
ENDBRANCH  31  32
ENDBRANCH   1  31
TORSDOF 22
ENDMDL
MODEL 3
REMARK VINA RESULT:     -10.7      1.833      2.638
REMARK SMILES CCOC(=O)c1c(NC(=O)[C@@H]2[C@@H](C(=O)OCCOCCOC(=O)c3ccc(-c4c5nc(c(-c6cccc(S(=O)(=O)[O-])c6F)c6ccc([nH]6)c(-c6cccc(S(=O)(=O)[O-])c6F)c6nc(c(-c7cccc(S(=O)(=O)[O-])c7F)c7ccc4[nH]7)C=C6)C=C5)cc3)[C@@H]3C=C[C@H]2CC3)sc2c1CCC2
REMARK SMILES IDX 17 1 16 2 15 3 13 4 14 5 12 6 11 7 90 8 87 9 89 10 91 11
REMARK SMILES IDX 88 12 92 13 9 14 8 15 10 17 7 18 6 19 95 20 93 21 94 22
REMARK SMILES IDX 96 23 98 24 97 25 4 26 5 27 3 28 2 29 1 30 18 31 19 32 20 33
REMARK SMILES IDX 21 34 22 35 23 36 24 37 25 38 86 39 26 40 85 41 27 42 28 43
REMARK SMILES IDX 29 44 79 45 30 46 84 47 78 48 80 49 31 50 83 51 77 52 76 53
REMARK SMILES IDX 32 55 64 56 44 57 63 58 45 59 48 60 62 61 81 62 46 63 47 64
REMARK SMILES IDX 61 66 82 67 49 68 33 69 34 70 42 71 35 72 37 73 43 74 36 75
REMARK SMILES IDX 38 76 39 77 40 78 41 79 65 80 66 81 74 82 67 83 69 84 75 85
REMARK SMILES IDX 68 86 70 87 71 88 72 89 73 90 50 91 51 92 59 93 52 94 54 95
REMARK SMILES IDX 60 96 53 97 55 98 56 99 57 100 58 101
REMARK H PARENT 8 16 80 54 48 65
REMARK Flexibility Score: inf
ROOT
ATOM      1  C   UNL A   1      40.266  20.994  26.529  1.00  0.00     0.202 C 
ENDROOT
BRANCH   1   2
ATOM      2  C   UNL A   1      39.378  22.203  26.222  1.00  0.00     0.261 C 
BRANCH   2   3
ATOM      3  O   UNL A   1      38.088  21.861  25.692  1.00  0.00    -0.463 OA
BRANCH   3   4
ATOM      4  C   UNL A   1      37.197  22.889  25.613  1.00  0.00     0.310 C 
ATOM      5  O   UNL A   1      37.423  24.034  25.992  1.00  0.00    -0.252 OA
BRANCH   4   6
ATOM      6  C   UNL A   1      35.849  22.460  25.059  1.00  0.00     0.119 C 
ATOM      7  C   UNL A   1      34.774  23.546  24.910  1.00  0.00     0.100 C 
ATOM      8  C   UNL A   1      33.446  22.952  25.516  1.00  0.00     0.025 C 
ATOM      9  C   UNL A   1      35.315  21.167  25.709  1.00  0.00     0.026 C 
ATOM     10  C   UNL A   1      33.152  21.664  24.768  1.00  0.00    -0.027 C 
ATOM     11  C   UNL A   1      33.679  22.537  27.001  1.00  0.00     0.009 C 
ATOM     12  C   UNL A   1      34.124  20.741  24.860  1.00  0.00    -0.027 C 
ATOM     13  C   UNL A   1      34.797  21.479  27.110  1.00  0.00     0.009 C 
BRANCH   7  14
ATOM     14  C   UNL A   1      34.492  24.154  23.496  1.00  0.00     0.229 C 
ATOM     15  N   UNL A   1      33.785  25.273  23.138  1.00  0.00    -0.317 N 
ATOM     16  H   UNL A   1      33.824  25.471  22.174  1.00  0.00     0.170 HD
ATOM     17  O   UNL A   1      35.076  23.598  22.548  1.00  0.00    -0.274 OA
BRANCH  15  18
ATOM     18  C   UNL A   1      33.029  26.178  23.853  1.00  0.00     0.110 A 
ATOM     19  C   UNL A   1      31.644  26.283  24.049  1.00  0.00     0.098 A 
ATOM     20  C   UNL A   1      31.390  27.658  24.349  1.00  0.00    -0.017 A 
ATOM     21  S   UNL A   1      33.733  27.157  25.105  1.00  0.00    -0.122 S 
ATOM     22  C   UNL A   1      32.551  28.293  24.711  1.00  0.00     0.011 A 
ATOM     23  C   UNL A   1      30.256  28.609  24.454  1.00  0.00     0.038 C 
ATOM     24  C   UNL A   1      32.474  29.757  24.837  1.00  0.00     0.047 C 
ATOM     25  C   UNL A   1      30.977  30.006  24.470  1.00  0.00     0.010 C 
BRANCH  19  26
ATOM     26  C   UNL A   1      30.742  25.160  23.885  1.00  0.00     0.341 C 
ATOM     27  O   UNL A   1      30.983  24.266  23.083  1.00  0.00    -0.246 OA
BRANCH  26  28
ATOM     28  O   UNL A   1      29.713  25.141  24.778  1.00  0.00    -0.462 OA
BRANCH  28  29
ATOM     29  C   UNL A   1      30.087  24.906  26.147  1.00  0.00     0.230 C 
ATOM     30  C   UNL A   1      30.085  23.444  26.568  1.00  0.00     0.049 C 
ENDBRANCH  28  29
ENDBRANCH  26  28
ENDBRANCH  19  26
ENDBRANCH  15  18
ENDBRANCH   7  14
ENDBRANCH   4   6
ENDBRANCH   3   4
ENDBRANCH   2   3
ENDBRANCH   1   2
BRANCH   1  31
ATOM     31  O   UNL A   1      41.613  21.220  26.939  1.00  0.00    -0.374 OA
BRANCH  31  32
ATOM     32  C   UNL A   1      42.592  21.588  25.973  1.00  0.00     0.202 C 
BRANCH  32  33
ATOM     33  C   UNL A   1      43.538  22.738  26.274  1.00  0.00     0.261 C 
BRANCH  33  34
ATOM     34  O   UNL A   1      43.117  23.935  25.644  1.00  0.00    -0.460 OA
BRANCH  34  35
ATOM     35  C   UNL A   1      44.143  24.632  25.100  1.00  0.00     0.338 C 
ATOM     36  O   UNL A   1      45.128  24.179  24.559  1.00  0.00    -0.246 OA
BRANCH  35  37
ATOM     37  C   UNL A   1      43.958  26.049  25.421  1.00  0.00     0.060 A 
ATOM     38  C   UNL A   1      44.820  26.537  26.401  1.00  0.00     0.016 A 
ATOM     39  C   UNL A   1      42.803  26.740  25.019  1.00  0.00     0.016 A 
ATOM     40  C   UNL A   1      44.389  27.592  27.161  1.00  0.00     0.010 A 
ATOM     41  C   UNL A   1      42.378  27.804  25.777  1.00  0.00     0.010 A 
ATOM     42  C   UNL A   1      43.132  28.151  26.892  1.00  0.00    -0.014 A 
BRANCH  42  43
ATOM     43  C   UNL A   1      42.701  29.221  27.760  1.00  0.00     0.031 A 
ATOM     44  C   UNL A   1      43.583  30.395  27.634  1.00  0.00     0.074 A 
ATOM     45  C   UNL A   1      41.638  29.133  28.578  1.00  0.00     0.049 A 
ATOM     46  N   UNL A   1      44.533  30.725  28.443  1.00  0.00    -0.248 NA
ATOM     47  C   UNL A   1      43.592  31.121  26.358  1.00  0.00     0.031 C 
ATOM     48  C   UNL A   1      40.598  28.100  28.605  1.00  0.00     0.029 A 
ATOM     49  N   UNL A   1      41.210  30.028  29.508  1.00  0.00    -0.354 N 
ATOM     50  C   UNL A   1      45.077  31.882  27.900  1.00  0.00     0.074 A 
ATOM     51  C   UNL A   1      44.638  31.930  26.532  1.00  0.00     0.031 C 
ATOM     52  C   UNL A   1      39.546  28.550  29.329  1.00  0.00     0.029 A 
ATOM     53  C   UNL A   1      39.905  29.821  29.935  1.00  0.00     0.049 A 
ATOM     54  H   UNL A   1      41.776  30.759  29.849  1.00  0.00     0.167 HD
ATOM     55  C   UNL A   1      45.560  32.852  28.720  1.00  0.00     0.034 A 
ATOM     56  C   UNL A   1      39.175  30.669  30.697  1.00  0.00     0.034 A 
ATOM     57  C   UNL A   1      45.718  32.357  30.066  1.00  0.00     0.049 A 
ATOM     58  C   UNL A   1      40.133  31.512  31.444  1.00  0.00     0.074 A 
ATOM     59  C   UNL A   1      46.568  31.500  30.727  1.00  0.00     0.029 A 
ATOM     60  N   UNL A   1      44.591  32.501  30.836  1.00  0.00    -0.354 N 
ATOM     61  N   UNL A   1      40.911  31.041  32.377  1.00  0.00    -0.248 NA
ATOM     62  C   UNL A   1      40.500  32.825  30.927  1.00  0.00     0.031 C 
ATOM     63  C   UNL A   1      45.812  30.965  31.814  1.00  0.00     0.029 A 
ATOM     64  C   UNL A   1      44.539  31.536  31.802  1.00  0.00     0.049 A 
ATOM     65  H   UNL A   1      43.913  33.203  30.710  1.00  0.00     0.167 HD
ATOM     66  C   UNL A   1      42.088  31.751  32.220  1.00  0.00     0.074 A 
ATOM     67  C   UNL A   1      41.716  32.945  31.470  1.00  0.00     0.031 C 
ATOM     68  C   UNL A   1      43.294  31.150  32.432  1.00  0.00     0.034 A 
BRANCH  55  69
ATOM     69  C   UNL A   1      45.409  34.338  28.470  1.00  0.00     0.023 A 
ATOM     70  C   UNL A   1      46.513  35.153  28.808  1.00  0.00     0.012 A 
ATOM     71  C   UNL A   1      44.179  34.996  28.232  1.00  0.00     0.148 A 
ATOM     72  C   UNL A   1      46.385  36.537  28.956  1.00  0.00     0.002 A 
ATOM     73  C   UNL A   1      44.074  36.378  28.313  1.00  0.00     0.091 A 
ATOM     74  F   UNL A   1      43.059  34.292  28.063  1.00  0.00    -0.205 F 
ATOM     75  C   UNL A   1      45.166  37.152  28.705  1.00  0.00     0.022 A 
BRANCH  73  76
ATOM     76  S   UNL A   1      42.524  37.226  27.972  1.00  0.00     0.127 S 
ATOM     77  O   UNL A   1      42.456  37.138  26.516  1.00  0.00    -0.237 OA
ATOM     78  O   UNL A   1      41.565  36.388  28.692  1.00  0.00    -0.237 OA
ATOM     79  O   UNL A   1      42.677  38.566  28.524  1.00  0.00    -0.744 OA
ENDBRANCH  73  76
ENDBRANCH  55  69
BRANCH  56  80
ATOM     80  C   UNL A   1      37.724  30.940  30.733  1.00  0.00     0.023 A 
ATOM     81  C   UNL A   1      37.074  31.110  31.972  1.00  0.00     0.012 A 
ATOM     82  C   UNL A   1      37.049  31.344  29.560  1.00  0.00     0.148 A 
ATOM     83  C   UNL A   1      35.811  31.710  32.048  1.00  0.00     0.002 A 
ATOM     84  C   UNL A   1      35.796  31.945  29.640  1.00  0.00     0.091 A 
ATOM     85  F   UNL A   1      37.680  31.219  28.384  1.00  0.00    -0.205 F 
ATOM     86  C   UNL A   1      35.180  32.141  30.884  1.00  0.00     0.022 A 
BRANCH  84  87
ATOM     87  S   UNL A   1      34.934  32.582  28.197  1.00  0.00     0.127 S 
ATOM     88  O   UNL A   1      35.982  33.371  27.547  1.00  0.00    -0.237 OA
ATOM     89  O   UNL A   1      34.571  31.353  27.495  1.00  0.00    -0.237 OA
ATOM     90  O   UNL A   1      33.819  33.366  28.710  1.00  0.00    -0.744 OA
ENDBRANCH  84  87
ENDBRANCH  56  80
BRANCH  68  91
ATOM     91  C   UNL A   1      43.292  29.876  33.229  1.00  0.00     0.023 A 
ATOM     92  C   UNL A   1      43.118  28.606  32.641  1.00  0.00     0.012 A 
ATOM     93  C   UNL A   1      43.580  29.960  34.600  1.00  0.00     0.148 A 
ATOM     94  C   UNL A   1      43.209  27.445  33.413  1.00  0.00     0.002 A 
ATOM     95  C   UNL A   1      43.716  28.804  35.355  1.00  0.00     0.091 A 
ATOM     96  F   UNL A   1      43.740  31.180  35.138  1.00  0.00    -0.205 F 
ATOM     97  C   UNL A   1      43.520  27.544  34.767  1.00  0.00     0.022 A 
BRANCH  95  98
ATOM     98  S   UNL A   1      44.231  28.860  37.071  1.00  0.00     0.127 S 
ATOM     99  O   UNL A   1      45.638  29.237  36.958  1.00  0.00    -0.237 OA
ATOM    100  O   UNL A   1      43.360  29.898  37.623  1.00  0.00    -0.237 OA
ATOM    101  O   UNL A   1      43.983  27.527  37.609  1.00  0.00    -0.744 OA
ENDBRANCH  95  98
ENDBRANCH  68  91
ENDBRANCH  42  43
ENDBRANCH  35  37
ENDBRANCH  34  35
ENDBRANCH  33  34
ENDBRANCH  32  33
ENDBRANCH  31  32
ENDBRANCH   1  31
TORSDOF 22
ENDMDL
