MODEL 1
REMARK VINA RESULT:     -11.4      0.000      0.000
REMARK SMILES CCC[C@H](NC(=O)c1cc2ccccc2[nH]1)C(=O)OCCOCCOC(=O)c1ccc(-c2c3nc(c(-c4cccc(S(=O)(=O)[O-])c4F)c4ccc([nH]4)c(-c4cccc(S(=O)(=O)[O-])c4F)c4nc(c(-c5cccc(S(=O)(=O)[O-])c5F)c5ccc2[nH]5)C=C4)C=C3)cc1
REMARK SMILES IDX 23 1 22 2 21 3 20 4 19 5 17 6 18 7 4 8 3 9 2 10 1 11 5 12
REMARK SMILES IDX 6 13 7 15 8 16 9 17 16 18 10 19 15 20 11 22 14 23 12 24
REMARK SMILES IDX 13 25 24 26 25 27 26 28 27 29 28 30 29 31 90 32 30 33 89 34
REMARK SMILES IDX 31 35 32 36 33 37 83 38 34 39 88 40 82 41 84 42 35 43 87 44
REMARK SMILES IDX 81 45 80 46 36 48 68 49 48 50 67 51 49 52 52 53 66 54 85 55
REMARK SMILES IDX 50 56 51 57 65 59 86 60 53 61 37 62 38 63 46 64 39 65 41 66
REMARK SMILES IDX 47 67 40 68 42 69 43 70 44 71 45 72 69 73 70 74 78 75 71 76
REMARK SMILES IDX 73 77 79 78 72 79 74 80 75 81 76 82 77 83 54 84 55 85 63 86
REMARK SMILES IDX 56 87 58 88 64 89 57 90 59 91 60 92 61 93 62 94
REMARK H PARENT 5 14 16 21 84 47 52 58
REMARK Flexibility Score: inf
ROOT
ATOM      1  C   UNL A   1      36.379  19.659  24.961  1.00  0.00     0.202 C 
ENDROOT
BRANCH   1   2
ATOM      2  O   UNL A   1      35.014  19.957  24.702  1.00  0.00    -0.374 OA
BRANCH   2   3
ATOM      3  C   UNL A   1      34.108  18.859  24.549  1.00  0.00     0.202 C 
BRANCH   3   4
ATOM      4  C   UNL A   1      32.778  19.136  23.843  1.00  0.00     0.261 C 
BRANCH   4   5
ATOM      5  O   UNL A   1      32.134  20.311  24.382  1.00  0.00    -0.462 OA
BRANCH   5   6
ATOM      6  C   UNL A   1      32.119  21.407  23.575  1.00  0.00     0.328 C 
ATOM      7  O   UNL A   1      32.287  21.392  22.361  1.00  0.00    -0.250 OA
BRANCH   6   8
ATOM      8  C   UNL A   1      31.966  22.716  24.361  1.00  0.00     0.192 C 
BRANCH   8   9
ATOM      9  C   UNL A   1      33.405  23.157  24.727  1.00  0.00     0.037 C 
BRANCH   9  10
ATOM     10  C   UNL A   1      33.876  24.558  24.325  1.00  0.00    -0.001 C 
ATOM     11  C   UNL A   1      34.338  25.417  25.498  1.00  0.00     0.004 C 
ENDBRANCH   9  10
ENDBRANCH   8   9
BRANCH   8  12
ATOM     12  N   UNL A   1      31.041  22.667  25.493  1.00  0.00    -0.337 N 
ATOM     13  C   UNL A   1      30.754  23.634  26.427  1.00  0.00     0.268 C 
ATOM     14  H   UNL A   1      30.555  21.818  25.604  1.00  0.00     0.164 HD
ATOM     15  O   UNL A   1      30.519  23.250  27.570  1.00  0.00    -0.268 OA
BRANCH  13  16
ATOM     16  C   UNL A   1      30.624  25.027  26.048  1.00  0.00     0.105 A 
ATOM     17  C   UNL A   1      30.100  25.533  24.862  1.00  0.00     0.042 A 
ATOM     18  N   UNL A   1      31.127  26.119  26.712  1.00  0.00    -0.351 N 
ATOM     19  C   UNL A   1      30.460  26.907  24.748  1.00  0.00     0.000 A 
ATOM     20  C   UNL A   1      31.179  27.221  25.894  1.00  0.00     0.046 A 
ATOM     21  H   UNL A   1      31.415  26.112  27.654  1.00  0.00     0.167 HD
ATOM     22  C   UNL A   1      30.293  27.900  23.764  1.00  0.00     0.010 A 
ATOM     23  C   UNL A   1      31.806  28.457  26.088  1.00  0.00     0.026 A 
ATOM     24  C   UNL A   1      30.894  29.154  23.949  1.00  0.00     0.001 A 
ATOM     25  C   UNL A   1      31.656  29.418  25.086  1.00  0.00     0.002 A 
ENDBRANCH  13  16
ENDBRANCH   8  12
ENDBRANCH   6   8
ENDBRANCH   5   6
ENDBRANCH   4   5
ENDBRANCH   3   4
ENDBRANCH   2   3
ENDBRANCH   1   2
BRANCH   1  26
ATOM     26  C   UNL A   1      37.460  20.688  24.609  1.00  0.00     0.261 C 
BRANCH  26  27
ATOM     27  O   UNL A   1      37.829  21.513  25.704  1.00  0.00    -0.460 OA
BRANCH  27  28
ATOM     28  C   UNL A   1      39.113  21.313  26.092  1.00  0.00     0.338 C 
ATOM     29  O   UNL A   1      39.827  20.361  25.850  1.00  0.00    -0.246 OA
BRANCH  28  30
ATOM     30  C   UNL A   1      39.588  22.557  26.707  1.00  0.00     0.060 A 
ATOM     31  C   UNL A   1      38.898  23.728  26.379  1.00  0.00     0.016 A 
ATOM     32  C   UNL A   1      40.671  22.564  27.590  1.00  0.00     0.016 A 
ATOM     33  C   UNL A   1      39.335  24.938  26.888  1.00  0.00     0.010 A 
ATOM     34  C   UNL A   1      41.109  23.780  28.100  1.00  0.00     0.010 A 
ATOM     35  C   UNL A   1      40.470  24.968  27.709  1.00  0.00    -0.014 A 
BRANCH  35  36
ATOM     36  C   UNL A   1      41.090  26.270  28.002  1.00  0.00     0.031 A 
ATOM     37  C   UNL A   1      42.484  26.517  27.507  1.00  0.00     0.074 A 
ATOM     38  C   UNL A   1      40.393  27.207  28.664  1.00  0.00     0.049 A 
ATOM     39  N   UNL A   1      43.224  27.584  27.625  1.00  0.00    -0.248 NA
ATOM     40  C   UNL A   1      43.136  25.409  26.784  1.00  0.00     0.031 C 
ATOM     41  C   UNL A   1      39.032  27.040  29.175  1.00  0.00     0.029 A 
ATOM     42  N   UNL A   1      40.742  28.476  29.032  1.00  0.00    -0.354 N 
ATOM     43  C   UNL A   1      44.434  27.269  27.023  1.00  0.00     0.074 A 
ATOM     44  C   UNL A   1      44.341  25.906  26.553  1.00  0.00     0.031 C 
ATOM     45  C   UNL A   1      38.665  28.165  29.810  1.00  0.00     0.029 A 
ATOM     46  C   UNL A   1      39.776  29.113  29.773  1.00  0.00     0.049 A 
ATOM     47  H   UNL A   1      41.600  28.893  28.790  1.00  0.00     0.167 HD
ATOM     48  C   UNL A   1      45.522  28.058  26.866  1.00  0.00     0.034 A 
ATOM     49  C   UNL A   1      39.806  30.319  30.369  1.00  0.00     0.034 A 
ATOM     50  C   UNL A   1      45.582  29.413  27.336  1.00  0.00     0.049 A 
ATOM     51  C   UNL A   1      41.033  31.171  30.193  1.00  0.00     0.074 A 
ATOM     52  C   UNL A   1      46.610  30.328  27.200  1.00  0.00     0.029 A 
ATOM     53  N   UNL A   1      44.575  30.042  28.053  1.00  0.00    -0.354 N 
ATOM     54  N   UNL A   1      42.133  30.904  29.527  1.00  0.00    -0.248 NA
ATOM     55  C   UNL A   1      41.013  32.500  30.813  1.00  0.00     0.031 C 
ATOM     56  C   UNL A   1      46.239  31.496  27.871  1.00  0.00     0.029 A 
ATOM     57  C   UNL A   1      44.960  31.327  28.382  1.00  0.00     0.049 A 
ATOM     58  H   UNL A   1      43.712  29.633  28.291  1.00  0.00     0.167 HD
ATOM     59  C   UNL A   1      42.921  32.045  29.617  1.00  0.00     0.074 A 
ATOM     60  C   UNL A   1      42.161  33.011  30.387  1.00  0.00     0.031 C 
ATOM     61  C   UNL A   1      44.160  32.276  29.116  1.00  0.00     0.034 A 
BRANCH  48  62
ATOM     62  C   UNL A   1      46.720  27.472  26.167  1.00  0.00     0.023 A 
ATOM     63  C   UNL A   1      46.865  27.613  24.771  1.00  0.00     0.012 A 
ATOM     64  C   UNL A   1      47.721  26.807  26.901  1.00  0.00     0.148 A 
ATOM     65  C   UNL A   1      47.969  27.072  24.113  1.00  0.00     0.002 A 
ATOM     66  C   UNL A   1      48.843  26.315  26.246  1.00  0.00     0.091 A 
ATOM     67  F   UNL A   1      47.552  26.658  28.222  1.00  0.00    -0.205 F 
ATOM     68  C   UNL A   1      48.963  26.433  24.851  1.00  0.00     0.022 A 
BRANCH  66  69
ATOM     69  S   UNL A   1      50.214  25.548  27.115  1.00  0.00     0.127 S 
ATOM     70  O   UNL A   1      49.595  24.326  27.627  1.00  0.00    -0.237 OA
ATOM     71  O   UNL A   1      51.180  25.337  26.036  1.00  0.00    -0.237 OA
ATOM     72  O   UNL A   1      50.634  26.504  28.131  1.00  0.00    -0.744 OA
ENDBRANCH  66  69
ENDBRANCH  48  62
BRANCH  49  73
ATOM     73  C   UNL A   1      38.632  30.788  31.155  1.00  0.00     0.023 A 
ATOM     74  C   UNL A   1      38.614  30.629  32.553  1.00  0.00     0.012 A 
ATOM     75  C   UNL A   1      37.547  31.428  30.522  1.00  0.00     0.148 A 
ATOM     76  C   UNL A   1      37.524  31.071  33.305  1.00  0.00     0.002 A 
ATOM     77  C   UNL A   1      36.493  31.918  31.281  1.00  0.00     0.091 A 
ATOM     78  F   UNL A   1      37.580  31.562  29.188  1.00  0.00    -0.205 F 
ATOM     79  C   UNL A   1      36.469  31.725  32.671  1.00  0.00     0.022 A 
BRANCH  77  80
ATOM     80  S   UNL A   1      35.162  32.889  30.566  1.00  0.00     0.127 S 
ATOM     81  O   UNL A   1      35.882  34.049  30.049  1.00  0.00    -0.237 OA
ATOM     82  O   UNL A   1      34.641  31.979  29.545  1.00  0.00    -0.237 OA
ATOM     83  O   UNL A   1      34.237  33.155  31.660  1.00  0.00    -0.744 OA
ENDBRANCH  77  80
ENDBRANCH  49  73
BRANCH  61  84
ATOM     84  C   UNL A   1      44.753  33.640  29.342  1.00  0.00     0.023 A 
ATOM     85  C   UNL A   1      45.489  33.907  30.513  1.00  0.00     0.012 A 
ATOM     86  C   UNL A   1      44.644  34.632  28.348  1.00  0.00     0.148 A 
ATOM     87  C   UNL A   1      46.077  35.156  30.706  1.00  0.00     0.002 A 
ATOM     88  C   UNL A   1      45.280  35.852  28.522  1.00  0.00     0.091 A 
ATOM     89  F   UNL A   1      43.925  34.359  27.249  1.00  0.00    -0.205 F 
ATOM     90  C   UNL A   1      45.984  36.123  29.707  1.00  0.00     0.022 A 
BRANCH  88  91
ATOM     91  S   UNL A   1      45.305  37.114  27.245  1.00  0.00     0.127 S 
ATOM     92  O   UNL A   1      46.034  38.194  27.909  1.00  0.00    -0.237 OA
ATOM     93  O   UNL A   1      46.043  36.450  26.170  1.00  0.00    -0.237 OA
ATOM     94  O   UNL A   1      43.912  37.403  26.935  1.00  0.00    -0.744 OA
ENDBRANCH  88  91
ENDBRANCH  61  84
ENDBRANCH  35  36
ENDBRANCH  28  30
ENDBRANCH  27  28
ENDBRANCH  26  27
ENDBRANCH   1  26
TORSDOF 21
ENDMDL
MODEL 2
REMARK VINA RESULT:     -11.2      1.499      1.972
REMARK SMILES CCC[C@H](NC(=O)c1cc2ccccc2[nH]1)C(=O)OCCOCCOC(=O)c1ccc(-c2c3nc(c(-c4cccc(S(=O)(=O)[O-])c4F)c4ccc([nH]4)c(-c4cccc(S(=O)(=O)[O-])c4F)c4nc(c(-c5cccc(S(=O)(=O)[O-])c5F)c5ccc2[nH]5)C=C4)C=C3)cc1
REMARK SMILES IDX 23 1 22 2 21 3 20 4 19 5 17 6 18 7 4 8 3 9 2 10 1 11 5 12
REMARK SMILES IDX 6 13 7 15 8 16 9 17 16 18 10 19 15 20 11 22 14 23 12 24
REMARK SMILES IDX 13 25 24 26 25 27 26 28 27 29 28 30 29 31 90 32 30 33 89 34
REMARK SMILES IDX 31 35 32 36 33 37 83 38 34 39 88 40 82 41 84 42 35 43 87 44
REMARK SMILES IDX 81 45 80 46 36 48 68 49 48 50 67 51 49 52 52 53 66 54 85 55
REMARK SMILES IDX 50 56 51 57 65 59 86 60 53 61 37 62 38 63 46 64 39 65 41 66
REMARK SMILES IDX 47 67 40 68 42 69 43 70 44 71 45 72 69 73 70 74 78 75 71 76
REMARK SMILES IDX 73 77 79 78 72 79 74 80 75 81 76 82 77 83 54 84 55 85 63 86
REMARK SMILES IDX 56 87 58 88 64 89 57 90 59 91 60 92 61 93 62 94
REMARK H PARENT 5 14 16 21 84 47 52 58
REMARK Flexibility Score: inf
ROOT
ATOM      1  C   UNL A   1      36.138  19.984  25.000  1.00  0.00     0.202 C 
ENDROOT
BRANCH   1   2
ATOM      2  O   UNL A   1      34.914  20.676  24.788  1.00  0.00    -0.374 OA
BRANCH   2   3
ATOM      3  C   UNL A   1      33.727  20.127  25.370  1.00  0.00     0.202 C 
BRANCH   3   4
ATOM      4  C   UNL A   1      32.439  20.203  24.547  1.00  0.00     0.261 C 
BRANCH   4   5
ATOM      5  O   UNL A   1      31.879  21.535  24.573  1.00  0.00    -0.462 OA
BRANCH   5   6
ATOM      6  C   UNL A   1      31.997  22.255  23.424  1.00  0.00     0.328 C 
ATOM      7  O   UNL A   1      32.515  21.853  22.389  1.00  0.00    -0.250 OA
BRANCH   6   8
ATOM      8  C   UNL A   1      31.494  23.696  23.577  1.00  0.00     0.192 C 
BRANCH   8   9
ATOM      9  C   UNL A   1      32.755  24.593  23.488  1.00  0.00     0.037 C 
BRANCH   9  10
ATOM     10  C   UNL A   1      33.867  24.414  24.525  1.00  0.00    -0.001 C 
ATOM     11  C   UNL A   1      33.957  25.550  25.540  1.00  0.00     0.004 C 
ENDBRANCH   9  10
ENDBRANCH   8   9
BRANCH   8  12
ATOM     12  N   UNL A   1      30.652  23.950  24.746  1.00  0.00    -0.337 N 
ATOM     13  C   UNL A   1      30.238  25.147  25.279  1.00  0.00     0.268 C 
ATOM     14  H   UNL A   1      30.338  23.147  25.221  1.00  0.00     0.164 HD
ATOM     15  O   UNL A   1      30.135  25.205  26.502  1.00  0.00    -0.268 OA
BRANCH  13  16
ATOM     16  C   UNL A   1      29.833  26.248  24.426  1.00  0.00     0.105 A 
ATOM     17  C   UNL A   1      30.588  27.361  24.071  1.00  0.00     0.042 A 
ATOM     18  N   UNL A   1      28.578  26.489  23.923  1.00  0.00    -0.351 N 
ATOM     19  C   UNL A   1      29.723  28.345  23.511  1.00  0.00     0.000 A 
ATOM     20  C   UNL A   1      28.448  27.793  23.510  1.00  0.00     0.046 A 
ATOM     21  H   UNL A   1      27.863  25.815  23.866  1.00  0.00     0.167 HD
ATOM     22  C   UNL A   1      29.884  29.668  23.055  1.00  0.00     0.010 A 
ATOM     23  C   UNL A   1      27.305  28.511  23.143  1.00  0.00     0.026 A 
ATOM     24  C   UNL A   1      28.754  30.398  22.660  1.00  0.00     0.001 A 
ATOM     25  C   UNL A   1      27.482  29.831  22.723  1.00  0.00     0.002 A 
ENDBRANCH  13  16
ENDBRANCH   8  12
ENDBRANCH   6   8
ENDBRANCH   5   6
ENDBRANCH   4   5
ENDBRANCH   3   4
ENDBRANCH   2   3
ENDBRANCH   1   2
BRANCH   1  26
ATOM     26  C   UNL A   1      37.468  20.694  24.721  1.00  0.00     0.261 C 
BRANCH  26  27
ATOM     27  O   UNL A   1      37.867  21.571  25.763  1.00  0.00    -0.460 OA
BRANCH  27  28
ATOM     28  C   UNL A   1      39.159  21.383  26.132  1.00  0.00     0.338 C 
ATOM     29  O   UNL A   1      39.880  20.441  25.870  1.00  0.00    -0.246 OA
BRANCH  28  30
ATOM     30  C   UNL A   1      39.628  22.625  26.753  1.00  0.00     0.060 A 
ATOM     31  C   UNL A   1      38.927  23.793  26.437  1.00  0.00     0.016 A 
ATOM     32  C   UNL A   1      40.715  22.635  27.630  1.00  0.00     0.016 A 
ATOM     33  C   UNL A   1      39.358  25.003  26.953  1.00  0.00     0.010 A 
ATOM     34  C   UNL A   1      41.147  23.850  28.146  1.00  0.00     0.010 A 
ATOM     35  C   UNL A   1      40.497  25.036  27.767  1.00  0.00    -0.014 A 
BRANCH  35  36
ATOM     36  C   UNL A   1      41.108  26.341  28.067  1.00  0.00     0.031 A 
ATOM     37  C   UNL A   1      42.512  26.587  27.599  1.00  0.00     0.074 A 
ATOM     38  C   UNL A   1      40.396  27.280  28.709  1.00  0.00     0.049 A 
ATOM     39  N   UNL A   1      43.247  27.656  27.727  1.00  0.00    -0.248 NA
ATOM     40  C   UNL A   1      43.180  25.476  26.895  1.00  0.00     0.031 C 
ATOM     41  C   UNL A   1      39.025  27.113  29.192  1.00  0.00     0.029 A 
ATOM     42  N   UNL A   1      40.735  28.552  29.077  1.00  0.00    -0.354 N 
ATOM     43  C   UNL A   1      44.470  27.340  27.151  1.00  0.00     0.074 A 
ATOM     44  C   UNL A   1      44.389  25.975  26.687  1.00  0.00     0.031 C 
ATOM     45  C   UNL A   1      38.644  28.241  29.814  1.00  0.00     0.029 A 
ATOM     46  C   UNL A   1      39.753  29.190  29.795  1.00  0.00     0.049 A 
ATOM     47  H   UNL A   1      41.598  28.969  28.851  1.00  0.00     0.167 HD
ATOM     48  C   UNL A   1      45.560  28.130  27.013  1.00  0.00     0.034 A 
ATOM     49  C   UNL A   1      39.769  30.400  30.385  1.00  0.00     0.034 A 
ATOM     50  C   UNL A   1      45.608  29.488  27.477  1.00  0.00     0.049 A 
ATOM     51  C   UNL A   1      40.998  31.253  30.229  1.00  0.00     0.074 A 
ATOM     52  C   UNL A   1      46.637  30.403  27.357  1.00  0.00     0.029 A 
ATOM     53  N   UNL A   1      44.585  30.119  28.169  1.00  0.00    -0.354 N 
ATOM     54  N   UNL A   1      42.111  30.984  29.588  1.00  0.00    -0.248 NA
ATOM     55  C   UNL A   1      40.963  32.585  30.842  1.00  0.00     0.031 C 
ATOM     56  C   UNL A   1      46.250  31.574  28.015  1.00  0.00     0.029 A 
ATOM     57  C   UNL A   1      44.961  31.407  28.500  1.00  0.00     0.049 A 
ATOM     58  H   UNL A   1      43.718  29.709  28.392  1.00  0.00     0.167 HD
ATOM     59  C   UNL A   1      42.896  32.127  29.688  1.00  0.00     0.074 A 
ATOM     60  C   UNL A   1      42.119  33.096  30.438  1.00  0.00     0.031 C 
ATOM     61  C   UNL A   1      44.144  32.358  29.212  1.00  0.00     0.034 A 
BRANCH  48  62
ATOM     62  C   UNL A   1      46.773  27.542  26.342  1.00  0.00     0.023 A 
ATOM     63  C   UNL A   1      47.625  26.672  27.055  1.00  0.00     0.012 A 
ATOM     64  C   UNL A   1      47.052  27.828  24.992  1.00  0.00     0.148 A 
ATOM     65  C   UNL A   1      48.752  26.124  26.444  1.00  0.00     0.002 A 
ATOM     66  C   UNL A   1      48.149  27.238  24.376  1.00  0.00     0.091 A 
ATOM     67  F   UNL A   1      46.248  28.679  24.340  1.00  0.00    -0.205 F 
ATOM     68  C   UNL A   1      49.009  26.398  25.104  1.00  0.00     0.022 A 
BRANCH  66  69
ATOM     69  S   UNL A   1      48.519  27.464  22.633  1.00  0.00     0.127 S 
ATOM     70  O   UNL A   1      47.360  28.233  22.181  1.00  0.00    -0.237 OA
ATOM     71  O   UNL A   1      49.771  28.220  22.683  1.00  0.00    -0.237 OA
ATOM     72  O   UNL A   1      48.636  26.126  22.069  1.00  0.00    -0.744 OA
ENDBRANCH  66  69
ENDBRANCH  48  62
BRANCH  49  73
ATOM     73  C   UNL A   1      38.578  30.871  31.144  1.00  0.00     0.023 A 
ATOM     74  C   UNL A   1      38.542  30.741  32.545  1.00  0.00     0.012 A 
ATOM     75  C   UNL A   1      37.495  31.484  30.482  1.00  0.00     0.148 A 
ATOM     76  C   UNL A   1      37.435  31.185  33.271  1.00  0.00     0.002 A 
ATOM     77  C   UNL A   1      36.424  31.977  31.215  1.00  0.00     0.091 A 
ATOM     78  F   UNL A   1      37.546  31.590  29.146  1.00  0.00    -0.205 F 
ATOM     79  C   UNL A   1      36.383  31.812  32.608  1.00  0.00     0.022 A 
BRANCH  77  80
ATOM     80  S   UNL A   1      35.092  32.916  30.461  1.00  0.00     0.127 S 
ATOM     81  O   UNL A   1      34.224  33.177  31.606  1.00  0.00    -0.237 OA
ATOM     82  O   UNL A   1      35.804  34.087  29.947  1.00  0.00    -0.237 OA
ATOM     83  O   UNL A   1      34.535  32.053  29.429  1.00  0.00    -0.744 OA
ENDBRANCH  77  80
ENDBRANCH  49  73
BRANCH  61  84
ATOM     84  C   UNL A   1      44.730  33.724  29.443  1.00  0.00     0.023 A 
ATOM     85  C   UNL A   1      45.431  34.002  30.634  1.00  0.00     0.012 A 
ATOM     86  C   UNL A   1      44.652  34.706  28.437  1.00  0.00     0.148 A 
ATOM     87  C   UNL A   1      46.013  35.253  30.832  1.00  0.00     0.002 A 
ATOM     88  C   UNL A   1      45.283  35.928  28.619  1.00  0.00     0.091 A 
ATOM     89  F   UNL A   1      43.967  34.424  27.320  1.00  0.00    -0.205 F 
ATOM     90  C   UNL A   1      45.950  36.210  29.822  1.00  0.00     0.022 A 
BRANCH  88  91
ATOM     91  S   UNL A   1      45.346  37.179  27.331  1.00  0.00     0.127 S 
ATOM     92  O   UNL A   1      46.081  36.481  26.277  1.00  0.00    -0.237 OA
ATOM     93  O   UNL A   1      43.927  37.397  27.045  1.00  0.00    -0.237 OA
ATOM     94  O   UNL A   1      46.029  38.325  27.913  1.00  0.00    -0.744 OA
ENDBRANCH  88  91
ENDBRANCH  61  84
ENDBRANCH  35  36
ENDBRANCH  28  30
ENDBRANCH  27  28
ENDBRANCH  26  27
ENDBRANCH   1  26
TORSDOF 21
ENDMDL
MODEL 3
REMARK VINA RESULT:     -11.1      1.793      7.837
REMARK SMILES CCC[C@H](NC(=O)c1cc2ccccc2[nH]1)C(=O)OCCOCCOC(=O)c1ccc(-c2c3nc(c(-c4cccc(S(=O)(=O)[O-])c4F)c4ccc([nH]4)c(-c4cccc(S(=O)(=O)[O-])c4F)c4nc(c(-c5cccc(S(=O)(=O)[O-])c5F)c5ccc2[nH]5)C=C4)C=C3)cc1
REMARK SMILES IDX 23 1 22 2 21 3 20 4 19 5 17 6 18 7 4 8 3 9 2 10 1 11 5 12
REMARK SMILES IDX 6 13 7 15 8 16 9 17 16 18 10 19 15 20 11 22 14 23 12 24
REMARK SMILES IDX 13 25 24 26 25 27 26 28 27 29 28 30 29 31 90 32 30 33 89 34
REMARK SMILES IDX 31 35 32 36 33 37 83 38 34 39 88 40 82 41 84 42 35 43 87 44
REMARK SMILES IDX 81 45 80 46 36 48 68 49 48 50 67 51 49 52 52 53 66 54 85 55
REMARK SMILES IDX 50 56 51 57 65 59 86 60 53 61 37 62 38 63 46 64 39 65 41 66
REMARK SMILES IDX 47 67 40 68 42 69 43 70 44 71 45 72 69 73 70 74 78 75 71 76
REMARK SMILES IDX 73 77 79 78 72 79 74 80 75 81 76 82 77 83 54 84 55 85 63 86
REMARK SMILES IDX 56 87 58 88 64 89 57 90 59 91 60 92 61 93 62 94
REMARK H PARENT 5 14 16 21 84 47 52 58
REMARK Flexibility Score: inf
ROOT
ATOM      1  C   UNL A   1      36.232  19.737  24.994  1.00  0.00     0.202 C 
ENDROOT
BRANCH   1   2
ATOM      2  O   UNL A   1      34.974  20.400  25.007  1.00  0.00    -0.374 OA
BRANCH   2   3
ATOM      3  C   UNL A   1      33.794  19.591  25.042  1.00  0.00     0.202 C 
BRANCH   3   4
ATOM      4  C   UNL A   1      32.563  20.108  24.293  1.00  0.00     0.261 C 
BRANCH   4   5
ATOM      5  O   UNL A   1      32.587  21.548  24.179  1.00  0.00    -0.462 OA
BRANCH   5   6
ATOM      6  C   UNL A   1      32.222  22.058  22.971  1.00  0.00     0.328 C 
ATOM      7  O   UNL A   1      31.908  21.392  21.990  1.00  0.00    -0.250 OA
BRANCH   6   8
ATOM      8  C   UNL A   1      32.338  23.586  22.915  1.00  0.00     0.192 C 
BRANCH   8   9
ATOM      9  C   UNL A   1      30.909  24.125  23.181  1.00  0.00     0.037 C 
BRANCH   9  10
ATOM     10  C   UNL A   1      30.627  24.864  24.492  1.00  0.00    -0.001 C 
ATOM     11  C   UNL A   1      29.551  25.940  24.379  1.00  0.00     0.004 C 
ENDBRANCH   9  10
ENDBRANCH   8   9
BRANCH   8  12
ATOM     12  N   UNL A   1      32.976  24.127  21.716  1.00  0.00    -0.337 N 
ATOM     13  C   UNL A   1      32.885  25.387  21.173  1.00  0.00     0.268 C 
ATOM     14  H   UNL A   1      33.553  23.499  21.225  1.00  0.00     0.164 HD
ATOM     15  O   UNL A   1      32.912  25.466  19.946  1.00  0.00    -0.268 OA
BRANCH  13  16
ATOM     16  C   UNL A   1      32.874  26.568  22.014  1.00  0.00     0.105 A 
ATOM     17  C   UNL A   1      33.768  26.885  23.032  1.00  0.00     0.042 A 
ATOM     18  N   UNL A   1      31.898  27.532  22.078  1.00  0.00    -0.351 N 
ATOM     19  C   UNL A   1      33.217  27.940  23.815  1.00  0.00     0.000 A 
ATOM     20  C   UNL A   1      31.998  28.266  23.235  1.00  0.00     0.046 A 
ATOM     21  H   UNL A   1      31.214  27.677  21.385  1.00  0.00     0.167 HD
ATOM     22  C   UNL A   1      33.605  28.614  24.990  1.00  0.00     0.010 A 
ATOM     23  C   UNL A   1      31.104  29.183  23.798  1.00  0.00     0.026 A 
ATOM     24  C   UNL A   1      32.734  29.554  25.559  1.00  0.00     0.001 A 
ATOM     25  C   UNL A   1      31.493  29.818  24.980  1.00  0.00     0.002 A 
ENDBRANCH  13  16
ENDBRANCH   8  12
ENDBRANCH   6   8
ENDBRANCH   5   6
ENDBRANCH   4   5
ENDBRANCH   3   4
ENDBRANCH   2   3
ENDBRANCH   1   2
BRANCH   1  26
ATOM     26  C   UNL A   1      37.502  20.529  24.660  1.00  0.00     0.261 C 
BRANCH  26  27
ATOM     27  O   UNL A   1      37.903  21.411  25.697  1.00  0.00    -0.460 OA
BRANCH  27  28
ATOM     28  C   UNL A   1      39.161  21.155  26.136  1.00  0.00     0.338 C 
ATOM     29  O   UNL A   1      39.821  20.149  25.968  1.00  0.00    -0.246 OA
BRANCH  28  30
ATOM     30  C   UNL A   1      39.696  22.400  26.696  1.00  0.00     0.060 A 
ATOM     31  C   UNL A   1      39.090  23.591  26.284  1.00  0.00     0.016 A 
ATOM     32  C   UNL A   1      40.754  22.392  27.609  1.00  0.00     0.016 A 
ATOM     33  C   UNL A   1      39.588  24.799  26.739  1.00  0.00     0.010 A 
ATOM     34  C   UNL A   1      41.253  23.605  28.065  1.00  0.00     0.010 A 
ATOM     35  C   UNL A   1      40.700  24.806  27.591  1.00  0.00    -0.014 A 
BRANCH  35  36
ATOM     36  C   UNL A   1      41.392  26.083  27.831  1.00  0.00     0.031 A 
ATOM     37  C   UNL A   1      40.644  27.166  28.550  1.00  0.00     0.074 A 
ATOM     38  C   UNL A   1      42.667  26.234  27.442  1.00  0.00     0.049 A 
ATOM     39  N   UNL A   1      41.048  28.359  28.890  1.00  0.00    -0.248 NA
ATOM     40  C   UNL A   1      39.251  26.869  28.933  1.00  0.00     0.031 C 
ATOM     41  C   UNL A   1      43.459  25.224  26.740  1.00  0.00     0.029 A 
ATOM     42  N   UNL A   1      43.511  27.302  27.569  1.00  0.00    -0.354 N 
ATOM     43  C   UNL A   1      39.956  28.964  29.497  1.00  0.00     0.074 A 
ATOM     44  C   UNL A   1      38.865  28.018  29.466  1.00  0.00     0.031 C 
ATOM     45  C   UNL A   1      44.676  25.729  26.480  1.00  0.00     0.029 A 
ATOM     46  C   UNL A   1      44.732  27.103  26.971  1.00  0.00     0.049 A 
ATOM     47  H   UNL A   1      43.269  28.130  28.041  1.00  0.00     0.167 HD
ATOM     48  C   UNL A   1      39.879  30.199  30.044  1.00  0.00     0.034 A 
ATOM     49  C   UNL A   1      45.765  27.954  26.824  1.00  0.00     0.034 A 
ATOM     50  C   UNL A   1      40.984  31.116  30.068  1.00  0.00     0.049 A 
ATOM     51  C   UNL A   1      45.650  29.327  27.428  1.00  0.00     0.074 A 
ATOM     52  C   UNL A   1      41.045  32.377  30.631  1.00  0.00     0.029 A 
ATOM     53  N   UNL A   1      42.220  30.873  29.486  1.00  0.00    -0.354 N 
ATOM     54  N   UNL A   1      44.649  29.851  28.096  1.00  0.00    -0.248 NA
ATOM     55  C   UNL A   1      46.813  30.211  27.293  1.00  0.00     0.031 C 
ATOM     56  C   UNL A   1      42.305  32.913  30.351  1.00  0.00     0.029 A 
ATOM     57  C   UNL A   1      43.046  31.967  29.658  1.00  0.00     0.049 A 
ATOM     58  H   UNL A   1      42.470  30.044  29.018  1.00  0.00     0.167 HD
ATOM     59  C   UNL A   1      45.074  31.113  28.494  1.00  0.00     0.074 A 
ATOM     60  C   UNL A   1      46.432  31.263  28.005  1.00  0.00     0.031 C 
ATOM     61  C   UNL A   1      44.407  32.065  29.193  1.00  0.00     0.034 A 
BRANCH  48  62
ATOM     62  C   UNL A   1      38.566  30.620  30.648  1.00  0.00     0.023 A 
ATOM     63  C   UNL A   1      38.299  30.368  32.010  1.00  0.00     0.012 A 
ATOM     64  C   UNL A   1      37.606  31.296  29.871  1.00  0.00     0.148 A 
ATOM     65  C   UNL A   1      37.085  30.751  32.579  1.00  0.00     0.002 A 
ATOM     66  C   UNL A   1      36.419  31.720  30.457  1.00  0.00     0.091 A 
ATOM     67  F   UNL A   1      37.864  31.501  28.572  1.00  0.00    -0.205 F 
ATOM     68  C   UNL A   1      36.151  31.436  31.807  1.00  0.00     0.022 A 
BRANCH  66  69
ATOM     69  S   UNL A   1      35.187  32.678  29.569  1.00  0.00     0.127 S 
ATOM     70  O   UNL A   1      35.984  33.801  29.077  1.00  0.00    -0.237 OA
ATOM     71  O   UNL A   1      34.756  31.737  28.536  1.00  0.00    -0.237 OA
ATOM     72  O   UNL A   1      34.163  33.023  30.546  1.00  0.00    -0.744 OA
ENDBRANCH  66  69
ENDBRANCH  48  62
BRANCH  49  73
ATOM     73  C   UNL A   1      46.991  27.515  26.102  1.00  0.00     0.023 A 
ATOM     74  C   UNL A   1      47.973  26.766  26.777  1.00  0.00     0.012 A 
ATOM     75  C   UNL A   1      47.167  27.806  24.735  1.00  0.00     0.148 A 
ATOM     76  C   UNL A   1      49.124  26.341  26.111  1.00  0.00     0.002 A 
ATOM     77  C   UNL A   1      48.286  27.330  24.063  1.00  0.00     0.091 A 
ATOM     78  F   UNL A   1      46.224  28.527  24.113  1.00  0.00    -0.205 F 
ATOM     79  C   UNL A   1      49.275  26.613  24.753  1.00  0.00     0.022 A 
BRANCH  77  80
ATOM     80  S   UNL A   1      48.496  27.516  22.289  1.00  0.00     0.127 S 
ATOM     81  O   UNL A   1      48.595  26.126  21.852  1.00  0.00    -0.237 OA
ATOM     82  O   UNL A   1      47.256  28.196  21.910  1.00  0.00    -0.237 OA
ATOM     83  O   UNL A   1      49.698  28.320  22.117  1.00  0.00    -0.744 OA
ENDBRANCH  77  80
ENDBRANCH  49  73
BRANCH  61  84
ATOM     84  C   UNL A   1      45.150  33.333  29.514  1.00  0.00     0.023 A 
ATOM     85  C   UNL A   1      45.941  33.415  30.677  1.00  0.00     0.012 A 
ATOM     86  C   UNL A   1      45.122  34.416  28.614  1.00  0.00     0.148 A 
ATOM     87  C   UNL A   1      46.665  34.573  30.956  1.00  0.00     0.002 A 
ATOM     88  C   UNL A   1      45.891  35.542  28.870  1.00  0.00     0.091 A 
ATOM     89  F   UNL A   1      44.350  34.320  27.522  1.00  0.00    -0.205 F 
ATOM     90  C   UNL A   1      46.650  35.630  30.048  1.00  0.00     0.022 A 
BRANCH  88  91
ATOM     91  S   UNL A   1      46.018  36.904  27.707  1.00  0.00     0.127 S 
ATOM     92  O   UNL A   1      44.777  37.633  27.968  1.00  0.00    -0.237 OA
ATOM     93  O   UNL A   1      47.232  37.583  28.160  1.00  0.00    -0.237 OA
ATOM     94  O   UNL A   1      46.119  36.299  26.386  1.00  0.00    -0.744 OA
ENDBRANCH  88  91
ENDBRANCH  61  84
ENDBRANCH  35  36
ENDBRANCH  28  30
ENDBRANCH  27  28
ENDBRANCH  26  27
ENDBRANCH   1  26
TORSDOF 21
ENDMDL
