MODEL 1
REMARK VINA RESULT:     -12.2      0.000      0.000
REMARK SMILES O=C(OCCOCCOC(=O)[C@@H]1CCCN1S(=O)(=O)c1ccc2c3c(cccc13)C(=O)N2)c1ccc(-c2c3nc(c(-c4cccc(S(=O)(=O)[O-])c4F)c4ccc([nH]4)c(-c4cccc(S(=O)(=O)[O-])c4F)c4nc(c(-c5cccc(S(=O)(=O)[O-])c5F)c5ccc2[nH]5)C=C4)C=C3)cc1
REMARK SMILES IDX 5 1 4 2 3 3 2 4 1 5 33 6 34 7 95 8 35 9 94 10 36 11 37 12
REMARK SMILES IDX 38 13 88 14 39 15 93 16 87 17 89 18 40 19 92 20 86 21 85 22
REMARK SMILES IDX 41 24 73 25 53 26 72 27 54 28 57 29 71 30 90 31 55 32 56 33
REMARK SMILES IDX 70 35 91 36 58 37 42 38 43 39 51 40 44 41 46 42 52 43 45 44
REMARK SMILES IDX 47 45 48 46 49 47 50 48 74 49 75 50 83 51 76 52 78 53 84 54
REMARK SMILES IDX 77 55 79 56 80 57 81 58 82 59 59 60 60 61 68 62 61 63 63 64
REMARK SMILES IDX 69 65 62 66 64 67 65 68 66 69 67 70 6 71 7 72 8 73 9 74
REMARK SMILES IDX 10 75 11 76 12 77 13 78 16 79 14 80 15 81 17 82 18 83 19 84
REMARK SMILES IDX 20 85 21 86 29 87 22 88 24 89 28 90 23 91 25 92 27 93 32 94
REMARK SMILES IDX 26 95 30 96 31 98
REMARK H PARENT 89 23 57 34 32 97
REMARK Flexibility Score: inf
ROOT
ATOM      1  C   UNL A   1      32.893  29.518  25.887  1.00  0.00     0.202 C 
ENDROOT
BRANCH   1   2
ATOM      2  C   UNL A   1      32.564  30.947  26.369  1.00  0.00     0.261 C 
BRANCH   2   3
ATOM      3  O   UNL A   1      32.822  31.166  27.767  1.00  0.00    -0.460 OA
BRANCH   3   4
ATOM      4  C   UNL A   1      33.638  32.181  28.144  1.00  0.00     0.338 C 
ATOM      5  O   UNL A   1      33.324  33.359  28.099  1.00  0.00    -0.246 OA
BRANCH   4   6
ATOM      6  C   UNL A   1      35.037  31.731  28.282  1.00  0.00     0.060 A 
ATOM      7  C   UNL A   1      35.317  30.432  28.690  1.00  0.00     0.016 A 
ATOM      8  C   UNL A   1      36.082  32.626  28.040  1.00  0.00     0.016 A 
ATOM      9  C   UNL A   1      36.615  29.970  28.712  1.00  0.00     0.010 A 
ATOM     10  C   UNL A   1      37.408  32.194  28.121  1.00  0.00     0.010 A 
ATOM     11  C   UNL A   1      37.665  30.868  28.489  1.00  0.00    -0.014 A 
BRANCH  11  12
ATOM     12  C   UNL A   1      38.927  30.472  29.135  1.00  0.00     0.031 A 
ATOM     13  C   UNL A   1      39.083  30.923  30.563  1.00  0.00     0.074 A 
ATOM     14  C   UNL A   1      39.723  29.548  28.575  1.00  0.00     0.049 A 
ATOM     15  N   UNL A   1      39.911  30.501  31.475  1.00  0.00    -0.248 NA
ATOM     16  C   UNL A   1      38.125  31.941  31.049  1.00  0.00     0.031 C 
ATOM     17  C   UNL A   1      39.567  28.993  27.229  1.00  0.00     0.029 A 
ATOM     18  N   UNL A   1      40.792  28.872  29.096  1.00  0.00    -0.354 N 
ATOM     19  C   UNL A   1      39.565  31.190  32.632  1.00  0.00     0.074 A 
ATOM     20  C   UNL A   1      38.462  32.061  32.320  1.00  0.00     0.031 C 
ATOM     21  C   UNL A   1      40.504  28.045  27.036  1.00  0.00     0.029 A 
ATOM     22  C   UNL A   1      41.317  27.930  28.244  1.00  0.00     0.049 A 
ATOM     23  H   UNL A   1      41.151  29.045  29.996  1.00  0.00     0.167 HD
ATOM     24  C   UNL A   1      40.106  31.083  33.862  1.00  0.00     0.034 A 
ATOM     25  C   UNL A   1      42.332  27.065  28.444  1.00  0.00     0.034 A 
ATOM     26  C   UNL A   1      41.201  30.215  34.154  1.00  0.00     0.049 A 
ATOM     27  C   UNL A   1      42.988  27.045  29.801  1.00  0.00     0.074 A 
ATOM     28  C   UNL A   1      41.887  30.067  35.341  1.00  0.00     0.029 A 
ATOM     29  N   UNL A   1      41.771  29.352  33.232  1.00  0.00    -0.354 N 
ATOM     30  N   UNL A   1      42.646  27.692  30.890  1.00  0.00    -0.248 NA
ATOM     31  C   UNL A   1      44.154  26.166  29.965  1.00  0.00     0.031 C 
ATOM     32  C   UNL A   1      42.882  29.110  35.134  1.00  0.00     0.029 A 
ATOM     33  C   UNL A   1      42.803  28.658  33.824  1.00  0.00     0.049 A 
ATOM     34  H   UNL A   1      41.482  29.250  32.297  1.00  0.00     0.167 HD
ATOM     35  C   UNL A   1      43.536  27.283  31.874  1.00  0.00     0.074 A 
ATOM     36  C   UNL A   1      44.427  26.322  31.255  1.00  0.00     0.031 C 
ATOM     37  C   UNL A   1      43.624  27.673  33.170  1.00  0.00     0.034 A 
BRANCH  24  38
ATOM     38  C   UNL A   1      39.508  31.915  34.954  1.00  0.00     0.023 A 
ATOM     39  C   UNL A   1      38.439  31.396  35.710  1.00  0.00     0.012 A 
ATOM     40  C   UNL A   1      40.002  33.202  35.232  1.00  0.00     0.148 A 
ATOM     41  C   UNL A   1      37.862  32.153  36.728  1.00  0.00     0.002 A 
ATOM     42  C   UNL A   1      39.439  33.941  36.265  1.00  0.00     0.091 A 
ATOM     43  F   UNL A   1      41.003  33.677  34.477  1.00  0.00    -0.205 F 
ATOM     44  C   UNL A   1      38.366  33.422  37.009  1.00  0.00     0.022 A 
BRANCH  42  45
ATOM     45  S   UNL A   1      40.029  35.572  36.725  1.00  0.00     0.127 S 
ATOM     46  O   UNL A   1      39.303  35.811  37.972  1.00  0.00    -0.237 OA
ATOM     47  O   UNL A   1      41.463  35.338  36.887  1.00  0.00    -0.237 OA
ATOM     48  O   UNL A   1      39.664  36.458  35.628  1.00  0.00    -0.744 OA
ENDBRANCH  42  45
ENDBRANCH  24  38
BRANCH  25  49
ATOM     49  C   UNL A   1      42.751  26.126  27.367  1.00  0.00     0.023 A 
ATOM     50  C   UNL A   1      43.649  26.560  26.373  1.00  0.00     0.012 A 
ATOM     51  C   UNL A   1      42.274  24.801  27.331  1.00  0.00     0.148 A 
ATOM     52  C   UNL A   1      44.050  25.696  25.351  1.00  0.00     0.002 A 
ATOM     53  C   UNL A   1      42.703  23.936  26.331  1.00  0.00     0.091 A 
ATOM     54  F   UNL A   1      41.411  24.413  28.281  1.00  0.00    -0.205 F 
ATOM     55  C   UNL A   1      43.584  24.383  25.334  1.00  0.00     0.022 A 
BRANCH  53  56
ATOM     56  S   UNL A   1      42.221  22.205  26.271  1.00  0.00     0.127 S 
ATOM     57  O   UNL A   1      42.643  21.732  27.588  1.00  0.00    -0.237 OA
ATOM     58  O   UNL A   1      40.774  22.305  26.086  1.00  0.00    -0.237 OA
ATOM     59  O   UNL A   1      42.937  21.635  25.139  1.00  0.00    -0.744 OA
ENDBRANCH  53  56
ENDBRANCH  25  49
BRANCH  37  60
ATOM     60  C   UNL A   1      44.699  27.061  34.017  1.00  0.00     0.023 A 
ATOM     61  C   UNL A   1      45.941  27.712  34.123  1.00  0.00     0.012 A 
ATOM     62  C   UNL A   1      44.403  25.963  34.848  1.00  0.00     0.148 A 
ATOM     63  C   UNL A   1      46.880  27.278  35.054  1.00  0.00     0.002 A 
ATOM     64  C   UNL A   1      45.329  25.562  35.800  1.00  0.00     0.091 A 
ATOM     65  F   UNL A   1      43.210  25.366  34.716  1.00  0.00    -0.205 F 
ATOM     66  C   UNL A   1      46.569  26.216  35.902  1.00  0.00     0.022 A 
BRANCH  64  67
ATOM     67  S   UNL A   1      44.975  24.275  37.000  1.00  0.00     0.127 S 
ATOM     68  O   UNL A   1      43.848  24.854  37.729  1.00  0.00    -0.237 OA
ATOM     69  O   UNL A   1      44.632  23.140  36.145  1.00  0.00    -0.237 OA
ATOM     70  O   UNL A   1      46.195  24.102  37.778  1.00  0.00    -0.744 OA
ENDBRANCH  64  67
ENDBRANCH  37  60
ENDBRANCH  11  12
ENDBRANCH   4   6
ENDBRANCH   3   4
ENDBRANCH   2   3
ENDBRANCH   1   2
BRANCH   1  71
ATOM     71  O   UNL A   1      33.093  28.627  26.981  1.00  0.00    -0.374 OA
BRANCH  71  72
ATOM     72  C   UNL A   1      31.874  28.142  27.558  1.00  0.00     0.202 C 
BRANCH  72  73
ATOM     73  C   UNL A   1      31.417  26.865  26.827  1.00  0.00     0.261 C 
BRANCH  73  74
ATOM     74  O   UNL A   1      32.540  26.116  26.313  1.00  0.00    -0.462 OA
BRANCH  74  75
ATOM     75  C   UNL A   1      32.439  24.792  26.482  1.00  0.00     0.324 C 
ATOM     76  O   UNL A   1      31.516  24.273  27.114  1.00  0.00    -0.250 OA
BRANCH  75  77
ATOM     77  C   UNL A   1      33.470  23.961  25.789  1.00  0.00     0.183 C 
ATOM     78  C   UNL A   1      34.779  24.749  25.810  1.00  0.00     0.034 C 
ATOM     79  N   UNL A   1      33.581  23.110  24.547  1.00  0.00    -0.184 NA
ATOM     80  C   UNL A   1      35.783  23.669  25.485  1.00  0.00     0.019 C 
ATOM     81  C   UNL A   1      35.072  22.817  24.436  1.00  0.00     0.103 C 
BRANCH  79  82
ATOM     82  S   UNL A   1      32.892  23.561  23.033  1.00  0.00     0.244 S 
ATOM     83  O   UNL A   1      33.881  23.245  22.022  1.00  0.00    -0.207 OA
ATOM     84  O   UNL A   1      31.595  22.913  22.966  1.00  0.00    -0.207 OA
BRANCH  82  85
ATOM     85  C   UNL A   1      32.558  25.332  22.957  1.00  0.00     0.090 A 
ATOM     86  C   UNL A   1      33.557  26.122  22.346  1.00  0.00     0.024 A 
ATOM     87  C   UNL A   1      31.264  25.926  23.211  1.00  0.00     0.005 A 
ATOM     88  C   UNL A   1      33.436  27.499  22.104  1.00  0.00     0.028 A 
ATOM     89  C   UNL A   1      31.175  27.258  22.883  1.00  0.00     0.019 A 
ATOM     90  C   UNL A   1      30.026  25.407  23.697  1.00  0.00     0.010 A 
ATOM     91  C   UNL A   1      32.198  28.025  22.372  1.00  0.00     0.050 A 
ATOM     92  C   UNL A   1      30.053  28.077  22.967  1.00  0.00     0.050 A 
ATOM     93  C   UNL A   1      28.857  26.207  23.791  1.00  0.00     0.002 A 
ATOM     94  N   UNL A   1      31.721  29.305  22.171  1.00  0.00    -0.321 N 
ATOM     95  C   UNL A   1      28.850  27.561  23.427  1.00  0.00     0.014 A 
ATOM     96  C   UNL A   1      30.374  29.419  22.519  1.00  0.00     0.256 C 
ATOM     97  H   UNL A   1      32.264  30.048  21.824  1.00  0.00     0.170 HD
ATOM     98  O   UNL A   1      29.715  30.447  22.438  1.00  0.00    -0.269 OA
ENDBRANCH  82  85
ENDBRANCH  79  82
ENDBRANCH  75  77
ENDBRANCH  74  75
ENDBRANCH  73  74
ENDBRANCH  72  73
ENDBRANCH  71  72
ENDBRANCH   1  71
TORSDOF 19
ENDMDL
MODEL 2
REMARK VINA RESULT:     -12.2      1.552      7.483
REMARK SMILES O=C(OCCOCCOC(=O)[C@@H]1CCCN1S(=O)(=O)c1ccc2c3c(cccc13)C(=O)N2)c1ccc(-c2c3nc(c(-c4cccc(S(=O)(=O)[O-])c4F)c4ccc([nH]4)c(-c4cccc(S(=O)(=O)[O-])c4F)c4nc(c(-c5cccc(S(=O)(=O)[O-])c5F)c5ccc2[nH]5)C=C4)C=C3)cc1
REMARK SMILES IDX 5 1 4 2 3 3 2 4 1 5 33 6 34 7 95 8 35 9 94 10 36 11 37 12
REMARK SMILES IDX 38 13 88 14 39 15 93 16 87 17 89 18 40 19 92 20 86 21 85 22
REMARK SMILES IDX 41 24 73 25 53 26 72 27 54 28 57 29 71 30 90 31 55 32 56 33
REMARK SMILES IDX 70 35 91 36 58 37 42 38 43 39 51 40 44 41 46 42 52 43 45 44
REMARK SMILES IDX 47 45 48 46 49 47 50 48 74 49 75 50 83 51 76 52 78 53 84 54
REMARK SMILES IDX 77 55 79 56 80 57 81 58 82 59 59 60 60 61 68 62 61 63 63 64
REMARK SMILES IDX 69 65 62 66 64 67 65 68 66 69 67 70 6 71 7 72 8 73 9 74
REMARK SMILES IDX 10 75 11 76 12 77 13 78 16 79 14 80 15 81 17 82 18 83 19 84
REMARK SMILES IDX 20 85 21 86 29 87 22 88 24 89 28 90 23 91 25 92 27 93 32 94
REMARK SMILES IDX 26 95 30 96 31 98
REMARK H PARENT 89 23 57 34 32 97
REMARK Flexibility Score: inf
ROOT
ATOM      1  C   UNL A   1      31.924  29.789  25.985  1.00  0.00     0.202 C 
ENDROOT
BRANCH   1   2
ATOM      2  C   UNL A   1      31.814  31.173  26.660  1.00  0.00     0.261 C 
BRANCH   2   3
ATOM      3  O   UNL A   1      32.993  31.986  26.524  1.00  0.00    -0.460 OA
BRANCH   3   4
ATOM      4  C   UNL A   1      33.495  32.623  27.611  1.00  0.00     0.338 C 
ATOM      5  O   UNL A   1      33.175  33.750  27.945  1.00  0.00    -0.246 OA
BRANCH   4   6
ATOM      6  C   UNL A   1      34.701  31.947  28.128  1.00  0.00     0.060 A 
ATOM      7  C   UNL A   1      34.656  30.600  28.470  1.00  0.00     0.016 A 
ATOM      8  C   UNL A   1      35.880  32.673  28.311  1.00  0.00     0.016 A 
ATOM      9  C   UNL A   1      35.803  29.934  28.845  1.00  0.00     0.010 A 
ATOM     10  C   UNL A   1      37.038  32.030  28.753  1.00  0.00     0.010 A 
ATOM     11  C   UNL A   1      36.980  30.662  29.048  1.00  0.00    -0.014 A 
BRANCH  11  12
ATOM     12  C   UNL A   1      37.903  30.036  30.009  1.00  0.00     0.031 A 
ATOM     13  C   UNL A   1      38.912  29.094  29.406  1.00  0.00     0.074 A 
ATOM     14  C   UNL A   1      38.004  30.500  31.265  1.00  0.00     0.049 A 
ATOM     15  N   UNL A   1      40.016  28.631  29.917  1.00  0.00    -0.248 NA
ATOM     16  C   UNL A   1      38.678  28.676  28.006  1.00  0.00     0.031 C 
ATOM     17  C   UNL A   1      37.119  31.491  31.880  1.00  0.00     0.029 A 
ATOM     18  N   UNL A   1      38.937  30.237  32.230  1.00  0.00    -0.354 N 
ATOM     19  C   UNL A   1      40.603  27.882  28.904  1.00  0.00     0.074 A 
ATOM     20  C   UNL A   1      39.745  27.941  27.750  1.00  0.00     0.031 C 
ATOM     21  C   UNL A   1      37.563  31.763  33.121  1.00  0.00     0.029 A 
ATOM     22  C   UNL A   1      38.761  30.968  33.380  1.00  0.00     0.049 A 
ATOM     23  H   UNL A   1      39.665  29.585  32.112  1.00  0.00     0.167 HD
ATOM     24  C   UNL A   1      41.779  27.223  28.927  1.00  0.00     0.034 A 
ATOM     25  C   UNL A   1      39.509  30.993  34.502  1.00  0.00     0.034 A 
ATOM     26  C   UNL A   1      42.617  27.173  30.081  1.00  0.00     0.049 A 
ATOM     27  C   UNL A   1      40.764  30.159  34.535  1.00  0.00     0.074 A 
ATOM     28  C   UNL A   1      43.797  26.480  30.256  1.00  0.00     0.029 A 
ATOM     29  N   UNL A   1      42.348  27.846  31.262  1.00  0.00    -0.354 N 
ATOM     30  N   UNL A   1      41.316  29.465  33.568  1.00  0.00    -0.248 NA
ATOM     31  C   UNL A   1      41.510  30.125  35.801  1.00  0.00     0.031 C 
ATOM     32  C   UNL A   1      44.242  26.732  31.555  1.00  0.00     0.029 A 
ATOM     33  C   UNL A   1      43.345  27.591  32.177  1.00  0.00     0.049 A 
ATOM     34  H   UNL A   1      41.564  28.418  31.422  1.00  0.00     0.167 HD
ATOM     35  C   UNL A   1      42.483  28.930  34.098  1.00  0.00     0.074 A 
ATOM     36  C   UNL A   1      42.565  29.392  35.469  1.00  0.00     0.031 C 
ATOM     37  C   UNL A   1      43.400  28.120  33.515  1.00  0.00     0.034 A 
BRANCH  24  38
ATOM     38  C   UNL A   1      42.205  26.527  27.670  1.00  0.00     0.023 A 
ATOM     39  C   UNL A   1      42.790  27.277  26.631  1.00  0.00     0.012 A 
ATOM     40  C   UNL A   1      42.029  25.140  27.519  1.00  0.00     0.148 A 
ATOM     41  C   UNL A   1      43.189  26.654  25.451  1.00  0.00     0.002 A 
ATOM     42  C   UNL A   1      42.453  24.522  26.351  1.00  0.00     0.091 A 
ATOM     43  F   UNL A   1      41.445  24.460  28.517  1.00  0.00    -0.205 F 
ATOM     44  C   UNL A   1      43.027  25.277  25.313  1.00  0.00     0.022 A 
BRANCH  42  45
ATOM     45  S   UNL A   1      42.314  22.753  26.082  1.00  0.00     0.127 S 
ATOM     46  O   UNL A   1      43.039  22.218  27.235  1.00  0.00    -0.237 OA
ATOM     47  O   UNL A   1      40.866  22.556  26.126  1.00  0.00    -0.237 OA
ATOM     48  O   UNL A   1      42.939  22.489  24.793  1.00  0.00    -0.744 OA
ENDBRANCH  42  45
ENDBRANCH  24  38
BRANCH  25  49
ATOM     49  C   UNL A   1      39.125  31.861  35.649  1.00  0.00     0.023 A 
ATOM     50  C   UNL A   1      39.539  33.207  35.676  1.00  0.00     0.012 A 
ATOM     51  C   UNL A   1      38.340  31.363  36.708  1.00  0.00     0.148 A 
ATOM     52  C   UNL A   1      39.194  34.036  36.746  1.00  0.00     0.002 A 
ATOM     53  C   UNL A   1      37.972  32.202  37.753  1.00  0.00     0.091 A 
ATOM     54  F   UNL A   1      37.967  30.076  36.667  1.00  0.00    -0.205 F 
ATOM     55  C   UNL A   1      38.406  33.537  37.780  1.00  0.00     0.022 A 
BRANCH  53  56
ATOM     56  S   UNL A   1      36.892  31.673  39.089  1.00  0.00     0.127 S 
ATOM     57  O   UNL A   1      37.789  31.735  40.240  1.00  0.00    -0.237 OA
ATOM     58  O   UNL A   1      35.853  32.702  39.059  1.00  0.00    -0.237 OA
ATOM     59  O   UNL A   1      36.432  30.341  38.720  1.00  0.00    -0.744 OA
ENDBRANCH  53  56
ENDBRANCH  25  49
BRANCH  37  60
ATOM     60  C   UNL A   1      44.579  27.688  34.334  1.00  0.00     0.023 A 
ATOM     61  C   UNL A   1      45.695  28.539  34.430  1.00  0.00     0.012 A 
ATOM     62  C   UNL A   1      44.490  26.544  35.151  1.00  0.00     0.148 A 
ATOM     63  C   UNL A   1      46.712  28.257  35.337  1.00  0.00     0.002 A 
ATOM     64  C   UNL A   1      45.489  26.293  36.080  1.00  0.00     0.091 A 
ATOM     65  F   UNL A   1      43.413  25.755  35.028  1.00  0.00    -0.205 F 
ATOM     66  C   UNL A   1      46.602  27.147  36.172  1.00  0.00     0.022 A 
BRANCH  64  67
ATOM     67  S   UNL A   1      45.382  24.949  37.264  1.00  0.00     0.127 S 
ATOM     68  O   UNL A   1      44.152  25.283  37.980  1.00  0.00    -0.237 OA
ATOM     69  O   UNL A   1      45.284  23.777  36.394  1.00  0.00    -0.237 OA
ATOM     70  O   UNL A   1      46.601  25.012  38.060  1.00  0.00    -0.744 OA
ENDBRANCH  64  67
ENDBRANCH  37  60
ENDBRANCH  11  12
ENDBRANCH   4   6
ENDBRANCH   3   4
ENDBRANCH   2   3
ENDBRANCH   1   2
BRANCH   1  71
ATOM     71  O   UNL A   1      33.138  29.656  25.252  1.00  0.00    -0.374 OA
BRANCH  71  72
ATOM     72  C   UNL A   1      33.932  28.533  25.654  1.00  0.00     0.202 C 
BRANCH  72  73
ATOM     73  C   UNL A   1      33.031  27.448  26.275  1.00  0.00     0.261 C 
BRANCH  73  74
ATOM     74  O   UNL A   1      33.604  26.131  26.126  1.00  0.00    -0.462 OA
BRANCH  74  75
ATOM     75  C   UNL A   1      32.743  25.130  26.343  1.00  0.00     0.324 C 
ATOM     76  O   UNL A   1      31.646  25.304  26.878  1.00  0.00    -0.250 OA
BRANCH  75  77
ATOM     77  C   UNL A   1      33.151  23.788  25.824  1.00  0.00     0.183 C 
ATOM     78  C   UNL A   1      34.570  23.519  26.324  1.00  0.00     0.034 C 
ATOM     79  N   UNL A   1      33.067  23.007  24.536  1.00  0.00    -0.184 NA
ATOM     80  C   UNL A   1      34.686  22.030  26.106  1.00  0.00     0.019 C 
ATOM     81  C   UNL A   1      33.963  21.799  24.781  1.00  0.00     0.103 C 
BRANCH  79  82
ATOM     82  S   UNL A   1      33.337  23.714  22.987  1.00  0.00     0.244 S 
ATOM     83  O   UNL A   1      34.766  23.651  22.751  1.00  0.00    -0.207 OA
ATOM     84  O   UNL A   1      32.448  23.031  22.067  1.00  0.00    -0.207 OA
BRANCH  82  85
ATOM     85  C   UNL A   1      32.839  25.448  22.954  1.00  0.00     0.090 A 
ATOM     86  C   UNL A   1      33.755  26.341  22.354  1.00  0.00     0.024 A 
ATOM     87  C   UNL A   1      31.498  25.912  23.230  1.00  0.00     0.005 A 
ATOM     88  C   UNL A   1      33.504  27.705  22.144  1.00  0.00     0.028 A 
ATOM     89  C   UNL A   1      31.283  27.237  22.934  1.00  0.00     0.019 A 
ATOM     90  C   UNL A   1      30.319  25.270  23.714  1.00  0.00     0.010 A 
ATOM     91  C   UNL A   1      32.225  28.107  22.433  1.00  0.00     0.050 A 
ATOM     92  C   UNL A   1      30.090  27.946  23.045  1.00  0.00     0.050 A 
ATOM     93  C   UNL A   1      29.081  25.955  23.834  1.00  0.00     0.002 A 
ATOM     94  N   UNL A   1      31.629  29.342  22.264  1.00  0.00    -0.321 N 
ATOM     95  C   UNL A   1      28.945  27.310  23.502  1.00  0.00     0.014 A 
ATOM     96  C   UNL A   1      30.281  29.321  22.625  1.00  0.00     0.256 C 
ATOM     97  H   UNL A   1      32.098  30.140  21.931  1.00  0.00     0.170 HD
ATOM     98  O   UNL A   1      29.528  30.285  22.572  1.00  0.00    -0.269 OA
ENDBRANCH  82  85
ENDBRANCH  79  82
ENDBRANCH  75  77
ENDBRANCH  74  75
ENDBRANCH  73  74
ENDBRANCH  72  73
ENDBRANCH  71  72
ENDBRANCH   1  71
TORSDOF 19
ENDMDL
MODEL 3
REMARK VINA RESULT:     -11.9      2.142      2.874
REMARK SMILES O=C(OCCOCCOC(=O)[C@@H]1CCCN1S(=O)(=O)c1ccc2c3c(cccc13)C(=O)N2)c1ccc(-c2c3nc(c(-c4cccc(S(=O)(=O)[O-])c4F)c4ccc([nH]4)c(-c4cccc(S(=O)(=O)[O-])c4F)c4nc(c(-c5cccc(S(=O)(=O)[O-])c5F)c5ccc2[nH]5)C=C4)C=C3)cc1
REMARK SMILES IDX 5 1 4 2 3 3 2 4 1 5 33 6 34 7 95 8 35 9 94 10 36 11 37 12
REMARK SMILES IDX 38 13 88 14 39 15 93 16 87 17 89 18 40 19 92 20 86 21 85 22
REMARK SMILES IDX 41 24 73 25 53 26 72 27 54 28 57 29 71 30 90 31 55 32 56 33
REMARK SMILES IDX 70 35 91 36 58 37 42 38 43 39 51 40 44 41 46 42 52 43 45 44
REMARK SMILES IDX 47 45 48 46 49 47 50 48 74 49 75 50 83 51 76 52 78 53 84 54
REMARK SMILES IDX 77 55 79 56 80 57 81 58 82 59 59 60 60 61 68 62 61 63 63 64
REMARK SMILES IDX 69 65 62 66 64 67 65 68 66 69 67 70 6 71 7 72 8 73 9 74
REMARK SMILES IDX 10 75 11 76 12 77 13 78 16 79 14 80 15 81 17 82 18 83 19 84
REMARK SMILES IDX 20 85 21 86 29 87 22 88 24 89 28 90 23 91 25 92 27 93 32 94
REMARK SMILES IDX 26 95 30 96 31 98
REMARK H PARENT 89 23 57 34 32 97
REMARK Flexibility Score: inf
ROOT
ATOM      1  C   UNL A   1      32.561  30.615  26.906  1.00  0.00     0.202 C 
ENDROOT
BRANCH   1   2
ATOM      2  C   UNL A   1      33.574  31.566  27.578  1.00  0.00     0.261 C 
BRANCH   2   3
ATOM      3  O   UNL A   1      33.252  32.961  27.434  1.00  0.00    -0.460 OA
BRANCH   3   4
ATOM      4  C   UNL A   1      33.262  33.765  28.526  1.00  0.00     0.338 C 
ATOM      5  O   UNL A   1      32.527  34.727  28.668  1.00  0.00    -0.246 OA
BRANCH   4   6
ATOM      6  C   UNL A   1      34.473  33.555  29.342  1.00  0.00     0.060 A 
ATOM      7  C   UNL A   1      35.692  34.087  28.937  1.00  0.00     0.016 A 
ATOM      8  C   UNL A   1      34.402  32.785  30.506  1.00  0.00     0.016 A 
ATOM      9  C   UNL A   1      36.802  33.993  29.750  1.00  0.00     0.010 A 
ATOM     10  C   UNL A   1      35.532  32.623  31.310  1.00  0.00     0.010 A 
ATOM     11  C   UNL A   1      36.739  33.207  30.905  1.00  0.00    -0.014 A 
BRANCH  11  12
ATOM     12  C   UNL A   1      38.042  32.665  31.322  1.00  0.00     0.031 A 
ATOM     13  C   UNL A   1      38.515  33.112  32.680  1.00  0.00     0.074 A 
ATOM     14  C   UNL A   1      38.601  31.640  30.660  1.00  0.00     0.049 A 
ATOM     15  N   UNL A   1      39.441  32.601  33.440  1.00  0.00    -0.248 NA
ATOM     16  C   UNL A   1      37.795  34.248  33.296  1.00  0.00     0.031 C 
ATOM     17  C   UNL A   1      38.130  31.090  29.387  1.00  0.00     0.029 A 
ATOM     18  N   UNL A   1      39.658  30.842  31.001  1.00  0.00    -0.354 N 
ATOM     19  C   UNL A   1      39.403  33.344  34.614  1.00  0.00     0.074 A 
ATOM     20  C   UNL A   1      38.376  34.343  34.478  1.00  0.00     0.031 C 
ATOM     21  C   UNL A   1      38.892  30.029  29.061  1.00  0.00     0.029 A 
ATOM     22  C   UNL A   1      39.897  29.829  30.102  1.00  0.00     0.049 A 
ATOM     23  H   UNL A   1      40.197  30.980  31.812  1.00  0.00     0.167 HD
ATOM     24  C   UNL A   1      40.147  33.186  35.727  1.00  0.00     0.034 A 
ATOM     25  C   UNL A   1      40.818  28.846  30.144  1.00  0.00     0.034 A 
ATOM     26  C   UNL A   1      41.164  32.191  35.845  1.00  0.00     0.049 A 
ATOM     27  C   UNL A   1      41.709  28.762  31.357  1.00  0.00     0.074 A 
ATOM     28  C   UNL A   1      42.036  31.974  36.890  1.00  0.00     0.029 A 
ATOM     29  N   UNL A   1      41.443  31.250  34.866  1.00  0.00    -0.354 N 
ATOM     30  N   UNL A   1      41.657  29.462  32.467  1.00  0.00    -0.248 NA
ATOM     31  C   UNL A   1      42.769  27.744  31.338  1.00  0.00     0.031 C 
ATOM     32  C   UNL A   1      42.852  30.896  36.540  1.00  0.00     0.029 A 
ATOM     33  C   UNL A   1      42.475  30.440  35.284  1.00  0.00     0.049 A 
ATOM     34  H   UNL A   1      40.974  31.173  34.004  1.00  0.00     0.167 HD
ATOM     35  C   UNL A   1      42.659  28.957  33.285  1.00  0.00     0.074 A 
ATOM     36  C   UNL A   1      43.294  27.883  32.549  1.00  0.00     0.031 C 
ATOM     37  C   UNL A   1      43.034  29.350  34.527  1.00  0.00     0.034 A 
BRANCH  24  38
ATOM     38  C   UNL A   1      39.869  34.102  36.879  1.00  0.00     0.023 A 
ATOM     39  C   UNL A   1      40.239  35.458  36.787  1.00  0.00     0.012 A 
ATOM     40  C   UNL A   1      39.243  33.624  38.044  1.00  0.00     0.148 A 
ATOM     41  C   UNL A   1      39.996  36.328  37.848  1.00  0.00     0.002 A 
ATOM     42  C   UNL A   1      38.979  34.503  39.086  1.00  0.00     0.091 A 
ATOM     43  F   UNL A   1      38.926  32.323  38.109  1.00  0.00    -0.205 F 
ATOM     44  C   UNL A   1      39.361  35.853  38.994  1.00  0.00     0.022 A 
BRANCH  42  45
ATOM     45  S   UNL A   1      38.145  34.000  40.593  1.00  0.00     0.127 S 
ATOM     46  O   UNL A   1      36.947  33.346  40.067  1.00  0.00    -0.237 OA
ATOM     47  O   UNL A   1      39.124  33.094  41.191  1.00  0.00    -0.237 OA
ATOM     48  O   UNL A   1      37.891  35.224  41.343  1.00  0.00    -0.744 OA
ENDBRANCH  42  45
ENDBRANCH  24  38
BRANCH  25  49
ATOM     49  C   UNL A   1      40.912  27.847  29.044  1.00  0.00     0.023 A 
ATOM     50  C   UNL A   1      40.135  26.674  29.098  1.00  0.00     0.012 A 
ATOM     51  C   UNL A   1      41.758  28.061  27.938  1.00  0.00     0.148 A 
ATOM     52  C   UNL A   1      40.212  25.723  28.078  1.00  0.00     0.002 A 
ATOM     53  C   UNL A   1      41.805  27.127  26.909  1.00  0.00     0.091 A 
ATOM     54  F   UNL A   1      42.496  29.180  27.913  1.00  0.00    -0.205 F 
ATOM     55  C   UNL A   1      41.041  25.951  26.982  1.00  0.00     0.022 A 
BRANCH  53  56
ATOM     56  S   UNL A   1      42.780  27.371  25.420  1.00  0.00     0.127 S 
ATOM     57  O   UNL A   1      42.410  26.201  24.626  1.00  0.00    -0.237 OA
ATOM     58  O   UNL A   1      42.255  28.643  24.924  1.00  0.00    -0.237 OA
ATOM     59  O   UNL A   1      44.167  27.419  25.859  1.00  0.00    -0.744 OA
ENDBRANCH  53  56
ENDBRANCH  25  49
BRANCH  37  60
ATOM     60  C   UNL A   1      44.165  28.619  35.185  1.00  0.00     0.023 A 
ATOM     61  C   UNL A   1      45.471  29.127  35.064  1.00  0.00     0.012 A 
ATOM     62  C   UNL A   1      43.899  27.558  36.072  1.00  0.00     0.148 A 
ATOM     63  C   UNL A   1      46.504  28.588  35.824  1.00  0.00     0.002 A 
ATOM     64  C   UNL A   1      44.926  27.053  36.855  1.00  0.00     0.091 A 
ATOM     65  F   UNL A   1      42.643  27.098  36.158  1.00  0.00    -0.205 F 
ATOM     66  C   UNL A   1      46.230  27.564  36.731  1.00  0.00     0.022 A 
BRANCH  64  67
ATOM     67  S   UNL A   1      44.647  25.809  38.119  1.00  0.00     0.127 S 
ATOM     68  O   UNL A   1      43.716  26.499  39.010  1.00  0.00    -0.237 OA
ATOM     69  O   UNL A   1      44.060  24.713  37.350  1.00  0.00    -0.237 OA
ATOM     70  O   UNL A   1      45.954  25.516  38.693  1.00  0.00    -0.744 OA
ENDBRANCH  64  67
ENDBRANCH  37  60
ENDBRANCH  11  12
ENDBRANCH   4   6
ENDBRANCH   3   4
ENDBRANCH   2   3
ENDBRANCH   1   2
BRANCH   1  71
ATOM     71  O   UNL A   1      33.115  29.983  25.755  1.00  0.00    -0.374 OA
BRANCH  71  72
ATOM     72  C   UNL A   1      33.873  28.804  26.055  1.00  0.00     0.202 C 
BRANCH  72  73
ATOM     73  C   UNL A   1      32.924  27.609  26.264  1.00  0.00     0.261 C 
BRANCH  73  74
ATOM     74  O   UNL A   1      33.602  26.350  26.061  1.00  0.00    -0.462 OA
BRANCH  74  75
ATOM     75  C   UNL A   1      32.850  25.274  26.322  1.00  0.00     0.324 C 
ATOM     76  O   UNL A   1      31.748  25.352  26.870  1.00  0.00    -0.250 OA
BRANCH  75  77
ATOM     77  C   UNL A   1      33.385  23.965  25.837  1.00  0.00     0.183 C 
ATOM     78  C   UNL A   1      34.893  23.968  26.087  1.00  0.00     0.034 C 
ATOM     79  N   UNL A   1      33.219  23.053  24.646  1.00  0.00    -0.184 NA
ATOM     80  C   UNL A   1      35.221  22.500  25.961  1.00  0.00     0.019 C 
ATOM     81  C   UNL A   1      34.335  22.028  24.810  1.00  0.00     0.103 C 
BRANCH  79  82
ATOM     82  S   UNL A   1      33.102  23.633  23.026  1.00  0.00     0.244 S 
ATOM     83  O   UNL A   1      34.414  23.464  22.434  1.00  0.00    -0.207 OA
ATOM     84  O   UNL A   1      31.973  22.944  22.428  1.00  0.00    -0.207 OA
BRANCH  82  85
ATOM     85  C   UNL A   1      32.686  25.388  22.978  1.00  0.00     0.090 A 
ATOM     86  C   UNL A   1      33.644  26.231  22.373  1.00  0.00     0.024 A 
ATOM     87  C   UNL A   1      31.368  25.917  23.248  1.00  0.00     0.005 A 
ATOM     88  C   UNL A   1      33.458  27.604  22.153  1.00  0.00     0.028 A 
ATOM     89  C   UNL A   1      31.216  27.248  22.941  1.00  0.00     0.019 A 
ATOM     90  C   UNL A   1      30.159  25.335  23.734  1.00  0.00     0.010 A 
ATOM     91  C   UNL A   1      32.199  28.069  22.435  1.00  0.00     0.050 A 
ATOM     92  C   UNL A   1      30.058  28.013  23.043  1.00  0.00     0.050 A 
ATOM     93  C   UNL A   1      28.955  26.078  23.846  1.00  0.00     0.002 A 
ATOM     94  N   UNL A   1      31.662  29.329  22.256  1.00  0.00    -0.321 N 
ATOM     95  C   UNL A   1      28.884  27.436  23.503  1.00  0.00     0.014 A 
ATOM     96  C   UNL A   1      30.314  29.375  22.613  1.00  0.00     0.256 C 
ATOM     97  H   UNL A   1      32.169  30.101  21.917  1.00  0.00     0.170 HD
ATOM     98  O   UNL A   1      29.608  30.373  22.551  1.00  0.00    -0.269 OA
ENDBRANCH  82  85
ENDBRANCH  79  82
ENDBRANCH  75  77
ENDBRANCH  74  75
ENDBRANCH  73  74
ENDBRANCH  72  73
ENDBRANCH  71  72
ENDBRANCH   1  71
TORSDOF 19
ENDMDL
