MODEL 1
REMARK VINA RESULT:     -10.9      0.000      0.000
REMARK SMILES CC(C)Cc1ccc([C@H](C)C(=O)OCCOCCOC(=O)c2ccc(-c3c4nc(c(-c5cccc(S(=O)(=O)[O-])c5F)c5ccc([nH]5)c(-c5cccc(S(=O)(=O)[O-])c5F)c5nc(c(-c6cccc(S(=O)(=O)[O-])c6F)c6ccc3[nH]6)C=C5)C=C4)cc2)cc1
REMARK SMILES IDX 16 1 15 2 14 3 13 4 11 5 12 6 9 7 10 8 8 9 5 10 6 11 86 12
REMARK SMILES IDX 7 13 85 14 4 15 2 16 1 17 3 18 17 19 18 20 19 21 20 22 21 23
REMARK SMILES IDX 22 24 23 25 84 26 24 27 83 28 25 29 26 30 27 31 77 32 28 33
REMARK SMILES IDX 82 34 76 35 78 36 29 37 81 38 75 39 74 40 30 42 62 43 42 44
REMARK SMILES IDX 61 45 43 46 46 47 60 48 79 49 44 50 45 51 59 53 80 54 47 55
REMARK SMILES IDX 31 56 32 57 40 58 33 59 35 60 41 61 34 62 36 63 37 64 38 65
REMARK SMILES IDX 39 66 63 67 64 68 72 69 65 70 67 71 73 72 66 73 68 74 69 75
REMARK SMILES IDX 70 76 71 77 48 78 49 79 57 80 50 81 52 82 58 83 51 84 53 85
REMARK SMILES IDX 54 86 55 87 56 88
REMARK H PARENT 78 41 46 52
REMARK Flexibility Score: inf
ROOT
ATOM      1  O   UNL A   1      32.732  29.607  26.512  1.00  0.00    -0.374 OA
ENDROOT
BRANCH   1   2
ATOM      2  C   UNL A   1      32.328  28.494  27.308  1.00  0.00     0.202 C 
BRANCH   2   3
ATOM      3  C   UNL A   1      32.152  27.149  26.598  1.00  0.00     0.261 C 
BRANCH   3   4
ATOM      4  O   UNL A   1      30.771  26.774  26.455  1.00  0.00    -0.463 OA
BRANCH   4   5
ATOM      5  C   UNL A   1      30.545  25.564  25.872  1.00  0.00     0.313 C 
ATOM      6  O   UNL A   1      30.237  24.540  26.475  1.00  0.00    -0.252 OA
BRANCH   5   7
ATOM      7  C   UNL A   1      30.747  25.598  24.357  1.00  0.00     0.126 C 
ATOM      8  C   UNL A   1      30.643  24.218  23.687  1.00  0.00     0.025 C 
BRANCH   7   9
ATOM      9  C   UNL A   1      29.902  26.716  23.777  1.00  0.00    -0.034 A 
ATOM     10  C   UNL A   1      28.471  29.026  23.039  1.00  0.00    -0.048 A 
ATOM     11  C   UNL A   1      29.857  28.982  22.883  1.00  0.00     0.004 A 
ATOM     12  C   UNL A   1      27.799  27.880  23.484  1.00  0.00     0.004 A 
ATOM     13  C   UNL A   1      30.564  27.837  23.243  1.00  0.00     0.005 A 
ATOM     14  C   UNL A   1      28.509  26.747  23.873  1.00  0.00     0.005 A 
BRANCH  10  15
ATOM     15  C   UNL A   1      27.713  30.313  22.825  1.00  0.00     0.038 C 
BRANCH  15  16
ATOM     16  C   UNL A   1      28.554  31.390  22.102  1.00  0.00    -0.013 C 
ATOM     17  C   UNL A   1      28.053  31.660  20.679  1.00  0.00     0.008 C 
ATOM     18  C   UNL A   1      28.552  32.686  22.911  1.00  0.00     0.008 C 
ENDBRANCH  15  16
ENDBRANCH  10  15
ENDBRANCH   7   9
ENDBRANCH   5   7
ENDBRANCH   4   5
ENDBRANCH   3   4
ENDBRANCH   2   3
ENDBRANCH   1   2
BRANCH   1  19
ATOM     19  C   UNL A   1      31.773  30.633  26.267  1.00  0.00     0.202 C 
BRANCH  19  20
ATOM     20  C   UNL A   1      31.901  31.926  27.084  1.00  0.00     0.261 C 
BRANCH  20  21
ATOM     21  O   UNL A   1      33.132  32.627  26.839  1.00  0.00    -0.460 OA
BRANCH  21  22
ATOM     22  C   UNL A   1      33.717  33.138  27.948  1.00  0.00     0.338 C 
ATOM     23  O   UNL A   1      33.231  33.953  28.728  1.00  0.00    -0.246 OA
BRANCH  22  24
ATOM     24  C   UNL A   1      34.993  32.458  28.233  1.00  0.00     0.060 A 
ATOM     25  C   UNL A   1      34.936  31.100  28.571  1.00  0.00     0.016 A 
ATOM     26  C   UNL A   1      36.206  33.149  28.274  1.00  0.00     0.016 A 
ATOM     27  C   UNL A   1      36.081  30.440  29.010  1.00  0.00     0.010 A 
ATOM     28  C   UNL A   1      37.355  32.484  28.722  1.00  0.00     0.010 A 
ATOM     29  C   UNL A   1      37.289  31.140  29.131  1.00  0.00    -0.014 A 
BRANCH  29  30
ATOM     30  C   UNL A   1      38.437  30.494  29.816  1.00  0.00     0.031 A 
ATOM     31  C   UNL A   1      38.770  30.893  31.228  1.00  0.00     0.074 A 
ATOM     32  C   UNL A   1      39.163  29.548  29.194  1.00  0.00     0.049 A 
ATOM     33  N   UNL A   1      39.718  30.447  32.011  1.00  0.00    -0.248 NA
ATOM     34  C   UNL A   1      37.925  31.933  31.839  1.00  0.00     0.031 C 
ATOM     35  C   UNL A   1      38.941  29.076  27.829  1.00  0.00     0.029 A 
ATOM     36  N   UNL A   1      40.250  28.830  29.628  1.00  0.00    -0.354 N 
ATOM     37  C   UNL A   1      39.601  31.165  33.195  1.00  0.00     0.074 A 
ATOM     38  C   UNL A   1      38.499  32.086  33.024  1.00  0.00     0.031 C 
ATOM     39  C   UNL A   1      39.883  28.166  27.526  1.00  0.00     0.029 A 
ATOM     40  C   UNL A   1      40.782  28.004  28.667  1.00  0.00     0.049 A 
ATOM     41  H   UNL A   1      40.612  28.901  30.541  1.00  0.00     0.167 HD
ATOM     42  C   UNL A   1      40.333  31.057  34.330  1.00  0.00     0.034 A 
ATOM     43  C   UNL A   1      41.878  27.221  28.699  1.00  0.00     0.034 A 
ATOM     44  C   UNL A   1      41.412  30.124  34.511  1.00  0.00     0.049 A 
ATOM     45  C   UNL A   1      42.684  27.126  29.968  1.00  0.00     0.074 A 
ATOM     46  C   UNL A   1      42.171  29.898  35.646  1.00  0.00     0.029 A 
ATOM     47  N   UNL A   1      41.895  29.272  33.531  1.00  0.00    -0.354 N 
ATOM     48  N   UNL A   1      42.476  27.710  31.124  1.00  0.00    -0.248 NA
ATOM     49  C   UNL A   1      43.856  26.239  29.950  1.00  0.00     0.031 C 
ATOM     50  C   UNL A   1      43.129  28.925  35.343  1.00  0.00     0.029 A 
ATOM     51  C   UNL A   1      42.953  28.529  34.027  1.00  0.00     0.049 A 
ATOM     52  H   UNL A   1      41.539  29.205  32.615  1.00  0.00     0.167 HD
ATOM     53  C   UNL A   1      43.468  27.238  31.976  1.00  0.00     0.074 A 
ATOM     54  C   UNL A   1      44.266  26.304  31.210  1.00  0.00     0.031 C 
ATOM     55  C   UNL A   1      43.708  27.562  33.271  1.00  0.00     0.034 A 
BRANCH  42  56
ATOM     56  C   UNL A   1      39.970  31.954  35.482  1.00  0.00     0.023 A 
ATOM     57  C   UNL A   1      40.600  33.209  35.613  1.00  0.00     0.012 A 
ATOM     58  C   UNL A   1      38.968  31.583  36.400  1.00  0.00     0.148 A 
ATOM     59  C   UNL A   1      40.257  34.070  36.655  1.00  0.00     0.002 A 
ATOM     60  C   UNL A   1      38.605  32.463  37.413  1.00  0.00     0.091 A 
ATOM     61  F   UNL A   1      38.399  30.376  36.274  1.00  0.00    -0.205 F 
ATOM     62  C   UNL A   1      39.253  33.701  37.548  1.00  0.00     0.022 A 
BRANCH  60  63
ATOM     63  S   UNL A   1      37.274  32.108  38.566  1.00  0.00     0.127 S 
ATOM     64  O   UNL A   1      37.067  30.678  38.346  1.00  0.00    -0.237 OA
ATOM     65  O   UNL A   1      37.882  32.444  39.854  1.00  0.00    -0.237 OA
ATOM     66  O   UNL A   1      36.167  32.970  38.178  1.00  0.00    -0.744 OA
ENDBRANCH  60  63
ENDBRANCH  42  56
BRANCH  43  67
ATOM     67  C   UNL A   1      42.257  26.432  27.492  1.00  0.00     0.023 A 
ATOM     68  C   UNL A   1      42.990  27.046  26.459  1.00  0.00     0.012 A 
ATOM     69  C   UNL A   1      41.922  25.068  27.380  1.00  0.00     0.148 A 
ATOM     70  C   UNL A   1      43.361  26.324  25.324  1.00  0.00     0.002 A 
ATOM     71  C   UNL A   1      42.341  24.341  26.274  1.00  0.00     0.091 A 
ATOM     72  F   UNL A   1      41.205  24.508  28.364  1.00  0.00    -0.205 F 
ATOM     73  C   UNL A   1      43.048  24.970  25.237  1.00  0.00     0.022 A 
BRANCH  71  74
ATOM     74  S   UNL A   1      42.097  22.566  26.143  1.00  0.00     0.127 S 
ATOM     75  O   UNL A   1      42.849  22.249  24.931  1.00  0.00    -0.237 OA
ATOM     76  O   UNL A   1      42.699  22.083  27.386  1.00  0.00    -0.237 OA
ATOM     77  O   UNL A   1      40.655  22.373  26.064  1.00  0.00    -0.744 OA
ENDBRANCH  71  74
ENDBRANCH  43  67
BRANCH  55  78
ATOM     78  C   UNL A   1      44.866  26.888  33.962  1.00  0.00     0.023 A 
ATOM     79  C   UNL A   1      46.148  27.470  33.901  1.00  0.00     0.012 A 
ATOM     80  C   UNL A   1      44.670  25.728  34.736  1.00  0.00     0.148 A 
ATOM     81  C   UNL A   1      47.222  26.891  34.576  1.00  0.00     0.002 A 
ATOM     82  C   UNL A   1      45.735  25.182  35.444  1.00  0.00     0.091 A 
ATOM     83  F   UNL A   1      43.447  25.179  34.768  1.00  0.00    -0.205 F 
ATOM     84  C   UNL A   1      47.014  25.755  35.355  1.00  0.00     0.022 A 
BRANCH  82  85
ATOM     85  S   UNL A   1      45.538  23.776  36.546  1.00  0.00     0.127 S 
ATOM     86  O   UNL A   1      46.921  23.508  36.936  1.00  0.00    -0.237 OA
ATOM     87  O   UNL A   1      44.700  24.329  37.610  1.00  0.00    -0.237 OA
ATOM     88  O   UNL A   1      44.896  22.736  35.754  1.00  0.00    -0.744 OA
ENDBRANCH  82  85
ENDBRANCH  55  78
ENDBRANCH  29  30
ENDBRANCH  22  24
ENDBRANCH  21  22
ENDBRANCH  20  21
ENDBRANCH  19  20
ENDBRANCH   1  19
TORSDOF 20
ENDMDL
MODEL 2
REMARK VINA RESULT:     -10.6      1.833      3.569
REMARK SMILES CC(C)Cc1ccc([C@H](C)C(=O)OCCOCCOC(=O)c2ccc(-c3c4nc(c(-c5cccc(S(=O)(=O)[O-])c5F)c5ccc([nH]5)c(-c5cccc(S(=O)(=O)[O-])c5F)c5nc(c(-c6cccc(S(=O)(=O)[O-])c6F)c6ccc3[nH]6)C=C5)C=C4)cc2)cc1
REMARK SMILES IDX 16 1 15 2 14 3 13 4 11 5 12 6 9 7 10 8 8 9 5 10 6 11 86 12
REMARK SMILES IDX 7 13 85 14 4 15 2 16 1 17 3 18 17 19 18 20 19 21 20 22 21 23
REMARK SMILES IDX 22 24 23 25 84 26 24 27 83 28 25 29 26 30 27 31 77 32 28 33
REMARK SMILES IDX 82 34 76 35 78 36 29 37 81 38 75 39 74 40 30 42 62 43 42 44
REMARK SMILES IDX 61 45 43 46 46 47 60 48 79 49 44 50 45 51 59 53 80 54 47 55
REMARK SMILES IDX 31 56 32 57 40 58 33 59 35 60 41 61 34 62 36 63 37 64 38 65
REMARK SMILES IDX 39 66 63 67 64 68 72 69 65 70 67 71 73 72 66 73 68 74 69 75
REMARK SMILES IDX 70 76 71 77 48 78 49 79 57 80 50 81 52 82 58 83 51 84 53 85
REMARK SMILES IDX 54 86 55 87 56 88
REMARK H PARENT 78 41 46 52
REMARK Flexibility Score: inf
ROOT
ATOM      1  O   UNL A   1      31.852  29.967  25.028  1.00  0.00    -0.374 OA
ENDROOT
BRANCH   1   2
ATOM      2  C   UNL A   1      31.441  28.611  25.195  1.00  0.00     0.202 C 
BRANCH   2   3
ATOM      3  C   UNL A   1      30.499  28.027  24.139  1.00  0.00     0.261 C 
BRANCH   3   4
ATOM      4  O   UNL A   1      31.096  27.970  22.833  1.00  0.00    -0.463 OA
BRANCH   4   5
ATOM      5  C   UNL A   1      31.376  26.722  22.364  1.00  0.00     0.313 C 
ATOM      6  O   UNL A   1      31.598  26.447  21.189  1.00  0.00    -0.252 OA
BRANCH   5   7
ATOM      7  C   UNL A   1      31.354  25.664  23.468  1.00  0.00     0.126 C 
ATOM      8  C   UNL A   1      30.280  24.582  23.266  1.00  0.00     0.025 C 
BRANCH   7   9
ATOM      9  C   UNL A   1      32.774  25.195  23.721  1.00  0.00    -0.034 A 
ATOM     10  C   UNL A   1      35.229  23.944  24.301  1.00  0.00    -0.048 A 
ATOM     11  C   UNL A   1      34.527  23.606  23.142  1.00  0.00     0.004 A 
ATOM     12  C   UNL A   1      34.738  24.970  25.119  1.00  0.00     0.004 A 
ATOM     13  C   UNL A   1      33.316  24.230  22.852  1.00  0.00     0.005 A 
ATOM     14  C   UNL A   1      33.511  25.570  24.847  1.00  0.00     0.005 A 
BRANCH  10  15
ATOM     15  C   UNL A   1      36.446  23.157  24.720  1.00  0.00     0.038 C 
BRANCH  15  16
ATOM     16  C   UNL A   1      36.183  21.636  24.789  1.00  0.00    -0.013 C 
ATOM     17  C   UNL A   1      37.480  20.825  24.875  1.00  0.00     0.008 C 
ATOM     18  C   UNL A   1      35.284  21.314  25.982  1.00  0.00     0.008 C 
ENDBRANCH  15  16
ENDBRANCH  10  15
ENDBRANCH   7   9
ENDBRANCH   5   7
ENDBRANCH   4   5
ENDBRANCH   3   4
ENDBRANCH   2   3
ENDBRANCH   1   2
BRANCH   1  19
ATOM     19  C   UNL A   1      30.931  30.991  25.395  1.00  0.00     0.202 C 
BRANCH  19  20
ATOM     20  C   UNL A   1      31.375  31.983  26.478  1.00  0.00     0.261 C 
BRANCH  20  21
ATOM     21  O   UNL A   1      32.544  31.548  27.194  1.00  0.00    -0.460 OA
BRANCH  21  22
ATOM     22  C   UNL A   1      33.383  32.546  27.558  1.00  0.00     0.338 C 
ATOM     23  O   UNL A   1      33.091  33.726  27.732  1.00  0.00    -0.246 OA
BRANCH  22  24
ATOM     24  C   UNL A   1      34.714  32.017  27.904  1.00  0.00     0.060 A 
ATOM     25  C   UNL A   1      34.834  30.629  28.058  1.00  0.00     0.016 A 
ATOM     26  C   UNL A   1      35.796  32.856  28.177  1.00  0.00     0.016 A 
ATOM     27  C   UNL A   1      36.017  30.080  28.544  1.00  0.00     0.010 A 
ATOM     28  C   UNL A   1      36.983  32.301  28.671  1.00  0.00     0.010 A 
ATOM     29  C   UNL A   1      37.085  30.915  28.895  1.00  0.00    -0.014 A 
BRANCH  29  30
ATOM     30  C   UNL A   1      38.245  30.344  29.624  1.00  0.00     0.031 A 
ATOM     31  C   UNL A   1      38.512  30.782  31.040  1.00  0.00     0.074 A 
ATOM     32  C   UNL A   1      39.041  29.431  29.041  1.00  0.00     0.049 A 
ATOM     33  N   UNL A   1      39.458  30.400  31.858  1.00  0.00    -0.248 NA
ATOM     34  C   UNL A   1      37.592  31.782  31.608  1.00  0.00     0.031 C 
ATOM     35  C   UNL A   1      38.888  28.928  27.677  1.00  0.00     0.029 A 
ATOM     36  N   UNL A   1      40.151  28.781  29.518  1.00  0.00    -0.354 N 
ATOM     37  C   UNL A   1      39.266  31.128  33.026  1.00  0.00     0.074 A 
ATOM     38  C   UNL A   1      38.120  31.983  32.806  1.00  0.00     0.031 C 
ATOM     39  C   UNL A   1      39.887  28.067  27.416  1.00  0.00     0.029 A 
ATOM     40  C   UNL A   1      40.758  27.973  28.587  1.00  0.00     0.049 A 
ATOM     41  H   UNL A   1      40.481  28.885  30.440  1.00  0.00     0.167 HD
ATOM     42  C   UNL A   1      39.967  31.077  34.184  1.00  0.00     0.034 A 
ATOM     43  C   UNL A   1      41.894  27.252  28.664  1.00  0.00     0.034 A 
ATOM     44  C   UNL A   1      41.090  30.208  34.412  1.00  0.00     0.049 A 
ATOM     45  C   UNL A   1      42.664  27.220  29.959  1.00  0.00     0.074 A 
ATOM     46  C   UNL A   1      41.824  30.041  35.573  1.00  0.00     0.029 A 
ATOM     47  N   UNL A   1      41.649  29.370  33.461  1.00  0.00    -0.354 N 
ATOM     48  N   UNL A   1      42.389  27.808  31.098  1.00  0.00    -0.248 NA
ATOM     49  C   UNL A   1      43.884  26.399  29.989  1.00  0.00     0.031 C 
ATOM     50  C   UNL A   1      42.844  29.118  35.315  1.00  0.00     0.029 A 
ATOM     51  C   UNL A   1      42.731  28.695  34.001  1.00  0.00     0.049 A 
ATOM     52  H   UNL A   1      41.325  29.270  32.536  1.00  0.00     0.167 HD
ATOM     53  C   UNL A   1      43.379  27.405  31.987  1.00  0.00     0.074 A 
ATOM     54  C   UNL A   1      44.250  26.505  31.261  1.00  0.00     0.031 C 
ATOM     55  C   UNL A   1      43.560  27.760  33.283  1.00  0.00     0.034 A 
BRANCH  42  56
ATOM     56  C   UNL A   1      39.520  31.969  35.310  1.00  0.00     0.023 A 
ATOM     57  C   UNL A   1      39.830  33.344  35.274  1.00  0.00     0.012 A 
ATOM     58  C   UNL A   1      38.745  31.461  36.371  1.00  0.00     0.148 A 
ATOM     59  C   UNL A   1      39.400  34.195  36.292  1.00  0.00     0.002 A 
ATOM     60  C   UNL A   1      38.287  32.323  37.361  1.00  0.00     0.091 A 
ATOM     61  F   UNL A   1      38.482  30.147  36.400  1.00  0.00    -0.205 F 
ATOM     62  C   UNL A   1      38.620  33.687  37.328  1.00  0.00     0.022 A 
BRANCH  60  63
ATOM     63  S   UNL A   1      37.217  31.775  38.696  1.00  0.00     0.127 S 
ATOM     64  O   UNL A   1      36.089  32.696  38.567  1.00  0.00    -0.237 OA
ATOM     65  O   UNL A   1      36.924  30.394  38.311  1.00  0.00    -0.237 OA
ATOM     66  O   UNL A   1      38.000  31.908  39.916  1.00  0.00    -0.744 OA
ENDBRANCH  60  63
ENDBRANCH  42  56
BRANCH  43  67
ATOM     67  C   UNL A   1      42.353  26.468  27.483  1.00  0.00     0.023 A 
ATOM     68  C   UNL A   1      43.137  27.092  26.493  1.00  0.00     0.012 A 
ATOM     69  C   UNL A   1      42.043  25.100  27.352  1.00  0.00     0.148 A 
ATOM     70  C   UNL A   1      43.582  26.374  25.383  1.00  0.00     0.002 A 
ATOM     71  C   UNL A   1      42.535  24.378  26.273  1.00  0.00     0.091 A 
ATOM     72  F   UNL A   1      41.277  24.530  28.293  1.00  0.00    -0.205 F 
ATOM     73  C   UNL A   1      43.293  25.016  25.278  1.00  0.00     0.022 A 
BRANCH  71  74
ATOM     74  S   UNL A   1      42.323  22.600  26.129  1.00  0.00     0.127 S 
ATOM     75  O   UNL A   1      40.868  22.467  26.175  1.00  0.00    -0.237 OA
ATOM     76  O   UNL A   1      42.925  22.325  24.824  1.00  0.00    -0.237 OA
ATOM     77  O   UNL A   1      43.049  22.026  27.255  1.00  0.00    -0.744 OA
ENDBRANCH  71  74
ENDBRANCH  43  67
BRANCH  55  78
ATOM     78  C   UNL A   1      44.731  27.162  34.019  1.00  0.00     0.023 A 
ATOM     79  C   UNL A   1      45.970  27.835  34.024  1.00  0.00     0.012 A 
ATOM     80  C   UNL A   1      44.586  25.979  34.771  1.00  0.00     0.148 A 
ATOM     81  C   UNL A   1      47.051  27.325  34.741  1.00  0.00     0.002 A 
ATOM     82  C   UNL A   1      45.655  25.501  35.520  1.00  0.00     0.091 A 
ATOM     83  F   UNL A   1      43.406  25.342  34.740  1.00  0.00    -0.205 F 
ATOM     84  C   UNL A   1      46.891  26.166  35.497  1.00  0.00     0.022 A 
BRANCH  82  85
ATOM     85  S   UNL A   1      45.511  24.069  36.597  1.00  0.00     0.127 S 
ATOM     86  O   UNL A   1      44.804  23.121  35.738  1.00  0.00    -0.237 OA
ATOM     87  O   UNL A   1      46.911  23.731  36.856  1.00  0.00    -0.237 OA
ATOM     88  O   UNL A   1      44.775  24.524  37.769  1.00  0.00    -0.744 OA
ENDBRANCH  82  85
ENDBRANCH  55  78
ENDBRANCH  29  30
ENDBRANCH  22  24
ENDBRANCH  21  22
ENDBRANCH  20  21
ENDBRANCH  19  20
ENDBRANCH   1  19
TORSDOF 20
ENDMDL
MODEL 3
REMARK VINA RESULT:     -10.5      3.598      6.568
REMARK SMILES CC(C)Cc1ccc([C@H](C)C(=O)OCCOCCOC(=O)c2ccc(-c3c4nc(c(-c5cccc(S(=O)(=O)[O-])c5F)c5ccc([nH]5)c(-c5cccc(S(=O)(=O)[O-])c5F)c5nc(c(-c6cccc(S(=O)(=O)[O-])c6F)c6ccc3[nH]6)C=C5)C=C4)cc2)cc1
REMARK SMILES IDX 16 1 15 2 14 3 13 4 11 5 12 6 9 7 10 8 8 9 5 10 6 11 86 12
REMARK SMILES IDX 7 13 85 14 4 15 2 16 1 17 3 18 17 19 18 20 19 21 20 22 21 23
REMARK SMILES IDX 22 24 23 25 84 26 24 27 83 28 25 29 26 30 27 31 77 32 28 33
REMARK SMILES IDX 82 34 76 35 78 36 29 37 81 38 75 39 74 40 30 42 62 43 42 44
REMARK SMILES IDX 61 45 43 46 46 47 60 48 79 49 44 50 45 51 59 53 80 54 47 55
REMARK SMILES IDX 31 56 32 57 40 58 33 59 35 60 41 61 34 62 36 63 37 64 38 65
REMARK SMILES IDX 39 66 63 67 64 68 72 69 65 70 67 71 73 72 66 73 68 74 69 75
REMARK SMILES IDX 70 76 71 77 48 78 49 79 57 80 50 81 52 82 58 83 51 84 53 85
REMARK SMILES IDX 54 86 55 87 56 88
REMARK H PARENT 78 41 46 52
REMARK Flexibility Score: inf
ROOT
ATOM      1  O   UNL A   1      33.908  34.216  28.260  1.00  0.00    -0.374 OA
ENDROOT
BRANCH   1   2
ATOM      2  C   UNL A   1      33.548  35.285  29.134  1.00  0.00     0.202 C 
BRANCH   2   3
ATOM      3  C   UNL A   1      33.520  34.986  30.636  1.00  0.00     0.261 C 
BRANCH   3   4
ATOM      4  O   UNL A   1      34.811  34.624  31.153  1.00  0.00    -0.463 OA
BRANCH   4   5
ATOM      5  C   UNL A   1      35.036  33.289  31.300  1.00  0.00     0.313 C 
ATOM      6  O   UNL A   1      34.341  32.402  30.813  1.00  0.00    -0.252 OA
BRANCH   5   7
ATOM      7  C   UNL A   1      36.252  32.993  32.179  1.00  0.00     0.126 C 
ATOM      8  C   UNL A   1      36.342  31.528  32.638  1.00  0.00     0.025 C 
BRANCH   7   9
ATOM      9  C   UNL A   1      37.483  33.593  31.526  1.00  0.00    -0.034 A 
ATOM     10  C   UNL A   1      39.900  34.296  30.265  1.00  0.00    -0.048 A 
ATOM     11  C   UNL A   1      38.859  33.737  29.521  1.00  0.00     0.004 A 
ATOM     12  C   UNL A   1      39.693  34.579  31.621  1.00  0.00     0.004 A 
ATOM     13  C   UNL A   1      37.661  33.395  30.144  1.00  0.00     0.005 A 
ATOM     14  C   UNL A   1      38.507  34.207  32.250  1.00  0.00     0.005 A 
BRANCH  10  15
ATOM     15  C   UNL A   1      41.261  34.506  29.646  1.00  0.00     0.038 C 
BRANCH  15  16
ATOM     16  C   UNL A   1      42.416  34.071  30.576  1.00  0.00    -0.013 C 
ATOM     17  C   UNL A   1      43.298  32.991  29.940  1.00  0.00     0.008 C 
ATOM     18  C   UNL A   1      43.266  35.282  30.957  1.00  0.00     0.008 C 
ENDBRANCH  15  16
ENDBRANCH  10  15
ENDBRANCH   7   9
ENDBRANCH   5   7
ENDBRANCH   4   5
ENDBRANCH   3   4
ENDBRANCH   2   3
ENDBRANCH   1   2
BRANCH   1  19
ATOM     19  C   UNL A   1      32.856  33.479  27.642  1.00  0.00     0.202 C 
BRANCH  19  20
ATOM     20  C   UNL A   1      33.022  31.956  27.552  1.00  0.00     0.261 C 
BRANCH  20  21
ATOM     21  O   UNL A   1      34.390  31.548  27.377  1.00  0.00    -0.460 OA
BRANCH  21  22
ATOM     22  C   UNL A   1      34.622  30.239  27.632  1.00  0.00     0.338 C 
ATOM     23  O   UNL A   1      33.937  29.285  27.270  1.00  0.00    -0.246 OA
BRANCH  22  24
ATOM     24  C   UNL A   1      35.933  30.051  28.277  1.00  0.00     0.060 A 
ATOM     25  C   UNL A   1      37.073  30.300  27.501  1.00  0.00     0.016 A 
ATOM     26  C   UNL A   1      36.055  29.543  29.572  1.00  0.00     0.016 A 
ATOM     27  C   UNL A   1      38.336  29.985  27.993  1.00  0.00     0.010 A 
ATOM     28  C   UNL A   1      37.327  29.223  30.063  1.00  0.00     0.010 A 
ATOM     29  C   UNL A   1      38.469  29.403  29.260  1.00  0.00    -0.014 A 
BRANCH  29  30
ATOM     30  C   UNL A   1      39.787  28.862  29.677  1.00  0.00     0.031 A 
ATOM     31  C   UNL A   1      40.549  29.546  30.780  1.00  0.00     0.074 A 
ATOM     32  C   UNL A   1      40.291  27.760  29.094  1.00  0.00     0.049 A 
ATOM     33  N   UNL A   1      41.704  29.233  31.304  1.00  0.00    -0.248 NA
ATOM     34  C   UNL A   1      39.926  30.744  31.369  1.00  0.00     0.031 C 
ATOM     35  C   UNL A   1      39.652  27.008  28.016  1.00  0.00     0.029 A 
ATOM     36  N   UNL A   1      41.472  27.096  29.316  1.00  0.00    -0.354 N 
ATOM     37  C   UNL A   1      41.961  30.203  32.265  1.00  0.00     0.074 A 
ATOM     38  C   UNL A   1      40.846  31.125  32.243  1.00  0.00     0.031 C 
ATOM     39  C   UNL A   1      40.462  26.000  27.649  1.00  0.00     0.029 A 
ATOM     40  C   UNL A   1      41.682  26.046  28.453  1.00  0.00     0.049 A 
ATOM     41  H   UNL A   1      42.107  27.347  30.025  1.00  0.00     0.167 HD
ATOM     42  C   UNL A   1      43.020  30.310  33.103  1.00  0.00     0.034 A 
ATOM     43  C   UNL A   1      42.744  25.227  28.317  1.00  0.00     0.034 A 
ATOM     44  C   UNL A   1      44.116  29.379  33.145  1.00  0.00     0.049 A 
ATOM     45  C   UNL A   1      43.916  25.372  29.253  1.00  0.00     0.074 A 
ATOM     46  C   UNL A   1      45.202  29.369  34.002  1.00  0.00     0.029 A 
ATOM     47  N   UNL A   1      44.274  28.302  32.286  1.00  0.00    -0.354 N 
ATOM     48  N   UNL A   1      44.079  26.211  30.248  1.00  0.00    -0.248 NA
ATOM     49  C   UNL A   1      45.035  24.436  29.070  1.00  0.00     0.031 C 
ATOM     50  C   UNL A   1      46.030  28.299  33.645  1.00  0.00     0.029 A 
ATOM     51  C   UNL A   1      45.448  27.630  32.580  1.00  0.00     0.049 A 
ATOM     52  H   UNL A   1      43.644  28.053  31.572  1.00  0.00     0.167 HD
ATOM     53  C   UNL A   1      45.300  25.885  30.828  1.00  0.00     0.074 A 
ATOM     54  C   UNL A   1      45.826  24.758  30.087  1.00  0.00     0.031 C 
ATOM     55  C   UNL A   1      45.937  26.476  31.870  1.00  0.00     0.034 A 
BRANCH  42  56
ATOM     56  C   UNL A   1      43.030  31.461  34.072  1.00  0.00     0.023 A 
ATOM     57  C   UNL A   1      43.660  32.669  33.710  1.00  0.00     0.012 A 
ATOM     58  C   UNL A   1      42.370  31.369  35.312  1.00  0.00     0.148 A 
ATOM     59  C   UNL A   1      43.655  33.760  34.579  1.00  0.00     0.002 A 
ATOM     60  C   UNL A   1      42.336  32.473  36.157  1.00  0.00     0.091 A 
ATOM     61  F   UNL A   1      41.799  30.204  35.649  1.00  0.00    -0.205 F 
ATOM     62  C   UNL A   1      42.985  33.665  35.796  1.00  0.00     0.022 A 
BRANCH  60  63
ATOM     63  S   UNL A   1      41.437  32.470  37.712  1.00  0.00     0.127 S 
ATOM     64  O   UNL A   1      41.515  33.877  38.101  1.00  0.00    -0.237 OA
ATOM     65  O   UNL A   1      40.106  32.025  37.299  1.00  0.00    -0.237 OA
ATOM     66  O   UNL A   1      42.143  31.538  38.579  1.00  0.00    -0.744 OA
ENDBRANCH  60  63
ENDBRANCH  42  56
BRANCH  43  67
ATOM     67  C   UNL A   1      42.730  24.168  27.269  1.00  0.00     0.023 A 
ATOM     68  C   UNL A   1      43.326  24.416  26.018  1.00  0.00     0.012 A 
ATOM     69  C   UNL A   1      42.156  22.905  27.518  1.00  0.00     0.148 A 
ATOM     70  C   UNL A   1      43.329  23.435  25.025  1.00  0.00     0.002 A 
ATOM     71  C   UNL A   1      42.212  21.915  26.546  1.00  0.00     0.091 A 
ATOM     72  F   UNL A   1      41.574  22.697  28.707  1.00  0.00    -0.205 F 
ATOM     73  C   UNL A   1      42.784  22.182  25.292  1.00  0.00     0.022 A 
BRANCH  71  74
ATOM     74  S   UNL A   1      41.654  20.236  26.853  1.00  0.00     0.127 S 
ATOM     75  O   UNL A   1      41.549  19.702  25.497  1.00  0.00    -0.237 OA
ATOM     76  O   UNL A   1      42.755  19.689  27.647  1.00  0.00    -0.237 OA
ATOM     77  O   UNL A   1      40.400  20.366  27.583  1.00  0.00    -0.744 OA
ENDBRANCH  71  74
ENDBRANCH  43  67
BRANCH  55  78
ATOM     78  C   UNL A   1      47.266  25.908  32.295  1.00  0.00     0.023 A 
ATOM     79  C   UNL A   1      48.453  26.400  31.715  1.00  0.00     0.012 A 
ATOM     80  C   UNL A   1      47.347  24.948  33.323  1.00  0.00     0.148 A 
ATOM     81  C   UNL A   1      49.696  25.924  32.131  1.00  0.00     0.002 A 
ATOM     82  C   UNL A   1      48.591  24.513  33.765  1.00  0.00     0.091 A 
ATOM     83  F   UNL A   1      46.207  24.478  33.851  1.00  0.00    -0.205 F 
ATOM     84  C   UNL A   1      49.766  24.991  33.162  1.00  0.00     0.022 A 
BRANCH  82  85
ATOM     85  S   UNL A   1      48.778  23.383  35.151  1.00  0.00     0.127 S 
ATOM     86  O   UNL A   1      47.714  22.416  34.893  1.00  0.00    -0.237 OA
ATOM     87  O   UNL A   1      50.133  22.867  34.952  1.00  0.00    -0.237 OA
ATOM     88  O   UNL A   1      48.614  24.193  36.350  1.00  0.00    -0.744 OA
ENDBRANCH  82  85
ENDBRANCH  55  78
ENDBRANCH  29  30
ENDBRANCH  22  24
ENDBRANCH  21  22
ENDBRANCH  20  21
ENDBRANCH  19  20
ENDBRANCH   1  19
TORSDOF 20
ENDMDL
