MODEL 1
REMARK VINA RESULT:     -10.8      0.000      0.000
REMARK SMILES C[C@@](O)(c1cccc(O)c1)[C@@H](F)C(=O)OCCOCCOC(=O)c1ccc(-c2c3nc(c(-c4cccc(S(=O)(=O)[O-])c4F)c4ccc([nH]4)c(-c4cccc(S(=O)(=O)[O-])c4F)c4nc(c(-c5cccc(S(=O)(=O)[O-])c5F)c5ccc2[nH]5)C=C4)C=C3)cc1
REMARK SMILES IDX 18 1 17 2 16 3 15 4 13 5 14 6 11 7 12 8 2 9 1 10 3 11 4 13
REMARK SMILES IDX 5 14 10 15 6 16 8 17 7 18 9 19 19 21 20 22 21 23 22 24 23 25
REMARK SMILES IDX 24 26 25 27 86 28 26 29 85 30 27 31 28 32 29 33 79 34 30 35
REMARK SMILES IDX 84 36 78 37 80 38 31 39 83 40 77 41 76 42 32 44 64 45 44 46
REMARK SMILES IDX 63 47 45 48 48 49 62 50 81 51 46 52 47 53 61 55 82 56 49 57
REMARK SMILES IDX 33 58 34 59 42 60 35 61 37 62 43 63 36 64 38 65 39 66 40 67
REMARK SMILES IDX 41 68 65 69 66 70 74 71 67 72 69 73 75 74 68 75 70 76 71 77
REMARK SMILES IDX 72 78 73 79 50 80 51 81 59 82 52 83 54 84 60 85 53 86 55 87
REMARK SMILES IDX 56 88 57 89 58 90
REMARK H PARENT 3 12 9 20 80 43 48 54
REMARK Flexibility Score: inf
ROOT
ATOM      1  O   UNL A   1      35.359  21.291  24.380  1.00  0.00    -0.374 OA
ENDROOT
BRANCH   1   2
ATOM      2  C   UNL A   1      34.035  21.623  24.805  1.00  0.00     0.202 C 
BRANCH   2   3
ATOM      3  C   UNL A   1      32.923  21.355  23.789  1.00  0.00     0.261 C 
BRANCH   3   4
ATOM      4  O   UNL A   1      32.263  22.574  23.394  1.00  0.00    -0.461 OA
BRANCH   4   5
ATOM      5  C   UNL A   1      31.637  23.259  24.379  1.00  0.00     0.344 C 
ATOM      6  O   UNL A   1      30.826  22.751  25.154  1.00  0.00    -0.249 OA
BRANCH   5   7
ATOM      7  C   UNL A   1      31.977  24.740  24.470  1.00  0.00     0.311 C 
ATOM      8  F   UNL A   1      32.863  25.079  23.481  1.00  0.00    -0.231 F 
BRANCH   7   9
ATOM      9  C   UNL A   1      32.432  25.412  25.801  1.00  0.00     0.129 C 
ATOM     10  C   UNL A   1      33.888  25.032  26.134  1.00  0.00     0.051 C 
BRANCH   9  11
ATOM     11  O   UNL A   1      31.583  24.978  26.876  1.00  0.00    -0.382 OA
ATOM     12  H   UNL A   1      31.647  25.606  27.611  1.00  0.00     0.212 HD
ENDBRANCH   9  11
BRANCH   9  13
ATOM     13  C   UNL A   1      32.244  26.955  25.767  1.00  0.00    -0.010 A 
ATOM     14  C   UNL A   1      31.411  27.594  24.823  1.00  0.00     0.007 A 
ATOM     15  C   UNL A   1      32.863  27.788  26.720  1.00  0.00     0.053 A 
ATOM     16  C   UNL A   1      31.239  28.984  24.804  1.00  0.00     0.004 A 
ATOM     17  C   UNL A   1      32.698  29.175  26.686  1.00  0.00     0.115 A 
ATOM     18  C   UNL A   1      31.893  29.782  25.733  1.00  0.00     0.046 A 
BRANCH  17  19
ATOM     19  O   UNL A   1      33.357  29.914  27.623  1.00  0.00    -0.508 OA
ATOM     20  H   UNL A   1      34.292  29.985  27.592  1.00  0.00     0.293 HD
ENDBRANCH  17  19
ENDBRANCH   9  13
ENDBRANCH   7   9
ENDBRANCH   5   7
ENDBRANCH   4   5
ENDBRANCH   3   4
ENDBRANCH   2   3
ENDBRANCH   1   2
BRANCH   1  21
ATOM     21  C   UNL A   1      35.960  20.148  24.989  1.00  0.00     0.202 C 
BRANCH  21  22
ATOM     22  C   UNL A   1      37.490  20.077  24.907  1.00  0.00     0.261 C 
BRANCH  22  23
ATOM     23  O   UNL A   1      38.119  21.281  25.387  1.00  0.00    -0.460 OA
BRANCH  23  24
ATOM     24  C   UNL A   1      39.303  21.080  26.020  1.00  0.00     0.338 C 
ATOM     25  O   UNL A   1      40.027  20.102  25.932  1.00  0.00    -0.246 OA
BRANCH  24  26
ATOM     26  C   UNL A   1      39.728  22.305  26.726  1.00  0.00     0.060 A 
ATOM     27  C   UNL A   1      39.130  23.506  26.330  1.00  0.00     0.016 A 
ATOM     28  C   UNL A   1      40.756  22.304  27.671  1.00  0.00     0.016 A 
ATOM     29  C   UNL A   1      39.597  24.719  26.833  1.00  0.00     0.010 A 
ATOM     30  C   UNL A   1      41.227  23.527  28.174  1.00  0.00     0.010 A 
ATOM     31  C   UNL A   1      40.677  24.743  27.725  1.00  0.00    -0.014 A 
BRANCH  31  32
ATOM     32  C   UNL A   1      41.289  26.052  28.075  1.00  0.00     0.031 A 
ATOM     33  C   UNL A   1      42.693  26.362  27.624  1.00  0.00     0.074 A 
ATOM     34  C   UNL A   1      40.577  26.988  28.731  1.00  0.00     0.049 A 
ATOM     35  N   UNL A   1      43.372  27.474  27.745  1.00  0.00    -0.248 NA
ATOM     36  C   UNL A   1      43.426  25.281  26.946  1.00  0.00     0.031 C 
ATOM     37  C   UNL A   1      39.215  26.816  29.231  1.00  0.00     0.029 A 
ATOM     38  N   UNL A   1      40.910  28.270  29.093  1.00  0.00    -0.354 N 
ATOM     39  C   UNL A   1      44.612  27.228  27.164  1.00  0.00     0.074 A 
ATOM     40  C   UNL A   1      44.601  25.852  26.715  1.00  0.00     0.031 C 
ATOM     41  C   UNL A   1      38.832  27.946  29.851  1.00  0.00     0.029 A 
ATOM     42  C   UNL A   1      39.923  28.917  29.798  1.00  0.00     0.049 A 
ATOM     43  H   UNL A   1      41.774  28.686  28.871  1.00  0.00     0.167 HD
ATOM     44  C   UNL A   1      45.654  28.076  26.992  1.00  0.00     0.034 A 
ATOM     45  C   UNL A   1      39.902  30.151  30.342  1.00  0.00     0.034 A 
ATOM     46  C   UNL A   1      45.666  29.451  27.417  1.00  0.00     0.049 A 
ATOM     47  C   UNL A   1      41.080  31.070  30.145  1.00  0.00     0.074 A 
ATOM     48  C   UNL A   1      46.667  30.393  27.253  1.00  0.00     0.029 A 
ATOM     49  N   UNL A   1      44.634  30.080  28.092  1.00  0.00    -0.354 N 
ATOM     50  N   UNL A   1      42.187  30.863  29.474  1.00  0.00    -0.248 NA
ATOM     51  C   UNL A   1      40.988  32.408  30.747  1.00  0.00     0.031 C 
ATOM     52  C   UNL A   1      46.245  31.590  27.840  1.00  0.00     0.029 A 
ATOM     53  C   UNL A   1      44.975  31.397  28.358  1.00  0.00     0.049 A 
ATOM     54  H   UNL A   1      43.782  29.655  28.346  1.00  0.00     0.167 HD
ATOM     55  C   UNL A   1      42.908  32.049  29.550  1.00  0.00     0.074 A 
ATOM     56  C   UNL A   1      42.097  32.983  30.304  1.00  0.00     0.031 C 
ATOM     57  C   UNL A   1      44.140  32.335  29.062  1.00  0.00     0.034 A 
BRANCH  44  58
ATOM     58  C   UNL A   1      46.864  27.558  26.261  1.00  0.00     0.023 A 
ATOM     59  C   UNL A   1      47.738  26.671  26.923  1.00  0.00     0.012 A 
ATOM     60  C   UNL A   1      47.092  27.875  24.909  1.00  0.00     0.148 A 
ATOM     61  C   UNL A   1      48.832  26.123  26.255  1.00  0.00     0.002 A 
ATOM     62  C   UNL A   1      48.164  27.296  24.238  1.00  0.00     0.091 A 
ATOM     63  F   UNL A   1      46.260  28.736  24.305  1.00  0.00    -0.205 F 
ATOM     64  C   UNL A   1      49.038  26.425  24.912  1.00  0.00     0.022 A 
BRANCH  62  65
ATOM     65  S   UNL A   1      48.476  27.566  22.491  1.00  0.00     0.127 S 
ATOM     66  O   UNL A   1      49.732  28.314  22.528  1.00  0.00    -0.237 OA
ATOM     67  O   UNL A   1      48.597  26.199  21.984  1.00  0.00    -0.237 OA
ATOM     68  O   UNL A   1      47.327  28.303  21.986  1.00  0.00    -0.744 OA
ENDBRANCH  62  65
ENDBRANCH  44  58
BRANCH  45  69
ATOM     69  C   UNL A   1      38.701  30.613  31.095  1.00  0.00     0.023 A 
ATOM     70  C   UNL A   1      38.634  30.424  32.488  1.00  0.00     0.012 A 
ATOM     71  C   UNL A   1      37.625  31.236  30.434  1.00  0.00     0.148 A 
ATOM     72  C   UNL A   1      37.502  30.818  33.205  1.00  0.00     0.002 A 
ATOM     73  C   UNL A   1      36.526  31.677  31.162  1.00  0.00     0.091 A 
ATOM     74  F   UNL A   1      37.693  31.383  29.103  1.00  0.00    -0.205 F 
ATOM     75  C   UNL A   1      36.454  31.454  32.545  1.00  0.00     0.022 A 
BRANCH  73  76
ATOM     76  S   UNL A   1      35.205  32.624  30.398  1.00  0.00     0.127 S 
ATOM     77  O   UNL A   1      34.258  32.762  31.501  1.00  0.00    -0.237 OA
ATOM     78  O   UNL A   1      35.891  33.858  30.015  1.00  0.00    -0.237 OA
ATOM     79  O   UNL A   1      34.761  31.816  29.269  1.00  0.00    -0.744 OA
ENDBRANCH  73  76
ENDBRANCH  45  69
BRANCH  57  80
ATOM     80  C   UNL A   1      44.688  33.717  29.312  1.00  0.00     0.023 A 
ATOM     81  C   UNL A   1      45.524  33.941  30.424  1.00  0.00     0.012 A 
ATOM     82  C   UNL A   1      44.421  34.779  28.424  1.00  0.00     0.148 A 
ATOM     83  C   UNL A   1      46.055  35.208  30.670  1.00  0.00     0.002 A 
ATOM     84  C   UNL A   1      44.990  36.027  28.651  1.00  0.00     0.091 A 
ATOM     85  F   UNL A   1      43.608  34.555  27.381  1.00  0.00    -0.205 F 
ATOM     86  C   UNL A   1      45.798  36.246  29.779  1.00  0.00     0.022 A 
BRANCH  84  87
ATOM     87  S   UNL A   1      44.780  37.396  27.505  1.00  0.00     0.127 S 
ATOM     88  O   UNL A   1      44.932  38.550  28.388  1.00  0.00    -0.237 OA
ATOM     89  O   UNL A   1      45.885  37.196  26.567  1.00  0.00    -0.237 OA
ATOM     90  O   UNL A   1      43.458  37.218  26.919  1.00  0.00    -0.744 OA
ENDBRANCH  84  87
ENDBRANCH  57  80
ENDBRANCH  31  32
ENDBRANCH  24  26
ENDBRANCH  23  24
ENDBRANCH  22  23
ENDBRANCH  21  22
ENDBRANCH   1  21
TORSDOF 21
ENDMDL
MODEL 2
REMARK VINA RESULT:     -10.6      5.055     10.388
REMARK SMILES C[C@@](O)(c1cccc(O)c1)[C@@H](F)C(=O)OCCOCCOC(=O)c1ccc(-c2c3nc(c(-c4cccc(S(=O)(=O)[O-])c4F)c4ccc([nH]4)c(-c4cccc(S(=O)(=O)[O-])c4F)c4nc(c(-c5cccc(S(=O)(=O)[O-])c5F)c5ccc2[nH]5)C=C4)C=C3)cc1
REMARK SMILES IDX 18 1 17 2 16 3 15 4 13 5 14 6 11 7 12 8 2 9 1 10 3 11 4 13
REMARK SMILES IDX 5 14 10 15 6 16 8 17 7 18 9 19 19 21 20 22 21 23 22 24 23 25
REMARK SMILES IDX 24 26 25 27 86 28 26 29 85 30 27 31 28 32 29 33 79 34 30 35
REMARK SMILES IDX 84 36 78 37 80 38 31 39 83 40 77 41 76 42 32 44 64 45 44 46
REMARK SMILES IDX 63 47 45 48 48 49 62 50 81 51 46 52 47 53 61 55 82 56 49 57
REMARK SMILES IDX 33 58 34 59 42 60 35 61 37 62 43 63 36 64 38 65 39 66 40 67
REMARK SMILES IDX 41 68 65 69 66 70 74 71 67 72 69 73 75 74 68 75 70 76 71 77
REMARK SMILES IDX 72 78 73 79 50 80 51 81 59 82 52 83 54 84 60 85 53 86 55 87
REMARK SMILES IDX 56 88 57 89 58 90
REMARK H PARENT 3 12 9 20 80 43 48 54
REMARK Flexibility Score: inf
ROOT
ATOM      1  O   UNL A   1      31.046  28.357  24.667  1.00  0.00    -0.374 OA
ENDROOT
BRANCH   1   2
ATOM      2  C   UNL A   1      31.674  27.841  23.491  1.00  0.00     0.202 C 
BRANCH   2   3
ATOM      3  C   UNL A   1      32.519  26.581  23.687  1.00  0.00     0.261 C 
BRANCH   3   4
ATOM      4  O   UNL A   1      32.086  25.515  22.819  1.00  0.00    -0.461 OA
BRANCH   4   5
ATOM      5  C   UNL A   1      32.887  24.425  22.766  1.00  0.00     0.344 C 
ATOM      6  O   UNL A   1      34.033  24.442  22.313  1.00  0.00    -0.249 OA
BRANCH   5   7
ATOM      7  C   UNL A   1      32.277  23.133  23.289  1.00  0.00     0.311 C 
ATOM      8  F   UNL A   1      30.910  23.187  23.191  1.00  0.00    -0.231 F 
BRANCH   7   9
ATOM      9  C   UNL A   1      32.655  22.532  24.676  1.00  0.00     0.129 C 
ATOM     10  C   UNL A   1      31.473  22.642  25.660  1.00  0.00     0.051 C 
BRANCH   9  11
ATOM     11  O   UNL A   1      33.778  23.245  25.221  1.00  0.00    -0.382 OA
ATOM     12  H   UNL A   1      34.548  22.657  25.253  1.00  0.00     0.212 HD
ENDBRANCH   9  11
BRANCH   9  13
ATOM     13  C   UNL A   1      33.157  21.065  24.557  1.00  0.00    -0.010 A 
ATOM     14  C   UNL A   1      32.325  20.016  24.108  1.00  0.00     0.007 A 
ATOM     15  C   UNL A   1      34.493  20.723  24.847  1.00  0.00     0.053 A 
ATOM     16  C   UNL A   1      32.786  18.699  23.996  1.00  0.00     0.004 A 
ATOM     17  C   UNL A   1      34.941  19.405  24.745  1.00  0.00     0.115 A 
ATOM     18  C   UNL A   1      34.098  18.386  24.325  1.00  0.00     0.046 A 
BRANCH  17  19
ATOM     19  O   UNL A   1      36.240  19.151  25.076  1.00  0.00    -0.508 OA
ATOM     20  H   UNL A   1      36.460  18.369  25.544  1.00  0.00     0.293 HD
ENDBRANCH  17  19
ENDBRANCH   9  13
ENDBRANCH   7   9
ENDBRANCH   5   7
ENDBRANCH   4   5
ENDBRANCH   3   4
ENDBRANCH   2   3
ENDBRANCH   1   2
BRANCH   1  21
ATOM     21  C   UNL A   1      31.301  29.725  24.982  1.00  0.00     0.202 C 
BRANCH  21  22
ATOM     22  C   UNL A   1      32.643  30.012  25.669  1.00  0.00     0.261 C 
BRANCH  22  23
ATOM     23  O   UNL A   1      32.475  30.487  27.018  1.00  0.00    -0.460 OA
BRANCH  23  24
ATOM     24  C   UNL A   1      33.193  31.600  27.314  1.00  0.00     0.338 C 
ATOM     25  O   UNL A   1      32.773  32.741  27.418  1.00  0.00    -0.246 OA
BRANCH  24  26
ATOM     26  C   UNL A   1      34.576  31.242  27.685  1.00  0.00     0.060 A 
ATOM     27  C   UNL A   1      34.828  29.895  27.970  1.00  0.00     0.016 A 
ATOM     28  C   UNL A   1      35.576  32.201  27.858  1.00  0.00     0.016 A 
ATOM     29  C   UNL A   1      36.064  29.509  28.485  1.00  0.00     0.010 A 
ATOM     30  C   UNL A   1      36.818  31.810  28.381  1.00  0.00     0.010 A 
ATOM     31  C   UNL A   1      37.054  30.469  28.736  1.00  0.00    -0.014 A 
BRANCH  31  32
ATOM     32  C   UNL A   1      38.274  30.061  29.482  1.00  0.00     0.031 A 
ATOM     33  C   UNL A   1      38.509  30.592  30.872  1.00  0.00     0.074 A 
ATOM     34  C   UNL A   1      39.135  29.172  28.954  1.00  0.00     0.049 A 
ATOM     35  N   UNL A   1      39.456  30.290  31.722  1.00  0.00    -0.248 NA
ATOM     36  C   UNL A   1      37.549  31.590  31.373  1.00  0.00     0.031 C 
ATOM     37  C   UNL A   1      39.032  28.587  27.618  1.00  0.00     0.029 A 
ATOM     38  N   UNL A   1      40.272  28.609  29.481  1.00  0.00    -0.354 N 
ATOM     39  C   UNL A   1      39.213  31.061  32.854  1.00  0.00     0.074 A 
ATOM     40  C   UNL A   1      38.043  31.865  32.572  1.00  0.00     0.031 C 
ATOM     41  C   UNL A   1      40.074  27.760  27.423  1.00  0.00     0.029 A 
ATOM     42  C   UNL A   1      40.920  27.761  28.615  1.00  0.00     0.049 A 
ATOM     43  H   UNL A   1      40.594  28.797  30.392  1.00  0.00     0.167 HD
ATOM     44  C   UNL A   1      39.882  31.078  34.032  1.00  0.00     0.034 A 
ATOM     45  C   UNL A   1      42.066  27.066  28.764  1.00  0.00     0.034 A 
ATOM     46  C   UNL A   1      41.033  30.267  34.328  1.00  0.00     0.049 A 
ATOM     47  C   UNL A   1      42.797  27.113  30.082  1.00  0.00     0.074 A 
ATOM     48  C   UNL A   1      41.754  30.195  35.508  1.00  0.00     0.029 A 
ATOM     49  N   UNL A   1      41.636  29.393  33.440  1.00  0.00    -0.354 N 
ATOM     50  N   UNL A   1      42.473  27.742  31.185  1.00  0.00    -0.248 NA
ATOM     51  C   UNL A   1      44.031  26.319  30.187  1.00  0.00     0.031 C 
ATOM     52  C   UNL A   1      42.801  29.285  35.330  1.00  0.00     0.029 A 
ATOM     53  C   UNL A   1      42.724  28.780  34.042  1.00  0.00     0.049 A 
ATOM     54  H   UNL A   1      41.336  29.229  32.516  1.00  0.00     0.167 HD
ATOM     55  C   UNL A   1      43.444  27.400  32.120  1.00  0.00     0.074 A 
ATOM     56  C   UNL A   1      44.349  26.480  31.463  1.00  0.00     0.031 C 
ATOM     57  C   UNL A   1      43.588  27.826  33.399  1.00  0.00     0.034 A 
BRANCH  44  58
ATOM     58  C   UNL A   1      39.353  31.970  35.123  1.00  0.00     0.023 A 
ATOM     59  C   UNL A   1      38.374  31.468  36.006  1.00  0.00     0.012 A 
ATOM     60  C   UNL A   1      39.875  33.261  35.330  1.00  0.00     0.148 A 
ATOM     61  C   UNL A   1      37.910  32.245  37.066  1.00  0.00     0.002 A 
ATOM     62  C   UNL A   1      39.434  34.017  36.410  1.00  0.00     0.091 A 
ATOM     63  F   UNL A   1      40.790  33.726  34.466  1.00  0.00    -0.205 F 
ATOM     64  C   UNL A   1      38.447  33.513  37.275  1.00  0.00     0.022 A 
BRANCH  62  65
ATOM     65  S   UNL A   1      40.112  35.632  36.807  1.00  0.00     0.127 S 
ATOM     66  O   UNL A   1      39.564  36.454  35.729  1.00  0.00    -0.237 OA
ATOM     67  O   UNL A   1      39.535  35.893  38.126  1.00  0.00    -0.237 OA
ATOM     68  O   UNL A   1      41.559  35.474  36.797  1.00  0.00    -0.744 OA
ENDBRANCH  62  65
ENDBRANCH  44  58
BRANCH  45  69
ATOM     69  C   UNL A   1      42.580  26.227  27.645  1.00  0.00     0.023 A 
ATOM     70  C   UNL A   1      43.544  26.750  26.763  1.00  0.00     0.012 A 
ATOM     71  C   UNL A   1      42.114  24.912  27.450  1.00  0.00     0.148 A 
ATOM     72  C   UNL A   1      44.010  25.992  25.687  1.00  0.00     0.002 A 
ATOM     73  C   UNL A   1      42.624  24.142  26.412  1.00  0.00     0.091 A 
ATOM     74  F   UNL A   1      41.175  24.439  28.283  1.00  0.00    -0.205 F 
ATOM     75  C   UNL A   1      43.560  24.685  25.518  1.00  0.00     0.022 A 
BRANCH  73  76
ATOM     76  S   UNL A   1      42.192  22.411  26.218  1.00  0.00     0.127 S 
ATOM     77  O   UNL A   1      42.892  22.061  24.985  1.00  0.00    -0.237 OA
ATOM     78  O   UNL A   1      42.748  21.815  27.433  1.00  0.00    -0.237 OA
ATOM     79  O   UNL A   1      40.735  22.386  26.158  1.00  0.00    -0.744 OA
ENDBRANCH  73  76
ENDBRANCH  45  69
BRANCH  57  80
ATOM     80  C   UNL A   1      44.760  27.295  34.184  1.00  0.00     0.023 A 
ATOM     81  C   UNL A   1      46.013  27.931  34.077  1.00  0.00     0.012 A 
ATOM     82  C   UNL A   1      44.613  26.204  35.065  1.00  0.00     0.148 A 
ATOM     83  C   UNL A   1      47.110  27.467  34.804  1.00  0.00     0.002 A 
ATOM     84  C   UNL A   1      45.700  25.776  35.819  1.00  0.00     0.091 A 
ATOM     85  F   UNL A   1      43.420  25.597  35.141  1.00  0.00    -0.205 F 
ATOM     86  C   UNL A   1      46.951  26.398  35.682  1.00  0.00     0.022 A 
BRANCH  84  87
ATOM     87  S   UNL A   1      45.559  24.462  37.038  1.00  0.00     0.127 S 
ATOM     88  O   UNL A   1      45.140  23.332  36.212  1.00  0.00    -0.237 OA
ATOM     89  O   UNL A   1      46.923  24.365  37.558  1.00  0.00    -0.237 OA
ATOM     90  O   UNL A   1      44.580  24.932  38.010  1.00  0.00    -0.744 OA
ENDBRANCH  84  87
ENDBRANCH  57  80
ENDBRANCH  31  32
ENDBRANCH  24  26
ENDBRANCH  23  24
ENDBRANCH  22  23
ENDBRANCH  21  22
ENDBRANCH   1  21
TORSDOF 21
ENDMDL
MODEL 3
REMARK VINA RESULT:     -10.3      1.355      2.054
REMARK SMILES C[C@@](O)(c1cccc(O)c1)[C@@H](F)C(=O)OCCOCCOC(=O)c1ccc(-c2c3nc(c(-c4cccc(S(=O)(=O)[O-])c4F)c4ccc([nH]4)c(-c4cccc(S(=O)(=O)[O-])c4F)c4nc(c(-c5cccc(S(=O)(=O)[O-])c5F)c5ccc2[nH]5)C=C4)C=C3)cc1
REMARK SMILES IDX 18 1 17 2 16 3 15 4 13 5 14 6 11 7 12 8 2 9 1 10 3 11 4 13
REMARK SMILES IDX 5 14 10 15 6 16 8 17 7 18 9 19 19 21 20 22 21 23 22 24 23 25
REMARK SMILES IDX 24 26 25 27 86 28 26 29 85 30 27 31 28 32 29 33 79 34 30 35
REMARK SMILES IDX 84 36 78 37 80 38 31 39 83 40 77 41 76 42 32 44 64 45 44 46
REMARK SMILES IDX 63 47 45 48 48 49 62 50 81 51 46 52 47 53 61 55 82 56 49 57
REMARK SMILES IDX 33 58 34 59 42 60 35 61 37 62 43 63 36 64 38 65 39 66 40 67
REMARK SMILES IDX 41 68 65 69 66 70 74 71 67 72 69 73 75 74 68 75 70 76 71 77
REMARK SMILES IDX 72 78 73 79 50 80 51 81 59 82 52 83 54 84 60 85 53 86 55 87
REMARK SMILES IDX 56 88 57 89 58 90
REMARK H PARENT 3 12 9 20 80 43 48 54
REMARK Flexibility Score: inf
ROOT
ATOM      1  O   UNL A   1      37.515  21.674  24.794  1.00  0.00    -0.374 OA
ENDROOT
BRANCH   1   2
ATOM      2  C   UNL A   1      36.463  22.242  24.011  1.00  0.00     0.202 C 
BRANCH   2   3
ATOM      3  C   UNL A   1      35.146  22.494  24.749  1.00  0.00     0.261 C 
BRANCH   3   4
ATOM      4  O   UNL A   1      34.037  21.862  24.080  1.00  0.00    -0.461 OA
BRANCH   4   5
ATOM      5  C   UNL A   1      32.852  21.892  24.733  1.00  0.00     0.344 C 
ATOM      6  O   UNL A   1      32.042  20.964  24.720  1.00  0.00    -0.249 OA
BRANCH   5   7
ATOM      7  C   UNL A   1      32.549  23.178  25.490  1.00  0.00     0.311 C 
ATOM      8  F   UNL A   1      32.285  22.896  26.805  1.00  0.00    -0.231 F 
BRANCH   7   9
ATOM      9  C   UNL A   1      31.507  24.220  24.983  1.00  0.00     0.129 C 
ATOM     10  C   UNL A   1      30.909  25.013  26.161  1.00  0.00     0.051 C 
BRANCH   9  11
ATOM     11  O   UNL A   1      30.443  23.542  24.295  1.00  0.00    -0.382 OA
ATOM     12  H   UNL A   1      29.845  24.196  23.901  1.00  0.00     0.212 HD
ENDBRANCH   9  11
BRANCH   9  13
ATOM     13  C   UNL A   1      32.110  25.170  23.910  1.00  0.00    -0.010 A 
ATOM     14  C   UNL A   1      33.172  26.055  24.195  1.00  0.00     0.007 A 
ATOM     15  C   UNL A   1      31.651  25.152  22.577  1.00  0.00     0.053 A 
ATOM     16  C   UNL A   1      33.715  26.902  23.221  1.00  0.00     0.004 A 
ATOM     17  C   UNL A   1      32.189  26.010  21.615  1.00  0.00     0.115 A 
ATOM     18  C   UNL A   1      33.216  26.889  21.925  1.00  0.00     0.046 A 
BRANCH  17  19
ATOM     19  O   UNL A   1      31.668  25.955  20.356  1.00  0.00    -0.508 OA
ATOM     20  H   UNL A   1      31.918  26.593  19.716  1.00  0.00     0.293 HD
ENDBRANCH  17  19
ENDBRANCH   9  13
ENDBRANCH   7   9
ENDBRANCH   5   7
ENDBRANCH   4   5
ENDBRANCH   3   4
ENDBRANCH   2   3
ENDBRANCH   1   2
BRANCH   1  21
ATOM     21  C   UNL A   1      37.656  20.254  24.742  1.00  0.00     0.202 C 
BRANCH  21  22
ATOM     22  C   UNL A   1      38.912  19.684  25.415  1.00  0.00     0.261 C 
BRANCH  22  23
ATOM     23  O   UNL A   1      39.370  20.510  26.503  1.00  0.00    -0.460 OA
BRANCH  23  24
ATOM     24  C   UNL A   1      40.674  20.879  26.416  1.00  0.00     0.338 C 
ATOM     25  O   UNL A   1      41.554  20.324  25.780  1.00  0.00    -0.246 OA
BRANCH  24  26
ATOM     26  C   UNL A   1      40.888  22.186  27.069  1.00  0.00     0.060 A 
ATOM     27  C   UNL A   1      40.298  23.301  26.464  1.00  0.00     0.016 A 
ATOM     28  C   UNL A   1      41.727  22.341  28.174  1.00  0.00     0.016 A 
ATOM     29  C   UNL A   1      40.591  24.583  26.926  1.00  0.00     0.010 A 
ATOM     30  C   UNL A   1      42.024  23.633  28.634  1.00  0.00     0.010 A 
ATOM     31  C   UNL A   1      41.490  24.762  27.986  1.00  0.00    -0.014 A 
BRANCH  31  32
ATOM     32  C   UNL A   1      41.946  26.139  28.313  1.00  0.00     0.031 A 
ATOM     33  C   UNL A   1      43.339  26.570  27.935  1.00  0.00     0.074 A 
ATOM     34  C   UNL A   1      41.106  27.023  28.883  1.00  0.00     0.049 A 
ATOM     35  N   UNL A   1      43.897  27.749  28.046  1.00  0.00    -0.248 NA
ATOM     36  C   UNL A   1      44.217  25.544  27.351  1.00  0.00     0.031 C 
ATOM     37  C   UNL A   1      39.737  26.734  29.306  1.00  0.00     0.029 A 
ATOM     38  N   UNL A   1      41.287  28.345  29.207  1.00  0.00    -0.354 N 
ATOM     39  C   UNL A   1      45.190  27.607  27.553  1.00  0.00     0.074 A 
ATOM     40  C   UNL A   1      45.343  26.220  27.166  1.00  0.00     0.031 C 
ATOM     41  C   UNL A   1      39.206  27.843  29.852  1.00  0.00     0.029 A 
ATOM     42  C   UNL A   1      40.198  28.916  29.821  1.00  0.00     0.049 A 
ATOM     43  H   UNL A   1      42.119  28.837  29.019  1.00  0.00     0.167 HD
ATOM     44  C   UNL A   1      46.153  28.548  27.407  1.00  0.00     0.034 A 
ATOM     45  C   UNL A   1      40.021  30.162  30.306  1.00  0.00     0.034 A 
ATOM     46  C   UNL A   1      46.003  29.932  27.769  1.00  0.00     0.049 A 
ATOM     47  C   UNL A   1      41.115  31.186  30.140  1.00  0.00     0.074 A 
ATOM     48  C   UNL A   1      46.916  30.963  27.624  1.00  0.00     0.029 A 
ATOM     49  N   UNL A   1      44.873  30.481  28.352  1.00  0.00    -0.354 N 
ATOM     50  N   UNL A   1      42.277  31.066  29.548  1.00  0.00    -0.248 NA
ATOM     51  C   UNL A   1      40.853  32.531  30.676  1.00  0.00     0.031 C 
ATOM     52  C   UNL A   1      46.342  32.133  28.131  1.00  0.00     0.029 A 
ATOM     53  C   UNL A   1      45.066  31.834  28.579  1.00  0.00     0.049 A 
ATOM     54  H   UNL A   1      44.052  29.982  28.573  1.00  0.00     0.167 HD
ATOM     55  C   UNL A   1      42.872  32.321  29.614  1.00  0.00     0.074 A 
ATOM     56  C   UNL A   1      41.926  33.197  30.275  1.00  0.00     0.031 C 
ATOM     57  C   UNL A   1      44.099  32.710  29.189  1.00  0.00     0.034 A 
BRANCH  44  58
ATOM     58  C   UNL A   1      47.452  28.126  26.774  1.00  0.00     0.023 A 
ATOM     59  C   UNL A   1      48.553  27.826  27.602  1.00  0.00     0.012 A 
ATOM     60  C   UNL A   1      47.563  27.946  25.382  1.00  0.00     0.148 A 
ATOM     61  C   UNL A   1      49.751  27.371  27.053  1.00  0.00     0.002 A 
ATOM     62  C   UNL A   1      48.749  27.458  24.844  1.00  0.00     0.091 A 
ATOM     63  F   UNL A   1      46.511  28.258  24.612  1.00  0.00    -0.205 F 
ATOM     64  C   UNL A   1      49.845  27.177  25.677  1.00  0.00     0.022 A 
BRANCH  62  65
ATOM     65  S   UNL A   1      48.949  27.106  23.095  1.00  0.00     0.127 S 
ATOM     66  O   UNL A   1      48.167  25.879  22.949  1.00  0.00    -0.237 OA
ATOM     67  O   UNL A   1      48.352  28.287  22.472  1.00  0.00    -0.237 OA
ATOM     68  O   UNL A   1      50.381  26.962  22.875  1.00  0.00    -0.744 OA
ENDBRANCH  62  65
ENDBRANCH  44  58
BRANCH  45  69
ATOM     69  C   UNL A   1      38.735  30.529  30.964  1.00  0.00     0.023 A 
ATOM     70  C   UNL A   1      38.538  30.239  32.328  1.00  0.00     0.012 A 
ATOM     71  C   UNL A   1      37.705  31.164  30.242  1.00  0.00     0.148 A 
ATOM     72  C   UNL A   1      37.327  30.543  32.952  1.00  0.00     0.002 A 
ATOM     73  C   UNL A   1      36.524  31.515  30.884  1.00  0.00     0.091 A 
ATOM     74  F   UNL A   1      37.898  31.407  28.938  1.00  0.00    -0.205 F 
ATOM     75  C   UNL A   1      36.325  31.191  32.234  1.00  0.00     0.022 A 
BRANCH  73  76
ATOM     76  S   UNL A   1      35.248  32.470  30.058  1.00  0.00     0.127 S 
ATOM     77  O   UNL A   1      35.996  33.638  29.599  1.00  0.00    -0.237 OA
ATOM     78  O   UNL A   1      34.817  31.559  28.997  1.00  0.00    -0.237 OA
ATOM     79  O   UNL A   1      34.235  32.717  31.077  1.00  0.00    -0.744 OA
ENDBRANCH  73  76
ENDBRANCH  45  69
BRANCH  57  80
ATOM     80  C   UNL A   1      44.492  34.148  29.410  1.00  0.00     0.023 A 
ATOM     81  C   UNL A   1      45.052  34.534  30.644  1.00  0.00     0.012 A 
ATOM     82  C   UNL A   1      44.358  35.106  28.384  1.00  0.00     0.148 A 
ATOM     83  C   UNL A   1      45.436  35.855  30.869  1.00  0.00     0.002 A 
ATOM     84  C   UNL A   1      44.785  36.412  28.600  1.00  0.00     0.091 A 
ATOM     85  F   UNL A   1      43.806  34.730  27.221  1.00  0.00    -0.205 F 
ATOM     86  C   UNL A   1      45.313  36.791  29.845  1.00  0.00     0.022 A 
BRANCH  84  87
ATOM     87  S   UNL A   1      44.742  37.658  27.305  1.00  0.00     0.127 S 
ATOM     88  O   UNL A   1      45.727  37.139  26.359  1.00  0.00    -0.237 OA
ATOM     89  O   UNL A   1      43.355  37.587  26.843  1.00  0.00    -0.237 OA
ATOM     90  O   UNL A   1      45.092  38.913  27.957  1.00  0.00    -0.744 OA
ENDBRANCH  84  87
ENDBRANCH  57  80
ENDBRANCH  31  32
ENDBRANCH  24  26
ENDBRANCH  23  24
ENDBRANCH  22  23
ENDBRANCH  21  22
ENDBRANCH   1  21
TORSDOF 21
ENDMDL
