MODEL 1
REMARK VINA RESULT:     -12.9      0.000      0.000
REMARK SMILES O=C(CCN1C(=O)[C@@H]2[C@@H](C1=O)[C@H]1c3ccccc3[C@]2(Br)c2ccccc21)OCCOCCOC(=O)c1ccc(-c2c3nc(c(-c4cccc(S(=O)(=O)[O-])c4F)c4ccc([nH]4)c(-c4cccc(S(=O)(=O)[O-])c4F)c4nc(c(-c5cccc(S(=O)(=O)[O-])c5F)c5ccc2[nH]5)C=C4)C=C3)cc1
REMARK SMILES IDX 31 1 30 2 29 3 28 4 27 5 2 6 1 7 3 8 4 9 5 10 6 11 10 12
REMARK SMILES IDX 7 13 8 14 9 15 11 16 19 17 12 18 21 19 20 20 18 21 26 22
REMARK SMILES IDX 13 23 22 24 17 25 25 26 14 27 23 28 16 29 24 30 15 31 32 32
REMARK SMILES IDX 33 33 34 34 35 35 36 36 37 37 98 38 38 39 97 40 39 41 40 42
REMARK SMILES IDX 41 43 91 44 42 45 96 46 90 47 92 48 43 49 95 50 89 51 88 52
REMARK SMILES IDX 44 54 76 55 56 56 75 57 57 58 60 59 74 60 93 61 58 62 59 63
REMARK SMILES IDX 73 65 94 66 61 67 45 68 46 69 54 70 47 71 49 72 55 73 48 74
REMARK SMILES IDX 50 75 51 76 52 77 53 78 77 79 78 80 86 81 79 82 81 83 87 84
REMARK SMILES IDX 80 85 82 86 83 87 84 88 85 89 62 90 63 91 71 92 64 93 66 94
REMARK SMILES IDX 72 95 65 96 67 97 68 98 69 99 70 100
REMARK H PARENT 92 53 60 64
REMARK Flexibility Score: inf
ROOT
ATOM      1  C   UNL A   1      31.817  32.680  26.592  1.00  0.00     0.202 C 
ENDROOT
BRANCH   1   2
ATOM      2  O   UNL A   1      31.743  31.256  26.611  1.00  0.00    -0.374 OA
BRANCH   2   3
ATOM      3  C   UNL A   1      32.768  30.554  27.299  1.00  0.00     0.202 C 
BRANCH   3   4
ATOM      4  C   UNL A   1      33.663  29.636  26.460  1.00  0.00     0.261 C 
BRANCH   4   5
ATOM      5  O   UNL A   1      33.029  28.794  25.482  1.00  0.00    -0.463 OA
BRANCH   5   6
ATOM      6  C   UNL A   1      31.781  28.299  25.510  1.00  0.00     0.307 C 
ATOM      7  O   UNL A   1      30.929  28.725  24.731  1.00  0.00    -0.252 OA
BRANCH   6   8
ATOM      8  C   UNL A   1      31.411  27.301  26.565  1.00  0.00     0.144 C 
BRANCH   8   9
ATOM      9  C   UNL A   1      30.541  26.181  26.023  1.00  0.00     0.140 C 
BRANCH   9  10
ATOM     10  N   UNL A   1      31.298  25.010  25.608  1.00  0.00    -0.281 N 
ATOM     11  C   UNL A   1      31.819  24.833  24.325  1.00  0.00     0.235 C 
ATOM     12  C   UNL A   1      31.599  23.941  26.447  1.00  0.00     0.234 C 
ATOM     13  O   UNL A   1      31.772  25.628  23.405  1.00  0.00    -0.274 OA
ATOM     14  C   UNL A   1      32.206  23.381  24.273  1.00  0.00     0.118 C 
ATOM     15  C   UNL A   1      32.671  23.208  25.719  1.00  0.00     0.105 C 
ATOM     16  O   UNL A   1      31.156  23.708  27.553  1.00  0.00    -0.274 OA
ATOM     17  C   UNL A   1      33.183  22.607  23.373  1.00  0.00     0.088 C 
ATOM     18  C   UNL A   1      33.237  21.795  25.917  1.00  0.00     0.063 C 
ATOM     19  C   UNL A   1      32.631  21.155  23.560  1.00  0.00    -0.022 A 
ATOM     20  Br  UNL A   1      33.107  23.236  21.555  1.00  0.00    -0.074 Br
ATOM     21  C   UNL A   1      34.622  22.513  23.976  1.00  0.00    -0.022 A 
ATOM     22  C   UNL A   1      32.713  20.732  24.930  1.00  0.00    -0.035 A 
ATOM     23  C   UNL A   1      34.639  22.035  25.342  1.00  0.00    -0.035 A 
ATOM     24  C   UNL A   1      32.279  20.243  22.565  1.00  0.00     0.006 A 
ATOM     25  C   UNL A   1      35.839  22.612  23.317  1.00  0.00     0.006 A 
ATOM     26  C   UNL A   1      32.700  19.371  25.219  1.00  0.00     0.005 A 
ATOM     27  C   UNL A   1      35.802  21.708  26.020  1.00  0.00     0.005 A 
ATOM     28  C   UNL A   1      32.158  18.892  22.898  1.00  0.00     0.000 A 
ATOM     29  C   UNL A   1      37.017  22.271  24.001  1.00  0.00     0.000 A 
ATOM     30  C   UNL A   1      32.430  18.453  24.198  1.00  0.00     0.000 A 
ATOM     31  C   UNL A   1      37.000  21.830  25.334  1.00  0.00     0.000 A 
ENDBRANCH   9  10
ENDBRANCH   8   9
ENDBRANCH   6   8
ENDBRANCH   5   6
ENDBRANCH   4   5
ENDBRANCH   3   4
ENDBRANCH   2   3
ENDBRANCH   1   2
BRANCH   1  32
ATOM     32  C   UNL A   1      32.813  33.313  27.567  1.00  0.00     0.261 C 
BRANCH  32  33
ATOM     33  O   UNL A   1      32.335  34.588  28.037  1.00  0.00    -0.460 OA
BRANCH  33  34
ATOM     34  C   UNL A   1      33.152  35.251  28.895  1.00  0.00     0.338 C 
ATOM     35  O   UNL A   1      32.967  36.335  29.404  1.00  0.00    -0.246 OA
BRANCH  34  36
ATOM     36  C   UNL A   1      34.273  34.355  29.237  1.00  0.00     0.060 A 
ATOM     37  C   UNL A   1      35.556  34.564  28.727  1.00  0.00     0.016 A 
ATOM     38  C   UNL A   1      34.035  33.310  30.121  1.00  0.00     0.016 A 
ATOM     39  C   UNL A   1      36.609  33.717  29.120  1.00  0.00     0.010 A 
ATOM     40  C   UNL A   1      35.082  32.461  30.470  1.00  0.00     0.010 A 
ATOM     41  C   UNL A   1      36.387  32.656  30.015  1.00  0.00    -0.014 A 
BRANCH  41  42
ATOM     42  C   UNL A   1      37.506  31.892  30.648  1.00  0.00     0.031 A 
ATOM     43  C   UNL A   1      38.314  30.837  29.930  1.00  0.00     0.074 A 
ATOM     44  C   UNL A   1      37.699  32.034  31.976  1.00  0.00     0.049 A 
ATOM     45  N   UNL A   1      39.323  30.130  30.384  1.00  0.00    -0.248 NA
ATOM     46  C   UNL A   1      37.918  30.492  28.558  1.00  0.00     0.031 C 
ATOM     47  C   UNL A   1      36.872  32.856  32.862  1.00  0.00     0.029 A 
ATOM     48  N   UNL A   1      38.639  31.485  32.815  1.00  0.00    -0.354 N 
ATOM     49  C   UNL A   1      39.670  29.243  29.370  1.00  0.00     0.074 A 
ATOM     50  C   UNL A   1      38.733  29.477  28.287  1.00  0.00     0.031 C 
ATOM     51  C   UNL A   1      37.370  32.797  34.106  1.00  0.00     0.029 A 
ATOM     52  C   UNL A   1      38.553  31.939  34.109  1.00  0.00     0.049 A 
ATOM     53  H   UNL A   1      39.309  30.827  32.517  1.00  0.00     0.167 HD
ATOM     54  C   UNL A   1      40.691  28.349  29.326  1.00  0.00     0.034 A 
ATOM     55  C   UNL A   1      39.353  31.740  35.175  1.00  0.00     0.034 A 
ATOM     56  C   UNL A   1      41.675  28.169  30.367  1.00  0.00     0.049 A 
ATOM     57  C   UNL A   1      40.586  30.896  35.049  1.00  0.00     0.074 A 
ATOM     58  C   UNL A   1      42.829  27.400  30.333  1.00  0.00     0.029 A 
ATOM     59  N   UNL A   1      41.640  28.765  31.615  1.00  0.00    -0.354 N 
ATOM     60  N   UNL A   1      41.015  30.221  34.013  1.00  0.00    -0.248 NA
ATOM     61  C   UNL A   1      41.470  30.823  36.223  1.00  0.00     0.031 C 
ATOM     62  C   UNL A   1      43.494  27.539  31.555  1.00  0.00     0.029 A 
ATOM     63  C   UNL A   1      42.758  28.399  32.349  1.00  0.00     0.049 A 
ATOM     64  H   UNL A   1      40.925  29.361  31.936  1.00  0.00     0.167 HD
ATOM     65  C   UNL A   1      42.228  29.661  34.401  1.00  0.00     0.074 A 
ATOM     66  C   UNL A   1      42.476  30.090  35.760  1.00  0.00     0.031 C 
ATOM     67  C   UNL A   1      43.046  28.852  33.686  1.00  0.00     0.034 A 
BRANCH  54  68
ATOM     68  C   UNL A   1      40.905  27.567  28.052  1.00  0.00     0.023 A 
ATOM     69  C   UNL A   1      41.407  28.247  26.924  1.00  0.00     0.012 A 
ATOM     70  C   UNL A   1      40.767  26.165  28.006  1.00  0.00     0.148 A 
ATOM     71  C   UNL A   1      41.750  27.552  25.766  1.00  0.00     0.002 A 
ATOM     72  C   UNL A   1      41.145  25.473  26.858  1.00  0.00     0.091 A 
ATOM     73  F   UNL A   1      40.287  25.533  29.088  1.00  0.00    -0.205 F 
ATOM     74  C   UNL A   1      41.631  26.166  25.737  1.00  0.00     0.022 A 
BRANCH  72  75
ATOM     75  S   UNL A   1      41.098  23.679  26.734  1.00  0.00     0.127 S 
ATOM     76  O   UNL A   1      41.612  23.283  28.045  1.00  0.00    -0.237 OA
ATOM     77  O   UNL A   1      39.672  23.421  26.534  1.00  0.00    -0.237 OA
ATOM     78  O   UNL A   1      41.947  23.330  25.605  1.00  0.00    -0.744 OA
ENDBRANCH  72  75
ENDBRANCH  54  68
BRANCH  55  79
ATOM     79  C   UNL A   1      39.083  32.509  36.416  1.00  0.00     0.023 A 
ATOM     80  C   UNL A   1      39.612  33.809  36.527  1.00  0.00     0.012 A 
ATOM     81  C   UNL A   1      38.243  32.009  37.428  1.00  0.00     0.148 A 
ATOM     82  C   UNL A   1      39.315  34.602  37.633  1.00  0.00     0.002 A 
ATOM     83  C   UNL A   1      37.925  32.817  38.512  1.00  0.00     0.091 A 
ATOM     84  F   UNL A   1      37.744  30.774  37.282  1.00  0.00    -0.205 F 
ATOM     85  C   UNL A   1      38.466  34.110  38.620  1.00  0.00     0.022 A 
BRANCH  83  86
ATOM     86  S   UNL A   1      36.772  32.315  39.792  1.00  0.00     0.127 S 
ATOM     87  O   UNL A   1      35.504  32.304  39.064  1.00  0.00    -0.237 OA
ATOM     88  O   UNL A   1      37.288  30.994  40.152  1.00  0.00    -0.237 OA
ATOM     89  O   UNL A   1      36.878  33.321  40.838  1.00  0.00    -0.744 OA
ENDBRANCH  83  86
ENDBRANCH  55  79
BRANCH  67  90
ATOM     90  C   UNL A   1      44.316  28.367  34.337  1.00  0.00     0.023 A 
ATOM     91  C   UNL A   1      45.488  29.141  34.234  1.00  0.00     0.012 A 
ATOM     92  C   UNL A   1      44.326  27.199  35.125  1.00  0.00     0.148 A 
ATOM     93  C   UNL A   1      46.654  28.754  34.894  1.00  0.00     0.002 A 
ATOM     94  C   UNL A   1      45.484  26.834  35.805  1.00  0.00     0.091 A 
ATOM     95  F   UNL A   1      43.203  26.470  35.199  1.00  0.00    -0.205 F 
ATOM     96  C   UNL A   1      46.650  27.609  35.687  1.00  0.00     0.022 A 
BRANCH  94  97
ATOM     97  S   UNL A   1      45.564  25.411  36.899  1.00  0.00     0.127 S 
ATOM     98  O   UNL A   1      44.925  24.376  36.088  1.00  0.00    -0.237 OA
ATOM     99  O   UNL A   1      47.006  25.242  37.081  1.00  0.00    -0.237 OA
ATOM    100  O   UNL A   1      44.838  25.786  38.106  1.00  0.00    -0.744 OA
ENDBRANCH  94  97
ENDBRANCH  67  90
ENDBRANCH  41  42
ENDBRANCH  34  36
ENDBRANCH  33  34
ENDBRANCH  32  33
ENDBRANCH   1  32
TORSDOF 19
ENDMDL
MODEL 2
REMARK VINA RESULT:     -12.7      2.374      7.932
REMARK SMILES O=C(CCN1C(=O)[C@@H]2[C@@H](C1=O)[C@H]1c3ccccc3[C@]2(Br)c2ccccc21)OCCOCCOC(=O)c1ccc(-c2c3nc(c(-c4cccc(S(=O)(=O)[O-])c4F)c4ccc([nH]4)c(-c4cccc(S(=O)(=O)[O-])c4F)c4nc(c(-c5cccc(S(=O)(=O)[O-])c5F)c5ccc2[nH]5)C=C4)C=C3)cc1
REMARK SMILES IDX 31 1 30 2 29 3 28 4 27 5 2 6 1 7 3 8 4 9 5 10 6 11 10 12
REMARK SMILES IDX 7 13 8 14 9 15 11 16 19 17 12 18 21 19 20 20 18 21 26 22
REMARK SMILES IDX 13 23 22 24 17 25 25 26 14 27 23 28 16 29 24 30 15 31 32 32
REMARK SMILES IDX 33 33 34 34 35 35 36 36 37 37 98 38 38 39 97 40 39 41 40 42
REMARK SMILES IDX 41 43 91 44 42 45 96 46 90 47 92 48 43 49 95 50 89 51 88 52
REMARK SMILES IDX 44 54 76 55 56 56 75 57 57 58 60 59 74 60 93 61 58 62 59 63
REMARK SMILES IDX 73 65 94 66 61 67 45 68 46 69 54 70 47 71 49 72 55 73 48 74
REMARK SMILES IDX 50 75 51 76 52 77 53 78 77 79 78 80 86 81 79 82 81 83 87 84
REMARK SMILES IDX 80 85 82 86 83 87 84 88 85 89 62 90 63 91 71 92 64 93 66 94
REMARK SMILES IDX 72 95 65 96 67 97 68 98 69 99 70 100
REMARK H PARENT 92 53 60 64
REMARK Flexibility Score: inf
ROOT
ATOM      1  C   UNL A   1      33.688  28.307  25.741  1.00  0.00     0.202 C 
ENDROOT
BRANCH   1   2
ATOM      2  O   UNL A   1      33.969  28.028  24.370  1.00  0.00    -0.374 OA
BRANCH   2   3
ATOM      3  C   UNL A   1      33.590  29.004  23.410  1.00  0.00     0.202 C 
BRANCH   3   4
ATOM      4  C   UNL A   1      32.283  28.757  22.649  1.00  0.00     0.261 C 
BRANCH   4   5
ATOM      5  O   UNL A   1      31.051  29.108  23.302  1.00  0.00    -0.463 OA
BRANCH   5   6
ATOM      6  C   UNL A   1      30.078  28.281  23.718  1.00  0.00     0.307 C 
ATOM      7  O   UNL A   1      29.013  28.221  23.105  1.00  0.00    -0.252 OA
BRANCH   6   8
ATOM      8  C   UNL A   1      30.262  27.512  24.990  1.00  0.00     0.144 C 
BRANCH   8   9
ATOM      9  C   UNL A   1      29.726  26.094  24.894  1.00  0.00     0.140 C 
BRANCH   9  10
ATOM     10  N   UNL A   1      30.772  25.086  24.809  1.00  0.00    -0.281 N 
ATOM     11  C   UNL A   1      31.255  24.370  25.905  1.00  0.00     0.235 C 
ATOM     12  C   UNL A   1      31.398  24.714  23.623  1.00  0.00     0.234 C 
ATOM     13  O   UNL A   1      30.850  24.434  27.051  1.00  0.00    -0.274 OA
ATOM     14  C   UNL A   1      32.516  23.721  25.404  1.00  0.00     0.118 C 
ATOM     15  C   UNL A   1      32.080  23.436  23.967  1.00  0.00     0.105 C 
ATOM     16  O   UNL A   1      31.332  25.254  22.538  1.00  0.00    -0.274 OA
ATOM     17  C   UNL A   1      33.314  22.504  25.900  1.00  0.00     0.088 C 
ATOM     18  C   UNL A   1      33.181  22.654  23.237  1.00  0.00     0.063 C 
ATOM     19  C   UNL A   1      34.700  22.802  25.237  1.00  0.00    -0.022 A 
ATOM     20  Br  UNL A   1      33.373  22.443  27.823  1.00  0.00    -0.074 Br
ATOM     21  C   UNL A   1      32.879  21.169  25.212  1.00  0.00    -0.022 A 
ATOM     22  C   UNL A   1      34.603  22.833  23.805  1.00  0.00    -0.035 A 
ATOM     23  C   UNL A   1      32.849  21.254  23.768  1.00  0.00    -0.035 A 
ATOM     24  C   UNL A   1      35.950  22.841  25.856  1.00  0.00     0.006 A 
ATOM     25  C   UNL A   1      32.745  19.912  25.784  1.00  0.00     0.006 A 
ATOM     26  C   UNL A   1      35.752  22.638  23.045  1.00  0.00     0.005 A 
ATOM     27  C   UNL A   1      32.661  20.155  22.945  1.00  0.00     0.005 A 
ATOM     28  C   UNL A   1      37.098  22.758  25.066  1.00  0.00     0.000 A 
ATOM     29  C   UNL A   1      32.566  18.797  24.949  1.00  0.00     0.000 A 
ATOM     30  C   UNL A   1      36.998  22.592  23.680  1.00  0.00     0.000 A 
ATOM     31  C   UNL A   1      32.520  18.916  23.551  1.00  0.00     0.000 A 
ENDBRANCH   9  10
ENDBRANCH   8   9
ENDBRANCH   6   8
ENDBRANCH   5   6
ENDBRANCH   4   5
ENDBRANCH   3   4
ENDBRANCH   2   3
ENDBRANCH   1   2
BRANCH   1  32
ATOM     32  C   UNL A   1      33.449  29.778  26.090  1.00  0.00     0.261 C 
BRANCH  32  33
ATOM     33  O   UNL A   1      33.838  30.054  27.450  1.00  0.00    -0.460 OA
BRANCH  33  34
ATOM     34  C   UNL A   1      34.573  31.180  27.642  1.00  0.00     0.338 C 
ATOM     35  O   UNL A   1      34.262  32.320  27.380  1.00  0.00    -0.246 OA
BRANCH  34  36
ATOM     36  C   UNL A   1      35.796  30.802  28.376  1.00  0.00     0.060 A 
ATOM     37  C   UNL A   1      35.826  29.694  29.225  1.00  0.00     0.016 A 
ATOM     38  C   UNL A   1      36.946  31.555  28.171  1.00  0.00     0.016 A 
ATOM     39  C   UNL A   1      37.027  29.337  29.865  1.00  0.00     0.010 A 
ATOM     40  C   UNL A   1      38.116  31.207  28.841  1.00  0.00     0.010 A 
ATOM     41  C   UNL A   1      38.200  30.086  29.668  1.00  0.00    -0.014 A 
BRANCH  41  42
ATOM     42  C   UNL A   1      39.543  29.609  30.122  1.00  0.00     0.031 A 
ATOM     43  C   UNL A   1      40.288  30.194  31.299  1.00  0.00     0.074 A 
ATOM     44  C   UNL A   1      40.197  28.722  29.344  1.00  0.00     0.049 A 
ATOM     45  N   UNL A   1      41.451  29.837  31.791  1.00  0.00    -0.248 NA
ATOM     46  C   UNL A   1      39.687  31.350  31.979  1.00  0.00     0.031 C 
ATOM     47  C   UNL A   1      39.711  28.210  28.062  1.00  0.00     0.029 A 
ATOM     48  N   UNL A   1      41.414  28.103  29.508  1.00  0.00    -0.354 N 
ATOM     49  C   UNL A   1      41.736  30.730  32.818  1.00  0.00     0.074 A 
ATOM     50  C   UNL A   1      40.635  31.674  32.853  1.00  0.00     0.031 C 
ATOM     51  C   UNL A   1      40.592  27.320  27.582  1.00  0.00     0.029 A 
ATOM     52  C   UNL A   1      41.705  27.192  28.521  1.00  0.00     0.049 A 
ATOM     53  H   UNL A   1      42.020  28.296  30.260  1.00  0.00     0.167 HD
ATOM     54  C   UNL A   1      42.790  30.742  33.675  1.00  0.00     0.034 A 
ATOM     55  C   UNL A   1      42.718  26.313  28.395  1.00  0.00     0.034 A 
ATOM     56  C   UNL A   1      43.846  29.758  33.698  1.00  0.00     0.049 A 
ATOM     57  C   UNL A   1      43.772  26.215  29.457  1.00  0.00     0.074 A 
ATOM     58  C   UNL A   1      44.861  29.610  34.633  1.00  0.00     0.029 A 
ATOM     59  N   UNL A   1      44.025  28.752  32.765  1.00  0.00    -0.354 N 
ATOM     60  N   UNL A   1      43.916  26.938  30.539  1.00  0.00    -0.248 NA
ATOM     61  C   UNL A   1      44.777  25.151  29.307  1.00  0.00     0.031 C 
ATOM     62  C   UNL A   1      45.644  28.510  34.270  1.00  0.00     0.029 A 
ATOM     63  C   UNL A   1      45.116  27.970  33.112  1.00  0.00     0.049 A 
ATOM     64  H   UNL A   1      43.461  28.612  31.970  1.00  0.00     0.167 HD
ATOM     65  C   UNL A   1      45.012  26.404  31.209  1.00  0.00     0.074 A 
ATOM     66  C   UNL A   1      45.484  25.286  30.422  1.00  0.00     0.031 C 
ATOM     67  C   UNL A   1      45.573  26.824  32.368  1.00  0.00     0.034 A 
BRANCH  54  68
ATOM     68  C   UNL A   1      42.808  31.779  34.773  1.00  0.00     0.023 A 
ATOM     69  C   UNL A   1      43.560  32.954  34.575  1.00  0.00     0.012 A 
ATOM     70  C   UNL A   1      41.978  31.676  35.908  1.00  0.00     0.148 A 
ATOM     71  C   UNL A   1      43.505  34.000  35.493  1.00  0.00     0.002 A 
ATOM     72  C   UNL A   1      41.901  32.740  36.804  1.00  0.00     0.091 A 
ATOM     73  F   UNL A   1      41.268  30.551  36.083  1.00  0.00    -0.205 F 
ATOM     74  C   UNL A   1      42.668  33.899  36.599  1.00  0.00     0.022 A 
BRANCH  72  75
ATOM     75  S   UNL A   1      40.802  32.746  38.227  1.00  0.00     0.127 S 
ATOM     76  O   UNL A   1      41.577  31.970  39.196  1.00  0.00    -0.237 OA
ATOM     77  O   UNL A   1      40.698  34.173  38.532  1.00  0.00    -0.237 OA
ATOM     78  O   UNL A   1      39.564  32.123  37.784  1.00  0.00    -0.744 OA
ENDBRANCH  72  75
ENDBRANCH  54  68
BRANCH  55  79
ATOM     79  C   UNL A   1      42.670  25.334  27.280  1.00  0.00     0.023 A 
ATOM     80  C   UNL A   1      43.285  25.678  26.060  1.00  0.00     0.012 A 
ATOM     81  C   UNL A   1      42.117  24.052  27.444  1.00  0.00     0.148 A 
ATOM     82  C   UNL A   1      43.343  24.760  25.014  1.00  0.00     0.002 A 
ATOM     83  C   UNL A   1      42.206  23.131  26.409  1.00  0.00     0.091 A 
ATOM     84  F   UNL A   1      41.554  23.753  28.624  1.00  0.00    -0.205 F 
ATOM     85  C   UNL A   1      42.812  23.486  25.191  1.00  0.00     0.022 A 
BRANCH  83  86
ATOM     86  S   UNL A   1      41.635  21.437  26.563  1.00  0.00     0.127 S 
ATOM     87  O   UNL A   1      42.388  20.770  25.501  1.00  0.00    -0.237 OA
ATOM     88  O   UNL A   1      42.061  21.105  27.922  1.00  0.00    -0.237 OA
ATOM     89  O   UNL A   1      40.194  21.484  26.365  1.00  0.00    -0.744 OA
ENDBRANCH  83  86
ENDBRANCH  55  79
BRANCH  67  90
ATOM     90  C   UNL A   1      46.771  26.075  32.892  1.00  0.00     0.023 A 
ATOM     91  C   UNL A   1      48.067  26.538  32.588  1.00  0.00     0.012 A 
ATOM     92  C   UNL A   1      46.616  24.974  33.758  1.00  0.00     0.148 A 
ATOM     93  C   UNL A   1      49.189  25.910  33.128  1.00  0.00     0.002 A 
ATOM     94  C   UNL A   1      47.739  24.371  34.317  1.00  0.00     0.091 A 
ATOM     95  F   UNL A   1      45.375  24.543  34.024  1.00  0.00    -0.205 F 
ATOM     96  C   UNL A   1      49.026  24.835  33.998  1.00  0.00     0.022 A 
BRANCH  94  97
ATOM     97  S   UNL A   1      47.634  23.019  35.495  1.00  0.00     0.127 S 
ATOM     98  O   UNL A   1      47.143  23.704  36.690  1.00  0.00    -0.237 OA
ATOM     99  O   UNL A   1      46.664  22.129  34.860  1.00  0.00    -0.237 OA
ATOM    100  O   UNL A   1      48.981  22.473  35.606  1.00  0.00    -0.744 OA
ENDBRANCH  94  97
ENDBRANCH  67  90
ENDBRANCH  41  42
ENDBRANCH  34  36
ENDBRANCH  33  34
ENDBRANCH  32  33
ENDBRANCH   1  32
TORSDOF 19
ENDMDL
MODEL 3
REMARK VINA RESULT:     -12.6      2.422      7.702
REMARK SMILES O=C(CCN1C(=O)[C@@H]2[C@@H](C1=O)[C@H]1c3ccccc3[C@]2(Br)c2ccccc21)OCCOCCOC(=O)c1ccc(-c2c3nc(c(-c4cccc(S(=O)(=O)[O-])c4F)c4ccc([nH]4)c(-c4cccc(S(=O)(=O)[O-])c4F)c4nc(c(-c5cccc(S(=O)(=O)[O-])c5F)c5ccc2[nH]5)C=C4)C=C3)cc1
REMARK SMILES IDX 31 1 30 2 29 3 28 4 27 5 2 6 1 7 3 8 4 9 5 10 6 11 10 12
REMARK SMILES IDX 7 13 8 14 9 15 11 16 19 17 12 18 21 19 20 20 18 21 26 22
REMARK SMILES IDX 13 23 22 24 17 25 25 26 14 27 23 28 16 29 24 30 15 31 32 32
REMARK SMILES IDX 33 33 34 34 35 35 36 36 37 37 98 38 38 39 97 40 39 41 40 42
REMARK SMILES IDX 41 43 91 44 42 45 96 46 90 47 92 48 43 49 95 50 89 51 88 52
REMARK SMILES IDX 44 54 76 55 56 56 75 57 57 58 60 59 74 60 93 61 58 62 59 63
REMARK SMILES IDX 73 65 94 66 61 67 45 68 46 69 54 70 47 71 49 72 55 73 48 74
REMARK SMILES IDX 50 75 51 76 52 77 53 78 77 79 78 80 86 81 79 82 81 83 87 84
REMARK SMILES IDX 80 85 82 86 83 87 84 88 85 89 62 90 63 91 71 92 64 93 66 94
REMARK SMILES IDX 72 95 65 96 67 97 68 98 69 99 70 100
REMARK H PARENT 92 53 60 64
REMARK Flexibility Score: inf
ROOT
ATOM      1  C   UNL A   1      33.658  28.269  25.527  1.00  0.00     0.202 C 
ENDROOT
BRANCH   1   2
ATOM      2  O   UNL A   1      34.070  28.077  24.175  1.00  0.00    -0.374 OA
BRANCH   2   3
ATOM      3  C   UNL A   1      33.636  29.028  23.214  1.00  0.00     0.202 C 
BRANCH   3   4
ATOM      4  C   UNL A   1      32.221  28.849  22.652  1.00  0.00     0.261 C 
BRANCH   4   5
ATOM      5  O   UNL A   1      31.114  29.056  23.545  1.00  0.00    -0.463 OA
BRANCH   5   6
ATOM      6  C   UNL A   1      30.175  28.167  23.908  1.00  0.00     0.307 C 
ATOM      7  O   UNL A   1      29.144  28.051  23.247  1.00  0.00    -0.252 OA
BRANCH   6   8
ATOM      8  C   UNL A   1      30.349  27.391  25.179  1.00  0.00     0.144 C 
BRANCH   8   9
ATOM      9  C   UNL A   1      29.676  26.031  25.125  1.00  0.00     0.140 C 
BRANCH   9  10
ATOM     10  N   UNL A   1      30.611  24.930  24.955  1.00  0.00    -0.281 N 
ATOM     11  C   UNL A   1      31.241  24.622  23.748  1.00  0.00     0.235 C 
ATOM     12  C   UNL A   1      30.991  24.067  25.979  1.00  0.00     0.234 C 
ATOM     13  O   UNL A   1      31.155  25.241  22.704  1.00  0.00    -0.274 OA
ATOM     14  C   UNL A   1      31.822  23.252  23.965  1.00  0.00     0.118 C 
ATOM     15  C   UNL A   1      32.201  23.387  25.440  1.00  0.00     0.105 C 
ATOM     16  O   UNL A   1      30.505  23.957  27.086  1.00  0.00    -0.274 OA
ATOM     17  C   UNL A   1      32.955  22.491  23.260  1.00  0.00     0.088 C 
ATOM     18  C   UNL A   1      32.935  22.122  25.905  1.00  0.00     0.063 C 
ATOM     19  C   UNL A   1      32.591  21.025  23.666  1.00  0.00    -0.022 A 
ATOM     20  Br  UNL A   1      32.927  22.796  21.360  1.00  0.00    -0.074 Br
ATOM     21  C   UNL A   1      34.347  22.704  23.939  1.00  0.00    -0.022 A 
ATOM     22  C   UNL A   1      32.630  20.847  25.091  1.00  0.00    -0.035 A 
ATOM     23  C   UNL A   1      34.330  22.463  25.366  1.00  0.00    -0.035 A 
ATOM     24  C   UNL A   1      32.436  19.921  22.828  1.00  0.00     0.006 A 
ATOM     25  C   UNL A   1      35.584  22.868  23.332  1.00  0.00     0.006 A 
ATOM     26  C   UNL A   1      32.778  19.565  25.609  1.00  0.00     0.005 A 
ATOM     27  C   UNL A   1      35.474  22.423  26.145  1.00  0.00     0.005 A 
ATOM     28  C   UNL A   1      32.473  18.640  23.382  1.00  0.00     0.000 A 
ATOM     29  C   UNL A   1      36.745  22.817  24.120  1.00  0.00     0.000 A 
ATOM     30  C   UNL A   1      32.708  18.463  24.750  1.00  0.00     0.000 A 
ATOM     31  C   UNL A   1      36.692  22.601  25.507  1.00  0.00     0.000 A 
ENDBRANCH   9  10
ENDBRANCH   8   9
ENDBRANCH   6   8
ENDBRANCH   5   6
ENDBRANCH   4   5
ENDBRANCH   3   4
ENDBRANCH   2   3
ENDBRANCH   1   2
BRANCH   1  32
ATOM     32  C   UNL A   1      33.600  29.721  26.011  1.00  0.00     0.261 C 
BRANCH  32  33
ATOM     33  O   UNL A   1      33.959  29.814  27.403  1.00  0.00    -0.460 OA
BRANCH  33  34
ATOM     34  C   UNL A   1      34.545  30.976  27.790  1.00  0.00     0.338 C 
ATOM     35  O   UNL A   1      34.091  32.096  27.708  1.00  0.00    -0.246 OA
BRANCH  34  36
ATOM     36  C   UNL A   1      35.805  30.641  28.480  1.00  0.00     0.060 A 
ATOM     37  C   UNL A   1      35.867  29.623  29.433  1.00  0.00     0.016 A 
ATOM     38  C   UNL A   1      36.955  31.339  28.128  1.00  0.00     0.016 A 
ATOM     39  C   UNL A   1      37.100  29.299  30.029  1.00  0.00     0.010 A 
ATOM     40  C   UNL A   1      38.158  31.028  28.754  1.00  0.00     0.010 A 
ATOM     41  C   UNL A   1      38.273  29.993  29.684  1.00  0.00    -0.014 A 
BRANCH  41  42
ATOM     42  C   UNL A   1      39.633  29.528  30.098  1.00  0.00     0.031 A 
ATOM     43  C   UNL A   1      40.419  30.139  31.234  1.00  0.00     0.074 A 
ATOM     44  C   UNL A   1      40.260  28.626  29.315  1.00  0.00     0.049 A 
ATOM     45  N   UNL A   1      41.600  29.793  31.690  1.00  0.00    -0.248 NA
ATOM     46  C   UNL A   1      39.840  31.307  31.912  1.00  0.00     0.031 C 
ATOM     47  C   UNL A   1      39.729  28.086  28.063  1.00  0.00     0.029 A 
ATOM     48  N   UNL A   1      41.484  28.013  29.447  1.00  0.00    -0.354 N 
ATOM     49  C   UNL A   1      41.921  30.708  32.688  1.00  0.00     0.074 A 
ATOM     50  C   UNL A   1      40.819  31.651  32.743  1.00  0.00     0.031 C 
ATOM     51  C   UNL A   1      40.594  27.188  27.570  1.00  0.00     0.029 A 
ATOM     52  C   UNL A   1      41.740  27.082  28.469  1.00  0.00     0.049 A 
ATOM     53  H   UNL A   1      42.116  28.222  30.173  1.00  0.00     0.167 HD
ATOM     54  C   UNL A   1      43.005  30.740  33.505  1.00  0.00     0.034 A 
ATOM     55  C   UNL A   1      42.750  26.202  28.325  1.00  0.00     0.034 A 
ATOM     56  C   UNL A   1      44.064  29.758  33.510  1.00  0.00     0.049 A 
ATOM     57  C   UNL A   1      43.843  26.128  29.350  1.00  0.00     0.074 A 
ATOM     58  C   UNL A   1      45.112  29.632  34.410  1.00  0.00     0.029 A 
ATOM     59  N   UNL A   1      44.211  28.733  32.592  1.00  0.00    -0.354 N 
ATOM     60  N   UNL A   1      44.025  26.873  30.409  1.00  0.00    -0.248 NA
ATOM     61  C   UNL A   1      44.845  25.062  29.184  1.00  0.00     0.031 C 
ATOM     62  C   UNL A   1      45.884  28.526  34.042  1.00  0.00     0.029 A 
ATOM     63  C   UNL A   1      45.315  27.960  32.915  1.00  0.00     0.049 A 
ATOM     64  H   UNL A   1      43.618  28.576  31.822  1.00  0.00     0.167 HD
ATOM     65  C   UNL A   1      45.145  26.355  31.050  1.00  0.00     0.074 A 
ATOM     66  C   UNL A   1      45.591  25.221  30.270  1.00  0.00     0.031 C 
ATOM     67  C   UNL A   1      45.748  26.800  32.179  1.00  0.00     0.034 A 
BRANCH  54  68
ATOM     68  C   UNL A   1      43.061  31.800  34.580  1.00  0.00     0.023 A 
ATOM     69  C   UNL A   1      43.656  33.039  34.271  1.00  0.00     0.012 A 
ATOM     70  C   UNL A   1      42.402  31.641  35.817  1.00  0.00     0.148 A 
ATOM     71  C   UNL A   1      43.616  34.096  35.177  1.00  0.00     0.002 A 
ATOM     72  C   UNL A   1      42.334  32.714  36.703  1.00  0.00     0.091 A 
ATOM     73  F   UNL A   1      41.840  30.456  36.096  1.00  0.00    -0.205 F 
ATOM     74  C   UNL A   1      42.945  33.938  36.386  1.00  0.00     0.022 A 
BRANCH  72  75
ATOM     75  S   UNL A   1      41.437  32.644  38.260  1.00  0.00     0.127 S 
ATOM     76  O   UNL A   1      41.538  34.030  38.717  1.00  0.00    -0.237 OA
ATOM     77  O   UNL A   1      40.099  32.239  37.828  1.00  0.00    -0.237 OA
ATOM     78  O   UNL A   1      42.135  31.668  39.084  1.00  0.00    -0.744 OA
ENDBRANCH  72  75
ENDBRANCH  54  68
BRANCH  55  79
ATOM     79  C   UNL A   1      42.664  25.199  27.233  1.00  0.00     0.023 A 
ATOM     80  C   UNL A   1      43.335  25.468  26.023  1.00  0.00     0.012 A 
ATOM     81  C   UNL A   1      42.018  23.964  27.412  1.00  0.00     0.148 A 
ATOM     82  C   UNL A   1      43.356  24.521  25.001  1.00  0.00     0.002 A 
ATOM     83  C   UNL A   1      42.071  23.012  26.402  1.00  0.00     0.091 A 
ATOM     84  F   UNL A   1      41.404  23.735  28.582  1.00  0.00    -0.205 F 
ATOM     85  C   UNL A   1      42.732  23.292  25.194  1.00  0.00     0.022 A 
BRANCH  83  86
ATOM     86  S   UNL A   1      41.378  21.366  26.580  1.00  0.00     0.127 S 
ATOM     87  O   UNL A   1      39.969  21.600  26.271  1.00  0.00    -0.237 OA
ATOM     88  O   UNL A   1      42.119  20.623  25.560  1.00  0.00    -0.237 OA
ATOM     89  O   UNL A   1      41.654  20.966  27.952  1.00  0.00    -0.744 OA
ENDBRANCH  83  86
ENDBRANCH  55  79
BRANCH  67  90
ATOM     90  C   UNL A   1      46.966  26.064  32.675  1.00  0.00     0.023 A 
ATOM     91  C   UNL A   1      48.248  26.507  32.292  1.00  0.00     0.012 A 
ATOM     92  C   UNL A   1      46.847  24.999  33.589  1.00  0.00     0.148 A 
ATOM     93  C   UNL A   1      49.392  25.893  32.801  1.00  0.00     0.002 A 
ATOM     94  C   UNL A   1      47.993  24.410  34.116  1.00  0.00     0.091 A 
ATOM     95  F   UNL A   1      45.618  24.586  33.930  1.00  0.00    -0.205 F 
ATOM     96  C   UNL A   1      49.266  24.854  33.720  1.00  0.00     0.022 A 
BRANCH  94  97
ATOM     97  S   UNL A   1      47.938  23.105  35.350  1.00  0.00     0.127 S 
ATOM     98  O   UNL A   1      49.354  22.770  35.492  1.00  0.00    -0.237 OA
ATOM     99  O   UNL A   1      47.355  23.793  36.502  1.00  0.00    -0.237 OA
ATOM    100  O   UNL A   1      47.107  22.049  34.786  1.00  0.00    -0.744 OA
ENDBRANCH  94  97
ENDBRANCH  67  90
ENDBRANCH  41  42
ENDBRANCH  34  36
ENDBRANCH  33  34
ENDBRANCH  32  33
ENDBRANCH   1  32
TORSDOF 19
ENDMDL
