MODEL 1
REMARK VINA RESULT:     -11.9      0.000      0.000
REMARK SMILES CCCC(=O)Nc1cccc(C(=O)N[C@@H](C(=O)OCCOCCOC(=O)c2ccc(-c3c4nc(c(-c5cccc(S(=O)(=O)[O-])c5F)c5ccc([nH]5)c(-c5cccc(S(=O)(=O)[O-])c5F)c5nc(c(-c6cccc(S(=O)(=O)[O-])c6F)c6ccc3[nH]6)C=C5)C=C4)cc2)C2=C(C)N=N[C@@H]2C)c1
REMARK SMILES IDX 20 1 19 2 18 3 16 4 17 5 15 6 14 7 12 8 13 9 11 11 7 12 8 13
REMARK SMILES IDX 97 14 9 15 10 16 6 17 4 18 5 19 3 21 2 22 1 23 90 24 91 25
REMARK SMILES IDX 95 26 92 27 93 28 94 29 96 30 21 31 22 32 23 33 24 34 25 35
REMARK SMILES IDX 26 36 27 37 28 38 89 39 29 40 88 41 30 42 31 43 32 44 82 45
REMARK SMILES IDX 33 46 87 47 81 48 83 49 34 50 86 51 80 52 79 53 35 55 67 56
REMARK SMILES IDX 47 57 66 58 48 59 51 60 65 61 84 62 49 63 50 64 64 66 85 67
REMARK SMILES IDX 52 68 36 69 37 70 45 71 38 72 40 73 46 74 39 75 41 76 42 77
REMARK SMILES IDX 43 78 44 79 68 80 69 81 77 82 70 83 72 84 78 85 71 86 73 87
REMARK SMILES IDX 74 88 75 89 76 90 53 91 54 92 62 93 55 94 57 95 63 96 56 97
REMARK SMILES IDX 58 98 59 99 60 100 61 101
REMARK H PARENT 14 10 6 20 83 54 51 65
REMARK Flexibility Score: inf
ROOT
ATOM      1  C   UNL A   1      34.287  20.915  25.756  1.00  0.00     0.202 C 
ENDROOT
BRANCH   1   2
ATOM      2  C   UNL A   1      34.678  21.985  26.782  1.00  0.00     0.261 C 
BRANCH   2   3
ATOM      3  O   UNL A   1      34.015  23.234  26.551  1.00  0.00    -0.461 OA
BRANCH   3   4
ATOM      4  C   UNL A   1      34.611  24.060  25.641  1.00  0.00     0.333 C 
ATOM      5  O   UNL A   1      35.806  24.032  25.379  1.00  0.00    -0.249 OA
BRANCH   4   6
ATOM      6  C   UNL A   1      33.587  25.014  24.947  1.00  0.00     0.223 C 
BRANCH   6   7
ATOM      7  N   UNL A   1      32.295  24.910  25.637  1.00  0.00    -0.335 N 
ATOM      8  C   UNL A   1      31.454  25.856  26.178  1.00  0.00     0.252 C 
ATOM      9  O   UNL A   1      30.455  25.461  26.777  1.00  0.00    -0.269 OA
ATOM     10  H   UNL A   1      31.968  23.986  25.731  1.00  0.00     0.165 HD
BRANCH   8  11
ATOM     11  C   UNL A   1      31.660  27.317  25.993  1.00  0.00     0.041 A 
ATOM     12  C   UNL A   1      31.533  29.304  24.637  1.00  0.00     0.041 A 
ATOM     13  C   UNL A   1      31.588  30.112  25.769  1.00  0.00     0.026 A 
ATOM     14  C   UNL A   1      31.682  27.922  24.739  1.00  0.00     0.040 A 
ATOM     15  C   UNL A   1      31.752  29.518  27.020  1.00  0.00     0.003 A 
ATOM     16  C   UNL A   1      31.758  28.123  27.135  1.00  0.00     0.014 A 
BRANCH  12  17
ATOM     17  N   UNL A   1      31.256  29.831  23.371  1.00  0.00    -0.326 N 
ATOM     18  C   UNL A   1      30.076  29.610  22.702  1.00  0.00     0.224 C 
ATOM     19  O   UNL A   1      30.086  29.572  21.470  1.00  0.00    -0.275 OA
ATOM     20  H   UNL A   1      31.944  30.388  22.937  1.00  0.00     0.169 HD
BRANCH  18  21
ATOM     21  C   UNL A   1      28.782  29.383  23.474  1.00  0.00     0.100 C 
BRANCH  21  22
ATOM     22  C   UNL A   1      27.559  29.986  22.785  1.00  0.00     0.006 C 
ATOM     23  C   UNL A   1      27.609  31.504  22.664  1.00  0.00     0.004 C 
ENDBRANCH  21  22
ENDBRANCH  18  21
ENDBRANCH  12  17
ENDBRANCH   8  11
ENDBRANCH   6   7
BRANCH   6  24
ATOM     24  C   UNL A   1      33.478  24.769  23.457  1.00  0.00     0.012 C 
ATOM     25  C   UNL A   1      33.532  25.542  22.358  1.00  0.00     0.064 C 
ATOM     26  C   UNL A   1      33.471  23.363  22.890  1.00  0.00     0.156 C 
ATOM     27  C   UNL A   1      33.761  27.003  22.159  1.00  0.00     0.069 C 
ATOM     28  N   UNL A   1      33.401  24.823  21.192  1.00  0.00    -0.160 NA
ATOM     29  N   UNL A   1      33.327  23.595  21.429  1.00  0.00    -0.181 NA
ATOM     30  C   UNL A   1      32.413  22.354  23.301  1.00  0.00     0.040 C 
ENDBRANCH   6  24
ENDBRANCH   4   6
ENDBRANCH   3   4
ENDBRANCH   2   3
ENDBRANCH   1   2
BRANCH   1  31
ATOM     31  O   UNL A   1      35.228  20.594  24.735  1.00  0.00    -0.374 OA
BRANCH  31  32
ATOM     32  C   UNL A   1      36.300  19.706  25.050  1.00  0.00     0.202 C 
BRANCH  32  33
ATOM     33  C   UNL A   1      37.734  20.115  24.695  1.00  0.00     0.261 C 
BRANCH  33  34
ATOM     34  O   UNL A   1      38.174  21.264  25.436  1.00  0.00    -0.460 OA
BRANCH  34  35
ATOM     35  C   UNL A   1      39.321  21.064  26.133  1.00  0.00     0.338 C 
ATOM     36  O   UNL A   1      40.073  20.108  26.046  1.00  0.00    -0.246 OA
BRANCH  35  37
ATOM     37  C   UNL A   1      39.685  22.273  26.890  1.00  0.00     0.060 A 
ATOM     38  C   UNL A   1      39.037  23.464  26.535  1.00  0.00     0.016 A 
ATOM     39  C   UNL A   1      40.728  22.273  27.816  1.00  0.00     0.016 A 
ATOM     40  C   UNL A   1      39.477  24.675  27.056  1.00  0.00     0.010 A 
ATOM     41  C   UNL A   1      41.180  23.496  28.326  1.00  0.00     0.010 A 
ATOM     42  C   UNL A   1      40.587  24.701  27.907  1.00  0.00    -0.014 A 
BRANCH  42  43
ATOM     43  C   UNL A   1      41.229  26.005  28.194  1.00  0.00     0.031 A 
ATOM     44  C   UNL A   1      42.643  26.233  27.731  1.00  0.00     0.074 A 
ATOM     45  C   UNL A   1      40.542  26.987  28.805  1.00  0.00     0.049 A 
ATOM     46  N   UNL A   1      43.392  27.297  27.851  1.00  0.00    -0.248 NA
ATOM     47  C   UNL A   1      43.299  25.113  27.034  1.00  0.00     0.031 C 
ATOM     48  C   UNL A   1      39.164  26.882  29.282  1.00  0.00     0.029 A 
ATOM     49  N   UNL A   1      40.921  28.261  29.143  1.00  0.00    -0.354 N 
ATOM     50  C   UNL A   1      44.608  26.973  27.262  1.00  0.00     0.074 A 
ATOM     51  C   UNL A   1      44.505  25.607  26.798  1.00  0.00     0.031 C 
ATOM     52  C   UNL A   1      38.823  28.036  29.881  1.00  0.00     0.029 A 
ATOM     53  C   UNL A   1      39.961  28.950  29.843  1.00  0.00     0.049 A 
ATOM     54  H   UNL A   1      41.796  28.645  28.905  1.00  0.00     0.167 HD
ATOM     55  C   UNL A   1      45.705  27.749  27.101  1.00  0.00     0.034 A 
ATOM     56  C   UNL A   1      40.008  30.175  30.405  1.00  0.00     0.034 A 
ATOM     57  C   UNL A   1      45.797  29.111  27.552  1.00  0.00     0.049 A 
ATOM     58  C   UNL A   1      41.246  31.014  30.224  1.00  0.00     0.074 A 
ATOM     59  C   UNL A   1      46.861  29.987  27.436  1.00  0.00     0.029 A 
ATOM     60  N   UNL A   1      44.784  29.795  28.207  1.00  0.00    -0.354 N 
ATOM     61  N   UNL A   1      42.352  30.726  29.581  1.00  0.00    -0.248 NA
ATOM     62  C   UNL A   1      41.228  32.364  30.807  1.00  0.00     0.031 C 
ATOM     63  C   UNL A   1      46.495  31.199  28.032  1.00  0.00     0.029 A 
ATOM     64  C   UNL A   1      45.194  31.084  28.496  1.00  0.00     0.049 A 
ATOM     65  H   UNL A   1      43.903  29.418  28.433  1.00  0.00     0.167 HD
ATOM     66  C   UNL A   1      43.142  31.868  29.646  1.00  0.00     0.074 A 
ATOM     67  C   UNL A   1      42.378  32.861  30.373  1.00  0.00     0.031 C 
ATOM     68  C   UNL A   1      44.391  32.077  29.162  1.00  0.00     0.034 A 
BRANCH  55  69
ATOM     69  C   UNL A   1      46.884  27.158  26.373  1.00  0.00     0.023 A 
ATOM     70  C   UNL A   1      46.950  27.258  24.969  1.00  0.00     0.012 A 
ATOM     71  C   UNL A   1      47.954  26.572  27.077  1.00  0.00     0.148 A 
ATOM     72  C   UNL A   1      48.052  26.761  24.273  1.00  0.00     0.002 A 
ATOM     73  C   UNL A   1      49.067  26.115  26.379  1.00  0.00     0.091 A 
ATOM     74  F   UNL A   1      47.861  26.469  28.410  1.00  0.00    -0.205 F 
ATOM     75  C   UNL A   1      49.113  26.200  24.978  1.00  0.00     0.022 A 
BRANCH  73  76
ATOM     76  S   UNL A   1      50.518  25.444  27.198  1.00  0.00     0.127 S 
ATOM     77  O   UNL A   1      50.826  26.497  28.163  1.00  0.00    -0.237 OA
ATOM     78  O   UNL A   1      49.995  24.211  27.787  1.00  0.00    -0.237 OA
ATOM     79  O   UNL A   1      51.514  25.246  26.154  1.00  0.00    -0.744 OA
ENDBRANCH  73  76
ENDBRANCH  55  69
BRANCH  56  80
ATOM     80  C   UNL A   1      38.834  30.695  31.163  1.00  0.00     0.023 A 
ATOM     81  C   UNL A   1      38.725  30.446  32.544  1.00  0.00     0.012 A 
ATOM     82  C   UNL A   1      37.826  31.440  30.519  1.00  0.00     0.148 A 
ATOM     83  C   UNL A   1      37.616  30.896  33.263  1.00  0.00     0.002 A 
ATOM     84  C   UNL A   1      36.754  31.936  31.252  1.00  0.00     0.091 A 
ATOM     85  F   UNL A   1      37.934  31.651  29.199  1.00  0.00    -0.205 F 
ATOM     86  C   UNL A   1      36.636  31.649  32.620  1.00  0.00     0.022 A 
BRANCH  84  87
ATOM     87  S   UNL A   1      35.528  33.029  30.524  1.00  0.00     0.127 S 
ATOM     88  O   UNL A   1      34.788  33.477  31.701  1.00  0.00    -0.237 OA
ATOM     89  O   UNL A   1      36.363  34.052  29.894  1.00  0.00    -0.237 OA
ATOM     90  O   UNL A   1      34.787  32.203  29.579  1.00  0.00    -0.744 OA
ENDBRANCH  84  87
ENDBRANCH  56  80
BRANCH  68  91
ATOM     91  C   UNL A   1      44.995  33.444  29.350  1.00  0.00     0.023 A 
ATOM     92  C   UNL A   1      45.658  33.758  30.553  1.00  0.00     0.012 A 
ATOM     93  C   UNL A   1      44.967  34.389  28.306  1.00  0.00     0.148 A 
ATOM     94  C   UNL A   1      46.252  35.008  30.726  1.00  0.00     0.002 A 
ATOM     95  C   UNL A   1      45.602  35.613  28.469  1.00  0.00     0.091 A 
ATOM     96  F   UNL A   1      44.314  34.078  27.177  1.00  0.00    -0.205 F 
ATOM     97  C   UNL A   1      46.234  35.930  29.682  1.00  0.00     0.022 A 
BRANCH  95  98
ATOM     98  S   UNL A   1      45.709  36.820  27.143  1.00  0.00     0.127 S 
ATOM     99  O   UNL A   1      44.324  37.276  27.042  1.00  0.00    -0.237 OA
ATOM    100  O   UNL A   1      46.638  37.809  27.692  1.00  0.00    -0.237 OA
ATOM    101  O   UNL A   1      46.218  36.096  25.987  1.00  0.00    -0.744 OA
ENDBRANCH  95  98
ENDBRANCH  68  91
ENDBRANCH  42  43
ENDBRANCH  35  37
ENDBRANCH  34  35
ENDBRANCH  33  34
ENDBRANCH  32  33
ENDBRANCH  31  32
ENDBRANCH   1  31
TORSDOF 23
ENDMDL
MODEL 2
REMARK VINA RESULT:     -11.5      1.702      7.562
REMARK SMILES CCCC(=O)Nc1cccc(C(=O)N[C@@H](C(=O)OCCOCCOC(=O)c2ccc(-c3c4nc(c(-c5cccc(S(=O)(=O)[O-])c5F)c5ccc([nH]5)c(-c5cccc(S(=O)(=O)[O-])c5F)c5nc(c(-c6cccc(S(=O)(=O)[O-])c6F)c6ccc3[nH]6)C=C5)C=C4)cc2)C2=C(C)N=N[C@@H]2C)c1
REMARK SMILES IDX 20 1 19 2 18 3 16 4 17 5 15 6 14 7 12 8 13 9 11 11 7 12 8 13
REMARK SMILES IDX 97 14 9 15 10 16 6 17 4 18 5 19 3 21 2 22 1 23 90 24 91 25
REMARK SMILES IDX 95 26 92 27 93 28 94 29 96 30 21 31 22 32 23 33 24 34 25 35
REMARK SMILES IDX 26 36 27 37 28 38 89 39 29 40 88 41 30 42 31 43 32 44 82 45
REMARK SMILES IDX 33 46 87 47 81 48 83 49 34 50 86 51 80 52 79 53 35 55 67 56
REMARK SMILES IDX 47 57 66 58 48 59 51 60 65 61 84 62 49 63 50 64 64 66 85 67
REMARK SMILES IDX 52 68 36 69 37 70 45 71 38 72 40 73 46 74 39 75 41 76 42 77
REMARK SMILES IDX 43 78 44 79 68 80 69 81 77 82 70 83 72 84 78 85 71 86 73 87
REMARK SMILES IDX 74 88 75 89 76 90 53 91 54 92 62 93 55 94 57 95 63 96 56 97
REMARK SMILES IDX 58 98 59 99 60 100 61 101
REMARK H PARENT 14 10 6 20 83 54 51 65
REMARK Flexibility Score: inf
ROOT
ATOM      1  C   UNL A   1      34.226  21.096  25.725  1.00  0.00     0.202 C 
ENDROOT
BRANCH   1   2
ATOM      2  C   UNL A   1      34.858  22.187  26.597  1.00  0.00     0.261 C 
BRANCH   2   3
ATOM      3  O   UNL A   1      34.146  23.428  26.523  1.00  0.00    -0.461 OA
BRANCH   3   4
ATOM      4  C   UNL A   1      34.560  24.292  25.549  1.00  0.00     0.333 C 
ATOM      5  O   UNL A   1      35.714  24.360  25.149  1.00  0.00    -0.249 OA
BRANCH   4   6
ATOM      6  C   UNL A   1      33.386  25.150  24.980  1.00  0.00     0.223 C 
BRANCH   6   7
ATOM      7  N   UNL A   1      32.131  24.719  25.608  1.00  0.00    -0.335 N 
ATOM      8  C   UNL A   1      30.918  25.346  25.783  1.00  0.00     0.252 C 
ATOM      9  O   UNL A   1      30.055  24.755  26.430  1.00  0.00    -0.269 OA
ATOM     10  H   UNL A   1      32.163  23.806  25.974  1.00  0.00     0.165 HD
BRANCH   8  11
ATOM     11  C   UNL A   1      30.589  26.652  25.155  1.00  0.00     0.041 A 
ATOM     12  C   UNL A   1      31.036  28.995  24.814  1.00  0.00     0.041 A 
ATOM     13  C   UNL A   1      30.290  28.994  23.639  1.00  0.00     0.026 A 
ATOM     14  C   UNL A   1      31.092  27.863  25.625  1.00  0.00     0.040 A 
ATOM     15  C   UNL A   1      29.627  27.827  23.256  1.00  0.00     0.003 A 
ATOM     16  C   UNL A   1      29.800  26.652  23.996  1.00  0.00     0.014 A 
BRANCH  12  17
ATOM     17  N   UNL A   1      31.814  30.096  25.189  1.00  0.00    -0.326 N 
ATOM     18  C   UNL A   1      32.785  30.039  26.160  1.00  0.00     0.224 C 
ATOM     19  O   UNL A   1      33.012  31.045  26.837  1.00  0.00    -0.275 OA
ATOM     20  H   UNL A   1      31.656  30.955  24.734  1.00  0.00     0.169 HD
BRANCH  18  21
ATOM     21  C   UNL A   1      33.543  28.744  26.419  1.00  0.00     0.100 C 
BRANCH  21  22
ATOM     22  C   UNL A   1      35.048  28.953  26.583  1.00  0.00     0.006 C 
ATOM     23  C   UNL A   1      35.460  29.377  27.986  1.00  0.00     0.004 C 
ENDBRANCH  21  22
ENDBRANCH  18  21
ENDBRANCH  12  17
ENDBRANCH   8  11
ENDBRANCH   6   7
BRANCH   6  24
ATOM     24  C   UNL A   1      33.324  25.125  23.467  1.00  0.00     0.012 C 
ATOM     25  C   UNL A   1      33.366  26.055  22.496  1.00  0.00     0.064 C 
ATOM     26  C   UNL A   1      33.399  23.820  22.698  1.00  0.00     0.156 C 
ATOM     27  C   UNL A   1      33.528  27.538  22.523  1.00  0.00     0.069 C 
ATOM     28  N   UNL A   1      33.298  25.513  21.234  1.00  0.00    -0.160 NA
ATOM     29  N   UNL A   1      33.279  24.261  21.285  1.00  0.00    -0.181 NA
ATOM     30  C   UNL A   1      32.381  22.716  22.924  1.00  0.00     0.040 C 
ENDBRANCH   6  24
ENDBRANCH   4   6
ENDBRANCH   3   4
ENDBRANCH   2   3
ENDBRANCH   1   2
BRANCH   1  31
ATOM     31  O   UNL A   1      35.009  20.550  24.666  1.00  0.00    -0.374 OA
BRANCH  31  32
ATOM     32  C   UNL A   1      36.045  19.624  24.992  1.00  0.00     0.202 C 
BRANCH  32  33
ATOM     33  C   UNL A   1      37.502  20.013  24.717  1.00  0.00     0.261 C 
BRANCH  33  34
ATOM     34  O   UNL A   1      37.923  21.143  25.499  1.00  0.00    -0.460 OA
BRANCH  34  35
ATOM     35  C   UNL A   1      39.152  21.000  26.056  1.00  0.00     0.338 C 
ATOM     36  O   UNL A   1      39.915  20.059  25.916  1.00  0.00    -0.246 OA
BRANCH  35  37
ATOM     37  C   UNL A   1      39.572  22.250  26.712  1.00  0.00     0.060 A 
ATOM     38  C   UNL A   1      39.025  23.442  26.218  1.00  0.00     0.016 A 
ATOM     39  C   UNL A   1      40.576  22.269  27.680  1.00  0.00     0.016 A 
ATOM     40  C   UNL A   1      39.530  24.665  26.642  1.00  0.00     0.010 A 
ATOM     41  C   UNL A   1      41.094  23.502  28.093  1.00  0.00     0.010 A 
ATOM     42  C   UNL A   1      40.605  24.699  27.537  1.00  0.00    -0.014 A 
BRANCH  42  43
ATOM     43  C   UNL A   1      41.326  25.978  27.729  1.00  0.00     0.031 A 
ATOM     44  C   UNL A   1      40.629  27.100  28.452  1.00  0.00     0.074 A 
ATOM     45  C   UNL A   1      42.599  26.116  27.317  1.00  0.00     0.049 A 
ATOM     46  N   UNL A   1      41.071  28.292  28.752  1.00  0.00    -0.248 NA
ATOM     47  C   UNL A   1      39.250  26.840  28.902  1.00  0.00     0.031 C 
ATOM     48  C   UNL A   1      43.376  25.092  26.622  1.00  0.00     0.029 A 
ATOM     49  N   UNL A   1      43.455  27.183  27.413  1.00  0.00    -0.354 N 
ATOM     50  C   UNL A   1      40.026  28.929  29.410  1.00  0.00     0.074 A 
ATOM     51  C   UNL A   1      38.920  27.999  29.452  1.00  0.00     0.031 C 
ATOM     52  C   UNL A   1      44.587  25.593  26.323  1.00  0.00     0.029 A 
ATOM     53  C   UNL A   1      44.663  26.974  26.791  1.00  0.00     0.049 A 
ATOM     54  H   UNL A   1      43.226  28.019  27.882  1.00  0.00     0.167 HD
ATOM     55  C   UNL A   1      39.996  30.170  29.950  1.00  0.00     0.034 A 
ATOM     56  C   UNL A   1      45.702  27.814  26.609  1.00  0.00     0.034 A 
ATOM     57  C   UNL A   1      41.104  31.086  29.918  1.00  0.00     0.049 A 
ATOM     58  C   UNL A   1      45.637  29.195  27.208  1.00  0.00     0.074 A 
ATOM     59  C   UNL A   1      41.180  32.364  30.439  1.00  0.00     0.029 A 
ATOM     60  N   UNL A   1      42.332  30.818  29.330  1.00  0.00    -0.354 N 
ATOM     61  N   UNL A   1      44.677  29.747  27.909  1.00  0.00    -0.248 NA
ATOM     62  C   UNL A   1      46.818  30.054  27.030  1.00  0.00     0.031 C 
ATOM     63  C   UNL A   1      42.452  32.876  30.156  1.00  0.00     0.029 A 
ATOM     64  C   UNL A   1      43.174  31.905  29.481  1.00  0.00     0.049 A 
ATOM     65  H   UNL A   1      42.568  29.978  28.873  1.00  0.00     0.167 HD
ATOM     66  C   UNL A   1      45.152  30.997  28.290  1.00  0.00     0.074 A 
ATOM     67  C   UNL A   1      46.494  31.113  27.759  1.00  0.00     0.031 C 
ATOM     68  C   UNL A   1      44.531  31.970  29.002  1.00  0.00     0.034 A 
BRANCH  55  69
ATOM     69  C   UNL A   1      38.738  30.599  30.658  1.00  0.00     0.023 A 
ATOM     70  C   UNL A   1      38.528  30.202  31.995  1.00  0.00     0.012 A 
ATOM     71  C   UNL A   1      37.803  31.445  30.033  1.00  0.00     0.148 A 
ATOM     72  C   UNL A   1      37.394  30.622  32.690  1.00  0.00     0.002 A 
ATOM     73  C   UNL A   1      36.696  31.893  30.745  1.00  0.00     0.091 A 
ATOM     74  F   UNL A   1      38.013  31.793  28.755  1.00  0.00    -0.205 F 
ATOM     75  C   UNL A   1      36.486  31.475  32.069  1.00  0.00     0.022 A 
BRANCH  73  76
ATOM     76  S   UNL A   1      35.506  33.052  30.063  1.00  0.00     0.127 S 
ATOM     77  O   UNL A   1      34.603  33.249  31.196  1.00  0.00    -0.237 OA
ATOM     78  O   UNL A   1      36.347  34.206  29.746  1.00  0.00    -0.237 OA
ATOM     79  O   UNL A   1      34.917  32.391  28.906  1.00  0.00    -0.744 OA
ENDBRANCH  73  76
ENDBRANCH  55  69
BRANCH  56  80
ATOM     80  C   UNL A   1      46.904  27.361  25.853  1.00  0.00     0.023 A 
ATOM     81  C   UNL A   1      47.854  26.530  26.477  1.00  0.00     0.012 A 
ATOM     82  C   UNL A   1      47.107  27.748  24.513  1.00  0.00     0.148 A 
ATOM     83  C   UNL A   1      49.002  26.125  25.794  1.00  0.00     0.002 A 
ATOM     84  C   UNL A   1      48.223  27.292  23.820  1.00  0.00     0.091 A 
ATOM     85  F   UNL A   1      46.204  28.556  23.940  1.00  0.00    -0.205 F 
ATOM     86  C   UNL A   1      49.182  26.496  24.464  1.00  0.00     0.022 A 
BRANCH  84  87
ATOM     87  S   UNL A   1      48.451  27.614  22.068  1.00  0.00     0.127 S 
ATOM     88  O   UNL A   1      48.736  26.278  21.551  1.00  0.00    -0.237 OA
ATOM     89  O   UNL A   1      47.149  28.160  21.683  1.00  0.00    -0.237 OA
ATOM     90  O   UNL A   1      49.544  28.575  21.991  1.00  0.00    -0.744 OA
ENDBRANCH  84  87
ENDBRANCH  56  80
BRANCH  68  91
ATOM     91  C   UNL A   1      45.310  33.224  29.299  1.00  0.00     0.023 A 
ATOM     92  C   UNL A   1      46.180  33.265  30.408  1.00  0.00     0.012 A 
ATOM     93  C   UNL A   1      45.235  34.336  28.437  1.00  0.00     0.148 A 
ATOM     94  C   UNL A   1      46.934  34.408  30.673  1.00  0.00     0.002 A 
ATOM     95  C   UNL A   1      46.024  35.452  28.682  1.00  0.00     0.091 A 
ATOM     96  F   UNL A   1      44.387  34.285  27.399  1.00  0.00    -0.205 F 
ATOM     97  C   UNL A   1      46.865  35.495  29.805  1.00  0.00     0.022 A 
BRANCH  95  98
ATOM     98  S   UNL A   1      46.068  36.857  27.563  1.00  0.00     0.127 S 
ATOM     99  O   UNL A   1      45.687  36.241  26.294  1.00  0.00    -0.237 OA
ATOM    100  O   UNL A   1      45.057  37.746  28.137  1.00  0.00    -0.237 OA
ATOM    101  O   UNL A   1      47.428  37.375  27.629  1.00  0.00    -0.744 OA
ENDBRANCH  95  98
ENDBRANCH  68  91
ENDBRANCH  42  43
ENDBRANCH  35  37
ENDBRANCH  34  35
ENDBRANCH  33  34
ENDBRANCH  32  33
ENDBRANCH  31  32
ENDBRANCH   1  31
TORSDOF 23
ENDMDL
MODEL 3
REMARK VINA RESULT:     -11.1      1.945      2.626
REMARK SMILES CCCC(=O)Nc1cccc(C(=O)N[C@@H](C(=O)OCCOCCOC(=O)c2ccc(-c3c4nc(c(-c5cccc(S(=O)(=O)[O-])c5F)c5ccc([nH]5)c(-c5cccc(S(=O)(=O)[O-])c5F)c5nc(c(-c6cccc(S(=O)(=O)[O-])c6F)c6ccc3[nH]6)C=C5)C=C4)cc2)C2=C(C)N=N[C@@H]2C)c1
REMARK SMILES IDX 20 1 19 2 18 3 16 4 17 5 15 6 14 7 12 8 13 9 11 11 7 12 8 13
REMARK SMILES IDX 97 14 9 15 10 16 6 17 4 18 5 19 3 21 2 22 1 23 90 24 91 25
REMARK SMILES IDX 95 26 92 27 93 28 94 29 96 30 21 31 22 32 23 33 24 34 25 35
REMARK SMILES IDX 26 36 27 37 28 38 89 39 29 40 88 41 30 42 31 43 32 44 82 45
REMARK SMILES IDX 33 46 87 47 81 48 83 49 34 50 86 51 80 52 79 53 35 55 67 56
REMARK SMILES IDX 47 57 66 58 48 59 51 60 65 61 84 62 49 63 50 64 64 66 85 67
REMARK SMILES IDX 52 68 36 69 37 70 45 71 38 72 40 73 46 74 39 75 41 76 42 77
REMARK SMILES IDX 43 78 44 79 68 80 69 81 77 82 70 83 72 84 78 85 71 86 73 87
REMARK SMILES IDX 74 88 75 89 76 90 53 91 54 92 62 93 55 94 57 95 63 96 56 97
REMARK SMILES IDX 58 98 59 99 60 100 61 101
REMARK H PARENT 14 10 6 20 83 54 51 65
REMARK Flexibility Score: inf
ROOT
ATOM      1  C   UNL A   1      34.298  20.869  26.137  1.00  0.00     0.202 C 
ENDROOT
BRANCH   1   2
ATOM      2  C   UNL A   1      34.441  22.159  26.954  1.00  0.00     0.261 C 
BRANCH   2   3
ATOM      3  O   UNL A   1      33.665  23.236  26.416  1.00  0.00    -0.461 OA
BRANCH   3   4
ATOM      4  C   UNL A   1      34.365  24.181  25.720  1.00  0.00     0.333 C 
ATOM      5  O   UNL A   1      35.581  24.160  25.583  1.00  0.00    -0.249 OA
BRANCH   4   6
ATOM      6  C   UNL A   1      33.433  25.264  25.090  1.00  0.00     0.223 C 
BRANCH   6   7
ATOM      7  N   UNL A   1      32.098  25.152  25.689  1.00  0.00    -0.335 N 
ATOM      8  C   UNL A   1      31.238  26.087  26.220  1.00  0.00     0.252 C 
ATOM      9  O   UNL A   1      30.196  25.682  26.733  1.00  0.00    -0.269 OA
ATOM     10  H   UNL A   1      31.751  24.231  25.718  1.00  0.00     0.165 HD
BRANCH   8  11
ATOM     11  C   UNL A   1      31.477  27.550  26.118  1.00  0.00     0.041 A 
ATOM     12  C   UNL A   1      32.715  29.527  26.724  1.00  0.00     0.041 A 
ATOM     13  C   UNL A   1      32.252  30.195  25.595  1.00  0.00     0.026 A 
ATOM     14  C   UNL A   1      32.243  28.255  27.044  1.00  0.00     0.040 A 
ATOM     15  C   UNL A   1      31.337  29.559  24.756  1.00  0.00     0.003 A 
ATOM     16  C   UNL A   1      30.972  28.230  25.001  1.00  0.00     0.014 A 
BRANCH  12  17
ATOM     17  N   UNL A   1      33.717  30.065  27.538  1.00  0.00    -0.326 N 
ATOM     18  C   UNL A   1      33.864  31.413  27.765  1.00  0.00     0.224 C 
ATOM     19  O   UNL A   1      34.993  31.866  27.963  1.00  0.00    -0.275 OA
ATOM     20  H   UNL A   1      34.351  29.446  27.970  1.00  0.00     0.169 HD
BRANCH  18  21
ATOM     21  C   UNL A   1      32.653  32.337  27.737  1.00  0.00     0.100 C 
BRANCH  21  22
ATOM     22  C   UNL A   1      33.027  33.814  27.626  1.00  0.00     0.006 C 
ATOM     23  C   UNL A   1      33.308  34.479  28.967  1.00  0.00     0.004 C 
ENDBRANCH  21  22
ENDBRANCH  18  21
ENDBRANCH  12  17
ENDBRANCH   8  11
ENDBRANCH   6   7
BRANCH   6  24
ATOM     24  C   UNL A   1      33.405  25.201  23.578  1.00  0.00     0.012 C 
ATOM     25  C   UNL A   1      33.480  26.106  22.585  1.00  0.00     0.064 C 
ATOM     26  C   UNL A   1      33.482  23.877  22.844  1.00  0.00     0.156 C 
ATOM     27  C   UNL A   1      33.659  27.587  22.578  1.00  0.00     0.069 C 
ATOM     28  N   UNL A   1      33.434  25.533  21.335  1.00  0.00    -0.160 NA
ATOM     29  N   UNL A   1      33.399  24.283  21.417  1.00  0.00    -0.181 NA
ATOM     30  C   UNL A   1      32.447  22.789  23.074  1.00  0.00     0.040 C 
ENDBRANCH   6  24
ENDBRANCH   4   6
ENDBRANCH   3   4
ENDBRANCH   2   3
ENDBRANCH   1   2
BRANCH   1  31
ATOM     31  O   UNL A   1      35.015  20.772  24.909  1.00  0.00    -0.374 OA
BRANCH  31  32
ATOM     32  C   UNL A   1      36.335  20.230  24.932  1.00  0.00     0.202 C 
BRANCH  32  33
ATOM     33  C   UNL A   1      37.528  21.169  24.726  1.00  0.00     0.261 C 
BRANCH  33  34
ATOM     34  O   UNL A   1      37.918  21.833  25.940  1.00  0.00    -0.460 OA
BRANCH  34  35
ATOM     35  C   UNL A   1      39.246  21.759  26.206  1.00  0.00     0.338 C 
ATOM     36  O   UNL A   1      40.033  20.929  25.781  1.00  0.00    -0.246 OA
BRANCH  35  37
ATOM     37  C   UNL A   1      39.698  22.959  26.929  1.00  0.00     0.060 A 
ATOM     38  C   UNL A   1      39.155  24.187  26.524  1.00  0.00     0.016 A 
ATOM     39  C   UNL A   1      40.723  22.905  27.873  1.00  0.00     0.016 A 
ATOM     40  C   UNL A   1      39.686  25.374  27.013  1.00  0.00     0.010 A 
ATOM     41  C   UNL A   1      41.267  24.103  28.351  1.00  0.00     0.010 A 
ATOM     42  C   UNL A   1      40.781  25.339  27.883  1.00  0.00    -0.014 A 
BRANCH  42  43
ATOM     43  C   UNL A   1      41.524  26.594  28.138  1.00  0.00     0.031 A 
ATOM     44  C   UNL A   1      42.894  26.760  27.537  1.00  0.00     0.074 A 
ATOM     45  C   UNL A   1      40.962  27.591  28.845  1.00  0.00     0.049 A 
ATOM     46  N   UNL A   1      43.712  27.776  27.608  1.00  0.00    -0.248 NA
ATOM     47  C   UNL A   1      43.408  25.630  26.743  1.00  0.00     0.031 C 
ATOM     48  C   UNL A   1      39.636  27.545  29.460  1.00  0.00     0.029 A 
ATOM     49  N   UNL A   1      41.446  28.830  29.178  1.00  0.00    -0.354 N 
ATOM     50  C   UNL A   1      44.840  27.406  26.886  1.00  0.00     0.074 A 
ATOM     51  C   UNL A   1      44.611  26.065  26.397  1.00  0.00     0.031 C 
ATOM     52  C   UNL A   1      39.426  28.695  30.125  1.00  0.00     0.029 A 
ATOM     53  C   UNL A   1      40.605  29.546  29.994  1.00  0.00     0.049 A 
ATOM     54  H   UNL A   1      42.314  29.173  28.861  1.00  0.00     0.167 HD
ATOM     55  C   UNL A   1      45.958  28.126  26.634  1.00  0.00     0.034 A 
ATOM     56  C   UNL A   1      40.781  30.747  30.582  1.00  0.00     0.034 A 
ATOM     57  C   UNL A   1      46.175  29.465  27.112  1.00  0.00     0.049 A 
ATOM     58  C   UNL A   1      42.041  31.521  30.297  1.00  0.00     0.074 A 
ATOM     59  C   UNL A   1      47.270  30.285  26.910  1.00  0.00     0.029 A 
ATOM     60  N   UNL A   1      45.276  30.180  27.888  1.00  0.00    -0.354 N 
ATOM     61  N   UNL A   1      43.056  31.195  29.535  1.00  0.00    -0.248 NA
ATOM     62  C   UNL A   1      42.161  32.850  30.917  1.00  0.00     0.031 C 
ATOM     63  C   UNL A   1      47.039  31.494  27.575  1.00  0.00     0.029 A 
ATOM     64  C   UNL A   1      45.788  31.434  28.169  1.00  0.00     0.049 A 
ATOM     65  H   UNL A   1      44.402  29.844  28.194  1.00  0.00     0.167 HD
ATOM     66  C   UNL A   1      43.914  32.290  29.549  1.00  0.00     0.074 A 
ATOM     67  C   UNL A   1      43.288  33.298  30.380  1.00  0.00     0.031 C 
ATOM     68  C   UNL A   1      45.117  32.446  28.943  1.00  0.00     0.034 A 
BRANCH  55  69
ATOM     69  C   UNL A   1      47.020  27.497  25.771  1.00  0.00     0.023 A 
ATOM     70  C   UNL A   1      47.803  26.448  26.293  1.00  0.00     0.012 A 
ATOM     71  C   UNL A   1      47.196  27.891  24.430  1.00  0.00     0.148 A 
ATOM     72  C   UNL A   1      48.762  25.816  25.502  1.00  0.00     0.002 A 
ATOM     73  C   UNL A   1      48.125  27.229  23.635  1.00  0.00     0.091 A 
ATOM     74  F   UNL A   1      46.454  28.905  23.961  1.00  0.00    -0.205 F 
ATOM     75  C   UNL A   1      48.915  26.199  24.171  1.00  0.00     0.022 A 
BRANCH  73  76
ATOM     76  S   UNL A   1      48.348  27.596  21.892  1.00  0.00     0.127 S 
ATOM     77  O   UNL A   1      47.041  28.144  21.535  1.00  0.00    -0.237 OA
ATOM     78  O   UNL A   1      49.433  28.577  21.920  1.00  0.00    -0.237 OA
ATOM     79  O   UNL A   1      48.687  26.331  21.253  1.00  0.00    -0.744 OA
ENDBRANCH  73  76
ENDBRANCH  55  69
BRANCH  56  80
ATOM     80  C   UNL A   1      39.723  31.303  31.473  1.00  0.00     0.023 A 
ATOM     81  C   UNL A   1      39.846  31.179  32.870  1.00  0.00     0.012 A 
ATOM     82  C   UNL A   1      38.597  31.961  30.940  1.00  0.00     0.148 A 
ATOM     83  C   UNL A   1      38.848  31.664  33.718  1.00  0.00     0.002 A 
ATOM     84  C   UNL A   1      37.637  32.495  31.792  1.00  0.00     0.091 A 
ATOM     85  F   UNL A   1      38.485  32.053  29.607  1.00  0.00    -0.205 F 
ATOM     86  C   UNL A   1      37.750  32.331  33.181  1.00  0.00     0.022 A 
BRANCH  84  87
ATOM     87  S   UNL A   1      36.268  33.485  31.182  1.00  0.00     0.127 S 
ATOM     88  O   UNL A   1      35.200  32.494  31.081  1.00  0.00    -0.237 OA
ATOM     89  O   UNL A   1      36.099  34.469  32.252  1.00  0.00    -0.237 OA
ATOM     90  O   UNL A   1      36.734  34.054  29.923  1.00  0.00    -0.744 OA
ENDBRANCH  84  87
ENDBRANCH  56  80
BRANCH  68  91
ATOM     91  C   UNL A   1      45.815  33.770  29.107  1.00  0.00     0.023 A 
ATOM     92  C   UNL A   1      46.711  33.964  30.177  1.00  0.00     0.012 A 
ATOM     93  C   UNL A   1      45.638  34.796  28.157  1.00  0.00     0.148 A 
ATOM     94  C   UNL A   1      47.391  35.174  30.320  1.00  0.00     0.002 A 
ATOM     95  C   UNL A   1      46.355  35.979  28.279  1.00  0.00     0.091 A 
ATOM     96  F   UNL A   1      44.767  34.599  27.157  1.00  0.00    -0.205 F 
ATOM     97  C   UNL A   1      47.222  36.175  29.366  1.00  0.00     0.022 A 
BRANCH  95  98
ATOM     98  S   UNL A   1      46.269  37.281  27.045  1.00  0.00     0.127 S 
ATOM     99  O   UNL A   1      46.705  36.580  25.839  1.00  0.00    -0.237 OA
ATOM    100  O   UNL A   1      44.850  37.638  27.064  1.00  0.00    -0.237 OA
ATOM    101  O   UNL A   1      47.159  38.334  27.517  1.00  0.00    -0.744 OA
ENDBRANCH  95  98
ENDBRANCH  68  91
ENDBRANCH  42  43
ENDBRANCH  35  37
ENDBRANCH  34  35
ENDBRANCH  33  34
ENDBRANCH  32  33
ENDBRANCH  31  32
ENDBRANCH   1  31
TORSDOF 23
ENDMDL
