MODEL 1
REMARK VINA RESULT:     -11.4      0.000      0.000
REMARK SMILES CC(C)(C)NS(=O)(=O)c1csc(C(=O)Nc2ccccc2C(=O)OCCOCCOC(=O)c2ccc(-c3c4nc(c(-c5cccc(S(=O)(=O)[O-])c5F)c5ccc([nH]5)c(-c5cccc(S(=O)(=O)[O-])c5F)c5nc(c(-c6cccc(S(=O)(=O)[O-])c6F)c6ccc3[nH]6)C=C5)C=C4)cc2)c1
REMARK SMILES IDX 26 1 25 2 24 3 22 4 23 5 21 6 16 7 17 8 18 9 20 10 19 11
REMARK SMILES IDX 15 12 13 13 14 14 12 16 9 17 10 18 96 19 11 20 6 21 7 22
REMARK SMILES IDX 8 23 5 24 2 26 1 27 3 28 4 29 27 30 28 31 29 32 30 33 31 34
REMARK SMILES IDX 32 35 33 36 34 37 95 38 35 39 94 40 36 41 37 42 38 43 88 44
REMARK SMILES IDX 39 45 93 46 87 47 89 48 40 49 92 50 86 51 85 52 41 54 73 55
REMARK SMILES IDX 53 56 72 57 54 58 57 59 71 60 90 61 55 62 56 63 70 65 91 66
REMARK SMILES IDX 58 67 42 68 43 69 51 70 44 71 46 72 52 73 45 74 47 75 48 76
REMARK SMILES IDX 49 77 50 78 74 79 75 80 83 81 76 82 78 83 84 84 77 85 79 86
REMARK SMILES IDX 80 87 81 88 82 89 59 90 60 91 68 92 61 93 63 94 69 95 62 96
REMARK SMILES IDX 64 97 65 98 66 99 67 100
REMARK H PARENT 15 15 5 25 89 53 57 64
REMARK Flexibility Score: inf
ROOT
ATOM      1  C   UNL A   1      33.214  30.298  26.779  1.00  0.00     0.202 C 
ENDROOT
BRANCH   1   2
ATOM      2  C   UNL A   1      33.384  28.864  27.286  1.00  0.00     0.261 C 
BRANCH   2   3
ATOM      3  O   UNL A   1      33.164  27.836  26.308  1.00  0.00    -0.460 OA
BRANCH   3   4
ATOM      4  C   UNL A   1      31.985  27.190  26.453  1.00  0.00     0.340 C 
ATOM      5  O   UNL A   1      31.243  27.271  27.421  1.00  0.00    -0.246 OA
BRANCH   4   6
ATOM      6  C   UNL A   1      31.606  26.402  25.257  1.00  0.00     0.083 A 
ATOM      7  C   UNL A   1      30.849  25.215  25.246  1.00  0.00     0.056 A 
ATOM      8  C   UNL A   1      30.603  24.601  24.002  1.00  0.00     0.027 A 
ATOM      9  C   UNL A   1      31.003  25.194  22.799  1.00  0.00     0.002 A 
ATOM     10  C   UNL A   1      32.014  26.982  24.037  1.00  0.00     0.018 A 
ATOM     11  C   UNL A   1      31.703  26.391  22.816  1.00  0.00     0.001 A 
BRANCH   7  12
ATOM     12  N   UNL A   1      30.260  24.558  26.346  1.00  0.00    -0.320 N 
ATOM     13  C   UNL A   1      30.401  23.296  26.900  1.00  0.00     0.265 C 
ATOM     14  O   UNL A   1      29.494  22.940  27.656  1.00  0.00    -0.268 OA
ATOM     15  H   UNL A   1      29.606  25.117  26.824  1.00  0.00     0.170 HD
BRANCH  13  16
ATOM     16  C   UNL A   1      31.614  22.514  26.689  1.00  0.00     0.094 A 
ATOM     17  C   UNL A   1      33.206  21.010  25.841  1.00  0.00     0.093 A 
ATOM     18  C   UNL A   1      33.832  21.432  26.991  1.00  0.00     0.087 A 
ATOM     19  C   UNL A   1      31.968  21.672  25.656  1.00  0.00     0.047 A 
ATOM     20  S   UNL A   1      32.904  22.609  27.825  1.00  0.00    -0.137 S 
BRANCH  17  21
ATOM     21  S   UNL A   1      33.785  19.800  24.754  1.00  0.00     0.241 S 
ATOM     22  O   UNL A   1      35.145  20.163  24.448  1.00  0.00    -0.207 OA
ATOM     23  O   UNL A   1      32.783  19.727  23.712  1.00  0.00    -0.207 OA
BRANCH  21  24
ATOM     24  N   UNL A   1      33.791  18.281  25.477  1.00  0.00    -0.206 NA
ATOM     25  H   UNL A   1      34.635  18.263  26.050  1.00  0.00     0.141 HD
BRANCH  24  26
ATOM     26  C   UNL A   1      33.771  16.965  24.775  1.00  0.00     0.025 C 
ATOM     27  C   UNL A   1      34.785  15.989  25.391  1.00  0.00     0.028 C 
ATOM     28  C   UNL A   1      33.950  17.079  23.258  1.00  0.00     0.028 C 
ATOM     29  C   UNL A   1      32.366  16.383  25.037  1.00  0.00     0.028 C 
ENDBRANCH  24  26
ENDBRANCH  21  24
ENDBRANCH  17  21
ENDBRANCH  13  16
ENDBRANCH   7  12
ENDBRANCH   4   6
ENDBRANCH   3   4
ENDBRANCH   2   3
ENDBRANCH   1   2
BRANCH   1  30
ATOM     30  O   UNL A   1      31.957  30.733  26.282  1.00  0.00    -0.374 OA
BRANCH  30  31
ATOM     31  C   UNL A   1      31.407  31.960  26.739  1.00  0.00     0.202 C 
BRANCH  31  32
ATOM     32  C   UNL A   1      32.307  33.184  26.966  1.00  0.00     0.261 C 
BRANCH  32  33
ATOM     33  O   UNL A   1      32.368  33.670  28.316  1.00  0.00    -0.460 OA
BRANCH  33  34
ATOM     34  C   UNL A   1      33.485  34.385  28.599  1.00  0.00     0.338 C 
ATOM     35  O   UNL A   1      33.568  35.594  28.741  1.00  0.00    -0.246 OA
BRANCH  34  36
ATOM     36  C   UNL A   1      34.631  33.497  28.849  1.00  0.00     0.060 A 
ATOM     37  C   UNL A   1      34.434  32.375  29.667  1.00  0.00     0.016 A 
ATOM     38  C   UNL A   1      35.915  33.872  28.450  1.00  0.00     0.016 A 
ATOM     39  C   UNL A   1      35.530  31.658  30.138  1.00  0.00     0.010 A 
ATOM     40  C   UNL A   1      37.014  33.156  28.932  1.00  0.00     0.010 A 
ATOM     41  C   UNL A   1      36.827  32.077  29.816  1.00  0.00    -0.014 A 
BRANCH  41  42
ATOM     42  C   UNL A   1      37.984  31.489  30.532  1.00  0.00     0.031 A 
ATOM     43  C   UNL A   1      38.795  30.418  29.853  1.00  0.00     0.074 A 
ATOM     44  C   UNL A   1      38.311  31.911  31.765  1.00  0.00     0.049 A 
ATOM     45  N   UNL A   1      39.820  29.742  30.306  1.00  0.00    -0.248 NA
ATOM     46  C   UNL A   1      38.395  30.053  28.483  1.00  0.00     0.031 C 
ATOM     47  C   UNL A   1      37.605  32.947  32.516  1.00  0.00     0.029 A 
ATOM     48  N   UNL A   1      39.309  31.497  32.611  1.00  0.00    -0.354 N 
ATOM     49  C   UNL A   1      40.167  28.854  29.294  1.00  0.00     0.074 A 
ATOM     50  C   UNL A   1      39.238  29.069  28.205  1.00  0.00     0.031 C 
ATOM     51  C   UNL A   1      38.176  33.069  33.728  1.00  0.00     0.029 A 
ATOM     52  C   UNL A   1      39.267  32.104  33.844  1.00  0.00     0.049 A 
ATOM     53  H   UNL A   1      39.988  30.830  32.360  1.00  0.00     0.167 HD
ATOM     54  C   UNL A   1      41.177  27.953  29.266  1.00  0.00     0.034 A 
ATOM     55  C   UNL A   1      40.011  31.886  34.946  1.00  0.00     0.034 A 
ATOM     56  C   UNL A   1      42.115  27.761  30.340  1.00  0.00     0.049 A 
ATOM     57  C   UNL A   1      41.119  30.866  34.895  1.00  0.00     0.074 A 
ATOM     58  C   UNL A   1      43.202  26.908  30.391  1.00  0.00     0.029 A 
ATOM     59  N   UNL A   1      42.072  28.429  31.555  1.00  0.00    -0.354 N 
ATOM     60  N   UNL A   1      41.507  30.116  33.892  1.00  0.00    -0.248 NA
ATOM     61  C   UNL A   1      41.912  30.684  36.119  1.00  0.00     0.031 C 
ATOM     62  C   UNL A   1      43.803  27.042  31.647  1.00  0.00     0.029 A 
ATOM     63  C   UNL A   1      43.105  27.997  32.368  1.00  0.00     0.049 A 
ATOM     64  H   UNL A   1      41.404  29.109  31.802  1.00  0.00     0.167 HD
ATOM     65  C   UNL A   1      42.608  29.400  34.352  1.00  0.00     0.074 A 
ATOM     66  C   UNL A   1      42.837  29.822  35.719  1.00  0.00     0.031 C 
ATOM     67  C   UNL A   1      43.353  28.468  33.708  1.00  0.00     0.034 A 
BRANCH  54  68
ATOM     68  C   UNL A   1      41.339  27.119  28.022  1.00  0.00     0.023 A 
ATOM     69  C   UNL A   1      42.033  27.647  26.915  1.00  0.00     0.012 A 
ATOM     70  C   UNL A   1      40.858  25.796  27.969  1.00  0.00     0.148 A 
ATOM     71  C   UNL A   1      42.221  26.883  25.764  1.00  0.00     0.002 A 
ATOM     72  C   UNL A   1      41.083  25.026  26.834  1.00  0.00     0.091 A 
ATOM     73  F   UNL A   1      40.180  25.319  29.022  1.00  0.00    -0.205 F 
ATOM     74  C   UNL A   1      41.756  25.571  25.727  1.00  0.00     0.022 A 
BRANCH  72  75
ATOM     75  S   UNL A   1      40.588  23.303  26.718  1.00  0.00     0.127 S 
ATOM     76  O   UNL A   1      39.186  23.425  26.325  1.00  0.00    -0.237 OA
ATOM     77  O   UNL A   1      41.473  22.797  25.669  1.00  0.00    -0.237 OA
ATOM     78  O   UNL A   1      40.821  22.730  28.036  1.00  0.00    -0.744 OA
ENDBRANCH  72  75
ENDBRANCH  54  68
BRANCH  55  79
ATOM     79  C   UNL A   1      39.756  32.679  36.182  1.00  0.00     0.023 A 
ATOM     80  C   UNL A   1      40.448  33.888  36.385  1.00  0.00     0.012 A 
ATOM     81  C   UNL A   1      38.816  32.254  37.141  1.00  0.00     0.148 A 
ATOM     82  C   UNL A   1      40.230  34.647  37.535  1.00  0.00     0.002 A 
ATOM     83  C   UNL A   1      38.565  33.041  38.259  1.00  0.00     0.091 A 
ATOM     84  F   UNL A   1      38.182  31.090  36.939  1.00  0.00    -0.205 F 
ATOM     85  C   UNL A   1      39.282  34.230  38.466  1.00  0.00     0.022 A 
BRANCH  83  86
ATOM     86  S   UNL A   1      37.280  32.641  39.451  1.00  0.00     0.127 S 
ATOM     87  O   UNL A   1      36.087  32.619  38.608  1.00  0.00    -0.237 OA
ATOM     88  O   UNL A   1      37.713  31.330  39.937  1.00  0.00    -0.237 OA
ATOM     89  O   UNL A   1      37.327  33.698  40.451  1.00  0.00    -0.744 OA
ENDBRANCH  83  86
ENDBRANCH  55  79
BRANCH  67  90
ATOM     90  C   UNL A   1      44.510  27.855  34.455  1.00  0.00     0.023 A 
ATOM     91  C   UNL A   1      45.751  28.523  34.490  1.00  0.00     0.012 A 
ATOM     92  C   UNL A   1      44.345  26.664  35.189  1.00  0.00     0.148 A 
ATOM     93  C   UNL A   1      46.818  27.997  35.218  1.00  0.00     0.002 A 
ATOM     94  C   UNL A   1      45.397  26.171  35.951  1.00  0.00     0.091 A 
ATOM     95  F   UNL A   1      43.161  26.035  35.130  1.00  0.00    -0.205 F 
ATOM     96  C   UNL A   1      46.638  26.830  35.957  1.00  0.00     0.022 A 
BRANCH  94  97
ATOM     97  S   UNL A   1      45.227  24.729  37.008  1.00  0.00     0.127 S 
ATOM     98  O   UNL A   1      44.511  25.284  38.156  1.00  0.00    -0.237 OA
ATOM     99  O   UNL A   1      44.434  23.822  36.175  1.00  0.00    -0.237 OA
ATOM    100  O   UNL A   1      46.582  24.269  37.278  1.00  0.00    -0.744 OA
ENDBRANCH  94  97
ENDBRANCH  67  90
ENDBRANCH  41  42
ENDBRANCH  34  36
ENDBRANCH  33  34
ENDBRANCH  32  33
ENDBRANCH  31  32
ENDBRANCH  30  31
ENDBRANCH   1  30
TORSDOF 22
ENDMDL
MODEL 2
REMARK VINA RESULT:     -11.2      1.032      7.307
REMARK SMILES CC(C)(C)NS(=O)(=O)c1csc(C(=O)Nc2ccccc2C(=O)OCCOCCOC(=O)c2ccc(-c3c4nc(c(-c5cccc(S(=O)(=O)[O-])c5F)c5ccc([nH]5)c(-c5cccc(S(=O)(=O)[O-])c5F)c5nc(c(-c6cccc(S(=O)(=O)[O-])c6F)c6ccc3[nH]6)C=C5)C=C4)cc2)c1
REMARK SMILES IDX 26 1 25 2 24 3 22 4 23 5 21 6 16 7 17 8 18 9 20 10 19 11
REMARK SMILES IDX 15 12 13 13 14 14 12 16 9 17 10 18 96 19 11 20 6 21 7 22
REMARK SMILES IDX 8 23 5 24 2 26 1 27 3 28 4 29 27 30 28 31 29 32 30 33 31 34
REMARK SMILES IDX 32 35 33 36 34 37 95 38 35 39 94 40 36 41 37 42 38 43 88 44
REMARK SMILES IDX 39 45 93 46 87 47 89 48 40 49 92 50 86 51 85 52 41 54 73 55
REMARK SMILES IDX 53 56 72 57 54 58 57 59 71 60 90 61 55 62 56 63 70 65 91 66
REMARK SMILES IDX 58 67 42 68 43 69 51 70 44 71 46 72 52 73 45 74 47 75 48 76
REMARK SMILES IDX 49 77 50 78 74 79 75 80 83 81 76 82 78 83 84 84 77 85 79 86
REMARK SMILES IDX 80 87 81 88 82 89 59 90 60 91 68 92 61 93 63 94 69 95 62 96
REMARK SMILES IDX 64 97 65 98 66 99 67 100
REMARK H PARENT 15 15 5 25 89 53 57 64
REMARK Flexibility Score: inf
ROOT
ATOM      1  C   UNL A   1      32.330  28.917  27.505  1.00  0.00     0.202 C 
ENDROOT
BRANCH   1   2
ATOM      2  C   UNL A   1      33.573  28.178  27.004  1.00  0.00     0.261 C 
BRANCH   2   3
ATOM      3  O   UNL A   1      33.318  27.056  26.144  1.00  0.00    -0.460 OA
BRANCH   3   4
ATOM      4  C   UNL A   1      33.452  27.337  24.828  1.00  0.00     0.340 C 
ATOM      5  O   UNL A   1      33.951  28.352  24.364  1.00  0.00    -0.246 OA
BRANCH   4   6
ATOM      6  C   UNL A   1      33.000  26.233  23.952  1.00  0.00     0.083 A 
ATOM      7  C   UNL A   1      32.116  25.196  24.305  1.00  0.00     0.056 A 
ATOM      8  C   UNL A   1      31.815  24.224  23.330  1.00  0.00     0.027 A 
ATOM      9  C   UNL A   1      32.290  24.329  22.019  1.00  0.00     0.002 A 
ATOM     10  C   UNL A   1      33.481  26.319  22.628  1.00  0.00     0.018 A 
ATOM     11  C   UNL A   1      33.118  25.383  21.663  1.00  0.00     0.001 A 
BRANCH   7  12
ATOM     12  N   UNL A   1      31.447  25.014  25.533  1.00  0.00    -0.320 N 
ATOM     13  C   UNL A   1      31.278  23.936  26.386  1.00  0.00     0.265 C 
ATOM     14  O   UNL A   1      30.362  24.041  27.206  1.00  0.00    -0.268 OA
ATOM     15  H   UNL A   1      31.003  25.832  25.854  1.00  0.00     0.170 HD
BRANCH  13  16
ATOM     16  C   UNL A   1      32.216  22.819  26.380  1.00  0.00     0.094 A 
ATOM     17  C   UNL A   1      33.415  20.887  25.793  1.00  0.00     0.093 A 
ATOM     18  C   UNL A   1      33.903  21.123  27.058  1.00  0.00     0.087 A 
ATOM     19  C   UNL A   1      32.494  21.889  25.401  1.00  0.00     0.047 A 
ATOM     20  S   UNL A   1      33.228  22.542  27.745  1.00  0.00    -0.137 S 
BRANCH  17  21
ATOM     21  S   UNL A   1      33.803  19.537  24.790  1.00  0.00     0.241 S 
ATOM     22  O   UNL A   1      35.231  19.582  24.603  1.00  0.00    -0.207 OA
ATOM     23  O   UNL A   1      32.902  19.642  23.661  1.00  0.00    -0.207 OA
BRANCH  21  24
ATOM     24  N   UNL A   1      33.412  18.084  25.541  1.00  0.00    -0.206 NA
ATOM     25  H   UNL A   1      33.900  18.108  26.437  1.00  0.00     0.141 HD
BRANCH  24  26
ATOM     26  C   UNL A   1      33.657  16.713  25.004  1.00  0.00     0.025 C 
ATOM     27  C   UNL A   1      34.964  16.125  25.556  1.00  0.00     0.028 C 
ATOM     28  C   UNL A   1      33.608  16.640  23.475  1.00  0.00     0.028 C 
ATOM     29  C   UNL A   1      32.503  15.847  25.552  1.00  0.00     0.028 C 
ENDBRANCH  24  26
ENDBRANCH  21  24
ENDBRANCH  17  21
ENDBRANCH  13  16
ENDBRANCH   7  12
ENDBRANCH   4   6
ENDBRANCH   3   4
ENDBRANCH   2   3
ENDBRANCH   1   2
BRANCH   1  30
ATOM     30  O   UNL A   1      31.505  29.624  26.589  1.00  0.00    -0.374 OA
BRANCH  30  31
ATOM     31  C   UNL A   1      31.892  30.918  26.150  1.00  0.00     0.202 C 
BRANCH  31  32
ATOM     32  C   UNL A   1      31.713  32.140  27.063  1.00  0.00     0.261 C 
BRANCH  32  33
ATOM     33  O   UNL A   1      32.707  33.168  26.930  1.00  0.00    -0.460 OA
BRANCH  33  34
ATOM     34  C   UNL A   1      33.309  33.512  28.095  1.00  0.00     0.338 C 
ATOM     35  O   UNL A   1      32.860  34.238  28.967  1.00  0.00    -0.246 OA
BRANCH  34  36
ATOM     36  C   UNL A   1      34.578  32.788  28.268  1.00  0.00     0.060 A 
ATOM     37  C   UNL A   1      34.525  31.414  28.534  1.00  0.00     0.016 A 
ATOM     38  C   UNL A   1      35.782  33.488  28.362  1.00  0.00     0.016 A 
ATOM     39  C   UNL A   1      35.670  30.743  28.956  1.00  0.00     0.010 A 
ATOM     40  C   UNL A   1      36.928  32.815  28.794  1.00  0.00     0.010 A 
ATOM     41  C   UNL A   1      36.864  31.453  29.139  1.00  0.00    -0.014 A 
BRANCH  41  42
ATOM     42  C   UNL A   1      37.997  30.806  29.843  1.00  0.00     0.031 A 
ATOM     43  C   UNL A   1      38.282  31.187  31.272  1.00  0.00     0.074 A 
ATOM     44  C   UNL A   1      38.756  29.889  29.220  1.00  0.00     0.049 A 
ATOM     45  N   UNL A   1      39.240  30.777  32.063  1.00  0.00    -0.248 NA
ATOM     46  C   UNL A   1      37.369  32.164  31.891  1.00  0.00     0.031 C 
ATOM     47  C   UNL A   1      38.569  29.436  27.843  1.00  0.00     0.029 A 
ATOM     48  N   UNL A   1      39.853  29.193  29.661  1.00  0.00    -0.354 N 
ATOM     49  C   UNL A   1      39.066  31.466  33.258  1.00  0.00     0.074 A 
ATOM     50  C   UNL A   1      37.915  32.328  33.087  1.00  0.00     0.031 C 
ATOM     51  C   UNL A   1      39.540  28.556  27.541  1.00  0.00     0.029 A 
ATOM     52  C   UNL A   1      40.426  28.405  28.692  1.00  0.00     0.049 A 
ATOM     53  H   UNL A   1      40.195  29.253  30.582  1.00  0.00     0.167 HD
ATOM     54  C   UNL A   1      39.787  31.379  34.400  1.00  0.00     0.034 A 
ATOM     55  C   UNL A   1      41.552  27.666  28.727  1.00  0.00     0.034 A 
ATOM     56  C   UNL A   1      40.913  30.501  34.576  1.00  0.00     0.049 A 
ATOM     57  C   UNL A   1      42.348  27.596  30.006  1.00  0.00     0.074 A 
ATOM     58  C   UNL A   1      41.681  30.302  35.709  1.00  0.00     0.029 A 
ATOM     59  N   UNL A   1      41.437  29.680  33.588  1.00  0.00    -0.354 N 
ATOM     60  N   UNL A   1      42.105  28.165  31.162  1.00  0.00    -0.248 NA
ATOM     61  C   UNL A   1      43.556  26.759  29.993  1.00  0.00     0.031 C 
ATOM     62  C   UNL A   1      42.685  29.379  35.399  1.00  0.00     0.029 A 
ATOM     63  C   UNL A   1      42.526  28.983  34.081  1.00  0.00     0.049 A 
ATOM     64  H   UNL A   1      41.085  29.605  32.671  1.00  0.00     0.167 HD
ATOM     65  C   UNL A   1      43.108  27.728  32.022  1.00  0.00     0.074 A 
ATOM     66  C   UNL A   1      43.949  26.831  31.257  1.00  0.00     0.031 C 
ATOM     67  C   UNL A   1      43.321  28.050  33.322  1.00  0.00     0.034 A 
BRANCH  54  68
ATOM     68  C   UNL A   1      39.366  32.237  35.564  1.00  0.00     0.023 A 
ATOM     69  C   UNL A   1      39.763  33.589  35.613  1.00  0.00     0.012 A 
ATOM     70  C   UNL A   1      38.530  31.726  36.576  1.00  0.00     0.148 A 
ATOM     71  C   UNL A   1      39.361  34.410  36.665  1.00  0.00     0.002 A 
ATOM     72  C   UNL A   1      38.099  32.560  37.601  1.00  0.00     0.091 A 
ATOM     73  F   UNL A   1      38.182  30.432  36.525  1.00  0.00    -0.205 F 
ATOM     74  C   UNL A   1      38.521  33.899  37.653  1.00  0.00     0.022 A 
BRANCH  72  75
ATOM     75  S   UNL A   1      36.959  32.016  38.878  1.00  0.00     0.127 S 
ATOM     76  O   UNL A   1      35.732  32.711  38.493  1.00  0.00    -0.237 OA
ATOM     77  O   UNL A   1      36.929  30.568  38.670  1.00  0.00    -0.237 OA
ATOM     78  O   UNL A   1      37.545  32.434  40.143  1.00  0.00    -0.744 OA
ENDBRANCH  72  75
ENDBRANCH  54  68
BRANCH  55  79
ATOM     79  C   UNL A   1      41.975  26.900  27.520  1.00  0.00     0.023 A 
ATOM     80  C   UNL A   1      42.604  27.574  26.457  1.00  0.00     0.012 A 
ATOM     81  C   UNL A   1      41.777  25.508  27.433  1.00  0.00     0.148 A 
ATOM     82  C   UNL A   1      43.005  26.881  25.314  1.00  0.00     0.002 A 
ATOM     83  C   UNL A   1      42.227  24.815  26.315  1.00  0.00     0.091 A 
ATOM     84  F   UNL A   1      41.158  24.888  28.447  1.00  0.00    -0.205 F 
ATOM     85  C   UNL A   1      42.827  25.501  25.247  1.00  0.00     0.022 A 
BRANCH  83  86
ATOM     86  S   UNL A   1      42.144  23.023  26.193  1.00  0.00     0.127 S 
ATOM     87  O   UNL A   1      42.907  22.608  27.368  1.00  0.00    -0.237 OA
ATOM     88  O   UNL A   1      40.703  22.779  26.278  1.00  0.00    -0.237 OA
ATOM     89  O   UNL A   1      42.735  22.687  24.906  1.00  0.00    -0.744 OA
ENDBRANCH  83  86
ENDBRANCH  55  79
BRANCH  67  90
ATOM     90  C   UNL A   1      44.493  27.410  34.020  1.00  0.00     0.023 A 
ATOM     91  C   UNL A   1      45.687  28.139  34.193  1.00  0.00     0.012 A 
ATOM     92  C   UNL A   1      44.385  26.120  34.576  1.00  0.00     0.148 A 
ATOM     93  C   UNL A   1      46.765  27.581  34.881  1.00  0.00     0.002 A 
ATOM     94  C   UNL A   1      45.445  25.589  35.301  1.00  0.00     0.091 A 
ATOM     95  F   UNL A   1      43.247  25.436  34.386  1.00  0.00    -0.205 F 
ATOM     96  C   UNL A   1      46.640  26.314  35.444  1.00  0.00     0.022 A 
BRANCH  94  97
ATOM     97  S   UNL A   1      45.339  24.005  36.141  1.00  0.00     0.127 S 
ATOM     98  O   UNL A   1      46.452  23.273  35.540  1.00  0.00    -0.237 OA
ATOM     99  O   UNL A   1      45.542  24.381  37.542  1.00  0.00    -0.237 OA
ATOM    100  O   UNL A   1      44.012  23.482  35.845  1.00  0.00    -0.744 OA
ENDBRANCH  94  97
ENDBRANCH  67  90
ENDBRANCH  41  42
ENDBRANCH  34  36
ENDBRANCH  33  34
ENDBRANCH  32  33
ENDBRANCH  31  32
ENDBRANCH  30  31
ENDBRANCH   1  30
TORSDOF 22
ENDMDL
MODEL 3
REMARK VINA RESULT:     -10.8      1.725      2.180
REMARK SMILES CC(C)(C)NS(=O)(=O)c1csc(C(=O)Nc2ccccc2C(=O)OCCOCCOC(=O)c2ccc(-c3c4nc(c(-c5cccc(S(=O)(=O)[O-])c5F)c5ccc([nH]5)c(-c5cccc(S(=O)(=O)[O-])c5F)c5nc(c(-c6cccc(S(=O)(=O)[O-])c6F)c6ccc3[nH]6)C=C5)C=C4)cc2)c1
REMARK SMILES IDX 26 1 25 2 24 3 22 4 23 5 21 6 16 7 17 8 18 9 20 10 19 11
REMARK SMILES IDX 15 12 13 13 14 14 12 16 9 17 10 18 96 19 11 20 6 21 7 22
REMARK SMILES IDX 8 23 5 24 2 26 1 27 3 28 4 29 27 30 28 31 29 32 30 33 31 34
REMARK SMILES IDX 32 35 33 36 34 37 95 38 35 39 94 40 36 41 37 42 38 43 88 44
REMARK SMILES IDX 39 45 93 46 87 47 89 48 40 49 92 50 86 51 85 52 41 54 73 55
REMARK SMILES IDX 53 56 72 57 54 58 57 59 71 60 90 61 55 62 56 63 70 65 91 66
REMARK SMILES IDX 58 67 42 68 43 69 51 70 44 71 46 72 52 73 45 74 47 75 48 76
REMARK SMILES IDX 49 77 50 78 74 79 75 80 83 81 76 82 78 83 84 84 77 85 79 86
REMARK SMILES IDX 80 87 81 88 82 89 59 90 60 91 68 92 61 93 63 94 69 95 62 96
REMARK SMILES IDX 64 97 65 98 66 99 67 100
REMARK H PARENT 15 15 5 25 89 53 57 64
REMARK Flexibility Score: inf
ROOT
ATOM      1  C   UNL A   1      33.300  28.437  25.544  1.00  0.00     0.202 C 
ENDROOT
BRANCH   1   2
ATOM      2  C   UNL A   1      32.756  27.543  26.661  1.00  0.00     0.261 C 
BRANCH   2   3
ATOM      3  O   UNL A   1      33.171  26.169  26.606  1.00  0.00    -0.460 OA
BRANCH   3   4
ATOM      4  C   UNL A   1      33.772  25.828  25.444  1.00  0.00     0.340 C 
ATOM      5  O   UNL A   1      34.976  25.696  25.277  1.00  0.00    -0.246 OA
BRANCH   4   6
ATOM      6  C   UNL A   1      32.809  25.536  24.357  1.00  0.00     0.083 A 
ATOM      7  C   UNL A   1      31.516  25.001  24.510  1.00  0.00     0.056 A 
ATOM      8  C   UNL A   1      30.751  24.781  23.348  1.00  0.00     0.027 A 
ATOM      9  C   UNL A   1      31.207  25.172  22.084  1.00  0.00     0.002 A 
ATOM     10  C   UNL A   1      33.260  25.916  23.075  1.00  0.00     0.018 A 
ATOM     11  C   UNL A   1      32.461  25.749  21.948  1.00  0.00     0.001 A 
BRANCH   7  12
ATOM     12  N   UNL A   1      30.855  24.675  25.713  1.00  0.00    -0.320 N 
ATOM     13  C   UNL A   1      30.805  23.541  26.506  1.00  0.00     0.265 C 
ATOM     14  O   UNL A   1      29.870  23.491  27.309  1.00  0.00    -0.268 OA
ATOM     15  H   UNL A   1      30.308  25.415  26.064  1.00  0.00     0.170 HD
BRANCH  13  16
ATOM     16  C   UNL A   1      31.874  22.549  26.466  1.00  0.00     0.094 A 
ATOM     17  C   UNL A   1      33.286  20.784  25.829  1.00  0.00     0.093 A 
ATOM     18  C   UNL A   1      33.773  21.068  27.084  1.00  0.00     0.087 A 
ATOM     19  C   UNL A   1      32.239  21.667  25.470  1.00  0.00     0.047 A 
ATOM     20  S   UNL A   1      32.946  22.388  27.802  1.00  0.00    -0.137 S 
BRANCH  17  21
ATOM     21  S   UNL A   1      33.812  19.500  24.801  1.00  0.00     0.241 S 
ATOM     22  O   UNL A   1      35.226  19.703  24.609  1.00  0.00    -0.207 OA
ATOM     23  O   UNL A   1      32.898  19.524  23.679  1.00  0.00    -0.207 OA
BRANCH  21  24
ATOM     24  N   UNL A   1      33.586  18.001  25.531  1.00  0.00    -0.206 NA
ATOM     25  H   UNL A   1      34.102  18.053  26.410  1.00  0.00     0.141 HD
BRANCH  24  26
ATOM     26  C   UNL A   1      33.937  16.671  24.953  1.00  0.00     0.025 C 
ATOM     27  C   UNL A   1      35.289  16.171  25.487  1.00  0.00     0.028 C 
ATOM     28  C   UNL A   1      33.892  16.640  23.423  1.00  0.00     0.028 C 
ATOM     29  C   UNL A   1      32.857  15.701  25.474  1.00  0.00     0.028 C 
ENDBRANCH  24  26
ENDBRANCH  21  24
ENDBRANCH  17  21
ENDBRANCH  13  16
ENDBRANCH   7  12
ENDBRANCH   4   6
ENDBRANCH   3   4
ENDBRANCH   2   3
ENDBRANCH   1   2
BRANCH   1  30
ATOM     30  O   UNL A   1      33.621  29.794  25.812  1.00  0.00    -0.374 OA
BRANCH  30  31
ATOM     31  C   UNL A   1      33.438  30.314  27.121  1.00  0.00     0.202 C 
BRANCH  31  32
ATOM     32  C   UNL A   1      32.787  31.689  27.333  1.00  0.00     0.261 C 
BRANCH  32  33
ATOM     33  O   UNL A   1      33.673  32.816  27.250  1.00  0.00    -0.460 OA
BRANCH  33  34
ATOM     34  C   UNL A   1      33.488  33.740  28.226  1.00  0.00     0.338 C 
ATOM     35  O   UNL A   1      32.563  34.531  28.323  1.00  0.00    -0.246 OA
BRANCH  34  36
ATOM     36  C   UNL A   1      34.507  33.608  29.279  1.00  0.00     0.060 A 
ATOM     37  C   UNL A   1      35.792  34.105  29.023  1.00  0.00     0.016 A 
ATOM     38  C   UNL A   1      34.254  32.834  30.412  1.00  0.00     0.016 A 
ATOM     39  C   UNL A   1      36.845  33.778  29.873  1.00  0.00     0.010 A 
ATOM     40  C   UNL A   1      35.314  32.500  31.259  1.00  0.00     0.010 A 
ATOM     41  C   UNL A   1      36.621  32.930  30.964  1.00  0.00    -0.014 A 
BRANCH  41  42
ATOM     42  C   UNL A   1      37.777  32.365  31.701  1.00  0.00     0.031 A 
ATOM     43  C   UNL A   1      38.561  31.241  31.077  1.00  0.00     0.074 A 
ATOM     44  C   UNL A   1      38.126  32.852  32.903  1.00  0.00     0.049 A 
ATOM     45  N   UNL A   1      39.579  30.576  31.557  1.00  0.00    -0.248 NA
ATOM     46  C   UNL A   1      38.138  30.804  29.735  1.00  0.00     0.031 C 
ATOM     47  C   UNL A   1      37.447  33.943  33.600  1.00  0.00     0.029 A 
ATOM     48  N   UNL A   1      39.127  32.472  33.761  1.00  0.00    -0.354 N 
ATOM     49  C   UNL A   1      39.899  29.624  30.595  1.00  0.00     0.074 A 
ATOM     50  C   UNL A   1      38.961  29.791  29.505  1.00  0.00     0.031 C 
ATOM     51  C   UNL A   1      38.035  34.126  34.796  1.00  0.00     0.029 A 
ATOM     52  C   UNL A   1      39.111  33.150  34.956  1.00  0.00     0.049 A 
ATOM     53  H   UNL A   1      39.791  31.779  33.541  1.00  0.00     0.167 HD
ATOM     54  C   UNL A   1      40.893  28.705  30.608  1.00  0.00     0.034 A 
ATOM     55  C   UNL A   1      39.865  32.984  36.060  1.00  0.00     0.034 A 
ATOM     56  C   UNL A   1      41.841  28.560  31.681  1.00  0.00     0.049 A 
ATOM     57  C   UNL A   1      40.955  31.943  36.056  1.00  0.00     0.074 A 
ATOM     58  C   UNL A   1      42.914  27.692  31.769  1.00  0.00     0.029 A 
ATOM     59  N   UNL A   1      41.825  29.298  32.855  1.00  0.00    -0.354 N 
ATOM     60  N   UNL A   1      41.318  31.129  35.095  1.00  0.00    -0.248 NA
ATOM     61  C   UNL A   1      41.760  31.820  37.280  1.00  0.00     0.031 C 
ATOM     62  C   UNL A   1      43.533  27.889  33.008  1.00  0.00     0.029 A 
ATOM     63  C   UNL A   1      42.860  28.897  33.680  1.00  0.00     0.049 A 
ATOM     64  H   UNL A   1      41.172  30.003  33.069  1.00  0.00     0.167 HD
ATOM     65  C   UNL A   1      42.412  30.422  35.584  1.00  0.00     0.074 A 
ATOM     66  C   UNL A   1      42.665  30.919  36.920  1.00  0.00     0.031 C 
ATOM     67  C   UNL A   1      43.133  29.441  34.987  1.00  0.00     0.034 A 
BRANCH  54  68
ATOM     68  C   UNL A   1      41.025  27.797  29.414  1.00  0.00     0.023 A 
ATOM     69  C   UNL A   1      40.240  26.628  29.336  1.00  0.00     0.012 A 
ATOM     70  C   UNL A   1      41.879  28.128  28.343  1.00  0.00     0.148 A 
ATOM     71  C   UNL A   1      40.325  25.789  28.227  1.00  0.00     0.002 A 
ATOM     72  C   UNL A   1      41.928  27.307  27.223  1.00  0.00     0.091 A 
ATOM     73  F   UNL A   1      42.634  29.230  28.445  1.00  0.00    -0.205 F 
ATOM     74  C   UNL A   1      41.160  26.132  27.167  1.00  0.00     0.022 A 
BRANCH  72  75
ATOM     75  S   UNL A   1      42.917  27.703  25.776  1.00  0.00     0.127 S 
ATOM     76  O   UNL A   1      42.496  26.664  24.838  1.00  0.00    -0.237 OA
ATOM     77  O   UNL A   1      42.450  29.049  25.442  1.00  0.00    -0.237 OA
ATOM     78  O   UNL A   1      44.305  27.632  26.207  1.00  0.00    -0.744 OA
ENDBRANCH  72  75
ENDBRANCH  54  68
BRANCH  55  79
ATOM     79  C   UNL A   1      39.639  33.853  37.250  1.00  0.00     0.023 A 
ATOM     80  C   UNL A   1      40.086  35.187  37.229  1.00  0.00     0.012 A 
ATOM     81  C   UNL A   1      38.963  33.370  38.388  1.00  0.00     0.148 A 
ATOM     82  C   UNL A   1      39.890  36.019  38.332  1.00  0.00     0.002 A 
ATOM     83  C   UNL A   1      38.724  34.219  39.462  1.00  0.00     0.091 A 
ATOM     84  F   UNL A   1      38.563  32.091  38.397  1.00  0.00    -0.205 F 
ATOM     85  C   UNL A   1      39.200  35.540  39.443  1.00  0.00     0.022 A 
BRANCH  83  86
ATOM     86  S   UNL A   1      37.745  33.723  40.885  1.00  0.00     0.127 S 
ATOM     87  O   UNL A   1      37.539  34.999  41.566  1.00  0.00    -0.237 OA
ATOM     88  O   UNL A   1      36.550  33.164  40.252  1.00  0.00    -0.237 OA
ATOM     89  O   UNL A   1      38.556  32.749  41.602  1.00  0.00    -0.744 OA
ENDBRANCH  83  86
ENDBRANCH  55  79
BRANCH  67  90
ATOM     90  C   UNL A   1      44.289  28.853  35.755  1.00  0.00     0.023 A 
ATOM     91  C   UNL A   1      45.576  29.410  35.617  1.00  0.00     0.012 A 
ATOM     92  C   UNL A   1      44.085  27.805  36.675  1.00  0.00     0.148 A 
ATOM     93  C   UNL A   1      46.647  28.912  36.358  1.00  0.00     0.002 A 
ATOM     94  C   UNL A   1      45.146  27.345  37.445  1.00  0.00     0.091 A 
ATOM     95  F   UNL A   1      42.856  27.277  36.780  1.00  0.00    -0.205 F 
ATOM     96  C   UNL A   1      46.431  27.890  37.279  1.00  0.00     0.022 A 
BRANCH  94  97
ATOM     97  S   UNL A   1      44.941  26.100  38.722  1.00  0.00     0.127 S 
ATOM     98  O   UNL A   1      46.317  25.912  39.179  1.00  0.00    -0.237 OA
ATOM     99  O   UNL A   1      44.067  26.778  39.683  1.00  0.00    -0.237 OA
ATOM    100  O   UNL A   1      44.335  24.949  38.066  1.00  0.00    -0.744 OA
ENDBRANCH  94  97
ENDBRANCH  67  90
ENDBRANCH  41  42
ENDBRANCH  34  36
ENDBRANCH  33  34
ENDBRANCH  32  33
ENDBRANCH  31  32
ENDBRANCH  30  31
ENDBRANCH   1  30
TORSDOF 22
ENDMDL
