MODEL 1
REMARK VINA RESULT:     -12.8      0.000      0.000
REMARK SMILES NS(=O)(=O)c1ccc(-c2cc(Cl)cc3c2O[C@@H](C(F)(F)F)C(C(=O)OCCOCCOC(=O)c2ccc(-c4c5nc(c(-c6cccc(S(=O)(=O)[O-])c6F)c6ccc([nH]6)c(-c6cccc(S(=O)(=O)[O-])c6F)c6nc(c(-c7cccc(S(=O)(=O)[O-])c7F)c7ccc4[nH]7)C=C6)C=C5)cc2)=C3)cc1
REMARK SMILES IDX 28 1 27 2 26 3 25 4 23 5 24 6 22 7 9 8 10 9 15 10 11 11
REMARK SMILES IDX 14 12 16 13 12 14 13 15 97 16 17 17 8 18 5 19 6 20 99 21
REMARK SMILES IDX 7 22 98 23 2 24 3 25 4 26 1 27 18 30 19 31 20 32 21 33 29 34
REMARK SMILES IDX 30 35 31 36 32 37 33 38 34 39 35 40 96 41 36 42 95 43 37 44
REMARK SMILES IDX 38 45 39 46 89 47 40 48 94 49 88 50 90 51 41 52 93 53 87 54
REMARK SMILES IDX 86 55 42 57 74 58 54 59 73 60 55 61 58 62 72 63 91 64 56 65
REMARK SMILES IDX 57 66 71 68 92 69 59 70 43 71 44 72 52 73 45 74 47 75 53 76
REMARK SMILES IDX 46 77 48 78 49 79 50 80 51 81 75 82 76 83 84 84 77 85 79 86
REMARK SMILES IDX 85 87 78 88 80 89 81 90 82 91 83 92 60 93 61 94 69 95 62 96
REMARK SMILES IDX 64 97 70 98 63 99 65 100 66 101 67 102 68 103
REMARK H PARENT 1 28 1 29 90 56 58 67
REMARK Flexibility Score: inf
ROOT
ATOM      1  O   UNL A   1      32.539  31.041  27.034  1.00  0.00    -0.374 OA
ENDROOT
BRANCH   1   2
ATOM      2  C   UNL A   1      31.951  29.753  27.162  1.00  0.00     0.202 C 
BRANCH   2   3
ATOM      3  C   UNL A   1      32.811  28.514  26.861  1.00  0.00     0.261 C 
BRANCH   3   4
ATOM      4  O   UNL A   1      33.003  28.279  25.456  1.00  0.00    -0.460 OA
BRANCH   4   5
ATOM      5  C   UNL A   1      32.411  27.177  24.959  1.00  0.00     0.338 C 
ATOM      6  O   UNL A   1      31.204  27.016  24.837  1.00  0.00    -0.246 OA
BRANCH   5   7
ATOM      7  C   UNL A   1      33.381  26.214  24.385  1.00  0.00     0.087 C 
ATOM      8  C   UNL A   1      32.100  22.269  24.140  1.00  0.00     0.026 A 
ATOM      9  C   UNL A   1      31.069  22.164  25.102  1.00  0.00     0.033 A 
ATOM     10  C   UNL A   1      32.766  23.512  24.115  1.00  0.00     0.135 A 
ATOM     11  C   UNL A   1      30.986  23.062  26.166  1.00  0.00     0.042 A 
ATOM     12  C   UNL A   1      32.872  24.246  25.306  1.00  0.00     0.019 A 
ATOM     13  O   UNL A   1      32.861  24.231  22.908  1.00  0.00    -0.475 OA
ATOM     14  Cl  UNL A   1      29.754  22.868  27.348  1.00  0.00    -0.084 Cl
ATOM     15  C   UNL A   1      31.953  24.042  26.328  1.00  0.00     0.032 A 
ATOM     16  C   UNL A   1      33.812  25.385  25.350  1.00  0.00     0.027 C 
ATOM     17  C   UNL A   1      33.413  25.616  22.993  1.00  0.00     0.316 C 
BRANCH   8  18
ATOM     18  C   UNL A   1      32.781  20.944  23.861  1.00  0.00    -0.015 A 
ATOM     19  C   UNL A   1      33.524  18.191  24.002  1.00  0.00     0.082 A 
ATOM     20  C   UNL A   1      32.514  18.601  23.133  1.00  0.00     0.022 A 
ATOM     21  C   UNL A   1      34.212  19.141  24.756  1.00  0.00     0.022 A 
ATOM     22  C   UNL A   1      32.166  19.961  23.050  1.00  0.00     0.010 A 
ATOM     23  C   UNL A   1      33.848  20.500  24.678  1.00  0.00     0.010 A 
BRANCH  19  24
ATOM     24  S   UNL A   1      33.817  16.457  24.250  1.00  0.00     0.238 S 
ATOM     25  O   UNL A   1      34.304  15.877  23.015  1.00  0.00    -0.207 OA
ATOM     26  O   UNL A   1      32.720  15.878  24.986  1.00  0.00    -0.207 OA
BRANCH  24  27
ATOM     27  N   UNL A   1      35.124  16.445  25.302  1.00  0.00    -0.225 NA
ATOM     28  H   UNL A   1      35.026  15.667  25.955  1.00  0.00     0.137 HD
ATOM     29  H   UNL A   1      35.153  17.323  25.820  1.00  0.00     0.137 HD
ENDBRANCH  24  27
ENDBRANCH  19  24
ENDBRANCH   8  18
BRANCH  17  30
ATOM     30  C   UNL A   1      33.049  26.585  21.844  1.00  0.00     0.430 C 
ATOM     31  F   UNL A   1      33.943  27.611  21.832  1.00  0.00    -0.167 F 
ATOM     32  F   UNL A   1      33.144  25.983  20.636  1.00  0.00    -0.167 F 
ATOM     33  F   UNL A   1      31.824  27.133  21.922  1.00  0.00    -0.167 F 
ENDBRANCH  17  30
ENDBRANCH   5   7
ENDBRANCH   4   5
ENDBRANCH   3   4
ENDBRANCH   2   3
ENDBRANCH   1   2
BRANCH   1  34
ATOM     34  C   UNL A   1      31.677  32.156  26.822  1.00  0.00     0.202 C 
BRANCH  34  35
ATOM     35  C   UNL A   1      32.183  33.561  27.161  1.00  0.00     0.261 C 
BRANCH  35  36
ATOM     36  O   UNL A   1      32.977  33.617  28.355  1.00  0.00    -0.460 OA
BRANCH  36  37
ATOM     37  C   UNL A   1      34.162  34.261  28.212  1.00  0.00     0.338 C 
ATOM     38  O   UNL A   1      34.339  35.442  27.968  1.00  0.00    -0.246 OA
BRANCH  37  39
ATOM     39  C   UNL A   1      35.265  33.352  28.561  1.00  0.00     0.060 A 
ATOM     40  C   UNL A   1      34.953  32.169  29.242  1.00  0.00     0.016 A 
ATOM     41  C   UNL A   1      36.592  33.708  28.314  1.00  0.00     0.016 A 
ATOM     42  C   UNL A   1      35.974  31.350  29.712  1.00  0.00     0.010 A 
ATOM     43  C   UNL A   1      37.614  32.887  28.794  1.00  0.00     0.010 A 
ATOM     44  C   UNL A   1      37.310  31.723  29.523  1.00  0.00    -0.014 A 
BRANCH  44  45
ATOM     45  C   UNL A   1      38.387  30.961  30.195  1.00  0.00     0.031 A 
ATOM     46  C   UNL A   1      38.747  31.297  31.616  1.00  0.00     0.074 A 
ATOM     47  C   UNL A   1      39.040  29.985  29.540  1.00  0.00     0.049 A 
ATOM     48  N   UNL A   1      39.682  30.789  32.375  1.00  0.00    -0.248 NA
ATOM     49  C   UNL A   1      37.949  32.350  32.267  1.00  0.00     0.031 C 
ATOM     50  C   UNL A   1      38.774  29.571  28.163  1.00  0.00     0.029 A 
ATOM     51  N   UNL A   1      40.080  29.185  29.939  1.00  0.00    -0.354 N 
ATOM     52  C   UNL A   1      39.610  31.481  33.578  1.00  0.00     0.074 A 
ATOM     53  C   UNL A   1      38.545  32.451  33.446  1.00  0.00     0.031 C 
ATOM     54  C   UNL A   1      39.649  28.611  27.820  1.00  0.00     0.029 A 
ATOM     55  C   UNL A   1      40.555  28.367  28.941  1.00  0.00     0.049 A 
ATOM     56  H   UNL A   1      40.451  29.194  30.851  1.00  0.00     0.167 HD
ATOM     57  C   UNL A   1      40.356  31.315  34.695  1.00  0.00     0.034 A 
ATOM     58  C   UNL A   1      41.617  27.538  28.927  1.00  0.00     0.034 A 
ATOM     59  C   UNL A   1      41.404  30.338  34.824  1.00  0.00     0.049 A 
ATOM     60  C   UNL A   1      42.448  27.392  30.174  1.00  0.00     0.074 A 
ATOM     61  C   UNL A   1      42.183  30.053  35.931  1.00  0.00     0.029 A 
ATOM     62  N   UNL A   1      41.832  29.499  33.807  1.00  0.00    -0.354 N 
ATOM     63  N   UNL A   1      42.295  27.967  31.342  1.00  0.00    -0.248 NA
ATOM     64  C   UNL A   1      43.581  26.456  30.112  1.00  0.00     0.031 C 
ATOM     65  C   UNL A   1      43.110  29.069  35.570  1.00  0.00     0.029 A 
ATOM     66  C   UNL A   1      42.878  28.710  34.252  1.00  0.00     0.049 A 
ATOM     67  H   UNL A   1      41.449  29.470  32.900  1.00  0.00     0.167 HD
ATOM     68  C   UNL A   1      43.286  27.439  32.162  1.00  0.00     0.074 A 
ATOM     69  C   UNL A   1      44.021  26.481  31.362  1.00  0.00     0.031 C 
ATOM     70  C   UNL A   1      43.571  27.727  33.457  1.00  0.00     0.034 A 
BRANCH  57  71
ATOM     71  C   UNL A   1      40.060  32.204  35.876  1.00  0.00     0.023 A 
ATOM     72  C   UNL A   1      40.808  33.382  36.075  1.00  0.00     0.012 A 
ATOM     73  C   UNL A   1      39.004  31.899  36.758  1.00  0.00     0.148 A 
ATOM     74  C   UNL A   1      40.533  34.224  37.152  1.00  0.00     0.002 A 
ATOM     75  C   UNL A   1      38.705  32.768  37.801  1.00  0.00     0.091 A 
ATOM     76  F   UNL A   1      38.317  30.764  36.565  1.00  0.00    -0.205 F 
ATOM     77  C   UNL A   1      39.476  33.923  38.008  1.00  0.00     0.022 A 
BRANCH  75  78
ATOM     78  S   UNL A   1      37.315  32.510  38.909  1.00  0.00     0.127 S 
ATOM     79  O   UNL A   1      36.182  32.811  38.035  1.00  0.00    -0.237 OA
ATOM     80  O   UNL A   1      37.458  31.095  39.254  1.00  0.00    -0.237 OA
ATOM     81  O   UNL A   1      37.507  33.430  40.021  1.00  0.00    -0.744 OA
ENDBRANCH  75  78
ENDBRANCH  57  71
BRANCH  58  82
ATOM     82  C   UNL A   1      41.945  26.768  27.693  1.00  0.00     0.023 A 
ATOM     83  C   UNL A   1      42.535  27.427  26.597  1.00  0.00     0.012 A 
ATOM     84  C   UNL A   1      41.688  25.386  27.608  1.00  0.00     0.148 A 
ATOM     85  C   UNL A   1      42.832  26.729  25.426  1.00  0.00     0.002 A 
ATOM     86  C   UNL A   1      42.038  24.687  26.460  1.00  0.00     0.091 A 
ATOM     87  F   UNL A   1      41.113  24.782  28.657  1.00  0.00    -0.205 F 
ATOM     88  C   UNL A   1      42.594  25.359  25.360  1.00  0.00     0.022 A 
BRANCH  86  89
ATOM     89  S   UNL A   1      41.883  22.901  26.334  1.00  0.00     0.127 S 
ATOM     90  O   UNL A   1      42.603  22.454  27.523  1.00  0.00    -0.237 OA
ATOM     91  O   UNL A   1      40.431  22.722  26.389  1.00  0.00    -0.237 OA
ATOM     92  O   UNL A   1      42.486  22.541  25.058  1.00  0.00    -0.744 OA
ENDBRANCH  86  89
ENDBRANCH  58  82
BRANCH  70  93
ATOM     93  C   UNL A   1      44.699  26.971  34.110  1.00  0.00     0.023 A 
ATOM     94  C   UNL A   1      46.023  27.440  33.998  1.00  0.00     0.012 A 
ATOM     95  C   UNL A   1      44.436  25.833  34.899  1.00  0.00     0.148 A 
ATOM     96  C   UNL A   1      47.071  26.767  34.626  1.00  0.00     0.002 A 
ATOM     97  C   UNL A   1      45.476  25.199  35.567  1.00  0.00     0.091 A 
ATOM     98  F   UNL A   1      43.171  25.393  34.982  1.00  0.00    -0.205 F 
ATOM     99  C   UNL A   1      46.796  25.656  35.419  1.00  0.00     0.022 A 
BRANCH  97 100
ATOM    100  S   UNL A   1      45.206  23.822  36.688  1.00  0.00     0.127 S 
ATOM    101  O   UNL A   1      44.375  24.438  37.722  1.00  0.00    -0.237 OA
ATOM    102  O   UNL A   1      44.506  22.861  35.835  1.00  0.00    -0.237 OA
ATOM    103  O   UNL A   1      46.528  23.393  37.125  1.00  0.00    -0.744 OA
ENDBRANCH  97 100
ENDBRANCH  70  93
ENDBRANCH  44  45
ENDBRANCH  37  39
ENDBRANCH  36  37
ENDBRANCH  35  36
ENDBRANCH  34  35
ENDBRANCH   1  34
TORSDOF 21
ENDMDL
MODEL 2
REMARK VINA RESULT:     -12.5      0.901      7.202
REMARK SMILES NS(=O)(=O)c1ccc(-c2cc(Cl)cc3c2O[C@@H](C(F)(F)F)C(C(=O)OCCOCCOC(=O)c2ccc(-c4c5nc(c(-c6cccc(S(=O)(=O)[O-])c6F)c6ccc([nH]6)c(-c6cccc(S(=O)(=O)[O-])c6F)c6nc(c(-c7cccc(S(=O)(=O)[O-])c7F)c7ccc4[nH]7)C=C6)C=C5)cc2)=C3)cc1
REMARK SMILES IDX 28 1 27 2 26 3 25 4 23 5 24 6 22 7 9 8 10 9 15 10 11 11
REMARK SMILES IDX 14 12 16 13 12 14 13 15 97 16 17 17 8 18 5 19 6 20 99 21
REMARK SMILES IDX 7 22 98 23 2 24 3 25 4 26 1 27 18 30 19 31 20 32 21 33 29 34
REMARK SMILES IDX 30 35 31 36 32 37 33 38 34 39 35 40 96 41 36 42 95 43 37 44
REMARK SMILES IDX 38 45 39 46 89 47 40 48 94 49 88 50 90 51 41 52 93 53 87 54
REMARK SMILES IDX 86 55 42 57 74 58 54 59 73 60 55 61 58 62 72 63 91 64 56 65
REMARK SMILES IDX 57 66 71 68 92 69 59 70 43 71 44 72 52 73 45 74 47 75 53 76
REMARK SMILES IDX 46 77 48 78 49 79 50 80 51 81 75 82 76 83 84 84 77 85 79 86
REMARK SMILES IDX 85 87 78 88 80 89 81 90 82 91 83 92 60 93 61 94 69 95 62 96
REMARK SMILES IDX 64 97 70 98 63 99 65 100 66 101 67 102 68 103
REMARK H PARENT 1 28 1 29 90 56 58 67
REMARK Flexibility Score: inf
ROOT
ATOM      1  O   UNL A   1      32.346  30.923  27.254  1.00  0.00    -0.374 OA
ENDROOT
BRANCH   1   2
ATOM      2  C   UNL A   1      31.821  29.602  27.235  1.00  0.00     0.202 C 
BRANCH   2   3
ATOM      3  C   UNL A   1      32.792  28.423  27.055  1.00  0.00     0.261 C 
BRANCH   3   4
ATOM      4  O   UNL A   1      33.164  28.192  25.686  1.00  0.00    -0.460 OA
BRANCH   4   5
ATOM      5  C   UNL A   1      32.548  27.163  25.077  1.00  0.00     0.338 C 
ATOM      6  O   UNL A   1      31.342  27.068  24.891  1.00  0.00    -0.246 OA
BRANCH   5   7
ATOM      7  C   UNL A   1      33.500  26.203  24.466  1.00  0.00     0.087 C 
ATOM      8  C   UNL A   1      32.201  22.265  24.205  1.00  0.00     0.026 A 
ATOM      9  C   UNL A   1      31.193  22.152  25.191  1.00  0.00     0.033 A 
ATOM     10  C   UNL A   1      32.870  23.507  24.179  1.00  0.00     0.135 A 
ATOM     11  C   UNL A   1      31.140  23.037  26.268  1.00  0.00     0.042 A 
ATOM     12  C   UNL A   1      33.008  24.226  25.376  1.00  0.00     0.019 A 
ATOM     13  O   UNL A   1      32.936  24.241  22.979  1.00  0.00    -0.475 OA
ATOM     14  Cl  UNL A   1      29.937  22.832  27.477  1.00  0.00    -0.084 Cl
ATOM     15  C   UNL A   1      32.114  24.012  26.417  1.00  0.00     0.032 A 
ATOM     16  C   UNL A   1      33.952  25.361  25.410  1.00  0.00     0.027 C 
ATOM     17  C   UNL A   1      33.495  25.623  23.067  1.00  0.00     0.316 C 
BRANCH   8  18
ATOM     18  C   UNL A   1      32.870  20.943  23.893  1.00  0.00    -0.015 A 
ATOM     19  C   UNL A   1      33.643  18.196  24.011  1.00  0.00     0.082 A 
ATOM     20  C   UNL A   1      32.569  18.589  23.211  1.00  0.00     0.022 A 
ATOM     21  C   UNL A   1      34.376  19.159  24.703  1.00  0.00     0.022 A 
ATOM     22  C   UNL A   1      32.207  19.946  23.139  1.00  0.00     0.010 A 
ATOM     23  C   UNL A   1      33.996  20.516  24.636  1.00  0.00     0.010 A 
BRANCH  19  24
ATOM     24  S   UNL A   1      33.966  16.468  24.256  1.00  0.00     0.238 S 
ATOM     25  O   UNL A   1      34.888  16.310  25.361  1.00  0.00    -0.207 OA
ATOM     26  O   UNL A   1      34.181  15.827  22.983  1.00  0.00    -0.207 OA
BRANCH  24  27
ATOM     27  N   UNL A   1      32.492  15.886  24.811  1.00  0.00    -0.225 NA
ATOM     28  H   UNL A   1      32.000  15.425  24.046  1.00  0.00     0.137 HD
ATOM     29  H   UNL A   1      31.929  16.663  25.159  1.00  0.00     0.137 HD
ENDBRANCH  24  27
ENDBRANCH  19  24
ENDBRANCH   8  18
BRANCH  17  30
ATOM     30  C   UNL A   1      33.105  26.607  21.939  1.00  0.00     0.430 C 
ATOM     31  F   UNL A   1      33.178  25.959  20.745  1.00  0.00    -0.167 F 
ATOM     32  F   UNL A   1      31.826  27.029  22.066  1.00  0.00    -0.167 F 
ATOM     33  F   UNL A   1      33.879  27.701  21.839  1.00  0.00    -0.167 F 
ENDBRANCH  17  30
ENDBRANCH   5   7
ENDBRANCH   4   5
ENDBRANCH   3   4
ENDBRANCH   2   3
ENDBRANCH   1   2
BRANCH   1  34
ATOM     34  C   UNL A   1      31.615  31.946  26.582  1.00  0.00     0.202 C 
BRANCH  34  35
ATOM     35  C   UNL A   1      31.930  33.412  26.896  1.00  0.00     0.261 C 
BRANCH  35  36
ATOM     36  O   UNL A   1      32.230  33.655  28.278  1.00  0.00    -0.460 OA
BRANCH  36  37
ATOM     37  C   UNL A   1      33.273  34.498  28.487  1.00  0.00     0.338 C 
ATOM     38  O   UNL A   1      33.249  35.717  28.500  1.00  0.00    -0.246 OA
BRANCH  37  39
ATOM     39  C   UNL A   1      34.464  33.726  28.873  1.00  0.00     0.060 A 
ATOM     40  C   UNL A   1      34.281  32.579  29.655  1.00  0.00     0.016 A 
ATOM     41  C   UNL A   1      35.745  34.180  28.556  1.00  0.00     0.016 A 
ATOM     42  C   UNL A   1      35.386  31.898  30.157  1.00  0.00     0.010 A 
ATOM     43  C   UNL A   1      36.852  33.499  29.068  1.00  0.00     0.010 A 
ATOM     44  C   UNL A   1      36.676  32.376  29.897  1.00  0.00    -0.014 A 
BRANCH  44  45
ATOM     45  C   UNL A   1      37.836  31.774  30.594  1.00  0.00     0.031 A 
ATOM     46  C   UNL A   1      38.636  30.708  29.898  1.00  0.00     0.074 A 
ATOM     47  C   UNL A   1      38.163  32.170  31.836  1.00  0.00     0.049 A 
ATOM     48  N   UNL A   1      39.656  30.019  30.339  1.00  0.00    -0.248 NA
ATOM     49  C   UNL A   1      38.231  30.370  28.523  1.00  0.00     0.031 C 
ATOM     50  C   UNL A   1      37.461  33.196  32.606  1.00  0.00     0.029 A 
ATOM     51  N   UNL A   1      39.154  31.734  32.678  1.00  0.00    -0.354 N 
ATOM     52  C   UNL A   1      39.993  29.144  29.313  1.00  0.00     0.074 A 
ATOM     53  C   UNL A   1      39.063  29.382  28.230  1.00  0.00     0.031 C 
ATOM     54  C   UNL A   1      38.026  33.292  33.821  1.00  0.00     0.029 A 
ATOM     55  C   UNL A   1      39.107  32.313  33.924  1.00  0.00     0.049 A 
ATOM     56  H   UNL A   1      39.834  31.072  32.416  1.00  0.00     0.167 HD
ATOM     57  C   UNL A   1      40.993  28.233  29.273  1.00  0.00     0.034 A 
ATOM     58  C   UNL A   1      39.834  32.060  35.030  1.00  0.00     0.034 A 
ATOM     59  C   UNL A   1      41.922  28.012  30.349  1.00  0.00     0.049 A 
ATOM     60  C   UNL A   1      40.923  31.022  34.968  1.00  0.00     0.074 A 
ATOM     61  C   UNL A   1      43.004  27.151  30.388  1.00  0.00     0.029 A 
ATOM     62  N   UNL A   1      41.869  28.644  31.582  1.00  0.00    -0.354 N 
ATOM     63  N   UNL A   1      41.306  30.285  33.953  1.00  0.00    -0.248 NA
ATOM     64  C   UNL A   1      41.703  30.803  36.195  1.00  0.00     0.031 C 
ATOM     65  C   UNL A   1      43.581  27.232  31.659  1.00  0.00     0.029 A 
ATOM     66  C   UNL A   1      42.886  28.178  32.397  1.00  0.00     0.049 A 
ATOM     67  H   UNL A   1      41.205  29.324  31.840  1.00  0.00     0.167 HD
ATOM     68  C   UNL A   1      42.391  29.542  34.407  1.00  0.00     0.074 A 
ATOM     69  C   UNL A   1      42.617  29.935  35.783  1.00  0.00     0.031 C 
ATOM     70  C   UNL A   1      43.127  28.611  33.750  1.00  0.00     0.034 A 
BRANCH  57  71
ATOM     71  C   UNL A   1      41.143  27.409  28.019  1.00  0.00     0.023 A 
ATOM     72  C   UNL A   1      41.724  27.979  26.868  1.00  0.00     0.012 A 
ATOM     73  C   UNL A   1      40.757  26.054  28.000  1.00  0.00     0.148 A 
ATOM     74  C   UNL A   1      41.886  27.224  25.707  1.00  0.00     0.002 A 
ATOM     75  C   UNL A   1      40.966  25.295  26.854  1.00  0.00     0.091 A 
ATOM     76  F   UNL A   1      40.188  25.535  29.097  1.00  0.00    -0.205 F 
ATOM     77  C   UNL A   1      41.518  25.881  25.703  1.00  0.00     0.022 A 
BRANCH  75  78
ATOM     78  S   UNL A   1      40.599  23.538  26.775  1.00  0.00     0.127 S 
ATOM     79  O   UNL A   1      39.176  23.550  26.437  1.00  0.00    -0.237 OA
ATOM     80  O   UNL A   1      41.478  23.091  25.693  1.00  0.00    -0.237 OA
ATOM     81  O   UNL A   1      40.924  22.998  28.087  1.00  0.00    -0.744 OA
ENDBRANCH  75  78
ENDBRANCH  57  71
BRANCH  58  82
ATOM     82  C   UNL A   1      39.569  32.817  36.286  1.00  0.00     0.023 A 
ATOM     83  C   UNL A   1      40.207  34.053  36.503  1.00  0.00     0.012 A 
ATOM     84  C   UNL A   1      38.678  32.323  37.259  1.00  0.00     0.148 A 
ATOM     85  C   UNL A   1      39.987  34.768  37.680  1.00  0.00     0.002 A 
ATOM     86  C   UNL A   1      38.421  33.068  38.403  1.00  0.00     0.091 A 
ATOM     87  F   UNL A   1      38.092  31.138  37.039  1.00  0.00    -0.205 F 
ATOM     88  C   UNL A   1      39.088  34.282  38.625  1.00  0.00     0.022 A 
BRANCH  86  89
ATOM     89  S   UNL A   1      37.186  32.580  39.614  1.00  0.00     0.127 S 
ATOM     90  O   UNL A   1      35.969  32.555  38.805  1.00  0.00    -0.237 OA
ATOM     91  O   UNL A   1      37.676  31.265  40.029  1.00  0.00    -0.237 OA
ATOM     92  O   UNL A   1      37.230  33.596  40.655  1.00  0.00    -0.744 OA
ENDBRANCH  86  89
ENDBRANCH  58  82
BRANCH  70  93
ATOM     93  C   UNL A   1      44.277  27.978  34.491  1.00  0.00     0.023 A 
ATOM     94  C   UNL A   1      45.539  28.604  34.506  1.00  0.00     0.012 A 
ATOM     95  C   UNL A   1      44.084  26.797  35.235  1.00  0.00     0.148 A 
ATOM     96  C   UNL A   1      46.601  28.045  35.217  1.00  0.00     0.002 A 
ATOM     97  C   UNL A   1      45.130  26.274  35.985  1.00  0.00     0.091 A 
ATOM     98  F   UNL A   1      42.880  26.207  35.197  1.00  0.00    -0.205 F 
ATOM     99  C   UNL A   1      46.393  26.889  35.965  1.00  0.00     0.022 A 
BRANCH  97 100
ATOM    100  S   UNL A   1      44.931  24.847  37.056  1.00  0.00     0.127 S 
ATOM    101  O   UNL A   1      44.738  23.770  36.086  1.00  0.00    -0.237 OA
ATOM    102  O   UNL A   1      46.213  24.809  37.762  1.00  0.00    -0.237 OA
ATOM    103  O   UNL A   1      43.782  25.135  37.903  1.00  0.00    -0.744 OA
ENDBRANCH  97 100
ENDBRANCH  70  93
ENDBRANCH  44  45
ENDBRANCH  37  39
ENDBRANCH  36  37
ENDBRANCH  35  36
ENDBRANCH  34  35
ENDBRANCH   1  34
TORSDOF 21
ENDMDL
MODEL 3
REMARK VINA RESULT:     -12.2      5.450     10.876
REMARK SMILES NS(=O)(=O)c1ccc(-c2cc(Cl)cc3c2O[C@@H](C(F)(F)F)C(C(=O)OCCOCCOC(=O)c2ccc(-c4c5nc(c(-c6cccc(S(=O)(=O)[O-])c6F)c6ccc([nH]6)c(-c6cccc(S(=O)(=O)[O-])c6F)c6nc(c(-c7cccc(S(=O)(=O)[O-])c7F)c7ccc4[nH]7)C=C6)C=C5)cc2)=C3)cc1
REMARK SMILES IDX 28 1 27 2 26 3 25 4 23 5 24 6 22 7 9 8 10 9 15 10 11 11
REMARK SMILES IDX 14 12 16 13 12 14 13 15 97 16 17 17 8 18 5 19 6 20 99 21
REMARK SMILES IDX 7 22 98 23 2 24 3 25 4 26 1 27 18 30 19 31 20 32 21 33 29 34
REMARK SMILES IDX 30 35 31 36 32 37 33 38 34 39 35 40 96 41 36 42 95 43 37 44
REMARK SMILES IDX 38 45 39 46 89 47 40 48 94 49 88 50 90 51 41 52 93 53 87 54
REMARK SMILES IDX 86 55 42 57 74 58 54 59 73 60 55 61 58 62 72 63 91 64 56 65
REMARK SMILES IDX 57 66 71 68 92 69 59 70 43 71 44 72 52 73 45 74 47 75 53 76
REMARK SMILES IDX 46 77 48 78 49 79 50 80 51 81 75 82 76 83 84 84 77 85 79 86
REMARK SMILES IDX 85 87 78 88 80 89 81 90 82 91 83 92 60 93 61 94 69 95 62 96
REMARK SMILES IDX 64 97 70 98 63 99 65 100 66 101 67 102 68 103
REMARK H PARENT 1 28 1 29 90 56 58 67
REMARK Flexibility Score: inf
ROOT
ATOM      1  O   UNL A   1      36.436  21.022  24.582  1.00  0.00    -0.374 OA
ENDROOT
BRANCH   1   2
ATOM      2  C   UNL A   1      35.568  21.463  25.618  1.00  0.00     0.202 C 
BRANCH   2   3
ATOM      3  C   UNL A   1      35.642  22.932  26.069  1.00  0.00     0.261 C 
BRANCH   3   4
ATOM      4  O   UNL A   1      34.386  23.624  25.969  1.00  0.00    -0.460 OA
BRANCH   4   5
ATOM      5  C   UNL A   1      33.310  22.952  26.417  1.00  0.00     0.338 C 
ATOM      6  O   UNL A   1      33.265  22.292  27.447  1.00  0.00    -0.246 OA
BRANCH   5   7
ATOM      7  C   UNL A   1      32.086  23.235  25.628  1.00  0.00     0.087 C 
ATOM      8  C   UNL A   1      31.933  26.950  23.774  1.00  0.00     0.026 A 
ATOM      9  C   UNL A   1      32.832  27.757  24.509  1.00  0.00     0.033 A 
ATOM     10  C   UNL A   1      31.738  25.653  24.293  1.00  0.00     0.135 A 
ATOM     11  C   UNL A   1      33.185  27.430  25.818  1.00  0.00     0.042 A 
ATOM     12  C   UNL A   1      31.854  25.454  25.677  1.00  0.00     0.019 A 
ATOM     13  O   UNL A   1      31.938  24.531  23.465  1.00  0.00    -0.475 OA
ATOM     14  Cl  UNL A   1      34.234  28.466  26.700  1.00  0.00    -0.084 Cl
ATOM     15  C   UNL A   1      32.611  26.332  26.441  1.00  0.00     0.032 A 
ATOM     16  C   UNL A   1      31.364  24.182  26.248  1.00  0.00     0.027 C 
ATOM     17  C   UNL A   1      31.896  23.192  24.126  1.00  0.00     0.316 C 
BRANCH   8  18
ATOM     18  C   UNL A   1      30.846  27.754  23.089  1.00  0.00    -0.015 A 
ATOM     19  C   UNL A   1      29.022  29.852  22.440  1.00  0.00     0.082 A 
ATOM     20  C   UNL A   1      30.276  29.800  21.832  1.00  0.00     0.022 A 
ATOM     21  C   UNL A   1      28.639  28.840  23.320  1.00  0.00     0.022 A 
ATOM     22  C   UNL A   1      31.162  28.752  22.138  1.00  0.00     0.010 A 
ATOM     23  C   UNL A   1      29.540  27.802  23.632  1.00  0.00     0.010 A 
BRANCH  19  24
ATOM     24  S   UNL A   1      27.993  31.280  22.205  1.00  0.00     0.238 S 
ATOM     25  O   UNL A   1      27.055  31.375  23.305  1.00  0.00    -0.207 OA
ATOM     26  O   UNL A   1      27.569  31.354  20.829  1.00  0.00    -0.207 OA
BRANCH  24  27
ATOM     27  N   UNL A   1      29.067  32.554  22.415  1.00  0.00    -0.225 NA
ATOM     28  H   UNL A   1      30.014  32.187  22.509  1.00  0.00     0.137 HD
ATOM     29  H   UNL A   1      28.818  33.073  23.257  1.00  0.00     0.137 HD
ENDBRANCH  24  27
ENDBRANCH  19  24
ENDBRANCH   8  18
BRANCH  17  30
ATOM     30  C   UNL A   1      32.610  22.031  23.396  1.00  0.00     0.430 C 
ATOM     31  F   UNL A   1      33.843  22.451  23.001  1.00  0.00    -0.167 F 
ATOM     32  F   UNL A   1      32.814  20.976  24.220  1.00  0.00    -0.167 F 
ATOM     33  F   UNL A   1      31.983  21.568  22.302  1.00  0.00    -0.167 F 
ENDBRANCH  17  30
ENDBRANCH   5   7
ENDBRANCH   4   5
ENDBRANCH   3   4
ENDBRANCH   2   3
ENDBRANCH   1   2
BRANCH   1  34
ATOM     34  C   UNL A   1      37.153  19.806  24.778  1.00  0.00     0.202 C 
BRANCH  34  35
ATOM     35  C   UNL A   1      38.593  19.868  25.297  1.00  0.00     0.261 C 
BRANCH  35  36
ATOM     36  O   UNL A   1      38.936  21.125  25.900  1.00  0.00    -0.460 OA
BRANCH  36  37
ATOM     37  C   UNL A   1      40.070  21.101  26.643  1.00  0.00     0.338 C 
ATOM     38  O   UNL A   1      40.848  20.171  26.778  1.00  0.00    -0.246 OA
BRANCH  37  39
ATOM     39  C   UNL A   1      40.348  22.447  27.168  1.00  0.00     0.060 A 
ATOM     40  C   UNL A   1      39.648  23.526  26.615  1.00  0.00     0.016 A 
ATOM     41  C   UNL A   1      41.354  22.653  28.113  1.00  0.00     0.016 A 
ATOM     42  C   UNL A   1      39.977  24.827  26.982  1.00  0.00     0.010 A 
ATOM     43  C   UNL A   1      41.687  23.961  28.473  1.00  0.00     0.010 A 
ATOM     44  C   UNL A   1      41.023  25.053  27.885  1.00  0.00    -0.014 A 
BRANCH  44  45
ATOM     45  C   UNL A   1      41.505  26.433  28.120  1.00  0.00     0.031 A 
ATOM     46  C   UNL A   1      42.918  26.790  27.748  1.00  0.00     0.074 A 
ATOM     47  C   UNL A   1      40.690  27.353  28.666  1.00  0.00     0.049 A 
ATOM     48  N   UNL A   1      43.554  27.921  27.907  1.00  0.00    -0.248 NA
ATOM     49  C   UNL A   1      43.721  25.731  27.115  1.00  0.00     0.031 C 
ATOM     50  C   UNL A   1      39.303  27.121  29.062  1.00  0.00     0.029 A 
ATOM     51  N   UNL A   1      40.925  28.661  29.006  1.00  0.00    -0.354 N 
ATOM     52  C   UNL A   1      44.840  27.701  27.428  1.00  0.00     0.074 A 
ATOM     53  C   UNL A   1      44.897  26.326  26.981  1.00  0.00     0.031 C 
ATOM     54  C   UNL A   1      38.816  28.242  29.620  1.00  0.00     0.029 A 
ATOM     55  C   UNL A   1      39.866  29.258  29.648  1.00  0.00     0.049 A 
ATOM     56  H   UNL A   1      41.770  29.128  28.809  1.00  0.00     0.167 HD
ATOM     57  C   UNL A   1      45.877  28.569  27.359  1.00  0.00     0.034 A 
ATOM     58  C   UNL A   1      39.767  30.475  30.218  1.00  0.00     0.034 A 
ATOM     59  C   UNL A   1      45.808  29.939  27.793  1.00  0.00     0.049 A 
ATOM     60  C   UNL A   1      40.943  31.412  30.151  1.00  0.00     0.074 A 
ATOM     61  C   UNL A   1      46.785  30.915  27.715  1.00  0.00     0.029 A 
ATOM     62  N   UNL A   1      44.707  30.521  28.402  1.00  0.00    -0.354 N 
ATOM     63  N   UNL A   1      42.115  31.230  29.590  1.00  0.00    -0.248 NA
ATOM     64  C   UNL A   1      40.774  32.737  30.766  1.00  0.00     0.031 C 
ATOM     65  C   UNL A   1      46.288  32.077  28.315  1.00  0.00     0.029 A 
ATOM     66  C   UNL A   1      44.986  31.838  28.725  1.00  0.00     0.049 A 
ATOM     67  H   UNL A   1      43.853  30.065  28.579  1.00  0.00     0.167 HD
ATOM     68  C   UNL A   1      42.808  32.425  29.754  1.00  0.00     0.074 A 
ATOM     69  C   UNL A   1      41.915  33.331  30.447  1.00  0.00     0.031 C 
ATOM     70  C   UNL A   1      44.071  32.742  29.375  1.00  0.00     0.034 A 
BRANCH  57  71
ATOM     71  C   UNL A   1      47.176  28.067  26.781  1.00  0.00     0.023 A 
ATOM     72  C   UNL A   1      48.202  27.624  27.640  1.00  0.00     0.012 A 
ATOM     73  C   UNL A   1      47.357  27.984  25.387  1.00  0.00     0.148 A 
ATOM     74  C   UNL A   1      49.402  27.139  27.119  1.00  0.00     0.002 A 
ATOM     75  C   UNL A   1      48.537  27.456  24.876  1.00  0.00     0.091 A 
ATOM     76  F   UNL A   1      46.378  28.430  24.587  1.00  0.00    -0.205 F 
ATOM     77  C   UNL A   1      49.565  27.045  25.739  1.00  0.00     0.022 A 
BRANCH  75  78
ATOM     78  S   UNL A   1      48.811  27.219  23.116  1.00  0.00     0.127 S 
ATOM     79  O   UNL A   1      50.272  27.188  23.047  1.00  0.00    -0.237 OA
ATOM     80  O   UNL A   1      48.163  25.929  22.876  1.00  0.00    -0.237 OA
ATOM     81  O   UNL A   1      48.180  28.351  22.453  1.00  0.00    -0.744 OA
ENDBRANCH  75  78
ENDBRANCH  57  71
BRANCH  58  82
ATOM     82  C   UNL A   1      38.499  30.884  30.886  1.00  0.00     0.023 A 
ATOM     83  C   UNL A   1      38.320  30.624  32.259  1.00  0.00     0.012 A 
ATOM     84  C   UNL A   1      37.478  31.540  30.172  1.00  0.00     0.148 A 
ATOM     85  C   UNL A   1      37.134  30.981  32.899  1.00  0.00     0.002 A 
ATOM     86  C   UNL A   1      36.323  31.943  30.829  1.00  0.00     0.091 A 
ATOM     87  F   UNL A   1      37.663  31.765  28.863  1.00  0.00    -0.205 F 
ATOM     88  C   UNL A   1      36.140  31.649  32.189  1.00  0.00     0.022 A 
BRANCH  86  89
ATOM     89  S   UNL A   1      35.046  32.918  30.025  1.00  0.00     0.127 S 
ATOM     90  O   UNL A   1      34.142  33.202  31.136  1.00  0.00    -0.237 OA
ATOM     91  O   UNL A   1      35.808  34.069  29.541  1.00  0.00    -0.237 OA
ATOM     92  O   UNL A   1      34.504  32.068  28.973  1.00  0.00    -0.744 OA
ENDBRANCH  86  89
ENDBRANCH  58  82
BRANCH  70  93
ATOM     93  C   UNL A   1      44.558  34.140  29.662  1.00  0.00     0.023 A 
ATOM     94  C   UNL A   1      45.252  34.415  30.857  1.00  0.00     0.012 A 
ATOM     95  C   UNL A   1      44.389  35.165  28.710  1.00  0.00     0.148 A 
ATOM     96  C   UNL A   1      45.736  35.697  31.117  1.00  0.00     0.002 A 
ATOM     97  C   UNL A   1      44.922  36.426  28.951  1.00  0.00     0.091 A 
ATOM     98  F   UNL A   1      43.714  34.888  27.585  1.00  0.00    -0.205 F 
ATOM     99  C   UNL A   1      45.582  36.697  30.160  1.00  0.00     0.022 A 
BRANCH  97 100
ATOM    100  S   UNL A   1      44.860  37.748  27.737  1.00  0.00     0.127 S 
ATOM    101  O   UNL A   1      45.917  37.350  26.809  1.00  0.00    -0.237 OA
ATOM    102  O   UNL A   1      43.502  37.618  27.207  1.00  0.00    -0.237 OA
ATOM    103  O   UNL A   1      45.107  38.982  28.471  1.00  0.00    -0.744 OA
ENDBRANCH  97 100
ENDBRANCH  70  93
ENDBRANCH  44  45
ENDBRANCH  37  39
ENDBRANCH  36  37
ENDBRANCH  35  36
ENDBRANCH  34  35
ENDBRANCH   1  34
TORSDOF 21
ENDMDL
