MODEL 1
REMARK VINA RESULT:     -10.9      0.000      0.000
REMARK SMILES Cc1oc(CNC(=O)c2ccnn2C)cc1C(=O)OCCOCCOC(=O)c1ccc(-c2c3nc(c(-c4cccc(S(=O)(=O)[O-])c4F)c4ccc([nH]4)c(-c4cccc(S(=O)(=O)[O-])c4F)c4nc(c(-c5cccc(S(=O)(=O)[O-])c5F)c5ccc2[nH]5)C=C4)C=C3)cc1
REMARK SMILES IDX 22 1 21 2 20 3 19 4 17 5 18 6 16 7 1 8 2 9 3 10 4 11 15 12
REMARK SMILES IDX 5 13 6 14 7 15 8 17 9 18 10 19 13 20 11 21 12 22 14 23 23 24
REMARK SMILES IDX 24 25 25 26 26 27 27 28 28 29 29 30 90 31 30 32 89 33 31 34
REMARK SMILES IDX 32 35 33 36 83 37 34 38 88 39 82 40 84 41 35 42 87 43 81 44
REMARK SMILES IDX 80 45 36 47 68 48 48 49 67 50 49 51 52 52 66 53 85 54 50 55
REMARK SMILES IDX 51 56 65 58 86 59 53 60 37 61 38 62 46 63 39 64 41 65 47 66
REMARK SMILES IDX 40 67 42 68 43 69 44 70 45 71 69 72 70 73 78 74 71 75 73 76
REMARK SMILES IDX 79 77 72 78 74 79 75 80 76 81 77 82 54 83 55 84 63 85 56 86
REMARK SMILES IDX 58 87 64 88 57 89 59 90 60 91 61 92 62 93
REMARK H PARENT 6 16 84 46 52 57
REMARK Flexibility Score: inf
ROOT
ATOM      1  O   UNL A   1      32.440  30.585  26.282  1.00  0.00    -0.374 OA
ENDROOT
BRANCH   1   2
ATOM      2  C   UNL A   1      32.114  29.357  25.624  1.00  0.00     0.202 C 
BRANCH   2   3
ATOM      3  C   UNL A   1      31.035  29.480  24.546  1.00  0.00     0.261 C 
BRANCH   3   4
ATOM      4  O   UNL A   1      30.592  28.172  24.151  1.00  0.00    -0.460 OA
BRANCH   4   5
ATOM      5  C   UNL A   1      30.734  27.894  22.829  1.00  0.00     0.341 C 
ATOM      6  O   UNL A   1      30.196  28.517  21.921  1.00  0.00    -0.246 OA
BRANCH   5   7
ATOM      7  C   UNL A   1      31.731  26.876  22.557  1.00  0.00     0.101 A 
ATOM      8  C   UNL A   1      34.032  28.117  22.119  1.00  0.00     0.088 C 
ATOM      9  C   UNL A   1      33.078  26.992  22.249  1.00  0.00     0.115 A 
ATOM     10  O   UNL A   1      33.632  25.747  22.104  1.00  0.00    -0.464 OA
ATOM     11  C   UNL A   1      32.644  24.836  22.315  1.00  0.00     0.124 A 
ATOM     12  C   UNL A   1      31.457  25.481  22.554  1.00  0.00     0.063 A 
BRANCH  11  13
ATOM     13  C   UNL A   1      32.996  23.409  22.431  1.00  0.00     0.191 C 
BRANCH  13  14
ATOM     14  N   UNL A   1      34.098  23.157  23.323  1.00  0.00    -0.343 N 
ATOM     15  C   UNL A   1      34.062  23.050  24.689  1.00  0.00     0.269 C 
ATOM     16  H   UNL A   1      34.981  23.050  22.901  1.00  0.00     0.164 HD
ATOM     17  O   UNL A   1      35.110  22.814  25.286  1.00  0.00    -0.268 OA
BRANCH  15  18
ATOM     18  C   UNL A   1      32.814  23.275  25.370  1.00  0.00     0.125 A 
ATOM     19  C   UNL A   1      31.799  22.355  25.570  1.00  0.00     0.055 A 
ATOM     20  N   UNL A   1      32.345  24.439  25.927  1.00  0.00    -0.263 N 
ATOM     21  C   UNL A   1      30.835  23.024  26.339  1.00  0.00     0.136 A 
ATOM     22  N   UNL A   1      31.169  24.294  26.570  1.00  0.00    -0.181 NA
ATOM     23  C   UNL A   1      32.958  25.748  25.927  1.00  0.00     0.174 C 
ENDBRANCH  15  18
ENDBRANCH  13  14
ENDBRANCH  11  13
ENDBRANCH   5   7
ENDBRANCH   4   5
ENDBRANCH   3   4
ENDBRANCH   2   3
ENDBRANCH   1   2
BRANCH   1  24
ATOM     24  C   UNL A   1      31.391  31.554  26.378  1.00  0.00     0.202 C 
BRANCH  24  25
ATOM     25  C   UNL A   1      31.844  32.996  26.623  1.00  0.00     0.261 C 
BRANCH  25  26
ATOM     26  O   UNL A   1      32.311  33.161  27.975  1.00  0.00    -0.460 OA
BRANCH  26  27
ATOM     27  C   UNL A   1      33.348  34.020  28.122  1.00  0.00     0.338 C 
ATOM     28  O   UNL A   1      33.296  35.238  28.136  1.00  0.00    -0.246 OA
BRANCH  27  29
ATOM     29  C   UNL A   1      34.571  33.267  28.469  1.00  0.00     0.060 A 
ATOM     30  C   UNL A   1      34.401  31.988  29.016  1.00  0.00     0.016 A 
ATOM     31  C   UNL A   1      35.852  33.799  28.300  1.00  0.00     0.016 A 
ATOM     32  C   UNL A   1      35.507  31.260  29.448  1.00  0.00     0.010 A 
ATOM     33  C   UNL A   1      36.961  33.069  28.742  1.00  0.00     0.010 A 
ATOM     34  C   UNL A   1      36.789  31.814  29.351  1.00  0.00    -0.014 A 
BRANCH  34  35
ATOM     35  C   UNL A   1      37.925  31.139  30.023  1.00  0.00     0.031 A 
ATOM     36  C   UNL A   1      38.228  31.476  31.456  1.00  0.00     0.074 A 
ATOM     37  C   UNL A   1      38.670  30.232  29.368  1.00  0.00     0.049 A 
ATOM     38  N   UNL A   1      39.161  31.000  32.237  1.00  0.00    -0.248 NA
ATOM     39  C   UNL A   1      37.362  32.482  32.094  1.00  0.00     0.031 C 
ATOM     40  C   UNL A   1      38.478  29.825  27.977  1.00  0.00     0.029 A 
ATOM     41  N   UNL A   1      39.756  29.502  29.786  1.00  0.00    -0.354 N 
ATOM     42  C   UNL A   1      39.011  31.661  33.451  1.00  0.00     0.074 A 
ATOM     43  C   UNL A   1      37.906  32.582  33.299  1.00  0.00     0.031 C 
ATOM     44  C   UNL A   1      39.433  28.939  27.646  1.00  0.00     0.029 A 
ATOM     45  C   UNL A   1      40.309  28.725  28.797  1.00  0.00     0.049 A 
ATOM     46  H   UNL A   1      40.104  29.534  30.706  1.00  0.00     0.167 HD
ATOM     47  C   UNL A   1      39.715  31.500  34.596  1.00  0.00     0.034 A 
ATOM     48  C   UNL A   1      41.407  27.942  28.817  1.00  0.00     0.034 A 
ATOM     49  C   UNL A   1      40.798  30.569  34.755  1.00  0.00     0.049 A 
ATOM     50  C   UNL A   1      42.184  27.792  30.099  1.00  0.00     0.074 A 
ATOM     51  C   UNL A   1      41.541  30.299  35.891  1.00  0.00     0.029 A 
ATOM     52  N   UNL A   1      41.302  29.764  33.746  1.00  0.00    -0.354 N 
ATOM     53  N   UNL A   1      41.944  28.320  31.275  1.00  0.00    -0.248 NA
ATOM     54  C   UNL A   1      43.362  26.912  30.067  1.00  0.00     0.031 C 
ATOM     55  C   UNL A   1      42.504  29.339  35.563  1.00  0.00     0.029 A 
ATOM     56  C   UNL A   1      42.352  29.003  34.227  1.00  0.00     0.049 A 
ATOM     57  H   UNL A   1      40.963  29.738  32.822  1.00  0.00     0.167 HD
ATOM     58  C   UNL A   1      42.918  27.811  32.129  1.00  0.00     0.074 A 
ATOM     59  C   UNL A   1      43.740  26.918  31.339  1.00  0.00     0.031 C 
ATOM     60  C   UNL A   1      43.125  28.074  33.443  1.00  0.00     0.034 A 
BRANCH  47  61
ATOM     61  C   UNL A   1      39.303  32.324  35.786  1.00  0.00     0.023 A 
ATOM     62  C   UNL A   1      38.344  31.810  36.682  1.00  0.00     0.012 A 
ATOM     63  C   UNL A   1      39.896  33.574  36.046  1.00  0.00     0.148 A 
ATOM     64  C   UNL A   1      37.962  32.540  37.806  1.00  0.00     0.002 A 
ATOM     65  C   UNL A   1      39.537  34.279  37.188  1.00  0.00     0.091 A 
ATOM     66  F   UNL A   1      40.784  34.057  35.166  1.00  0.00    -0.205 F 
ATOM     67  C   UNL A   1      38.566  33.769  38.065  1.00  0.00     0.022 A 
BRANCH  65  68
ATOM     68  S   UNL A   1      40.306  35.839  37.639  1.00  0.00     0.127 S 
ATOM     69  O   UNL A   1      39.694  36.105  38.939  1.00  0.00    -0.237 OA
ATOM     70  O   UNL A   1      41.725  35.481  37.695  1.00  0.00    -0.237 OA
ATOM     71  O   UNL A   1      39.961  36.773  36.576  1.00  0.00    -0.744 OA
ENDBRANCH  65  68
ENDBRANCH  47  61
BRANCH  48  72
ATOM     72  C   UNL A   1      41.809  27.199  27.589  1.00  0.00     0.023 A 
ATOM     73  C   UNL A   1      42.342  27.905  26.495  1.00  0.00     0.012 A 
ATOM     74  C   UNL A   1      41.687  25.797  27.511  1.00  0.00     0.148 A 
ATOM     75  C   UNL A   1      42.726  27.231  25.334  1.00  0.00     0.002 A 
ATOM     76  C   UNL A   1      42.120  25.128  26.373  1.00  0.00     0.091 A 
ATOM     77  F   UNL A   1      41.154  25.146  28.554  1.00  0.00    -0.205 F 
ATOM     78  C   UNL A   1      42.626  25.844  25.277  1.00  0.00     0.022 A 
BRANCH  76  79
ATOM     79  S   UNL A   1      42.149  23.334  26.273  1.00  0.00     0.127 S 
ATOM     80  O   UNL A   1      42.852  23.115  25.012  1.00  0.00    -0.237 OA
ATOM     81  O   UNL A   1      42.906  22.974  27.472  1.00  0.00    -0.237 OA
ATOM     82  O   UNL A   1      40.752  22.922  26.304  1.00  0.00    -0.744 OA
ENDBRANCH  76  79
ENDBRANCH  48  72
BRANCH  60  83
ATOM     83  C   UNL A   1      44.267  27.371  34.128  1.00  0.00     0.023 A 
ATOM     84  C   UNL A   1      45.556  27.939  34.088  1.00  0.00     0.012 A 
ATOM     85  C   UNL A   1      44.049  26.199  34.879  1.00  0.00     0.148 A 
ATOM     86  C   UNL A   1      46.616  27.337  34.766  1.00  0.00     0.002 A 
ATOM     87  C   UNL A   1      45.102  25.630  35.587  1.00  0.00     0.091 A 
ATOM     88  F   UNL A   1      42.821  25.662  34.889  1.00  0.00    -0.205 F 
ATOM     89  C   UNL A   1      46.387  26.192  35.524  1.00  0.00     0.022 A 
BRANCH  87  90
ATOM     90  S   UNL A   1      44.874  24.207  36.662  1.00  0.00     0.127 S 
ATOM     91  O   UNL A   1      46.242  23.943  37.102  1.00  0.00    -0.237 OA
ATOM     92  O   UNL A   1      43.991  24.738  37.702  1.00  0.00    -0.237 OA
ATOM     93  O   UNL A   1      44.269  23.175  35.830  1.00  0.00    -0.744 OA
ENDBRANCH  87  90
ENDBRANCH  60  83
ENDBRANCH  34  35
ENDBRANCH  27  29
ENDBRANCH  26  27
ENDBRANCH  25  26
ENDBRANCH  24  25
ENDBRANCH   1  24
TORSDOF 20
ENDMDL
MODEL 2
REMARK VINA RESULT:     -10.6      5.098     10.408
REMARK SMILES Cc1oc(CNC(=O)c2ccnn2C)cc1C(=O)OCCOCCOC(=O)c1ccc(-c2c3nc(c(-c4cccc(S(=O)(=O)[O-])c4F)c4ccc([nH]4)c(-c4cccc(S(=O)(=O)[O-])c4F)c4nc(c(-c5cccc(S(=O)(=O)[O-])c5F)c5ccc2[nH]5)C=C4)C=C3)cc1
REMARK SMILES IDX 22 1 21 2 20 3 19 4 17 5 18 6 16 7 1 8 2 9 3 10 4 11 15 12
REMARK SMILES IDX 5 13 6 14 7 15 8 17 9 18 10 19 13 20 11 21 12 22 14 23 23 24
REMARK SMILES IDX 24 25 25 26 26 27 27 28 28 29 29 30 90 31 30 32 89 33 31 34
REMARK SMILES IDX 32 35 33 36 83 37 34 38 88 39 82 40 84 41 35 42 87 43 81 44
REMARK SMILES IDX 80 45 36 47 68 48 48 49 67 50 49 51 52 52 66 53 85 54 50 55
REMARK SMILES IDX 51 56 65 58 86 59 53 60 37 61 38 62 46 63 39 64 41 65 47 66
REMARK SMILES IDX 40 67 42 68 43 69 44 70 45 71 69 72 70 73 78 74 71 75 73 76
REMARK SMILES IDX 79 77 72 78 74 79 75 80 76 81 77 82 54 83 55 84 63 85 56 86
REMARK SMILES IDX 58 87 64 88 57 89 59 90 60 91 61 92 62 93
REMARK H PARENT 6 16 84 46 52 57
REMARK Flexibility Score: inf
ROOT
ATOM      1  O   UNL A   1      34.971  19.828  24.822  1.00  0.00    -0.374 OA
ENDROOT
BRANCH   1   2
ATOM      2  C   UNL A   1      33.617  20.173  25.132  1.00  0.00     0.202 C 
BRANCH   2   3
ATOM      3  C   UNL A   1      32.636  20.003  23.970  1.00  0.00     0.261 C 
BRANCH   3   4
ATOM      4  O   UNL A   1      31.695  21.089  23.965  1.00  0.00    -0.460 OA
BRANCH   4   5
ATOM      5  C   UNL A   1      32.176  22.261  23.475  1.00  0.00     0.341 C 
ATOM      6  O   UNL A   1      32.937  22.360  22.519  1.00  0.00    -0.246 OA
BRANCH   5   7
ATOM      7  C   UNL A   1      31.574  23.431  24.084  1.00  0.00     0.101 A 
ATOM      8  C   UNL A   1      31.984  23.265  26.698  1.00  0.00     0.088 C 
ATOM      9  C   UNL A   1      31.490  23.815  25.415  1.00  0.00     0.115 A 
ATOM     10  O   UNL A   1      30.852  25.023  25.512  1.00  0.00    -0.464 OA
ATOM     11  C   UNL A   1      30.524  25.412  24.251  1.00  0.00     0.124 A 
ATOM     12  C   UNL A   1      30.908  24.451  23.350  1.00  0.00     0.063 A 
BRANCH  11  13
ATOM     13  C   UNL A   1      30.013  26.777  24.030  1.00  0.00     0.191 C 
BRANCH  13  14
ATOM     14  N   UNL A   1      30.859  27.580  23.186  1.00  0.00    -0.343 N 
ATOM     15  C   UNL A   1      31.871  28.420  23.571  1.00  0.00     0.269 C 
ATOM     16  H   UNL A   1      30.689  27.518  22.218  1.00  0.00     0.164 HD
ATOM     17  O   UNL A   1      32.502  29.016  22.701  1.00  0.00    -0.268 OA
BRANCH  15  18
ATOM     18  C   UNL A   1      32.116  28.613  24.976  1.00  0.00     0.125 A 
ATOM     19  C   UNL A   1      31.603  29.618  25.779  1.00  0.00     0.055 A 
ATOM     20  N   UNL A   1      32.928  27.882  25.808  1.00  0.00    -0.263 N 
ATOM     21  C   UNL A   1      32.069  29.338  27.071  1.00  0.00     0.136 A 
ATOM     22  N   UNL A   1      32.870  28.272  27.098  1.00  0.00    -0.181 NA
ATOM     23  C   UNL A   1      33.784  26.767  25.478  1.00  0.00     0.174 C 
ENDBRANCH  15  18
ENDBRANCH  13  14
ENDBRANCH  11  13
ENDBRANCH   5   7
ENDBRANCH   4   5
ENDBRANCH   3   4
ENDBRANCH   2   3
ENDBRANCH   1   2
BRANCH   1  24
ATOM     24  C   UNL A   1      35.975  20.762  25.231  1.00  0.00     0.202 C 
BRANCH  24  25
ATOM     25  C   UNL A   1      37.423  20.311  25.014  1.00  0.00     0.261 C 
BRANCH  25  26
ATOM     26  O   UNL A   1      38.332  21.412  25.195  1.00  0.00    -0.460 OA
BRANCH  26  27
ATOM     27  C   UNL A   1      39.360  21.173  26.046  1.00  0.00     0.338 C 
ATOM     28  O   UNL A   1      39.975  20.128  26.178  1.00  0.00    -0.246 OA
BRANCH  27  29
ATOM     29  C   UNL A   1      39.785  22.439  26.679  1.00  0.00     0.060 A 
ATOM     30  C   UNL A   1      39.096  23.601  26.309  1.00  0.00     0.016 A 
ATOM     31  C   UNL A   1      40.848  22.503  27.584  1.00  0.00     0.016 A 
ATOM     32  C   UNL A   1      39.501  24.840  26.799  1.00  0.00     0.010 A 
ATOM     33  C   UNL A   1      41.259  23.750  28.068  1.00  0.00     0.010 A 
ATOM     34  C   UNL A   1      40.612  24.925  27.649  1.00  0.00    -0.014 A 
BRANCH  34  35
ATOM     35  C   UNL A   1      41.178  26.256  27.974  1.00  0.00     0.031 A 
ATOM     36  C   UNL A   1      42.598  26.558  27.584  1.00  0.00     0.074 A 
ATOM     37  C   UNL A   1      40.434  27.185  28.600  1.00  0.00     0.049 A 
ATOM     38  N   UNL A   1      43.287  27.653  27.758  1.00  0.00    -0.248 NA
ATOM     39  C   UNL A   1      43.338  25.481  26.904  1.00  0.00     0.031 C 
ATOM     40  C   UNL A   1      39.049  27.009  29.032  1.00  0.00     0.029 A 
ATOM     41  N   UNL A   1      40.753  28.459  28.998  1.00  0.00    -0.354 N 
ATOM     42  C   UNL A   1      44.547  27.395  27.232  1.00  0.00     0.074 A 
ATOM     43  C   UNL A   1      44.533  26.034  26.744  1.00  0.00     0.031 C 
ATOM     44  C   UNL A   1      38.645  28.125  29.663  1.00  0.00     0.029 A 
ATOM     45  C   UNL A   1      39.745  29.088  29.688  1.00  0.00     0.049 A 
ATOM     46  H   UNL A   1      41.622  28.883  28.807  1.00  0.00     0.167 HD
ATOM     47  C   UNL A   1      45.615  28.224  27.142  1.00  0.00     0.034 A 
ATOM     48  C   UNL A   1      39.720  30.297  30.284  1.00  0.00     0.034 A 
ATOM     49  C   UNL A   1      45.623  29.584  27.605  1.00  0.00     0.049 A 
ATOM     50  C   UNL A   1      40.926  31.195  30.184  1.00  0.00     0.074 A 
ATOM     51  C   UNL A   1      46.640  30.517  27.515  1.00  0.00     0.029 A 
ATOM     52  N   UNL A   1      44.568  30.202  28.258  1.00  0.00    -0.354 N 
ATOM     53  N   UNL A   1      42.061  30.985  29.562  1.00  0.00    -0.248 NA
ATOM     54  C   UNL A   1      40.836  32.509  30.838  1.00  0.00     0.031 C 
ATOM     55  C   UNL A   1      46.204  31.698  28.125  1.00  0.00     0.029 A 
ATOM     56  C   UNL A   1      44.911  31.502  28.585  1.00  0.00     0.049 A 
ATOM     57  H   UNL A   1      43.703  29.779  28.460  1.00  0.00     0.167 HD
ATOM     58  C   UNL A   1      42.805  32.149  29.721  1.00  0.00     0.074 A 
ATOM     59  C   UNL A   1      41.985  33.069  30.481  1.00  0.00     0.031 C 
ATOM     60  C   UNL A   1      44.062  32.427  29.291  1.00  0.00     0.034 A 
BRANCH  47  61
ATOM     61  C   UNL A   1      46.853  27.690  26.475  1.00  0.00     0.023 A 
ATOM     62  C   UNL A   1      47.782  26.950  27.233  1.00  0.00     0.012 A 
ATOM     63  C   UNL A   1      47.074  27.875  25.096  1.00  0.00     0.148 A 
ATOM     64  C   UNL A   1      48.925  26.422  26.637  1.00  0.00     0.002 A 
ATOM     65  C   UNL A   1      48.198  27.315  24.501  1.00  0.00     0.091 A 
ATOM     66  F   UNL A   1      46.194  28.607  24.399  1.00  0.00    -0.205 F 
ATOM     67  C   UNL A   1      49.127  26.596  25.269  1.00  0.00     0.022 A 
BRANCH  65  68
ATOM     68  S   UNL A   1      48.510  27.430  22.735  1.00  0.00     0.127 S 
ATOM     69  O   UNL A   1      47.380  28.242  22.288  1.00  0.00    -0.237 OA
ATOM     70  O   UNL A   1      49.805  28.112  22.692  1.00  0.00    -0.237 OA
ATOM     71  O   UNL A   1      48.534  26.059  22.247  1.00  0.00    -0.744 OA
ENDBRANCH  65  68
ENDBRANCH  47  61
BRANCH  48  72
ATOM     72  C   UNL A   1      38.487  30.750  30.989  1.00  0.00     0.023 A 
ATOM     73  C   UNL A   1      38.354  30.517  32.371  1.00  0.00     0.012 A 
ATOM     74  C   UNL A   1      37.461  31.429  30.303  1.00  0.00     0.148 A 
ATOM     75  C   UNL A   1      37.209  30.932  33.054  1.00  0.00     0.002 A 
ATOM     76  C   UNL A   1      36.348  31.886  30.999  1.00  0.00     0.091 A 
ATOM     77  F   UNL A   1      37.596  31.619  28.984  1.00  0.00    -0.205 F 
ATOM     78  C   UNL A   1      36.213  31.625  32.371  1.00  0.00     0.022 A 
BRANCH  76  79
ATOM     79  S   UNL A   1      35.085  32.901  30.222  1.00  0.00     0.127 S 
ATOM     80  O   UNL A   1      35.879  33.996  29.671  1.00  0.00    -0.237 OA
ATOM     81  O   UNL A   1      34.526  31.983  29.228  1.00  0.00    -0.237 OA
ATOM     82  O   UNL A   1      34.161  33.256  31.290  1.00  0.00    -0.744 OA
ENDBRANCH  76  79
ENDBRANCH  48  72
BRANCH  60  83
ATOM     83  C   UNL A   1      44.626  33.787  29.606  1.00  0.00     0.023 A 
ATOM     84  C   UNL A   1      45.423  33.959  30.755  1.00  0.00     0.012 A 
ATOM     85  C   UNL A   1      44.441  34.868  28.722  1.00  0.00     0.148 A 
ATOM     86  C   UNL A   1      46.006  35.195  31.033  1.00  0.00     0.002 A 
ATOM     87  C   UNL A   1      45.062  36.085  28.984  1.00  0.00     0.091 A 
ATOM     88  F   UNL A   1      43.663  34.691  27.645  1.00  0.00    -0.205 F 
ATOM     89  C   UNL A   1      45.836  36.253  30.143  1.00  0.00     0.022 A 
BRANCH  87  90
ATOM     90  S   UNL A   1      44.970  37.471  27.843  1.00  0.00     0.127 S 
ATOM     91  O   UNL A   1      45.581  38.543  28.626  1.00  0.00    -0.237 OA
ATOM     92  O   UNL A   1      45.776  37.003  26.715  1.00  0.00    -0.237 OA
ATOM     93  O   UNL A   1      43.555  37.641  27.540  1.00  0.00    -0.744 OA
ENDBRANCH  87  90
ENDBRANCH  60  83
ENDBRANCH  34  35
ENDBRANCH  27  29
ENDBRANCH  26  27
ENDBRANCH  25  26
ENDBRANCH  24  25
ENDBRANCH   1  24
TORSDOF 20
ENDMDL
MODEL 3
REMARK VINA RESULT:     -10.5      1.597      2.088
REMARK SMILES Cc1oc(CNC(=O)c2ccnn2C)cc1C(=O)OCCOCCOC(=O)c1ccc(-c2c3nc(c(-c4cccc(S(=O)(=O)[O-])c4F)c4ccc([nH]4)c(-c4cccc(S(=O)(=O)[O-])c4F)c4nc(c(-c5cccc(S(=O)(=O)[O-])c5F)c5ccc2[nH]5)C=C4)C=C3)cc1
REMARK SMILES IDX 22 1 21 2 20 3 19 4 17 5 18 6 16 7 1 8 2 9 3 10 4 11 15 12
REMARK SMILES IDX 5 13 6 14 7 15 8 17 9 18 10 19 13 20 11 21 12 22 14 23 23 24
REMARK SMILES IDX 24 25 25 26 26 27 27 28 28 29 29 30 90 31 30 32 89 33 31 34
REMARK SMILES IDX 32 35 33 36 83 37 34 38 88 39 82 40 84 41 35 42 87 43 81 44
REMARK SMILES IDX 80 45 36 47 68 48 48 49 67 50 49 51 52 52 66 53 85 54 50 55
REMARK SMILES IDX 51 56 65 58 86 59 53 60 37 61 38 62 46 63 39 64 41 65 47 66
REMARK SMILES IDX 40 67 42 68 43 69 44 70 45 71 69 72 70 73 78 74 71 75 73 76
REMARK SMILES IDX 79 77 72 78 74 79 75 80 76 81 77 82 54 83 55 84 63 85 56 86
REMARK SMILES IDX 58 87 64 88 57 89 59 90 60 91 61 92 62 93
REMARK H PARENT 6 16 84 46 52 57
REMARK Flexibility Score: inf
ROOT
ATOM      1  O   UNL A   1      32.243  30.435  26.849  1.00  0.00    -0.374 OA
ENDROOT
BRANCH   1   2
ATOM      2  C   UNL A   1      32.153  29.227  26.088  1.00  0.00     0.202 C 
BRANCH   2   3
ATOM      3  C   UNL A   1      33.335  28.978  25.148  1.00  0.00     0.261 C 
BRANCH   3   4
ATOM      4  O   UNL A   1      32.932  29.209  23.789  1.00  0.00    -0.460 OA
BRANCH   4   5
ATOM      5  C   UNL A   1      33.422  28.319  22.887  1.00  0.00     0.341 C 
ATOM      6  O   UNL A   1      34.376  28.526  22.146  1.00  0.00    -0.246 OA
BRANCH   5   7
ATOM      7  C   UNL A   1      32.815  27.006  22.985  1.00  0.00     0.101 A 
ATOM      8  C   UNL A   1      30.186  27.347  23.015  1.00  0.00     0.088 C 
ATOM      9  C   UNL A   1      31.481  26.630  23.056  1.00  0.00     0.115 A 
ATOM     10  O   UNL A   1      31.383  25.264  23.106  1.00  0.00    -0.464 OA
ATOM     11  C   UNL A   1      32.648  24.765  23.072  1.00  0.00     0.124 A 
ATOM     12  C   UNL A   1      33.556  25.794  23.040  1.00  0.00     0.063 A 
BRANCH  11  13
ATOM     13  C   UNL A   1      32.843  23.314  22.901  1.00  0.00     0.191 C 
BRANCH  13  14
ATOM     14  N   UNL A   1      31.977  22.514  23.728  1.00  0.00    -0.343 N 
ATOM     15  C   UNL A   1      32.329  21.719  24.787  1.00  0.00     0.269 C 
ATOM     16  H   UNL A   1      31.017  22.543  23.505  1.00  0.00     0.164 HD
ATOM     17  O   UNL A   1      31.442  21.119  25.390  1.00  0.00    -0.268 OA
BRANCH  15  18
ATOM     18  C   UNL A   1      33.723  21.574  25.111  1.00  0.00     0.125 A 
ATOM     19  C   UNL A   1      34.537  20.492  24.820  1.00  0.00     0.055 A 
ATOM     20  N   UNL A   1      34.531  22.442  25.804  1.00  0.00    -0.263 N 
ATOM     21  C   UNL A   1      35.814  20.853  25.272  1.00  0.00     0.136 A 
ATOM     22  N   UNL A   1      35.820  22.047  25.864  1.00  0.00    -0.181 NA
ATOM     23  C   UNL A   1      34.179  23.695  26.430  1.00  0.00     0.174 C 
ENDBRANCH  15  18
ENDBRANCH  13  14
ENDBRANCH  11  13
ENDBRANCH   5   7
ENDBRANCH   4   5
ENDBRANCH   3   4
ENDBRANCH   2   3
ENDBRANCH   1   2
BRANCH   1  24
ATOM     24  C   UNL A   1      31.437  31.530  26.403  1.00  0.00     0.202 C 
BRANCH  24  25
ATOM     25  C   UNL A   1      31.752  32.885  27.044  1.00  0.00     0.261 C 
BRANCH  25  26
ATOM     26  O   UNL A   1      33.161  33.168  26.972  1.00  0.00    -0.460 OA
BRANCH  26  27
ATOM     27  C   UNL A   1      33.700  33.688  28.102  1.00  0.00     0.338 C 
ATOM     28  O   UNL A   1      33.194  34.513  28.844  1.00  0.00    -0.246 OA
BRANCH  27  29
ATOM     29  C   UNL A   1      34.940  32.959  28.441  1.00  0.00     0.060 A 
ATOM     30  C   UNL A   1      34.804  31.637  28.885  1.00  0.00     0.016 A 
ATOM     31  C   UNL A   1      36.202  33.552  28.362  1.00  0.00     0.016 A 
ATOM     32  C   UNL A   1      35.922  30.922  29.305  1.00  0.00     0.010 A 
ATOM     33  C   UNL A   1      37.324  32.835  28.793  1.00  0.00     0.010 A 
ATOM     34  C   UNL A   1      37.183  31.532  29.300  1.00  0.00    -0.014 A 
BRANCH  34  35
ATOM     35  C   UNL A   1      38.321  30.853  29.964  1.00  0.00     0.031 A 
ATOM     36  C   UNL A   1      38.684  31.247  31.369  1.00  0.00     0.074 A 
ATOM     37  C   UNL A   1      39.016  29.894  29.328  1.00  0.00     0.049 A 
ATOM     38  N   UNL A   1      39.629  30.779  32.140  1.00  0.00    -0.248 NA
ATOM     39  C   UNL A   1      37.871  32.308  31.988  1.00  0.00     0.031 C 
ATOM     40  C   UNL A   1      38.763  29.429  27.966  1.00  0.00     0.029 A 
ATOM     41  N   UNL A   1      40.093  29.151  29.744  1.00  0.00    -0.354 N 
ATOM     42  C   UNL A   1      39.541  31.500  33.325  1.00  0.00     0.074 A 
ATOM     43  C   UNL A   1      38.460  32.447  33.167  1.00  0.00     0.031 C 
ATOM     44  C   UNL A   1      39.679  28.499  27.646  1.00  0.00     0.029 A 
ATOM     45  C   UNL A   1      40.588  28.312  28.775  1.00  0.00     0.049 A 
ATOM     46  H   UNL A   1      40.474  29.214  30.650  1.00  0.00     0.167 HD
ATOM     47  C   UNL A   1      40.280  31.370  34.453  1.00  0.00     0.034 A 
ATOM     48  C   UNL A   1      41.662  27.496  28.796  1.00  0.00     0.034 A 
ATOM     49  C   UNL A   1      41.340  30.414  34.619  1.00  0.00     0.049 A 
ATOM     50  C   UNL A   1      42.478  27.382  30.057  1.00  0.00     0.074 A 
ATOM     51  C   UNL A   1      42.114  30.174  35.741  1.00  0.00     0.029 A 
ATOM     52  N   UNL A   1      41.784  29.548  33.633  1.00  0.00    -0.354 N 
ATOM     53  N   UNL A   1      42.296  27.971  31.214  1.00  0.00    -0.248 NA
ATOM     54  C   UNL A   1      43.628  26.464  30.027  1.00  0.00     0.031 C 
ATOM     55  C   UNL A   1      43.036  29.170  35.427  1.00  0.00     0.029 A 
ATOM     56  C   UNL A   1      42.827  28.777  34.114  1.00  0.00     0.049 A 
ATOM     57  H   UNL A   1      41.413  29.490  32.723  1.00  0.00     0.167 HD
ATOM     58  C   UNL A   1      43.283  27.472  32.057  1.00  0.00     0.074 A 
ATOM     59  C   UNL A   1      44.050  26.518  31.283  1.00  0.00     0.031 C 
ATOM     60  C   UNL A   1      43.544  27.789  33.350  1.00  0.00     0.034 A 
BRANCH  47  61
ATOM     61  C   UNL A   1      39.935  32.261  35.615  1.00  0.00     0.023 A 
ATOM     62  C   UNL A   1      40.576  33.509  35.744  1.00  0.00     0.012 A 
ATOM     63  C   UNL A   1      38.946  31.890  36.547  1.00  0.00     0.148 A 
ATOM     64  C   UNL A   1      40.258  34.365  36.796  1.00  0.00     0.002 A 
ATOM     65  C   UNL A   1      38.608  32.764  37.573  1.00  0.00     0.091 A 
ATOM     66  F   UNL A   1      38.369  30.686  36.424  1.00  0.00    -0.205 F 
ATOM     67  C   UNL A   1      39.267  33.998  37.703  1.00  0.00     0.022 A 
BRANCH  65  68
ATOM     68  S   UNL A   1      37.300  32.407  38.751  1.00  0.00     0.127 S 
ATOM     69  O   UNL A   1      37.449  30.964  38.928  1.00  0.00    -0.237 OA
ATOM     70  O   UNL A   1      37.697  33.208  39.910  1.00  0.00    -0.237 OA
ATOM     71  O   UNL A   1      36.063  32.839  38.114  1.00  0.00    -0.744 OA
ENDBRANCH  65  68
ENDBRANCH  47  61
BRANCH  48  72
ATOM     72  C   UNL A   1      41.998  26.685  27.591  1.00  0.00     0.023 A 
ATOM     73  C   UNL A   1      42.647  27.296  26.502  1.00  0.00     0.012 A 
ATOM     74  C   UNL A   1      41.701  25.309  27.531  1.00  0.00     0.148 A 
ATOM     75  C   UNL A   1      42.972  26.557  25.363  1.00  0.00     0.002 A 
ATOM     76  C   UNL A   1      42.075  24.568  26.417  1.00  0.00     0.091 A 
ATOM     77  F   UNL A   1      41.061  24.751  28.569  1.00  0.00    -0.205 F 
ATOM     78  C   UNL A   1      42.698  25.192  25.326  1.00  0.00     0.022 A 
BRANCH  76  79
ATOM     79  S   UNL A   1      41.877  22.783  26.346  1.00  0.00     0.127 S 
ATOM     80  O   UNL A   1      42.591  22.355  27.546  1.00  0.00    -0.237 OA
ATOM     81  O   UNL A   1      40.422  22.636  26.408  1.00  0.00    -0.237 OA
ATOM     82  O   UNL A   1      42.463  22.379  25.075  1.00  0.00    -0.744 OA
ENDBRANCH  76  79
ENDBRANCH  48  72
BRANCH  60  83
ATOM     83  C   UNL A   1      44.688  27.083  34.028  1.00  0.00     0.023 A 
ATOM     84  C   UNL A   1      45.924  27.743  34.172  1.00  0.00     0.012 A 
ATOM     85  C   UNL A   1      44.515  25.806  34.597  1.00  0.00     0.148 A 
ATOM     86  C   UNL A   1      46.979  27.132  34.851  1.00  0.00     0.002 A 
ATOM     87  C   UNL A   1      45.557  25.222  35.308  1.00  0.00     0.091 A 
ATOM     88  F   UNL A   1      43.338  25.184  34.432  1.00  0.00    -0.205 F 
ATOM     89  C   UNL A   1      46.792  25.879  35.429  1.00  0.00     0.022 A 
BRANCH  87  90
ATOM     90  S   UNL A   1      45.371  23.651  36.162  1.00  0.00     0.127 S 
ATOM     91  O   UNL A   1      45.420  24.064  37.563  1.00  0.00    -0.237 OA
ATOM     92  O   UNL A   1      44.056  23.199  35.705  1.00  0.00    -0.237 OA
ATOM     93  O   UNL A   1      46.481  22.821  35.711  1.00  0.00    -0.744 OA
ENDBRANCH  87  90
ENDBRANCH  60  83
ENDBRANCH  34  35
ENDBRANCH  27  29
ENDBRANCH  26  27
ENDBRANCH  25  26
ENDBRANCH  24  25
ENDBRANCH   1  24
TORSDOF 20
ENDMDL
