MODEL 1
REMARK VINA RESULT:     -11.2      0.000      0.000
REMARK SMILES CCC1C[NH+]([C@@H](Cc2c[nH]c3ccccc23)C(=O)OCCOCCOC(=O)c2ccc(-c3c4nc(c(-c5cccc(S(=O)(=O)[O-])c5F)c5ccc([nH]5)c(-c5cccc(S(=O)(=O)[O-])c5F)c5nc(c(-c6cccc(S(=O)(=O)[O-])c6F)c6ccc3[nH]6)C=C5)C=C4)cc2)C1
REMARK SMILES IDX 23 1 22 2 21 3 20 4 19 5 17 6 18 7 6 8 5 9 3 10 4 11 91 12
REMARK SMILES IDX 2 14 1 15 7 16 8 17 9 18 16 19 10 20 11 21 15 22 12 24 14 25
REMARK SMILES IDX 13 26 24 27 25 28 26 29 27 30 28 31 29 32 90 33 30 34 89 35
REMARK SMILES IDX 31 36 32 37 33 38 83 39 34 40 88 41 82 42 84 43 35 44 87 45
REMARK SMILES IDX 81 46 80 47 36 49 68 50 48 51 67 52 49 53 52 54 66 55 85 56
REMARK SMILES IDX 50 57 51 58 65 60 86 61 53 62 37 63 38 64 46 65 39 66 41 67
REMARK SMILES IDX 47 68 40 69 42 70 43 71 44 72 45 73 69 74 70 75 78 76 71 77
REMARK SMILES IDX 73 78 79 79 72 80 74 81 75 82 76 83 77 84 54 85 55 86 63 87
REMARK SMILES IDX 56 88 58 89 64 90 57 91 59 92 60 93 61 94 62 95
REMARK H PARENT 5 13 10 23 84 48 52 59
REMARK Flexibility Score: inf
ROOT
ATOM      1  C   UNL A   1      35.876  20.898  25.216  1.00  0.00     0.202 C 
ENDROOT
BRANCH   1   2
ATOM      2  O   UNL A   1      35.715  21.551  26.474  1.00  0.00    -0.374 OA
BRANCH   2   3
ATOM      3  C   UNL A   1      35.100  22.839  26.470  1.00  0.00     0.202 C 
BRANCH   3   4
ATOM      4  C   UNL A   1      33.806  22.963  27.270  1.00  0.00     0.261 C 
BRANCH   4   5
ATOM      5  O   UNL A   1      32.904  23.894  26.648  1.00  0.00    -0.459 OA
BRANCH   5   6
ATOM      6  C   UNL A   1      31.609  23.495  26.553  1.00  0.00     0.365 C 
ATOM      7  O   UNL A   1      30.935  23.096  27.502  1.00  0.00    -0.245 OA
BRANCH   6   8
ATOM      8  C   UNL A   1      31.059  23.524  25.126  1.00  0.00     0.299 C 
BRANCH   8   9
ATOM      9  N   UNL A   1      30.006  24.569  24.933  1.00  0.00    -0.322 N 
ATOM     10  C   UNL A   1      30.905  26.417  24.368  1.00  0.00     0.099 C 
ATOM     11  C   UNL A   1      30.230  25.847  25.640  1.00  0.00     0.272 C 
ATOM     12  C   UNL A   1      30.147  25.289  23.638  1.00  0.00     0.272 C 
ATOM     13  H   UNL A   1      29.186  24.008  25.161  1.00  0.00     0.348 HD
BRANCH  10  14
ATOM     14  C   UNL A   1      30.686  27.876  24.007  1.00  0.00     0.012 C 
ATOM     15  C   UNL A   1      31.802  28.345  23.080  1.00  0.00     0.004 C 
ENDBRANCH  10  14
ENDBRANCH   8   9
BRANCH   8  16
ATOM     16  C   UNL A   1      32.207  23.152  24.159  1.00  0.00     0.115 C 
BRANCH  16  17
ATOM     17  C   UNL A   1      32.176  21.858  23.397  1.00  0.00    -0.016 A 
ATOM     18  C   UNL A   1      31.968  21.629  22.050  1.00  0.00     0.087 A 
ATOM     19  C   UNL A   1      32.386  20.566  23.994  1.00  0.00     0.003 A 
ATOM     20  N   UNL A   1      31.911  20.274  21.842  1.00  0.00    -0.361 N 
ATOM     21  C   UNL A   1      32.160  19.606  23.013  1.00  0.00     0.046 A 
ATOM     22  C   UNL A   1      32.701  20.127  25.300  1.00  0.00     0.010 A 
ATOM     23  H   UNL A   1      31.719  19.844  20.977  1.00  0.00     0.166 HD
ATOM     24  C   UNL A   1      32.200  18.234  23.271  1.00  0.00     0.026 A 
ATOM     25  C   UNL A   1      32.762  18.757  25.572  1.00  0.00     0.001 A 
ATOM     26  C   UNL A   1      32.507  17.826  24.570  1.00  0.00     0.002 A 
ENDBRANCH  16  17
ENDBRANCH   8  16
ENDBRANCH   6   8
ENDBRANCH   5   6
ENDBRANCH   4   5
ENDBRANCH   3   4
ENDBRANCH   2   3
ENDBRANCH   1   2
BRANCH   1  27
ATOM     27  C   UNL A   1      37.242  20.256  24.948  1.00  0.00     0.261 C 
BRANCH  27  28
ATOM     28  O   UNL A   1      38.341  21.179  25.028  1.00  0.00    -0.460 OA
BRANCH  28  29
ATOM     29  C   UNL A   1      39.244  20.911  25.999  1.00  0.00     0.338 C 
ATOM     30  O   UNL A   1      39.725  19.820  26.283  1.00  0.00    -0.246 OA
BRANCH  29  31
ATOM     31  C   UNL A   1      39.712  22.161  26.621  1.00  0.00     0.060 A 
ATOM     32  C   UNL A   1      39.177  23.370  26.157  1.00  0.00     0.016 A 
ATOM     33  C   UNL A   1      40.741  22.156  27.563  1.00  0.00     0.016 A 
ATOM     34  C   UNL A   1      39.703  24.583  26.600  1.00  0.00     0.010 A 
ATOM     35  C   UNL A   1      41.273  23.373  28.000  1.00  0.00     0.010 A 
ATOM     36  C   UNL A   1      40.782  24.591  27.494  1.00  0.00    -0.014 A 
BRANCH  36  37
ATOM     37  C   UNL A   1      41.483  25.859  27.809  1.00  0.00     0.031 A 
ATOM     38  C   UNL A   1      40.754  26.931  28.573  1.00  0.00     0.074 A 
ATOM     39  C   UNL A   1      42.745  26.065  27.393  1.00  0.00     0.049 A 
ATOM     40  N   UNL A   1      41.146  28.140  28.879  1.00  0.00    -0.248 NA
ATOM     41  C   UNL A   1      39.403  26.597  29.052  1.00  0.00     0.031 C 
ATOM     42  C   UNL A   1      43.560  25.099  26.657  1.00  0.00     0.029 A 
ATOM     43  N   UNL A   1      43.550  27.171  27.504  1.00  0.00    -0.354 N 
ATOM     44  C   UNL A   1      40.082  28.724  29.555  1.00  0.00     0.074 A 
ATOM     45  C   UNL A   1      39.024  27.738  29.611  1.00  0.00     0.031 C 
ATOM     46  C   UNL A   1      44.736  25.670  26.346  1.00  0.00     0.029 A 
ATOM     47  C   UNL A   1      44.745  27.048  26.837  1.00  0.00     0.049 A 
ATOM     48  H   UNL A   1      43.296  27.975  28.012  1.00  0.00     0.167 HD
ATOM     49  C   UNL A   1      39.996  29.964  30.094  1.00  0.00     0.034 A 
ATOM     50  C   UNL A   1      45.722  27.952  26.621  1.00  0.00     0.034 A 
ATOM     51  C   UNL A   1      41.057  30.934  30.059  1.00  0.00     0.049 A 
ATOM     52  C   UNL A   1      45.590  29.336  27.203  1.00  0.00     0.074 A 
ATOM     53  C   UNL A   1      41.084  32.197  30.623  1.00  0.00     0.029 A 
ATOM     54  N   UNL A   1      42.271  30.757  29.416  1.00  0.00    -0.354 N 
ATOM     55  N   UNL A   1      44.627  29.833  27.940  1.00  0.00    -0.248 NA
ATOM     56  C   UNL A   1      46.693  30.274  26.947  1.00  0.00     0.031 C 
ATOM     57  C   UNL A   1      42.307  32.794  30.298  1.00  0.00     0.029 A 
ATOM     58  C   UNL A   1      43.052  31.891  29.556  1.00  0.00     0.049 A 
ATOM     59  H   UNL A   1      42.539  29.943  28.930  1.00  0.00     0.167 HD
ATOM     60  C   UNL A   1      45.025  31.125  28.269  1.00  0.00     0.074 A 
ATOM     61  C   UNL A   1      46.323  31.329  27.661  1.00  0.00     0.031 C 
ATOM     62  C   UNL A   1      44.368  32.062  28.997  1.00  0.00     0.034 A 
BRANCH  49  63
ATOM     63  C   UNL A   1      38.716  30.338  30.793  1.00  0.00     0.023 A 
ATOM     64  C   UNL A   1      38.548  30.018  32.156  1.00  0.00     0.012 A 
ATOM     65  C   UNL A   1      37.711  31.063  30.123  1.00  0.00     0.148 A 
ATOM     66  C   UNL A   1      37.385  30.387  32.832  1.00  0.00     0.002 A 
ATOM     67  C   UNL A   1      36.574  31.463  30.815  1.00  0.00     0.091 A 
ATOM     68  F   UNL A   1      37.882  31.338  28.821  1.00  0.00    -0.205 F 
ATOM     69  C   UNL A   1      36.406  31.118  32.165  1.00  0.00     0.022 A 
BRANCH  67  70
ATOM     70  S   UNL A   1      35.292  32.473  30.064  1.00  0.00     0.127 S 
ATOM     71  O   UNL A   1      36.053  33.646  29.638  1.00  0.00    -0.237 OA
ATOM     72  O   UNL A   1      34.827  31.619  28.970  1.00  0.00    -0.237 OA
ATOM     73  O   UNL A   1      34.306  32.711  31.108  1.00  0.00    -0.744 OA
ENDBRANCH  67  70
ENDBRANCH  49  63
BRANCH  50  74
ATOM     74  C   UNL A   1      46.924  27.569  25.830  1.00  0.00     0.023 A 
ATOM     75  C   UNL A   1      46.947  27.798  24.442  1.00  0.00     0.012 A 
ATOM     76  C   UNL A   1      48.050  26.996  26.452  1.00  0.00     0.148 A 
ATOM     77  C   UNL A   1      48.061  27.439  23.681  1.00  0.00     0.002 A 
ATOM     78  C   UNL A   1      49.175  26.688  25.697  1.00  0.00     0.091 A 
ATOM     79  F   UNL A   1      48.002  26.776  27.773  1.00  0.00    -0.205 F 
ATOM     80  C   UNL A   1      49.178  26.895  24.309  1.00  0.00     0.022 A 
BRANCH  78  81
ATOM     81  S   UNL A   1      50.700  26.103  26.444  1.00  0.00     0.127 S 
ATOM     82  O   UNL A   1      51.583  26.004  25.286  1.00  0.00    -0.237 OA
ATOM     83  O   UNL A   1      51.013  27.186  27.373  1.00  0.00    -0.237 OA
ATOM     84  O   UNL A   1      50.356  24.841  27.086  1.00  0.00    -0.744 OA
ENDBRANCH  78  81
ENDBRANCH  50  74
BRANCH  62  85
ATOM     85  C   UNL A   1      45.050  33.385  29.224  1.00  0.00     0.023 A 
ATOM     86  C   UNL A   1      45.818  33.589  30.387  1.00  0.00     0.012 A 
ATOM     87  C   UNL A   1      45.006  34.392  28.239  1.00  0.00     0.148 A 
ATOM     88  C   UNL A   1      46.512  34.784  30.578  1.00  0.00     0.002 A 
ATOM     89  C   UNL A   1      45.738  35.561  28.413  1.00  0.00     0.091 A 
ATOM     90  F   UNL A   1      44.255  34.186  27.148  1.00  0.00    -0.205 F 
ATOM     91  C   UNL A   1      46.483  35.763  29.586  1.00  0.00     0.022 A 
BRANCH  89  92
ATOM     92  S   UNL A   1      45.838  36.836  27.151  1.00  0.00     0.127 S 
ATOM     93  O   UNL A   1      44.442  37.257  27.042  1.00  0.00    -0.237 OA
ATOM     94  O   UNL A   1      46.726  37.819  27.771  1.00  0.00    -0.237 OA
ATOM     95  O   UNL A   1      46.387  36.187  25.968  1.00  0.00    -0.744 OA
ENDBRANCH  89  92
ENDBRANCH  62  85
ENDBRANCH  36  37
ENDBRANCH  29  31
ENDBRANCH  28  29
ENDBRANCH  27  28
ENDBRANCH   1  27
TORSDOF 21
ENDMDL
MODEL 2
REMARK VINA RESULT:     -11.2      1.988      8.229
REMARK SMILES CCC1C[NH+]([C@@H](Cc2c[nH]c3ccccc23)C(=O)OCCOCCOC(=O)c2ccc(-c3c4nc(c(-c5cccc(S(=O)(=O)[O-])c5F)c5ccc([nH]5)c(-c5cccc(S(=O)(=O)[O-])c5F)c5nc(c(-c6cccc(S(=O)(=O)[O-])c6F)c6ccc3[nH]6)C=C5)C=C4)cc2)C1
REMARK SMILES IDX 23 1 22 2 21 3 20 4 19 5 17 6 18 7 6 8 5 9 3 10 4 11 91 12
REMARK SMILES IDX 2 14 1 15 7 16 8 17 9 18 16 19 10 20 11 21 15 22 12 24 14 25
REMARK SMILES IDX 13 26 24 27 25 28 26 29 27 30 28 31 29 32 90 33 30 34 89 35
REMARK SMILES IDX 31 36 32 37 33 38 83 39 34 40 88 41 82 42 84 43 35 44 87 45
REMARK SMILES IDX 81 46 80 47 36 49 68 50 48 51 67 52 49 53 52 54 66 55 85 56
REMARK SMILES IDX 50 57 51 58 65 60 86 61 53 62 37 63 38 64 46 65 39 66 41 67
REMARK SMILES IDX 47 68 40 69 42 70 43 71 44 72 45 73 69 74 70 75 78 76 71 77
REMARK SMILES IDX 73 78 79 79 72 80 74 81 75 82 76 83 77 84 54 85 55 86 63 87
REMARK SMILES IDX 56 88 58 89 64 90 57 91 59 92 60 93 61 94 62 95
REMARK H PARENT 5 13 10 23 84 48 52 59
REMARK Flexibility Score: inf
ROOT
ATOM      1  C   UNL A   1      36.220  19.750  24.981  1.00  0.00     0.202 C 
ENDROOT
BRANCH   1   2
ATOM      2  O   UNL A   1      35.583  20.884  25.566  1.00  0.00    -0.374 OA
BRANCH   2   3
ATOM      3  C   UNL A   1      35.420  22.040  24.746  1.00  0.00     0.202 C 
BRANCH   3   4
ATOM      4  C   UNL A   1      34.137  22.096  23.921  1.00  0.00     0.261 C 
BRANCH   4   5
ATOM      5  O   UNL A   1      33.402  23.302  24.194  1.00  0.00    -0.459 OA
BRANCH   5   6
ATOM      6  C   UNL A   1      33.641  24.347  23.359  1.00  0.00     0.365 C 
ATOM      7  O   UNL A   1      34.383  24.295  22.379  1.00  0.00    -0.245 OA
BRANCH   6   8
ATOM      8  C   UNL A   1      32.945  25.643  23.778  1.00  0.00     0.299 C 
BRANCH   8   9
ATOM      9  N   UNL A   1      33.870  26.602  24.459  1.00  0.00    -0.322 N 
ATOM     10  C   UNL A   1      32.762  28.222  25.287  1.00  0.00     0.099 C 
ATOM     11  C   UNL A   1      33.715  28.022  24.085  1.00  0.00     0.272 C 
ATOM     12  C   UNL A   1      33.424  26.942  25.838  1.00  0.00     0.272 C 
ATOM     13  H   UNL A   1      34.752  26.127  24.272  1.00  0.00     0.348 HD
BRANCH  10  14
ATOM     14  C   UNL A   1      32.811  29.530  26.059  1.00  0.00     0.012 C 
ATOM     15  C   UNL A   1      31.581  30.366  25.723  1.00  0.00     0.004 C 
ENDBRANCH  10  14
ENDBRANCH   8   9
BRANCH   8  16
ATOM     16  C   UNL A   1      31.857  25.966  22.728  1.00  0.00     0.115 C 
BRANCH  16  17
ATOM     17  C   UNL A   1      30.473  26.360  23.157  1.00  0.00    -0.016 A 
ATOM     18  C   UNL A   1      29.508  25.625  23.820  1.00  0.00     0.087 A 
ATOM     19  C   UNL A   1      29.901  27.663  22.938  1.00  0.00     0.003 A 
ATOM     20  N   UNL A   1      28.359  26.372  23.886  1.00  0.00    -0.361 N 
ATOM     21  C   UNL A   1      28.574  27.616  23.352  1.00  0.00     0.046 A 
ATOM     22  C   UNL A   1      30.386  28.866  22.377  1.00  0.00     0.010 A 
ATOM     23  H   UNL A   1      27.503  26.059  24.262  1.00  0.00     0.166 HD
ATOM     24  C   UNL A   1      27.696  28.694  23.209  1.00  0.00     0.026 A 
ATOM     25  C   UNL A   1      29.526  29.960  22.240  1.00  0.00     0.001 A 
ATOM     26  C   UNL A   1      28.198  29.868  22.645  1.00  0.00     0.002 A 
ENDBRANCH  16  17
ENDBRANCH   8  16
ENDBRANCH   6   8
ENDBRANCH   5   6
ENDBRANCH   4   5
ENDBRANCH   3   4
ENDBRANCH   2   3
ENDBRANCH   1   2
BRANCH   1  27
ATOM     27  C   UNL A   1      37.754  19.744  24.994  1.00  0.00     0.261 C 
BRANCH  27  28
ATOM     28  O   UNL A   1      38.334  21.003  25.371  1.00  0.00    -0.460 OA
BRANCH  28  29
ATOM     29  C   UNL A   1      39.451  20.916  26.127  1.00  0.00     0.338 C 
ATOM     30  O   UNL A   1      40.166  19.932  26.281  1.00  0.00    -0.246 OA
BRANCH  29  31
ATOM     31  C   UNL A   1      39.810  22.239  26.664  1.00  0.00     0.060 A 
ATOM     32  C   UNL A   1      39.150  23.363  26.149  1.00  0.00     0.016 A 
ATOM     33  C   UNL A   1      40.856  22.388  27.577  1.00  0.00     0.016 A 
ATOM     34  C   UNL A   1      39.566  24.644  26.508  1.00  0.00     0.010 A 
ATOM     35  C   UNL A   1      41.277  23.673  27.929  1.00  0.00     0.010 A 
ATOM     36  C   UNL A   1      40.659  24.806  27.370  1.00  0.00    -0.014 A 
BRANCH  36  37
ATOM     37  C   UNL A   1      41.240  26.152  27.594  1.00  0.00     0.031 A 
ATOM     38  C   UNL A   1      42.642  26.434  27.124  1.00  0.00     0.074 A 
ATOM     39  C   UNL A   1      40.538  27.104  28.234  1.00  0.00     0.049 A 
ATOM     40  N   UNL A   1      43.370  27.506  27.292  1.00  0.00    -0.248 NA
ATOM     41  C   UNL A   1      43.313  25.363  26.370  1.00  0.00     0.031 C 
ATOM     42  C   UNL A   1      39.169  26.956  28.724  1.00  0.00     0.029 A 
ATOM     43  N   UNL A   1      40.897  28.374  28.611  1.00  0.00    -0.354 N 
ATOM     44  C   UNL A   1      44.595  27.231  26.696  1.00  0.00     0.074 A 
ATOM     45  C   UNL A   1      44.514  25.887  26.166  1.00  0.00     0.031 C 
ATOM     46  C   UNL A   1      38.816  28.078  29.374  1.00  0.00     0.029 A 
ATOM     47  C   UNL A   1      39.943  29.010  29.367  1.00  0.00     0.049 A 
ATOM     48  H   UNL A   1      41.754  28.788  28.362  1.00  0.00     0.167 HD
ATOM     49  C   UNL A   1      45.684  28.028  26.586  1.00  0.00     0.034 A 
ATOM     50  C   UNL A   1      39.985  30.196  30.008  1.00  0.00     0.034 A 
ATOM     51  C   UNL A   1      45.755  29.373  27.091  1.00  0.00     0.049 A 
ATOM     52  C   UNL A   1      41.221  31.052  29.899  1.00  0.00     0.074 A 
ATOM     53  C   UNL A   1      46.795  30.278  26.982  1.00  0.00     0.029 A 
ATOM     54  N   UNL A   1      44.752  30.001  27.811  1.00  0.00    -0.354 N 
ATOM     55  N   UNL A   1      42.326  30.825  29.232  1.00  0.00    -0.248 NA
ATOM     56  C   UNL A   1      41.203  32.341  30.606  1.00  0.00     0.031 C 
ATOM     57  C   UNL A   1      46.431  31.445  27.660  1.00  0.00     0.029 A 
ATOM     58  C   UNL A   1      45.152  31.277  28.167  1.00  0.00     0.049 A 
ATOM     59  H   UNL A   1      43.882  29.598  28.038  1.00  0.00     0.167 HD
ATOM     60  C   UNL A   1      43.117  31.955  29.406  1.00  0.00     0.074 A 
ATOM     61  C   UNL A   1      42.359  32.873  30.231  1.00  0.00     0.031 C 
ATOM     62  C   UNL A   1      44.365  32.206  28.936  1.00  0.00     0.034 A 
BRANCH  49  63
ATOM     63  C   UNL A   1      46.888  27.477  25.868  1.00  0.00     0.023 A 
ATOM     64  C   UNL A   1      47.750  26.586  26.538  1.00  0.00     0.012 A 
ATOM     65  C   UNL A   1      47.129  27.789  24.516  1.00  0.00     0.148 A 
ATOM     66  C   UNL A   1      48.851  26.036  25.881  1.00  0.00     0.002 A 
ATOM     67  C   UNL A   1      48.204  27.205  23.856  1.00  0.00     0.091 A 
ATOM     68  F   UNL A   1      46.309  28.657  23.904  1.00  0.00    -0.205 F 
ATOM     69  C   UNL A   1      49.070  26.336  24.539  1.00  0.00     0.022 A 
BRANCH  67  70
ATOM     70  S   UNL A   1      48.525  27.470  22.109  1.00  0.00     0.127 S 
ATOM     71  O   UNL A   1      49.747  28.271  22.152  1.00  0.00    -0.237 OA
ATOM     72  O   UNL A   1      48.710  26.103  21.618  1.00  0.00    -0.237 OA
ATOM     73  O   UNL A   1      47.349  28.148  21.583  1.00  0.00    -0.744 OA
ENDBRANCH  67  70
ENDBRANCH  49  63
BRANCH  50  74
ATOM     74  C   UNL A   1      38.808  30.654  30.797  1.00  0.00     0.023 A 
ATOM     75  C   UNL A   1      38.782  30.454  32.190  1.00  0.00     0.012 A 
ATOM     76  C   UNL A   1      37.724  31.301  30.175  1.00  0.00     0.148 A 
ATOM     77  C   UNL A   1      37.685  30.869  32.947  1.00  0.00     0.002 A 
ATOM     78  C   UNL A   1      36.658  31.757  30.941  1.00  0.00     0.091 A 
ATOM     79  F   UNL A   1      37.763  31.471  28.845  1.00  0.00    -0.205 F 
ATOM     80  C   UNL A   1      36.629  31.529  32.325  1.00  0.00     0.022 A 
BRANCH  78  81
ATOM     81  S   UNL A   1      35.319  32.726  30.240  1.00  0.00     0.127 S 
ATOM     82  O   UNL A   1      34.406  32.842  31.372  1.00  0.00    -0.237 OA
ATOM     83  O   UNL A   1      36.006  33.962  29.868  1.00  0.00    -0.237 OA
ATOM     84  O   UNL A   1      34.829  31.949  29.109  1.00  0.00    -0.744 OA
ENDBRANCH  78  81
ENDBRANCH  50  74
BRANCH  62  85
ATOM     85  C   UNL A   1      44.985  33.540  29.257  1.00  0.00     0.023 A 
ATOM     86  C   UNL A   1      45.751  33.694  30.429  1.00  0.00     0.012 A 
ATOM     87  C   UNL A   1      44.888  34.613  28.348  1.00  0.00     0.148 A 
ATOM     88  C   UNL A   1      46.390  34.903  30.705  1.00  0.00     0.002 A 
ATOM     89  C   UNL A   1      45.566  35.799  28.605  1.00  0.00     0.091 A 
ATOM     90  F   UNL A   1      44.140  34.451  27.247  1.00  0.00    -0.205 F 
ATOM     91  C   UNL A   1      46.308  35.949  29.787  1.00  0.00     0.022 A 
BRANCH  89  92
ATOM     92  S   UNL A   1      45.598  37.165  27.439  1.00  0.00     0.127 S 
ATOM     93  O   UNL A   1      46.235  36.549  26.277  1.00  0.00    -0.237 OA
ATOM     94  O   UNL A   1      44.176  37.463  27.270  1.00  0.00    -0.237 OA
ATOM     95  O   UNL A   1      46.365  38.224  28.082  1.00  0.00    -0.744 OA
ENDBRANCH  89  92
ENDBRANCH  62  85
ENDBRANCH  36  37
ENDBRANCH  29  31
ENDBRANCH  28  29
ENDBRANCH  27  28
ENDBRANCH   1  27
TORSDOF 21
ENDMDL
MODEL 3
REMARK VINA RESULT:     -11.1      0.517      7.673
REMARK SMILES CCC1C[NH+]([C@@H](Cc2c[nH]c3ccccc23)C(=O)OCCOCCOC(=O)c2ccc(-c3c4nc(c(-c5cccc(S(=O)(=O)[O-])c5F)c5ccc([nH]5)c(-c5cccc(S(=O)(=O)[O-])c5F)c5nc(c(-c6cccc(S(=O)(=O)[O-])c6F)c6ccc3[nH]6)C=C5)C=C4)cc2)C1
REMARK SMILES IDX 23 1 22 2 21 3 20 4 19 5 17 6 18 7 6 8 5 9 3 10 4 11 91 12
REMARK SMILES IDX 2 14 1 15 7 16 8 17 9 18 16 19 10 20 11 21 15 22 12 24 14 25
REMARK SMILES IDX 13 26 24 27 25 28 26 29 27 30 28 31 29 32 90 33 30 34 89 35
REMARK SMILES IDX 31 36 32 37 33 38 83 39 34 40 88 41 82 42 84 43 35 44 87 45
REMARK SMILES IDX 81 46 80 47 36 49 68 50 48 51 67 52 49 53 52 54 66 55 85 56
REMARK SMILES IDX 50 57 51 58 65 60 86 61 53 62 37 63 38 64 46 65 39 66 41 67
REMARK SMILES IDX 47 68 40 69 42 70 43 71 44 72 45 73 69 74 70 75 78 76 71 77
REMARK SMILES IDX 73 78 79 79 72 80 74 81 75 82 76 83 77 84 54 85 55 86 63 87
REMARK SMILES IDX 56 88 58 89 64 90 57 91 59 92 60 93 61 94 62 95
REMARK H PARENT 5 13 10 23 84 48 52 59
REMARK Flexibility Score: inf
ROOT
ATOM      1  C   UNL A   1      36.747  20.799  24.964  1.00  0.00     0.202 C 
ENDROOT
BRANCH   1   2
ATOM      2  O   UNL A   1      36.077  21.355  26.094  1.00  0.00    -0.374 OA
BRANCH   2   3
ATOM      3  C   UNL A   1      35.483  22.643  25.936  1.00  0.00     0.202 C 
BRANCH   3   4
ATOM      4  C   UNL A   1      34.430  23.023  26.974  1.00  0.00     0.261 C 
BRANCH   4   5
ATOM      5  O   UNL A   1      33.436  23.892  26.404  1.00  0.00    -0.459 OA
BRANCH   5   6
ATOM      6  C   UNL A   1      32.146  23.483  26.528  1.00  0.00     0.365 C 
ATOM      7  O   UNL A   1      31.633  23.123  27.587  1.00  0.00    -0.245 OA
BRANCH   6   8
ATOM      8  C   UNL A   1      31.380  23.447  25.205  1.00  0.00     0.299 C 
BRANCH   8   9
ATOM      9  N   UNL A   1      30.268  24.445  25.153  1.00  0.00    -0.322 N 
ATOM     10  C   UNL A   1      31.023  26.352  24.577  1.00  0.00     0.099 C 
ATOM     11  C   UNL A   1      30.500  25.707  25.884  1.00  0.00     0.272 C 
ATOM     12  C   UNL A   1      30.250  25.214  23.879  1.00  0.00     0.272 C 
ATOM     13  H   UNL A   1      29.499  23.837  25.435  1.00  0.00     0.348 HD
BRANCH  10  14
ATOM     14  C   UNL A   1      30.705  27.810  24.295  1.00  0.00     0.012 C 
ATOM     15  C   UNL A   1      31.950  28.658  24.529  1.00  0.00     0.004 C 
ENDBRANCH  10  14
ENDBRANCH   8   9
BRANCH   8  16
ATOM     16  C   UNL A   1      32.379  23.087  24.080  1.00  0.00     0.115 C 
BRANCH  16  17
ATOM     17  C   UNL A   1      32.278  21.775  23.357  1.00  0.00    -0.016 A 
ATOM     18  C   UNL A   1      31.986  21.516  22.030  1.00  0.00     0.087 A 
ATOM     19  C   UNL A   1      32.495  20.494  23.976  1.00  0.00     0.003 A 
ATOM     20  N   UNL A   1      31.890  20.157  21.863  1.00  0.00    -0.361 N 
ATOM     21  C   UNL A   1      32.192  19.515  23.036  1.00  0.00     0.046 A 
ATOM     22  C   UNL A   1      32.876  20.083  25.273  1.00  0.00     0.010 A 
ATOM     23  H   UNL A   1      31.638  19.709  21.023  1.00  0.00     0.166 HD
ATOM     24  C   UNL A   1      32.219  18.149  23.328  1.00  0.00     0.026 A 
ATOM     25  C   UNL A   1      32.924  18.719  25.579  1.00  0.00     0.001 A 
ATOM     26  C   UNL A   1      32.592  17.769  24.619  1.00  0.00     0.002 A 
ENDBRANCH  16  17
ENDBRANCH   8  16
ENDBRANCH   6   8
ENDBRANCH   5   6
ENDBRANCH   4   5
ENDBRANCH   3   4
ENDBRANCH   2   3
ENDBRANCH   1   2
BRANCH   1  27
ATOM     27  C   UNL A   1      37.976  19.929  25.256  1.00  0.00     0.261 C 
BRANCH  27  28
ATOM     28  O   UNL A   1      39.212  20.662  25.276  1.00  0.00    -0.460 OA
BRANCH  28  29
ATOM     29  C   UNL A   1      39.901  20.593  26.437  1.00  0.00     0.338 C 
ATOM     30  O   UNL A   1      40.353  19.586  26.972  1.00  0.00    -0.246 OA
BRANCH  29  31
ATOM     31  C   UNL A   1      40.181  21.946  26.947  1.00  0.00     0.060 A 
ATOM     32  C   UNL A   1      39.529  23.028  26.341  1.00  0.00     0.016 A 
ATOM     33  C   UNL A   1      41.150  22.160  27.928  1.00  0.00     0.016 A 
ATOM     34  C   UNL A   1      39.881  24.334  26.679  1.00  0.00     0.010 A 
ATOM     35  C   UNL A   1      41.508  23.470  28.260  1.00  0.00     0.010 A 
ATOM     36  C   UNL A   1      40.901  24.562  27.612  1.00  0.00    -0.014 A 
BRANCH  36  37
ATOM     37  C   UNL A   1      41.426  25.933  27.825  1.00  0.00     0.031 A 
ATOM     38  C   UNL A   1      42.834  26.255  27.401  1.00  0.00     0.074 A 
ATOM     39  C   UNL A   1      40.668  26.873  28.417  1.00  0.00     0.049 A 
ATOM     40  N   UNL A   1      43.517  27.356  27.569  1.00  0.00    -0.248 NA
ATOM     41  C   UNL A   1      43.570  25.192  26.696  1.00  0.00     0.031 C 
ATOM     42  C   UNL A   1      39.287  26.686  28.860  1.00  0.00     0.029 A 
ATOM     43  N   UNL A   1      40.967  28.163  28.776  1.00  0.00    -0.354 N 
ATOM     44  C   UNL A   1      44.772  27.112  27.025  1.00  0.00     0.074 A 
ATOM     45  C   UNL A   1      44.758  25.754  26.525  1.00  0.00     0.031 C 
ATOM     46  C   UNL A   1      38.871  27.809  29.470  1.00  0.00     0.029 A 
ATOM     47  C   UNL A   1      39.964  28.781  29.482  1.00  0.00     0.049 A 
ATOM     48  H   UNL A   1      41.817  28.602  28.549  1.00  0.00     0.167 HD
ATOM     49  C   UNL A   1      45.836  27.945  26.936  1.00  0.00     0.034 A 
ATOM     50  C   UNL A   1      39.940  29.981  30.096  1.00  0.00     0.034 A 
ATOM     51  C   UNL A   1      45.840  29.302  27.412  1.00  0.00     0.049 A 
ATOM     52  C   UNL A   1      41.148  30.879  30.012  1.00  0.00     0.074 A 
ATOM     53  C   UNL A   1      46.851  30.242  27.319  1.00  0.00     0.029 A 
ATOM     54  N   UNL A   1      44.789  29.910  28.080  1.00  0.00    -0.354 N 
ATOM     55  N   UNL A   1      42.284  30.677  29.391  1.00  0.00    -0.248 NA
ATOM     56  C   UNL A   1      41.058  32.182  30.687  1.00  0.00     0.031 C 
ATOM     57  C   UNL A   1      46.421  31.410  27.956  1.00  0.00     0.029 A 
ATOM     58  C   UNL A   1      45.131  31.207  28.419  1.00  0.00     0.049 A 
ATOM     59  H   UNL A   1      43.926  29.481  28.284  1.00  0.00     0.167 HD
ATOM     60  C   UNL A   1      43.028  31.839  29.568  1.00  0.00     0.074 A 
ATOM     61  C   UNL A   1      42.208  32.746  30.342  1.00  0.00     0.031 C 
ATOM     62  C   UNL A   1      44.283  32.124  29.138  1.00  0.00     0.034 A 
BRANCH  49  63
ATOM     63  C   UNL A   1      47.084  27.422  26.276  1.00  0.00     0.023 A 
ATOM     64  C   UNL A   1      47.349  27.748  24.930  1.00  0.00     0.012 A 
ATOM     65  C   UNL A   1      48.025  26.667  27.003  1.00  0.00     0.148 A 
ATOM     66  C   UNL A   1      48.516  27.304  24.310  1.00  0.00     0.002 A 
ATOM     67  C   UNL A   1      49.205  26.263  26.390  1.00  0.00     0.091 A 
ATOM     68  F   UNL A   1      47.743  26.349  28.276  1.00  0.00    -0.205 F 
ATOM     69  C   UNL A   1      49.448  26.573  25.043  1.00  0.00     0.022 A 
BRANCH  67  70
ATOM     70  S   UNL A   1      50.499  25.384  27.272  1.00  0.00     0.127 S 
ATOM     71  O   UNL A   1      51.435  25.077  26.192  1.00  0.00    -0.237 OA
ATOM     72  O   UNL A   1      50.972  26.396  28.217  1.00  0.00    -0.237 OA
ATOM     73  O   UNL A   1      49.855  24.233  27.889  1.00  0.00    -0.744 OA
ENDBRANCH  67  70
ENDBRANCH  49  63
BRANCH  50  74
ATOM     74  C   UNL A   1      38.719  30.415  30.831  1.00  0.00     0.023 A 
ATOM     75  C   UNL A   1      38.600  30.143  32.206  1.00  0.00     0.012 A 
ATOM     76  C   UNL A   1      37.685  31.108  30.175  1.00  0.00     0.148 A 
ATOM     77  C   UNL A   1      37.461  30.532  32.912  1.00  0.00     0.002 A 
ATOM     78  C   UNL A   1      36.576  31.538  30.893  1.00  0.00     0.091 A 
ATOM     79  F   UNL A   1      37.812  31.346  28.861  1.00  0.00    -0.205 F 
ATOM     80  C   UNL A   1      36.454  31.239  32.258  1.00  0.00     0.022 A 
BRANCH  78  81
ATOM     81  S   UNL A   1      35.296  32.562  30.159  1.00  0.00     0.127 S 
ATOM     82  O   UNL A   1      34.846  31.729  29.048  1.00  0.00    -0.237 OA
ATOM     83  O   UNL A   1      34.345  32.690  31.262  1.00  0.00    -0.237 OA
ATOM     84  O   UNL A   1      35.959  33.806  29.790  1.00  0.00    -0.744 OA
ENDBRANCH  78  81
ENDBRANCH  50  74
BRANCH  62  85
ATOM     85  C   UNL A   1      44.844  33.486  29.450  1.00  0.00     0.023 A 
ATOM     86  C   UNL A   1      45.561  33.693  30.644  1.00  0.00     0.012 A 
ATOM     87  C   UNL A   1      44.741  34.535  28.513  1.00  0.00     0.148 A 
ATOM     88  C   UNL A   1      46.147  34.931  30.914  1.00  0.00     0.002 A 
ATOM     89  C   UNL A   1      45.366  35.750  28.767  1.00  0.00     0.091 A 
ATOM     90  F   UNL A   1      44.038  34.323  27.391  1.00  0.00    -0.205 F 
ATOM     91  C   UNL A   1      46.060  35.953  29.970  1.00  0.00     0.022 A 
BRANCH  89  92
ATOM     92  S   UNL A   1      45.391  37.092  27.572  1.00  0.00     0.127 S 
ATOM     93  O   UNL A   1      43.965  37.375  27.414  1.00  0.00    -0.237 OA
ATOM     94  O   UNL A   1      46.144  38.126  28.281  1.00  0.00    -0.237 OA
ATOM     95  O   UNL A   1      46.057  36.563  26.389  1.00  0.00    -0.744 OA
ENDBRANCH  89  92
ENDBRANCH  62  85
ENDBRANCH  36  37
ENDBRANCH  29  31
ENDBRANCH  28  29
ENDBRANCH  27  28
ENDBRANCH   1  27
TORSDOF 21
ENDMDL
