MODEL 1
REMARK VINA RESULT:     -10.6      0.000      0.000
REMARK SMILES CC(=O)O[C@@H](C)c1nc2ccc(C(=O)OCCOCCOC(=O)c3ccc(-c4c5nc(c(-c6cccc(S(=O)(=O)[O-])c6F)c6ccc([nH]6)c(-c6cccc(S(=O)(=O)[O-])c6F)c6nc(c(-c7cccc(S(=O)(=O)[O-])c7F)c7ccc4[nH]7)C=C6)C=C5)cc3)cc2[nH]1
REMARK SMILES IDX 18 1 17 2 16 3 15 4 13 5 14 6 12 7 7 8 8 9 89 10 9 11 88 12
REMARK SMILES IDX 10 14 87 15 11 16 5 17 6 18 4 19 2 20 1 21 3 22 19 23 20 24
REMARK SMILES IDX 21 25 22 26 23 27 24 28 25 29 86 30 26 31 85 32 27 33 28 34
REMARK SMILES IDX 29 35 79 36 30 37 84 38 78 39 80 40 31 41 83 42 77 43 76 44
REMARK SMILES IDX 32 46 64 47 44 48 63 49 45 50 48 51 62 52 81 53 46 54 47 55
REMARK SMILES IDX 61 57 82 58 49 59 33 60 34 61 42 62 35 63 37 64 43 65 36 66
REMARK SMILES IDX 38 67 39 68 40 69 41 70 65 71 66 72 74 73 67 74 69 75 75 76
REMARK SMILES IDX 68 77 70 78 71 79 72 80 73 81 50 82 51 83 59 84 52 85 54 86
REMARK SMILES IDX 60 87 53 88 55 89 56 90 57 91 58 92
REMARK H PARENT 89 13 80 45 48 56
REMARK Flexibility Score: inf
ROOT
ATOM      1  O   UNL A   1      30.869  31.058  25.274  1.00  0.00    -0.374 OA
ENDROOT
BRANCH   1   2
ATOM      2  C   UNL A   1      29.999  32.101  24.829  1.00  0.00     0.202 C 
BRANCH   2   3
ATOM      3  C   UNL A   1      29.054  31.740  23.678  1.00  0.00     0.261 C 
BRANCH   3   4
ATOM      4  O   UNL A   1      28.824  30.324  23.625  1.00  0.00    -0.460 OA
BRANCH   4   5
ATOM      5  C   UNL A   1      29.230  29.719  22.485  1.00  0.00     0.338 C 
ATOM      6  O   UNL A   1      29.033  30.103  21.340  1.00  0.00    -0.246 OA
BRANCH   5   7
ATOM      7  C   UNL A   1      30.133  28.586  22.795  1.00  0.00     0.062 A 
ATOM      8  C   UNL A   1      31.272  24.450  24.276  1.00  0.00     0.148 A 
ATOM      9  N   UNL A   1      32.283  25.218  23.919  1.00  0.00    -0.229 NA
ATOM     10  N   UNL A   1      30.077  25.079  24.022  1.00  0.00    -0.339 N 
ATOM     11  C   UNL A   1      31.727  26.389  23.466  1.00  0.00     0.089 A 
ATOM     12  C   UNL A   1      30.343  26.337  23.558  1.00  0.00     0.066 A 
ATOM     13  H   UNL A   1      29.182  24.690  24.153  1.00  0.00     0.168 HD
ATOM     14  C   UNL A   1      32.336  27.560  22.983  1.00  0.00     0.031 A 
ATOM     15  C   UNL A   1      29.512  27.405  23.235  1.00  0.00     0.044 A 
ATOM     16  C   UNL A   1      31.526  28.659  22.646  1.00  0.00     0.018 A 
BRANCH   8  17
ATOM     17  C   UNL A   1      31.311  23.114  24.948  1.00  0.00     0.239 C 
ATOM     18  C   UNL A   1      31.197  23.154  26.466  1.00  0.00     0.062 C 
BRANCH  17  19
ATOM     19  O   UNL A   1      32.441  22.353  24.462  1.00  0.00    -0.455 OA
BRANCH  19  20
ATOM     20  C   UNL A   1      32.680  21.116  24.974  1.00  0.00     0.303 C 
ATOM     21  C   UNL A   1      34.148  20.958  25.237  1.00  0.00     0.139 C 
ATOM     22  O   UNL A   1      31.860  20.237  25.176  1.00  0.00    -0.253 OA
ENDBRANCH  19  20
ENDBRANCH  17  19
ENDBRANCH   8  17
ENDBRANCH   5   7
ENDBRANCH   4   5
ENDBRANCH   3   4
ENDBRANCH   2   3
ENDBRANCH   1   2
BRANCH   1  23
ATOM     23  C   UNL A   1      31.552  31.276  26.511  1.00  0.00     0.202 C 
BRANCH  23  24
ATOM     24  C   UNL A   1      31.990  32.716  26.804  1.00  0.00     0.261 C 
BRANCH  24  25
ATOM     25  O   UNL A   1      32.752  32.807  28.020  1.00  0.00    -0.460 OA
BRANCH  25  26
ATOM     26  C   UNL A   1      33.826  33.629  27.962  1.00  0.00     0.338 C 
ATOM     27  O   UNL A   1      33.816  34.844  27.799  1.00  0.00    -0.246 OA
BRANCH  26  28
ATOM     28  C   UNL A   1      35.048  32.886  28.316  1.00  0.00     0.060 A 
ATOM     29  C   UNL A   1      34.897  31.562  28.748  1.00  0.00     0.016 A 
ATOM     30  C   UNL A   1      36.312  33.480  28.280  1.00  0.00     0.016 A 
ATOM     31  C   UNL A   1      36.002  30.842  29.197  1.00  0.00     0.010 A 
ATOM     32  C   UNL A   1      37.419  32.759  28.736  1.00  0.00     0.010 A 
ATOM     33  C   UNL A   1      37.264  31.451  29.232  1.00  0.00    -0.014 A 
BRANCH  33  34
ATOM     34  C   UNL A   1      38.389  30.765  29.911  1.00  0.00     0.031 A 
ATOM     35  C   UNL A   1      38.747  31.163  31.317  1.00  0.00     0.074 A 
ATOM     36  C   UNL A   1      39.083  29.799  29.284  1.00  0.00     0.049 A 
ATOM     37  N   UNL A   1      39.697  30.705  32.090  1.00  0.00    -0.248 NA
ATOM     38  C   UNL A   1      37.927  32.219  31.932  1.00  0.00     0.031 C 
ATOM     39  C   UNL A   1      38.831  29.328  27.924  1.00  0.00     0.029 A 
ATOM     40  N   UNL A   1      40.158  29.057  29.705  1.00  0.00    -0.354 N 
ATOM     41  C   UNL A   1      39.610  31.435  33.269  1.00  0.00     0.074 A 
ATOM     42  C   UNL A   1      38.522  32.374  33.106  1.00  0.00     0.031 C 
ATOM     43  C   UNL A   1      39.745  28.393  27.611  1.00  0.00     0.029 A 
ATOM     44  C   UNL A   1      40.657  28.217  28.739  1.00  0.00     0.049 A 
ATOM     45  H   UNL A   1      40.535  29.122  30.613  1.00  0.00     0.167 HD
ATOM     46  C   UNL A   1      40.356  31.322  34.393  1.00  0.00     0.034 A 
ATOM     47  C   UNL A   1      41.738  27.411  28.760  1.00  0.00     0.034 A 
ATOM     48  C   UNL A   1      41.424  30.374  34.561  1.00  0.00     0.049 A 
ATOM     49  C   UNL A   1      42.566  27.319  30.015  1.00  0.00     0.074 A 
ATOM     50  C   UNL A   1      42.202  30.143  35.683  1.00  0.00     0.029 A 
ATOM     51  N   UNL A   1      41.877  29.509  33.576  1.00  0.00    -0.354 N 
ATOM     52  N   UNL A   1      42.390  27.919  31.167  1.00  0.00    -0.248 NA
ATOM     53  C   UNL A   1      43.722  26.410  29.983  1.00  0.00     0.031 C 
ATOM     54  C   UNL A   1      43.143  29.158  35.366  1.00  0.00     0.029 A 
ATOM     55  C   UNL A   1      42.933  28.754  34.057  1.00  0.00     0.049 A 
ATOM     56  H   UNL A   1      41.502  29.443  32.668  1.00  0.00     0.167 HD
ATOM     57  C   UNL A   1      43.388  27.437  32.006  1.00  0.00     0.074 A 
ATOM     58  C   UNL A   1      44.154  26.480  31.236  1.00  0.00     0.031 C 
ATOM     59  C   UNL A   1      43.655  27.767  33.295  1.00  0.00     0.034 A 
BRANCH  46  60
ATOM     60  C   UNL A   1      40.023  32.234  35.545  1.00  0.00     0.023 A 
ATOM     61  C   UNL A   1      40.723  33.449  35.696  1.00  0.00     0.012 A 
ATOM     62  C   UNL A   1      38.991  31.914  36.448  1.00  0.00     0.148 A 
ATOM     63  C   UNL A   1      40.424  34.314  36.749  1.00  0.00     0.002 A 
ATOM     64  C   UNL A   1      38.670  32.801  37.470  1.00  0.00     0.091 A 
ATOM     65  F   UNL A   1      38.354  30.743  36.303  1.00  0.00    -0.205 F 
ATOM     66  C   UNL A   1      39.393  33.995  37.628  1.00  0.00     0.022 A 
BRANCH  64  67
ATOM     67  S   UNL A   1      37.309  32.514  38.605  1.00  0.00     0.127 S 
ATOM     68  O   UNL A   1      36.168  32.988  37.823  1.00  0.00    -0.237 OA
ATOM     69  O   UNL A   1      37.360  31.063  38.789  1.00  0.00    -0.237 OA
ATOM     70  O   UNL A   1      37.615  33.286  39.800  1.00  0.00    -0.744 OA
ENDBRANCH  64  67
ENDBRANCH  46  60
BRANCH  47  71
ATOM     71  C   UNL A   1      42.074  26.595  27.559  1.00  0.00     0.023 A 
ATOM     72  C   UNL A   1      42.728  27.201  26.469  1.00  0.00     0.012 A 
ATOM     73  C   UNL A   1      41.775  25.220  27.503  1.00  0.00     0.148 A 
ATOM     74  C   UNL A   1      43.055  26.459  25.334  1.00  0.00     0.002 A 
ATOM     75  C   UNL A   1      42.153  24.475  26.392  1.00  0.00     0.091 A 
ATOM     76  F   UNL A   1      41.138  24.666  28.543  1.00  0.00    -0.205 F 
ATOM     77  C   UNL A   1      42.778  25.095  25.300  1.00  0.00     0.022 A 
BRANCH  75  78
ATOM     78  S   UNL A   1      41.952  22.691  26.314  1.00  0.00     0.127 S 
ATOM     79  O   UNL A   1      42.606  22.261  27.547  1.00  0.00    -0.237 OA
ATOM     80  O   UNL A   1      40.495  22.553  26.308  1.00  0.00    -0.237 OA
ATOM     81  O   UNL A   1      42.599  22.276  25.077  1.00  0.00    -0.744 OA
ENDBRANCH  75  78
ENDBRANCH  47  71
BRANCH  59  82
ATOM     82  C   UNL A   1      44.805  27.068  33.974  1.00  0.00     0.023 A 
ATOM     83  C   UNL A   1      46.113  27.570  33.830  1.00  0.00     0.012 A 
ATOM     84  C   UNL A   1      44.578  25.961  34.818  1.00  0.00     0.148 A 
ATOM     85  C   UNL A   1      47.183  26.963  34.490  1.00  0.00     0.002 A 
ATOM     86  C   UNL A   1      45.641  25.392  35.510  1.00  0.00     0.091 A 
ATOM     87  F   UNL A   1      43.329  25.487  34.928  1.00  0.00    -0.205 F 
ATOM     88  C   UNL A   1      46.945  25.884  35.338  1.00  0.00     0.022 A 
BRANCH  86  89
ATOM     89  S   UNL A   1      45.414  24.061  36.697  1.00  0.00     0.127 S 
ATOM     90  O   UNL A   1      44.375  24.612  37.566  1.00  0.00    -0.237 OA
ATOM     91  O   UNL A   1      44.975  22.956  35.845  1.00  0.00    -0.237 OA
ATOM     92  O   UNL A   1      46.713  23.859  37.325  1.00  0.00    -0.744 OA
ENDBRANCH  86  89
ENDBRANCH  59  82
ENDBRANCH  33  34
ENDBRANCH  26  28
ENDBRANCH  25  26
ENDBRANCH  24  25
ENDBRANCH  23  24
ENDBRANCH   1  23
TORSDOF 20
ENDMDL
MODEL 2
REMARK VINA RESULT:     -10.2      5.431     15.605
REMARK SMILES CC(=O)O[C@@H](C)c1nc2ccc(C(=O)OCCOCCOC(=O)c3ccc(-c4c5nc(c(-c6cccc(S(=O)(=O)[O-])c6F)c6ccc([nH]6)c(-c6cccc(S(=O)(=O)[O-])c6F)c6nc(c(-c7cccc(S(=O)(=O)[O-])c7F)c7ccc4[nH]7)C=C6)C=C5)cc3)cc2[nH]1
REMARK SMILES IDX 18 1 17 2 16 3 15 4 13 5 14 6 12 7 7 8 8 9 89 10 9 11 88 12
REMARK SMILES IDX 10 14 87 15 11 16 5 17 6 18 4 19 2 20 1 21 3 22 19 23 20 24
REMARK SMILES IDX 21 25 22 26 23 27 24 28 25 29 86 30 26 31 85 32 27 33 28 34
REMARK SMILES IDX 29 35 79 36 30 37 84 38 78 39 80 40 31 41 83 42 77 43 76 44
REMARK SMILES IDX 32 46 64 47 44 48 63 49 45 50 48 51 62 52 81 53 46 54 47 55
REMARK SMILES IDX 61 57 82 58 49 59 33 60 34 61 42 62 35 63 37 64 43 65 36 66
REMARK SMILES IDX 38 67 39 68 40 69 41 70 65 71 66 72 74 73 67 74 69 75 75 76
REMARK SMILES IDX 68 77 70 78 71 79 72 80 73 81 50 82 51 83 59 84 52 85 54 86
REMARK SMILES IDX 60 87 53 88 55 89 56 90 57 91 58 92
REMARK H PARENT 89 13 80 45 48 56
REMARK Flexibility Score: inf
ROOT
ATOM      1  O   UNL A   1      46.175  22.291  36.691  1.00  0.00    -0.374 OA
ENDROOT
BRANCH   1   2
ATOM      2  C   UNL A   1      47.095  21.836  35.696  1.00  0.00     0.202 C 
BRANCH   2   3
ATOM      3  C   UNL A   1      47.053  20.337  35.379  1.00  0.00     0.261 C 
BRANCH   3   4
ATOM      4  O   UNL A   1      46.749  19.570  36.555  1.00  0.00    -0.460 OA
BRANCH   4   5
ATOM      5  C   UNL A   1      45.624  18.824  36.478  1.00  0.00     0.338 C 
ATOM      6  O   UNL A   1      44.965  18.589  35.473  1.00  0.00    -0.246 OA
BRANCH   5   7
ATOM      7  C   UNL A   1      45.365  18.146  37.770  1.00  0.00     0.062 A 
ATOM      8  C   UNL A   1      43.091  15.583  40.747  1.00  0.00     0.148 A 
ATOM      9  N   UNL A   1      44.175  16.169  41.220  1.00  0.00    -0.229 NA
ATOM     10  N   UNL A   1      42.960  15.830  39.402  1.00  0.00    -0.339 N 
ATOM     11  C   UNL A   1      44.730  16.848  40.164  1.00  0.00     0.089 A 
ATOM     12  C   UNL A   1      43.961  16.679  39.020  1.00  0.00     0.066 A 
ATOM     13  H   UNL A   1      42.263  15.459  38.814  1.00  0.00     0.168 HD
ATOM     14  C   UNL A   1      45.877  17.656  40.102  1.00  0.00     0.031 A 
ATOM     15  C   UNL A   1      44.239  17.305  37.809  1.00  0.00     0.044 A 
ATOM     16  C   UNL A   1      46.190  18.303  38.893  1.00  0.00     0.018 A 
BRANCH   8  17
ATOM     17  C   UNL A   1      42.047  14.816  41.496  1.00  0.00     0.239 C 
ATOM     18  C   UNL A   1      41.473  15.530  42.711  1.00  0.00     0.062 C 
BRANCH  17  19
ATOM     19  O   UNL A   1      42.522  13.478  41.768  1.00  0.00    -0.455 OA
BRANCH  19  20
ATOM     20  C   UNL A   1      41.773  12.413  41.376  1.00  0.00     0.303 C 
ATOM     21  C   UNL A   1      41.421  11.580  42.572  1.00  0.00     0.139 C 
ATOM     22  O   UNL A   1      41.442  12.132  40.236  1.00  0.00    -0.253 OA
ENDBRANCH  19  20
ENDBRANCH  17  19
ENDBRANCH   8  17
ENDBRANCH   5   7
ENDBRANCH   4   5
ENDBRANCH   3   4
ENDBRANCH   2   3
ENDBRANCH   1   2
BRANCH   1  23
ATOM     23  C   UNL A   1      46.730  22.995  37.805  1.00  0.00     0.202 C 
BRANCH  23  24
ATOM     24  C   UNL A   1      47.954  23.871  37.516  1.00  0.00     0.261 C 
BRANCH  24  25
ATOM     25  O   UNL A   1      47.582  25.222  37.192  1.00  0.00    -0.460 OA
BRANCH  25  26
ATOM     26  C   UNL A   1      47.758  25.569  35.896  1.00  0.00     0.338 C 
ATOM     27  O   UNL A   1      48.659  25.201  35.150  1.00  0.00    -0.246 OA
BRANCH  26  28
ATOM     28  C   UNL A   1      46.590  26.328  35.415  1.00  0.00     0.060 A 
ATOM     29  C   UNL A   1      45.336  25.709  35.507  1.00  0.00     0.016 A 
ATOM     30  C   UNL A   1      46.716  27.593  34.837  1.00  0.00     0.016 A 
ATOM     31  C   UNL A   1      44.209  26.331  34.972  1.00  0.00     0.010 A 
ATOM     32  C   UNL A   1      45.585  28.212  34.296  1.00  0.00     0.010 A 
ATOM     33  C   UNL A   1      44.335  27.568  34.327  1.00  0.00    -0.014 A 
BRANCH  33  34
ATOM     34  C   UNL A   1      43.185  28.120  33.571  1.00  0.00     0.031 A 
ATOM     35  C   UNL A   1      42.990  27.714  32.135  1.00  0.00     0.074 A 
ATOM     36  C   UNL A   1      42.324  28.971  34.156  1.00  0.00     0.049 A 
ATOM     37  N   UNL A   1      42.065  28.084  31.289  1.00  0.00    -0.248 NA
ATOM     38  C   UNL A   1      43.972  26.768  31.579  1.00  0.00     0.031 C 
ATOM     39  C   UNL A   1      42.408  29.438  35.538  1.00  0.00     0.029 A 
ATOM     40  N   UNL A   1      41.221  29.611  33.649  1.00  0.00    -0.354 N 
ATOM     41  C   UNL A   1      42.367  27.442  30.095  1.00  0.00     0.074 A 
ATOM     42  C   UNL A   1      43.568  26.669  30.322  1.00  0.00     0.031 C 
ATOM     43  C   UNL A   1      41.413  30.314  35.763  1.00  0.00     0.029 A 
ATOM     44  C   UNL A   1      40.637  30.484  34.536  1.00  0.00     0.049 A 
ATOM     45  H   UNL A   1      40.882  29.461  32.737  1.00  0.00     0.167 HD
ATOM     46  C   UNL A   1      41.695  27.478  28.920  1.00  0.00     0.034 A 
ATOM     47  C   UNL A   1      39.605  31.335  34.369  1.00  0.00     0.034 A 
ATOM     48  C   UNL A   1      40.490  28.231  28.702  1.00  0.00     0.049 A 
ATOM     49  C   UNL A   1      38.887  31.373  33.046  1.00  0.00     0.074 A 
ATOM     50  C   UNL A   1      39.703  28.287  27.564  1.00  0.00     0.029 A 
ATOM     51  N   UNL A   1      39.902  29.072  29.635  1.00  0.00    -0.354 N 
ATOM     52  N   UNL A   1      39.104  30.661  31.967  1.00  0.00    -0.248 NA
ATOM     53  C   UNL A   1      37.758  32.308  32.929  1.00  0.00     0.031 C 
ATOM     54  C   UNL A   1      38.656  29.184  27.801  1.00  0.00     0.029 A 
ATOM     55  C   UNL A   1      38.773  29.665  29.096  1.00  0.00     0.049 A 
ATOM     56  H   UNL A   1      40.240  29.225  30.547  1.00  0.00     0.167 HD
ATOM     57  C   UNL A   1      38.122  31.035  31.056  1.00  0.00     0.074 A 
ATOM     58  C   UNL A   1      37.296  32.023  31.717  1.00  0.00     0.031 C 
ATOM     59  C   UNL A   1      37.929  30.609  29.783  1.00  0.00     0.034 A 
BRANCH  46  60
ATOM     60  C   UNL A   1      42.239  26.654  27.781  1.00  0.00     0.023 A 
ATOM     61  C   UNL A   1      43.149  27.235  26.874  1.00  0.00     0.012 A 
ATOM     62  C   UNL A   1      41.886  25.299  27.635  1.00  0.00     0.148 A 
ATOM     63  C   UNL A   1      43.673  26.488  25.819  1.00  0.00     0.002 A 
ATOM     64  C   UNL A   1      42.445  24.549  26.606  1.00  0.00     0.091 A 
ATOM     65  F   UNL A   1      41.000  24.772  28.492  1.00  0.00    -0.205 F 
ATOM     66  C   UNL A   1      43.329  25.145  25.691  1.00  0.00     0.022 A 
BRANCH  64  67
ATOM     67  S   UNL A   1      42.123  22.794  26.405  1.00  0.00     0.127 S 
ATOM     68  O   UNL A   1      42.591  22.261  27.683  1.00  0.00    -0.237 OA
ATOM     69  O   UNL A   1      40.670  22.765  26.228  1.00  0.00    -0.237 OA
ATOM     70  O   UNL A   1      42.884  22.379  25.236  1.00  0.00    -0.744 OA
ENDBRANCH  64  67
ENDBRANCH  46  60
BRANCH  47  71
ATOM     71  C   UNL A   1      39.163  32.194  35.504  1.00  0.00     0.023 A 
ATOM     72  C   UNL A   1      38.213  31.701  36.418  1.00  0.00     0.012 A 
ATOM     73  C   UNL A   1      39.700  33.482  35.697  1.00  0.00     0.148 A 
ATOM     74  C   UNL A   1      37.784  32.485  37.490  1.00  0.00     0.002 A 
ATOM     75  C   UNL A   1      39.309  34.236  36.797  1.00  0.00     0.091 A 
ATOM     76  F   UNL A   1      40.591  33.938  34.807  1.00  0.00    -0.205 F 
ATOM     77  C   UNL A   1      38.340  33.746  37.686  1.00  0.00     0.022 A 
BRANCH  75  78
ATOM     78  S   UNL A   1      40.064  35.815  37.201  1.00  0.00     0.127 S 
ATOM     79  O   UNL A   1      39.720  36.619  36.031  1.00  0.00    -0.237 OA
ATOM     80  O   UNL A   1      39.358  36.180  38.429  1.00  0.00    -0.237 OA
ATOM     81  O   UNL A   1      41.482  35.539  37.383  1.00  0.00    -0.744 OA
ENDBRANCH  75  78
ENDBRANCH  47  71
BRANCH  59  82
ATOM     82  C   UNL A   1      36.761  31.180  29.021  1.00  0.00     0.023 A 
ATOM     83  C   UNL A   1      36.747  32.547  28.682  1.00  0.00     0.012 A 
ATOM     84  C   UNL A   1      35.715  30.346  28.573  1.00  0.00     0.148 A 
ATOM     85  C   UNL A   1      35.696  33.083  27.936  1.00  0.00     0.002 A 
ATOM     86  C   UNL A   1      34.697  30.877  27.790  1.00  0.00     0.091 A 
ATOM     87  F   UNL A   1      35.737  29.052  28.921  1.00  0.00    -0.205 F 
ATOM     88  C   UNL A   1      34.679  32.247  27.481  1.00  0.00     0.022 A 
BRANCH  86  89
ATOM     89  S   UNL A   1      33.398  29.857  27.080  1.00  0.00     0.127 S 
ATOM     90  O   UNL A   1      32.194  30.565  27.514  1.00  0.00    -0.237 OA
ATOM     91  O   UNL A   1      33.678  29.951  25.647  1.00  0.00    -0.237 OA
ATOM     92  O   UNL A   1      33.580  28.527  27.644  1.00  0.00    -0.744 OA
ENDBRANCH  86  89
ENDBRANCH  59  82
ENDBRANCH  33  34
ENDBRANCH  26  28
ENDBRANCH  25  26
ENDBRANCH  24  25
ENDBRANCH  23  24
ENDBRANCH   1  23
TORSDOF 20
ENDMDL
MODEL 3
REMARK VINA RESULT:      -9.4      4.565      9.635
REMARK SMILES CC(=O)O[C@@H](C)c1nc2ccc(C(=O)OCCOCCOC(=O)c3ccc(-c4c5nc(c(-c6cccc(S(=O)(=O)[O-])c6F)c6ccc([nH]6)c(-c6cccc(S(=O)(=O)[O-])c6F)c6nc(c(-c7cccc(S(=O)(=O)[O-])c7F)c7ccc4[nH]7)C=C6)C=C5)cc3)cc2[nH]1
REMARK SMILES IDX 18 1 17 2 16 3 15 4 13 5 14 6 12 7 7 8 8 9 89 10 9 11 88 12
REMARK SMILES IDX 10 14 87 15 11 16 5 17 6 18 4 19 2 20 1 21 3 22 19 23 20 24
REMARK SMILES IDX 21 25 22 26 23 27 24 28 25 29 86 30 26 31 85 32 27 33 28 34
REMARK SMILES IDX 29 35 79 36 30 37 84 38 78 39 80 40 31 41 83 42 77 43 76 44
REMARK SMILES IDX 32 46 64 47 44 48 63 49 45 50 48 51 62 52 81 53 46 54 47 55
REMARK SMILES IDX 61 57 82 58 49 59 33 60 34 61 42 62 35 63 37 64 43 65 36 66
REMARK SMILES IDX 38 67 39 68 40 69 41 70 65 71 66 72 74 73 67 74 69 75 75 76
REMARK SMILES IDX 68 77 70 78 71 79 72 80 73 81 50 82 51 83 59 84 52 85 54 86
REMARK SMILES IDX 60 87 53 88 55 89 56 90 57 91 58 92
REMARK H PARENT 89 13 80 45 48 56
REMARK Flexibility Score: inf
ROOT
ATOM      1  O   UNL A   1      36.870  33.733  30.477  1.00  0.00    -0.374 OA
ENDROOT
BRANCH   1   2
ATOM      2  C   UNL A   1      37.963  34.026  31.350  1.00  0.00     0.202 C 
BRANCH   2   3
ATOM      3  C   UNL A   1      37.589  34.455  32.773  1.00  0.00     0.261 C 
BRANCH   3   4
ATOM      4  O   UNL A   1      38.026  33.482  33.735  1.00  0.00    -0.460 OA
BRANCH   4   5
ATOM      5  C   UNL A   1      39.047  33.879  34.528  1.00  0.00     0.338 C 
ATOM      6  O   UNL A   1      40.060  34.471  34.181  1.00  0.00    -0.246 OA
BRANCH   5   7
ATOM      7  C   UNL A   1      38.705  33.668  35.955  1.00  0.00     0.062 A 
ATOM      8  C   UNL A   1      38.559  34.622  40.389  1.00  0.00     0.148 A 
ATOM      9  N   UNL A   1      38.067  33.445  40.050  1.00  0.00    -0.229 NA
ATOM     10  N   UNL A   1      38.928  35.329  39.271  1.00  0.00    -0.339 N 
ATOM     11  C   UNL A   1      38.163  33.375  38.682  1.00  0.00     0.089 A 
ATOM     12  C   UNL A   1      38.737  34.534  38.176  1.00  0.00     0.066 A 
ATOM     13  H   UNL A   1      39.272  36.252  39.261  1.00  0.00     0.168 HD
ATOM     14  C   UNL A   1      37.809  32.345  37.795  1.00  0.00     0.031 A 
ATOM     15  C   UNL A   1      39.024  34.722  36.827  1.00  0.00     0.044 A 
ATOM     16  C   UNL A   1      38.083  32.502  36.425  1.00  0.00     0.018 A 
BRANCH   8  17
ATOM     17  C   UNL A   1      38.805  35.165  41.761  1.00  0.00     0.239 C 
ATOM     18  C   UNL A   1      37.798  34.729  42.816  1.00  0.00     0.062 C 
BRANCH  17  19
ATOM     19  O   UNL A   1      39.006  36.596  41.694  1.00  0.00    -0.455 OA
BRANCH  19  20
ATOM     20  C   UNL A   1      40.226  37.112  42.001  1.00  0.00     0.303 C 
ATOM     21  C   UNL A   1      40.304  38.532  41.524  1.00  0.00     0.139 C 
ATOM     22  O   UNL A   1      41.147  36.534  42.552  1.00  0.00    -0.253 OA
ENDBRANCH  19  20
ENDBRANCH  17  19
ENDBRANCH   8  17
ENDBRANCH   5   7
ENDBRANCH   4   5
ENDBRANCH   3   4
ENDBRANCH   2   3
ENDBRANCH   1   2
BRANCH   1  23
ATOM     23  C   UNL A   1      35.578  33.623  31.079  1.00  0.00     0.202 C 
BRANCH  23  24
ATOM     24  C   UNL A   1      34.436  33.164  30.166  1.00  0.00     0.261 C 
BRANCH  24  25
ATOM     25  O   UNL A   1      34.900  32.859  28.839  1.00  0.00    -0.460 OA
BRANCH  25  26
ATOM     26  C   UNL A   1      34.689  31.584  28.439  1.00  0.00     0.338 C 
ATOM     27  O   UNL A   1      33.713  31.153  27.835  1.00  0.00    -0.246 OA
BRANCH  26  28
ATOM     28  C   UNL A   1      35.903  30.779  28.662  1.00  0.00     0.060 A 
ATOM     29  C   UNL A   1      35.895  29.885  29.741  1.00  0.00     0.016 A 
ATOM     30  C   UNL A   1      37.045  30.927  27.872  1.00  0.00     0.016 A 
ATOM     31  C   UNL A   1      37.048  29.174  30.068  1.00  0.00     0.010 A 
ATOM     32  C   UNL A   1      38.203  30.218  28.205  1.00  0.00     0.010 A 
ATOM     33  C   UNL A   1      38.221  29.367  29.326  1.00  0.00    -0.014 A 
BRANCH  33  34
ATOM     34  C   UNL A   1      39.496  28.782  29.807  1.00  0.00     0.031 A 
ATOM     35  C   UNL A   1      40.165  29.379  31.015  1.00  0.00     0.074 A 
ATOM     36  C   UNL A   1      40.050  27.732  29.176  1.00  0.00     0.049 A 
ATOM     37  N   UNL A   1      41.285  29.035  31.594  1.00  0.00    -0.248 NA
ATOM     38  C   UNL A   1      39.483  30.518  31.651  1.00  0.00     0.031 C 
ATOM     39  C   UNL A   1      39.497  27.068  27.997  1.00  0.00     0.029 A 
ATOM     40  N   UNL A   1      41.216  27.055  29.429  1.00  0.00    -0.354 N 
ATOM     41  C   UNL A   1      41.458  29.929  32.643  1.00  0.00     0.074 A 
ATOM     42  C   UNL A   1      40.335  30.839  32.613  1.00  0.00     0.031 C 
ATOM     43  C   UNL A   1      40.338  26.094  27.611  1.00  0.00     0.029 A 
ATOM     44  C   UNL A   1      41.497  26.080  28.502  1.00  0.00     0.049 A 
ATOM     45  H   UNL A   1      41.796  27.249  30.201  1.00  0.00     0.167 HD
ATOM     46  C   UNL A   1      42.453  29.978  33.561  1.00  0.00     0.034 A 
ATOM     47  C   UNL A   1      42.576  25.281  28.378  1.00  0.00     0.034 A 
ATOM     48  C   UNL A   1      43.558  29.060  33.602  1.00  0.00     0.049 A 
ATOM     49  C   UNL A   1      43.680  25.369  29.398  1.00  0.00     0.074 A 
ATOM     50  C   UNL A   1      44.587  28.991  34.525  1.00  0.00     0.029 A 
ATOM     51  N   UNL A   1      43.791  28.058  32.671  1.00  0.00    -0.354 N 
ATOM     52  N   UNL A   1      43.765  26.131  30.461  1.00  0.00    -0.248 NA
ATOM     53  C   UNL A   1      44.823  24.460  29.220  1.00  0.00     0.031 C 
ATOM     54  C   UNL A   1      45.456  27.966  34.137  1.00  0.00     0.029 A 
ATOM     55  C   UNL A   1      44.954  27.377  32.987  1.00  0.00     0.049 A 
ATOM     56  H   UNL A   1      43.213  27.862  31.898  1.00  0.00     0.167 HD
ATOM     57  C   UNL A   1      44.949  25.773  31.097  1.00  0.00     0.074 A 
ATOM     58  C   UNL A   1      45.539  24.710  30.310  1.00  0.00     0.031 C 
ATOM     59  C   UNL A   1      45.504  26.285  32.223  1.00  0.00     0.034 A 
BRANCH  46  60
ATOM     60  C   UNL A   1      42.375  31.050  34.616  1.00  0.00     0.023 A 
ATOM     61  C   UNL A   1      41.721  30.782  35.836  1.00  0.00     0.012 A 
ATOM     62  C   UNL A   1      42.985  32.304  34.421  1.00  0.00     0.148 A 
ATOM     63  C   UNL A   1      41.645  31.756  36.831  1.00  0.00     0.002 A 
ATOM     64  C   UNL A   1      42.942  33.256  35.434  1.00  0.00     0.091 A 
ATOM     65  F   UNL A   1      43.580  32.550  33.245  1.00  0.00    -0.205 F 
ATOM     66  C   UNL A   1      42.263  32.988  36.634  1.00  0.00     0.022 A 
BRANCH  64  67
ATOM     67  S   UNL A   1      43.774  34.842  35.303  1.00  0.00     0.127 S 
ATOM     68  O   UNL A   1      43.193  35.379  34.073  1.00  0.00    -0.237 OA
ATOM     69  O   UNL A   1      43.343  35.520  36.526  1.00  0.00    -0.237 OA
ATOM     70  O   UNL A   1      45.198  34.544  35.246  1.00  0.00    -0.744 OA
ENDBRANCH  64  67
ENDBRANCH  46  60
BRANCH  47  71
ATOM     71  C   UNL A   1      42.642  24.297  27.261  1.00  0.00     0.023 A 
ATOM     72  C   UNL A   1      43.312  24.643  26.071  1.00  0.00     0.012 A 
ATOM     73  C   UNL A   1      42.071  23.015  27.381  1.00  0.00     0.148 A 
ATOM     74  C   UNL A   1      43.389  23.739  25.011  1.00  0.00     0.002 A 
ATOM     75  C   UNL A   1      42.200  22.101  26.342  1.00  0.00     0.091 A 
ATOM     76  F   UNL A   1      41.425  22.712  28.515  1.00  0.00    -0.205 F 
ATOM     77  C   UNL A   1      42.844  22.466  25.150  1.00  0.00     0.022 A 
BRANCH  75  78
ATOM     78  S   UNL A   1      41.642  20.399  26.482  1.00  0.00     0.127 S 
ATOM     79  O   UNL A   1      42.176  20.013  27.785  1.00  0.00    -0.237 OA
ATOM     80  O   UNL A   1      40.187  20.555  26.433  1.00  0.00    -0.237 OA
ATOM     81  O   UNL A   1      42.209  19.703  25.335  1.00  0.00    -0.744 OA
ENDBRANCH  75  78
ENDBRANCH  47  71
BRANCH  59  82
ATOM     82  C   UNL A   1      46.803  25.688  32.700  1.00  0.00     0.023 A 
ATOM     83  C   UNL A   1      48.026  26.228  32.259  1.00  0.00     0.012 A 
ATOM     84  C   UNL A   1      46.810  24.642  33.646  1.00  0.00     0.148 A 
ATOM     85  C   UNL A   1      49.238  25.718  32.727  1.00  0.00     0.002 A 
ATOM     86  C   UNL A   1      48.020  24.171  34.145  1.00  0.00     0.091 A 
ATOM     87  F   UNL A   1      45.636  24.128  34.040  1.00  0.00    -0.205 F 
ATOM     88  C   UNL A   1      49.234  24.699  33.677  1.00  0.00     0.022 A 
BRANCH  86  89
ATOM     89  S   UNL A   1      48.108  22.929  35.440  1.00  0.00     0.127 S 
ATOM     90  O   UNL A   1      47.581  21.749  34.756  1.00  0.00    -0.237 OA
ATOM     91  O   UNL A   1      49.542  22.878  35.725  1.00  0.00    -0.237 OA
ATOM     92  O   UNL A   1      47.292  23.434  36.536  1.00  0.00    -0.744 OA
ENDBRANCH  86  89
ENDBRANCH  59  82
ENDBRANCH  33  34
ENDBRANCH  26  28
ENDBRANCH  25  26
ENDBRANCH  24  25
ENDBRANCH  23  24
ENDBRANCH   1  23
TORSDOF 20
ENDMDL
