MODEL 1
REMARK VINA RESULT:     -10.7      0.000      0.000
REMARK SMILES CC(C)(C)C(=O)NCCC(=O)N1C[C@@H](O)C[C@@H]1C(=O)OCCOCCOC(=O)c1ccc(-c2c3nc(c(-c4cccc(S(=O)(=O)[O-])c4F)c4ccc([nH]4)c(-c4cccc(S(=O)(=O)[O-])c4F)c4nc(c(-c5cccc(S(=O)(=O)[O-])c5F)c5ccc2[nH]5)C=C4)C=C3)cc1
REMARK SMILES IDX 22 1 21 2 20 3 18 4 19 5 17 6 12 7 13 8 14 9 16 10 10 11
REMARK SMILES IDX 11 12 9 13 8 14 7 15 5 16 6 17 2 19 1 20 3 21 4 22 15 23
REMARK SMILES IDX 23 25 24 26 25 27 26 28 27 29 28 30 29 31 30 32 91 33 31 34
REMARK SMILES IDX 90 35 32 36 33 37 34 38 84 39 35 40 89 41 83 42 85 43 36 44
REMARK SMILES IDX 88 45 82 46 81 47 37 49 69 50 49 51 68 52 50 53 53 54 67 55
REMARK SMILES IDX 86 56 51 57 52 58 66 60 87 61 54 62 38 63 39 64 47 65 40 66
REMARK SMILES IDX 42 67 48 68 41 69 43 70 44 71 45 72 46 73 70 74 71 75 79 76
REMARK SMILES IDX 72 77 74 78 80 79 73 80 75 81 76 82 77 83 78 84 55 85 56 86
REMARK SMILES IDX 64 87 57 88 59 89 65 90 58 91 60 92 61 93 62 94 63 95
REMARK H PARENT 7 18 15 24 85 48 53 59
REMARK Flexibility Score: inf
ROOT
ATOM      1  C   UNL A   1      33.281  28.975  23.079  1.00  0.00     0.202 C 
ENDROOT
BRANCH   1   2
ATOM      2  C   UNL A   1      32.907  27.612  22.483  1.00  0.00     0.261 C 
BRANCH   2   3
ATOM      3  O   UNL A   1      33.349  26.485  23.262  1.00  0.00    -0.462 OA
BRANCH   3   4
ATOM      4  C   UNL A   1      32.374  25.586  23.565  1.00  0.00     0.329 C 
ATOM      5  O   UNL A   1      31.236  25.627  23.108  1.00  0.00    -0.250 OA
BRANCH   4   6
ATOM      6  C   UNL A   1      32.889  24.438  24.459  1.00  0.00     0.197 C 
ATOM      7  N   UNL A   1      32.165  23.187  24.182  1.00  0.00    -0.326 N 
ATOM      8  C   UNL A   1      30.999  23.061  25.045  1.00  0.00     0.152 C 
ATOM      9  C   UNL A   1      31.037  24.271  25.984  1.00  0.00     0.136 C 
ATOM     10  C   UNL A   1      32.497  24.738  25.906  1.00  0.00     0.070 C 
BRANCH   7  11
ATOM     11  C   UNL A   1      32.655  22.238  23.314  1.00  0.00     0.225 C 
ATOM     12  O   UNL A   1      32.868  22.493  22.129  1.00  0.00    -0.275 OA
BRANCH  11  13
ATOM     13  C   UNL A   1      32.805  20.812  23.822  1.00  0.00     0.121 C 
BRANCH  13  14
ATOM     14  C   UNL A   1      34.028  20.511  24.675  1.00  0.00     0.125 C 
BRANCH  14  15
ATOM     15  N   UNL A   1      34.304  21.542  25.659  1.00  0.00    -0.355 N 
ATOM     16  C   UNL A   1      35.405  22.281  25.955  1.00  0.00     0.225 C 
ATOM     17  O   UNL A   1      35.360  22.866  27.044  1.00  0.00    -0.275 OA
ATOM     18  H   UNL A   1      33.531  21.750  26.232  1.00  0.00     0.163 HD
BRANCH  16  19
ATOM     19  C   UNL A   1      36.597  22.472  24.993  1.00  0.00     0.041 C 
ATOM     20  C   UNL A   1      37.357  21.125  24.901  1.00  0.00     0.021 C 
ATOM     21  C   UNL A   1      37.556  23.511  25.590  1.00  0.00     0.021 C 
ATOM     22  C   UNL A   1      36.205  22.858  23.564  1.00  0.00     0.021 C 
ENDBRANCH  16  19
ENDBRANCH  14  15
ENDBRANCH  13  14
ENDBRANCH  11  13
ENDBRANCH   7  11
BRANCH   9  23
ATOM     23  O   UNL A   1      30.682  23.944  27.320  1.00  0.00    -0.391 OA
ATOM     24  H   UNL A   1      30.903  23.016  27.496  1.00  0.00     0.211 HD
ENDBRANCH   9  23
ENDBRANCH   4   6
ENDBRANCH   3   4
ENDBRANCH   2   3
ENDBRANCH   1   2
BRANCH   1  25
ATOM     25  O   UNL A   1      33.380  29.049  24.501  1.00  0.00    -0.374 OA
BRANCH  25  26
ATOM     26  C   UNL A   1      32.157  29.195  25.223  1.00  0.00     0.202 C 
BRANCH  26  27
ATOM     27  C   UNL A   1      31.933  30.559  25.876  1.00  0.00     0.261 C 
BRANCH  27  28
ATOM     28  O   UNL A   1      32.523  30.590  27.186  1.00  0.00    -0.460 OA
BRANCH  28  29
ATOM     29  C   UNL A   1      33.271  31.690  27.434  1.00  0.00     0.338 C 
ATOM     30  O   UNL A   1      32.872  32.835  27.555  1.00  0.00    -0.246 OA
BRANCH  29  31
ATOM     31  C   UNL A   1      34.657  31.298  27.743  1.00  0.00     0.060 A 
ATOM     32  C   UNL A   1      34.905  29.931  27.916  1.00  0.00     0.016 A 
ATOM     33  C   UNL A   1      35.665  32.240  27.962  1.00  0.00     0.016 A 
ATOM     34  C   UNL A   1      36.143  29.504  28.388  1.00  0.00     0.010 A 
ATOM     35  C   UNL A   1      36.907  31.809  28.442  1.00  0.00     0.010 A 
ATOM     36  C   UNL A   1      37.131  30.445  28.704  1.00  0.00    -0.014 A 
BRANCH  36  37
ATOM     37  C   UNL A   1      38.327  29.998  29.457  1.00  0.00     0.031 A 
ATOM     38  C   UNL A   1      38.533  30.497  30.862  1.00  0.00     0.074 A 
ATOM     39  C   UNL A   1      39.193  29.126  28.911  1.00  0.00     0.049 A 
ATOM     40  N   UNL A   1      39.467  30.186  31.721  1.00  0.00    -0.248 NA
ATOM     41  C   UNL A   1      37.556  31.476  31.366  1.00  0.00     0.031 C 
ATOM     42  C   UNL A   1      39.097  28.581  27.558  1.00  0.00     0.029 A 
ATOM     43  N   UNL A   1      40.329  28.556  29.426  1.00  0.00    -0.354 N 
ATOM     44  C   UNL A   1      39.204  30.941  32.858  1.00  0.00     0.074 A 
ATOM     45  C   UNL A   1      38.032  31.738  32.575  1.00  0.00     0.031 C 
ATOM     46  C   UNL A   1      40.146  27.768  27.342  1.00  0.00     0.029 A 
ATOM     47  C   UNL A   1      40.989  27.744  28.536  1.00  0.00     0.049 A 
ATOM     48  H   UNL A   1      40.641  28.714  30.346  1.00  0.00     0.167 HD
ATOM     49  C   UNL A   1      39.863  30.950  34.041  1.00  0.00     0.034 A 
ATOM     50  C   UNL A   1      42.145  27.065  28.669  1.00  0.00     0.034 A 
ATOM     51  C   UNL A   1      41.015  30.139  34.326  1.00  0.00     0.049 A 
ATOM     52  C   UNL A   1      42.865  27.097  29.993  1.00  0.00     0.074 A 
ATOM     53  C   UNL A   1      41.726  30.036  35.508  1.00  0.00     0.029 A 
ATOM     54  N   UNL A   1      41.633  29.298  33.412  1.00  0.00    -0.354 N 
ATOM     55  N   UNL A   1      42.523  27.706  31.103  1.00  0.00    -0.248 NA
ATOM     56  C   UNL A   1      44.107  26.318  30.094  1.00  0.00     0.031 C 
ATOM     57  C   UNL A   1      42.786  29.146  35.303  1.00  0.00     0.029 A 
ATOM     58  C   UNL A   1      42.724  28.681  33.999  1.00  0.00     0.049 A 
ATOM     59  H   UNL A   1      41.338  29.160  32.483  1.00  0.00     0.167 HD
ATOM     60  C   UNL A   1      43.489  27.362  32.042  1.00  0.00     0.074 A 
ATOM     61  C   UNL A   1      44.417  26.471  31.375  1.00  0.00     0.031 C 
ATOM     62  C   UNL A   1      43.607  27.758  33.334  1.00  0.00     0.034 A 
BRANCH  49  63
ATOM     63  C   UNL A   1      39.330  31.844  35.129  1.00  0.00     0.023 A 
ATOM     64  C   UNL A   1      38.353  31.348  36.017  1.00  0.00     0.012 A 
ATOM     65  C   UNL A   1      39.820  33.152  35.302  1.00  0.00     0.148 A 
ATOM     66  C   UNL A   1      37.852  32.149  37.042  1.00  0.00     0.002 A 
ATOM     67  C   UNL A   1      39.343  33.933  36.351  1.00  0.00     0.091 A 
ATOM     68  F   UNL A   1      40.728  33.616  34.432  1.00  0.00    -0.205 F 
ATOM     69  C   UNL A   1      38.354  33.436  37.215  1.00  0.00     0.022 A 
BRANCH  67  70
ATOM     70  S   UNL A   1      39.976  35.579  36.693  1.00  0.00     0.127 S 
ATOM     71  O   UNL A   1      39.355  35.872  37.983  1.00  0.00    -0.237 OA
ATOM     72  O   UNL A   1      41.420  35.351  36.750  1.00  0.00    -0.237 OA
ATOM     73  O   UNL A   1      39.540  36.412  35.582  1.00  0.00    -0.744 OA
ENDBRANCH  67  70
ENDBRANCH  49  63
BRANCH  50  74
ATOM     74  C   UNL A   1      42.661  26.253  27.531  1.00  0.00     0.023 A 
ATOM     75  C   UNL A   1      43.633  26.798  26.671  1.00  0.00     0.012 A 
ATOM     76  C   UNL A   1      42.221  24.932  27.322  1.00  0.00     0.148 A 
ATOM     77  C   UNL A   1      44.144  26.048  25.611  1.00  0.00     0.002 A 
ATOM     78  C   UNL A   1      42.773  24.171  26.297  1.00  0.00     0.091 A 
ATOM     79  F   UNL A   1      41.279  24.438  28.138  1.00  0.00    -0.205 F 
ATOM     80  C   UNL A   1      43.723  24.732  25.431  1.00  0.00     0.022 A 
BRANCH  78  81
ATOM     81  S   UNL A   1      42.389  22.430  26.081  1.00  0.00     0.127 S 
ATOM     82  O   UNL A   1      43.111  22.115  24.852  1.00  0.00    -0.237 OA
ATOM     83  O   UNL A   1      42.952  21.840  27.296  1.00  0.00    -0.237 OA
ATOM     84  O   UNL A   1      40.936  22.357  26.002  1.00  0.00    -0.744 OA
ENDBRANCH  78  81
ENDBRANCH  50  74
BRANCH  62  85
ATOM     85  C   UNL A   1      44.772  27.221  34.125  1.00  0.00     0.023 A 
ATOM     86  C   UNL A   1      46.000  27.910  34.109  1.00  0.00     0.012 A 
ATOM     87  C   UNL A   1      44.625  26.084  34.943  1.00  0.00     0.148 A 
ATOM     88  C   UNL A   1      47.074  27.460  34.876  1.00  0.00     0.002 A 
ATOM     89  C   UNL A   1      45.686  25.666  35.739  1.00  0.00     0.091 A 
ATOM     90  F   UNL A   1      43.455  25.430  34.929  1.00  0.00    -0.205 F 
ATOM     91  C   UNL A   1      46.914  26.348  35.699  1.00  0.00     0.022 A 
BRANCH  89  92
ATOM     92  S   UNL A   1      45.536  24.301  36.897  1.00  0.00     0.127 S 
ATOM     93  O   UNL A   1      44.381  24.713  37.693  1.00  0.00    -0.237 OA
ATOM     94  O   UNL A   1      45.292  23.163  36.011  1.00  0.00    -0.237 OA
ATOM     95  O   UNL A   1      46.805  24.246  37.612  1.00  0.00    -0.744 OA
ENDBRANCH  89  92
ENDBRANCH  62  85
ENDBRANCH  36  37
ENDBRANCH  29  31
ENDBRANCH  28  29
ENDBRANCH  27  28
ENDBRANCH  26  27
ENDBRANCH  25  26
ENDBRANCH   1  25
TORSDOF 23
ENDMDL
MODEL 2
REMARK VINA RESULT:     -10.6      1.361      2.212
REMARK SMILES CC(C)(C)C(=O)NCCC(=O)N1C[C@@H](O)C[C@@H]1C(=O)OCCOCCOC(=O)c1ccc(-c2c3nc(c(-c4cccc(S(=O)(=O)[O-])c4F)c4ccc([nH]4)c(-c4cccc(S(=O)(=O)[O-])c4F)c4nc(c(-c5cccc(S(=O)(=O)[O-])c5F)c5ccc2[nH]5)C=C4)C=C3)cc1
REMARK SMILES IDX 22 1 21 2 20 3 18 4 19 5 17 6 12 7 13 8 14 9 16 10 10 11
REMARK SMILES IDX 11 12 9 13 8 14 7 15 5 16 6 17 2 19 1 20 3 21 4 22 15 23
REMARK SMILES IDX 23 25 24 26 25 27 26 28 27 29 28 30 29 31 30 32 91 33 31 34
REMARK SMILES IDX 90 35 32 36 33 37 34 38 84 39 35 40 89 41 83 42 85 43 36 44
REMARK SMILES IDX 88 45 82 46 81 47 37 49 69 50 49 51 68 52 50 53 53 54 67 55
REMARK SMILES IDX 86 56 51 57 52 58 66 60 87 61 54 62 38 63 39 64 47 65 40 66
REMARK SMILES IDX 42 67 48 68 41 69 43 70 44 71 45 72 46 73 70 74 71 75 79 76
REMARK SMILES IDX 72 77 74 78 80 79 73 80 75 81 76 82 77 83 78 84 55 85 56 86
REMARK SMILES IDX 64 87 57 88 59 89 65 90 58 91 60 92 61 93 62 94 63 95
REMARK H PARENT 7 18 15 24 85 48 53 59
REMARK Flexibility Score: inf
ROOT
ATOM      1  C   UNL A   1      33.180  28.734  26.067  1.00  0.00     0.202 C 
ENDROOT
BRANCH   1   2
ATOM      2  C   UNL A   1      32.026  28.061  26.821  1.00  0.00     0.261 C 
BRANCH   2   3
ATOM      3  O   UNL A   1      31.260  27.138  26.024  1.00  0.00    -0.462 OA
BRANCH   3   4
ATOM      4  C   UNL A   1      31.854  25.929  25.826  1.00  0.00     0.329 C 
ATOM      5  O   UNL A   1      32.920  25.597  26.336  1.00  0.00    -0.250 OA
BRANCH   4   6
ATOM      6  C   UNL A   1      30.984  24.976  24.981  1.00  0.00     0.197 C 
ATOM      7  N   UNL A   1      31.785  23.863  24.448  1.00  0.00    -0.326 N 
ATOM      8  C   UNL A   1      32.328  24.195  23.138  1.00  0.00     0.152 C 
ATOM      9  C   UNL A   1      31.765  25.577  22.787  1.00  0.00     0.136 C 
ATOM     10  C   UNL A   1      30.550  25.713  23.714  1.00  0.00     0.070 C 
BRANCH   7  11
ATOM     11  C   UNL A   1      31.853  22.644  25.083  1.00  0.00     0.225 C 
ATOM     12  O   UNL A   1      30.893  22.180  25.697  1.00  0.00    -0.275 OA
BRANCH  11  13
ATOM     13  C   UNL A   1      33.196  21.932  25.125  1.00  0.00     0.121 C 
BRANCH  13  14
ATOM     14  C   UNL A   1      33.193  20.484  25.592  1.00  0.00     0.125 C 
BRANCH  14  15
ATOM     15  N   UNL A   1      34.351  19.735  25.136  1.00  0.00    -0.355 N 
ATOM     16  C   UNL A   1      34.515  18.490  24.619  1.00  0.00     0.225 C 
ATOM     17  O   UNL A   1      35.683  18.082  24.607  1.00  0.00    -0.275 OA
ATOM     18  H   UNL A   1      35.194  20.236  25.220  1.00  0.00     0.163 HD
BRANCH  16  19
ATOM     19  C   UNL A   1      33.371  17.658  24.001  1.00  0.00     0.041 C 
ATOM     20  C   UNL A   1      32.480  17.139  25.156  1.00  0.00     0.021 C 
ATOM     21  C   UNL A   1      33.972  16.439  23.289  1.00  0.00     0.021 C 
ATOM     22  C   UNL A   1      32.457  18.439  23.052  1.00  0.00     0.021 C 
ENDBRANCH  16  19
ENDBRANCH  14  15
ENDBRANCH  13  14
ENDBRANCH  11  13
ENDBRANCH   7  11
BRANCH   9  23
ATOM     23  O   UNL A   1      31.376  25.684  21.425  1.00  0.00    -0.391 OA
ATOM     24  H   UNL A   1      31.263  24.797  21.050  1.00  0.00     0.211 HD
ENDBRANCH   9  23
ENDBRANCH   4   6
ENDBRANCH   3   4
ENDBRANCH   2   3
ENDBRANCH   1   2
BRANCH   1  25
ATOM     25  O   UNL A   1      32.917  30.018  25.503  1.00  0.00    -0.374 OA
BRANCH  25  26
ATOM     26  C   UNL A   1      31.629  30.580  25.757  1.00  0.00     0.202 C 
BRANCH  26  27
ATOM     27  C   UNL A   1      31.626  31.917  26.500  1.00  0.00     0.261 C 
BRANCH  27  28
ATOM     28  O   UNL A   1      32.474  31.848  27.658  1.00  0.00    -0.460 OA
BRANCH  28  29
ATOM     29  C   UNL A   1      33.391  32.840  27.735  1.00  0.00     0.338 C 
ATOM     30  O   UNL A   1      33.172  34.040  27.751  1.00  0.00    -0.246 OA
BRANCH  29  31
ATOM     31  C   UNL A   1      34.725  32.275  28.004  1.00  0.00     0.060 A 
ATOM     32  C   UNL A   1      34.784  30.910  28.309  1.00  0.00     0.016 A 
ATOM     33  C   UNL A   1      35.871  33.070  28.059  1.00  0.00     0.016 A 
ATOM     34  C   UNL A   1      35.978  30.349  28.751  1.00  0.00     0.010 A 
ATOM     35  C   UNL A   1      37.070  32.505  28.510  1.00  0.00     0.010 A 
ATOM     36  C   UNL A   1      37.113  31.156  28.905  1.00  0.00    -0.014 A 
BRANCH  36  37
ATOM     37  C   UNL A   1      38.284  30.608  29.630  1.00  0.00     0.031 A 
ATOM     38  C   UNL A   1      38.526  31.037  31.053  1.00  0.00     0.074 A 
ATOM     39  C   UNL A   1      39.094  29.711  29.044  1.00  0.00     0.049 A 
ATOM     40  N   UNL A   1      39.444  30.637  31.893  1.00  0.00    -0.248 NA
ATOM     41  C   UNL A   1      37.610  32.050  31.603  1.00  0.00     0.031 C 
ATOM     42  C   UNL A   1      38.961  29.228  27.670  1.00  0.00     0.029 A 
ATOM     43  N   UNL A   1      40.198  29.054  29.527  1.00  0.00    -0.354 N 
ATOM     44  C   UNL A   1      39.230  31.358  33.061  1.00  0.00     0.074 A 
ATOM     45  C   UNL A   1      38.106  32.234  32.818  1.00  0.00     0.031 C 
ATOM     46  C   UNL A   1      39.958  28.365  27.414  1.00  0.00     0.029 A 
ATOM     47  C   UNL A   1      40.805  28.243  28.600  1.00  0.00     0.049 A 
ATOM     48  H   UNL A   1      40.523  29.156  30.451  1.00  0.00     0.167 HD
ATOM     49  C   UNL A   1      39.895  31.280  34.239  1.00  0.00     0.034 A 
ATOM     50  C   UNL A   1      41.919  27.492  28.697  1.00  0.00     0.034 A 
ATOM     51  C   UNL A   1      40.998  30.392  34.482  1.00  0.00     0.049 A 
ATOM     52  C   UNL A   1      42.645  27.427  30.016  1.00  0.00     0.074 A 
ATOM     53  C   UNL A   1      41.707  30.199  35.654  1.00  0.00     0.029 A 
ATOM     54  N   UNL A   1      41.561  29.554  33.531  1.00  0.00    -0.354 N 
ATOM     55  N   UNL A   1      42.346  28.009  31.152  1.00  0.00    -0.248 NA
ATOM     56  C   UNL A   1      43.840  26.573  30.077  1.00  0.00     0.031 C 
ATOM     57  C   UNL A   1      42.712  29.258  35.406  1.00  0.00     0.029 A 
ATOM     58  C   UNL A   1      42.616  28.851  34.085  1.00  0.00     0.049 A 
ATOM     59  H   UNL A   1      41.254  29.472  32.599  1.00  0.00     0.167 HD
ATOM     60  C   UNL A   1      43.294  27.571  32.070  1.00  0.00     0.074 A 
ATOM     61  C   UNL A   1      44.165  26.655  31.361  1.00  0.00     0.031 C 
ATOM     62  C   UNL A   1      43.441  27.906  33.377  1.00  0.00     0.034 A 
BRANCH  49  63
ATOM     63  C   UNL A   1      39.419  32.158  35.366  1.00  0.00     0.023 A 
ATOM     64  C   UNL A   1      38.492  31.649  36.298  1.00  0.00     0.012 A 
ATOM     65  C   UNL A   1      39.918  33.465  35.531  1.00  0.00     0.148 A 
ATOM     66  C   UNL A   1      38.046  32.435  37.360  1.00  0.00     0.002 A 
ATOM     67  C   UNL A   1      39.497  34.230  36.614  1.00  0.00     0.091 A 
ATOM     68  F   UNL A   1      40.777  33.941  34.620  1.00  0.00    -0.205 F 
ATOM     69  C   UNL A   1      38.556  33.720  37.523  1.00  0.00     0.022 A 
BRANCH  67  70
ATOM     70  S   UNL A   1      40.146  35.873  36.944  1.00  0.00     0.127 S 
ATOM     71  O   UNL A   1      41.581  35.613  37.025  1.00  0.00    -0.237 OA
ATOM     72  O   UNL A   1      39.726  36.616  35.756  1.00  0.00    -0.237 OA
ATOM     73  O   UNL A   1      39.516  36.308  38.183  1.00  0.00    -0.744 OA
ENDBRANCH  67  70
ENDBRANCH  49  63
BRANCH  50  74
ATOM     74  C   UNL A   1      42.381  26.699  27.523  1.00  0.00     0.023 A 
ATOM     75  C   UNL A   1      43.225  27.295  26.567  1.00  0.00     0.012 A 
ATOM     76  C   UNL A   1      42.020  25.345  27.372  1.00  0.00     0.148 A 
ATOM     77  C   UNL A   1      43.684  26.565  25.471  1.00  0.00     0.002 A 
ATOM     78  C   UNL A   1      42.525  24.608  26.307  1.00  0.00     0.091 A 
ATOM     79  F   UNL A   1      41.198  24.801  28.281  1.00  0.00    -0.205 F 
ATOM     80  C   UNL A   1      43.345  25.220  25.347  1.00  0.00     0.022 A 
BRANCH  78  81
ATOM     81  S   UNL A   1      42.249  22.840  26.148  1.00  0.00     0.127 S 
ATOM     82  O   UNL A   1      42.854  22.559  24.850  1.00  0.00    -0.237 OA
ATOM     83  O   UNL A   1      42.983  22.312  27.299  1.00  0.00    -0.237 OA
ATOM     84  O   UNL A   1      40.805  22.662  26.229  1.00  0.00    -0.744 OA
ENDBRANCH  78  81
ENDBRANCH  50  74
BRANCH  62  85
ATOM     85  C   UNL A   1      44.575  27.269  34.136  1.00  0.00     0.023 A 
ATOM     86  C   UNL A   1      45.860  27.844  34.079  1.00  0.00     0.012 A 
ATOM     87  C   UNL A   1      44.351  26.155  34.968  1.00  0.00     0.148 A 
ATOM     88  C   UNL A   1      46.911  27.302  34.817  1.00  0.00     0.002 A 
ATOM     89  C   UNL A   1      45.393  25.647  35.736  1.00  0.00     0.091 A 
ATOM     90  F   UNL A   1      43.126  25.610  34.995  1.00  0.00    -0.205 F 
ATOM     91  C   UNL A   1      46.676  26.213  35.654  1.00  0.00     0.022 A 
BRANCH  89  92
ATOM     92  S   UNL A   1      45.156  24.308  36.909  1.00  0.00     0.127 S 
ATOM     93  O   UNL A   1      44.766  23.207  36.029  1.00  0.00    -0.237 OA
ATOM     94  O   UNL A   1      46.486  24.171  37.503  1.00  0.00    -0.237 OA
ATOM     95  O   UNL A   1      44.129  24.768  37.834  1.00  0.00    -0.744 OA
ENDBRANCH  89  92
ENDBRANCH  62  85
ENDBRANCH  36  37
ENDBRANCH  29  31
ENDBRANCH  28  29
ENDBRANCH  27  28
ENDBRANCH  26  27
ENDBRANCH  25  26
ENDBRANCH   1  25
TORSDOF 23
ENDMDL
MODEL 3
REMARK VINA RESULT:     -10.1      4.749      7.511
REMARK SMILES CC(C)(C)C(=O)NCCC(=O)N1C[C@@H](O)C[C@@H]1C(=O)OCCOCCOC(=O)c1ccc(-c2c3nc(c(-c4cccc(S(=O)(=O)[O-])c4F)c4ccc([nH]4)c(-c4cccc(S(=O)(=O)[O-])c4F)c4nc(c(-c5cccc(S(=O)(=O)[O-])c5F)c5ccc2[nH]5)C=C4)C=C3)cc1
REMARK SMILES IDX 22 1 21 2 20 3 18 4 19 5 17 6 12 7 13 8 14 9 16 10 10 11
REMARK SMILES IDX 11 12 9 13 8 14 7 15 5 16 6 17 2 19 1 20 3 21 4 22 15 23
REMARK SMILES IDX 23 25 24 26 25 27 26 28 27 29 28 30 29 31 30 32 91 33 31 34
REMARK SMILES IDX 90 35 32 36 33 37 34 38 84 39 35 40 89 41 83 42 85 43 36 44
REMARK SMILES IDX 88 45 82 46 81 47 37 49 69 50 49 51 68 52 50 53 53 54 67 55
REMARK SMILES IDX 86 56 51 57 52 58 66 60 87 61 54 62 38 63 39 64 47 65 40 66
REMARK SMILES IDX 42 67 48 68 41 69 43 70 44 71 45 72 46 73 70 74 71 75 79 76
REMARK SMILES IDX 72 77 74 78 80 79 73 80 75 81 76 82 77 83 78 84 55 85 56 86
REMARK SMILES IDX 64 87 57 88 59 89 65 90 58 91 60 92 61 93 62 94 63 95
REMARK H PARENT 7 18 15 24 85 48 53 59
REMARK Flexibility Score: inf
ROOT
ATOM      1  C   UNL A   1      35.685  23.642  25.167  1.00  0.00     0.202 C 
ENDROOT
BRANCH   1   2
ATOM      2  C   UNL A   1      34.729  24.061  26.292  1.00  0.00     0.261 C 
BRANCH   2   3
ATOM      3  O   UNL A   1      33.378  24.305  25.859  1.00  0.00    -0.462 OA
BRANCH   3   4
ATOM      4  C   UNL A   1      33.104  25.603  25.554  1.00  0.00     0.329 C 
ATOM      5  O   UNL A   1      33.632  26.564  26.107  1.00  0.00    -0.250 OA
BRANCH   4   6
ATOM      6  C   UNL A   1      32.141  25.736  24.357  1.00  0.00     0.197 C 
ATOM      7  N   UNL A   1      32.430  24.722  23.330  1.00  0.00    -0.326 N 
ATOM      8  C   UNL A   1      33.384  25.229  22.355  1.00  0.00     0.152 C 
ATOM      9  C   UNL A   1      33.652  26.686  22.745  1.00  0.00     0.136 C 
ATOM     10  C   UNL A   1      32.451  27.045  23.630  1.00  0.00     0.070 C 
BRANCH   7  11
ATOM     11  C   UNL A   1      31.748  23.528  23.274  1.00  0.00     0.225 C 
ATOM     12  O   UNL A   1      30.784  23.298  24.003  1.00  0.00    -0.275 OA
BRANCH  11  13
ATOM     13  C   UNL A   1      32.297  22.431  22.373  1.00  0.00     0.121 C 
BRANCH  13  14
ATOM     14  C   UNL A   1      32.155  21.000  22.868  1.00  0.00     0.125 C 
BRANCH  14  15
ATOM     15  N   UNL A   1      32.702  20.799  24.197  1.00  0.00    -0.355 N 
ATOM     16  C   UNL A   1      32.997  19.695  24.930  1.00  0.00     0.225 C 
ATOM     17  O   UNL A   1      33.186  19.905  26.135  1.00  0.00    -0.275 OA
ATOM     18  H   UNL A   1      32.900  21.642  24.667  1.00  0.00     0.163 HD
BRANCH  16  19
ATOM     19  C   UNL A   1      33.182  18.286  24.326  1.00  0.00     0.041 C 
ATOM     20  C   UNL A   1      32.530  17.264  25.291  1.00  0.00     0.021 C 
ATOM     21  C   UNL A   1      34.682  17.970  24.252  1.00  0.00     0.021 C 
ATOM     22  C   UNL A   1      32.521  18.089  22.959  1.00  0.00     0.021 C 
ENDBRANCH  16  19
ENDBRANCH  14  15
ENDBRANCH  13  14
ENDBRANCH  11  13
ENDBRANCH   7  11
BRANCH   9  23
ATOM     23  O   UNL A   1      33.729  27.553  21.621  1.00  0.00    -0.391 OA
ATOM     24  H   UNL A   1      33.015  28.208  21.669  1.00  0.00     0.211 HD
ENDBRANCH   9  23
ENDBRANCH   4   6
ENDBRANCH   3   4
ENDBRANCH   2   3
ENDBRANCH   1   2
BRANCH   1  25
ATOM     25  O   UNL A   1      35.239  22.597  24.303  1.00  0.00    -0.374 OA
BRANCH  25  26
ATOM     26  C   UNL A   1      36.042  21.417  24.254  1.00  0.00     0.202 C 
BRANCH  26  27
ATOM     27  C   UNL A   1      36.973  21.201  25.448  1.00  0.00     0.261 C 
BRANCH  27  28
ATOM     28  O   UNL A   1      38.346  21.255  25.029  1.00  0.00    -0.460 OA
BRANCH  28  29
ATOM     29  C   UNL A   1      39.239  21.014  26.017  1.00  0.00     0.338 C 
ATOM     30  O   UNL A   1      39.760  19.946  26.289  1.00  0.00    -0.246 OA
BRANCH  29  31
ATOM     31  C   UNL A   1      39.672  22.284  26.626  1.00  0.00     0.060 A 
ATOM     32  C   UNL A   1      39.106  23.458  26.112  1.00  0.00     0.016 A 
ATOM     33  C   UNL A   1      40.674  22.340  27.597  1.00  0.00     0.016 A 
ATOM     34  C   UNL A   1      39.599  24.697  26.510  1.00  0.00     0.010 A 
ATOM     35  C   UNL A   1      41.172  23.587  27.990  1.00  0.00     0.010 A 
ATOM     36  C   UNL A   1      40.670  24.766  27.410  1.00  0.00    -0.014 A 
BRANCH  36  37
ATOM     37  C   UNL A   1      41.355  26.066  27.605  1.00  0.00     0.031 A 
ATOM     38  C   UNL A   1      40.653  27.151  28.378  1.00  0.00     0.074 A 
ATOM     39  C   UNL A   1      42.600  26.261  27.139  1.00  0.00     0.049 A 
ATOM     40  N   UNL A   1      41.087  28.334  28.723  1.00  0.00    -0.248 NA
ATOM     41  C   UNL A   1      39.278  26.864  28.820  1.00  0.00     0.031 C 
ATOM     42  C   UNL A   1      43.374  25.285  26.373  1.00  0.00     0.029 A 
ATOM     43  N   UNL A   1      43.428  27.351  27.232  1.00  0.00    -0.354 N 
ATOM     44  C   UNL A   1      40.039  28.939  29.406  1.00  0.00     0.074 A 
ATOM     45  C   UNL A   1      38.940  28.000  29.412  1.00  0.00     0.031 C 
ATOM     46  C   UNL A   1      44.559  25.830  26.048  1.00  0.00     0.029 A 
ATOM     47  C   UNL A   1      44.623  27.192  26.573  1.00  0.00     0.049 A 
ATOM     48  H   UNL A   1      43.187  28.169  27.724  1.00  0.00     0.167 HD
ATOM     49  C   UNL A   1      40.003  30.157  29.997  1.00  0.00     0.034 A 
ATOM     50  C   UNL A   1      45.647  28.052  26.409  1.00  0.00     0.034 A 
ATOM     51  C   UNL A   1      41.106  31.079  30.007  1.00  0.00     0.049 A 
ATOM     52  C   UNL A   1      45.581  29.405  27.069  1.00  0.00     0.074 A 
ATOM     53  C   UNL A   1      41.191  32.316  30.620  1.00  0.00     0.029 A 
ATOM     54  N   UNL A   1      42.316  30.867  29.363  1.00  0.00    -0.354 N 
ATOM     55  N   UNL A   1      44.637  29.906  27.830  1.00  0.00    -0.248 NA
ATOM     56  C   UNL A   1      46.736  30.295  26.882  1.00  0.00     0.031 C 
ATOM     57  C   UNL A   1      42.446  32.861  30.330  1.00  0.00     0.029 A 
ATOM     58  C   UNL A   1      43.150  31.955  29.553  1.00  0.00     0.049 A 
ATOM     59  H   UNL A   1      42.548  30.061  28.847  1.00  0.00     0.167 HD
ATOM     60  C   UNL A   1      45.095  31.154  28.236  1.00  0.00     0.074 A 
ATOM     61  C   UNL A   1      46.412  31.323  27.655  1.00  0.00     0.031 C 
ATOM     62  C   UNL A   1      44.477  32.084  29.007  1.00  0.00     0.034 A 
BRANCH  49  63
ATOM     63  C   UNL A   1      38.737  30.548  30.713  1.00  0.00     0.023 A 
ATOM     64  C   UNL A   1      38.597  30.253  32.085  1.00  0.00     0.012 A 
ATOM     65  C   UNL A   1      37.708  31.240  30.046  1.00  0.00     0.148 A 
ATOM     66  C   UNL A   1      37.442  30.615  32.775  1.00  0.00     0.002 A 
ATOM     67  C   UNL A   1      36.575  31.633  30.751  1.00  0.00     0.091 A 
ATOM     68  F   UNL A   1      37.847  31.488  28.737  1.00  0.00    -0.205 F 
ATOM     69  C   UNL A   1      36.437  31.313  32.112  1.00  0.00     0.022 A 
BRANCH  67  70
ATOM     70  S   UNL A   1      35.255  32.592  29.999  1.00  0.00     0.127 S 
ATOM     71  O   UNL A   1      34.319  32.731  31.112  1.00  0.00    -0.237 OA
ATOM     72  O   UNL A   1      35.945  33.827  29.625  1.00  0.00    -0.237 OA
ATOM     73  O   UNL A   1      34.780  31.801  28.873  1.00  0.00    -0.744 OA
ENDBRANCH  67  70
ENDBRANCH  49  63
BRANCH  50  74
ATOM     74  C   UNL A   1      46.845  27.633  25.628  1.00  0.00     0.023 A 
ATOM     75  C   UNL A   1      46.872  27.829  24.234  1.00  0.00     0.012 A 
ATOM     76  C   UNL A   1      47.972  27.079  26.266  1.00  0.00     0.148 A 
ATOM     77  C   UNL A   1      47.992  27.462  23.487  1.00  0.00     0.002 A 
ATOM     78  C   UNL A   1      49.105  26.766  25.524  1.00  0.00     0.091 A 
ATOM     79  F   UNL A   1      47.919  26.881  27.591  1.00  0.00    -0.205 F 
ATOM     80  C   UNL A   1      49.112  26.943  24.132  1.00  0.00     0.022 A 
BRANCH  78  81
ATOM     81  S   UNL A   1      50.635  26.222  26.292  1.00  0.00     0.127 S 
ATOM     82  O   UNL A   1      50.891  27.298  27.245  1.00  0.00    -0.237 OA
ATOM     83  O   UNL A   1      50.238  24.948  26.894  1.00  0.00    -0.237 OA
ATOM     84  O   UNL A   1      51.595  26.094  25.204  1.00  0.00    -0.744 OA
ENDBRANCH  78  81
ENDBRANCH  50  74
BRANCH  62  85
ATOM     85  C   UNL A   1      45.220  33.365  29.285  1.00  0.00     0.023 A 
ATOM     86  C   UNL A   1      46.040  33.459  30.426  1.00  0.00     0.012 A 
ATOM     87  C   UNL A   1      45.170  34.440  28.377  1.00  0.00     0.148 A 
ATOM     88  C   UNL A   1      46.779  34.615  30.674  1.00  0.00     0.002 A 
ATOM     89  C   UNL A   1      45.943  35.573  28.607  1.00  0.00     0.091 A 
ATOM     90  F   UNL A   1      44.368  34.340  27.307  1.00  0.00    -0.205 F 
ATOM     91  C   UNL A   1      46.740  35.666  29.760  1.00  0.00     0.022 A 
BRANCH  89  92
ATOM     92  S   UNL A   1      46.025  36.932  27.435  1.00  0.00     0.127 S 
ATOM     93  O   UNL A   1      44.725  37.573  27.633  1.00  0.00    -0.237 OA
ATOM     94  O   UNL A   1      47.166  37.703  27.928  1.00  0.00    -0.237 OA
ATOM     95  O   UNL A   1      46.232  36.319  26.130  1.00  0.00    -0.744 OA
ENDBRANCH  89  92
ENDBRANCH  62  85
ENDBRANCH  36  37
ENDBRANCH  29  31
ENDBRANCH  28  29
ENDBRANCH  27  28
ENDBRANCH  26  27
ENDBRANCH  25  26
ENDBRANCH   1  25
TORSDOF 23
ENDMDL
