MODEL 1
REMARK VINA RESULT:     -11.3      0.000      0.000
REMARK SMILES Cc1sc(NC(=O)[C@@H]2[C@@H](C(=O)OCCOCCOC(=O)c3ccc(-c4c5nc(c(-c6cccc(S(=O)(=O)[O-])c6F)c6ccc([nH]6)c(-c6cccc(S(=O)(=O)[O-])c6F)c6nc(c(-c7cccc(S(=O)(=O)[O-])c7F)c7ccc4[nH]7)C=C6)C=C5)cc3)[C@@H]3C=C[C@H]2C3)c(C#N)c1C
REMARK SMILES IDX 15 1 14 2 13 3 12 4 10 5 11 6 9 7 8 8 87 9 84 10 86 11 88 12
REMARK SMILES IDX 85 13 6 14 5 15 7 17 4 18 1 19 2 20 3 21 92 22 89 23 93 24
REMARK SMILES IDX 90 25 91 26 16 27 17 28 18 29 19 30 20 31 21 32 22 33 83 34
REMARK SMILES IDX 23 35 82 36 24 37 25 38 26 39 76 40 27 41 81 42 75 43 77 44
REMARK SMILES IDX 28 45 80 46 74 47 73 48 29 50 61 51 41 52 60 53 42 54 45 55
REMARK SMILES IDX 59 56 78 57 43 58 44 59 58 61 79 62 46 63 30 64 31 65 39 66
REMARK SMILES IDX 32 67 34 68 40 69 33 70 35 71 36 72 37 73 38 74 62 75 63 76
REMARK SMILES IDX 71 77 64 78 66 79 72 80 65 81 67 82 68 83 69 84 70 85 47 86
REMARK SMILES IDX 48 87 56 88 49 89 51 90 57 91 50 92 52 93 53 94 54 95 55 96
REMARK H PARENT 5 16 77 49 45 60
REMARK Flexibility Score: inf
ROOT
ATOM      1  O   UNL A   1      32.084  29.170  27.333  1.00  0.00    -0.374 OA
ENDROOT
BRANCH   1   2
ATOM      2  C   UNL A   1      31.852  27.797  27.024  1.00  0.00     0.202 C 
BRANCH   2   3
ATOM      3  C   UNL A   1      32.714  27.120  25.964  1.00  0.00     0.261 C 
BRANCH   3   4
ATOM      4  O   UNL A   1      32.622  25.692  25.982  1.00  0.00    -0.463 OA
BRANCH   4   5
ATOM      5  C   UNL A   1      33.624  25.053  25.322  1.00  0.00     0.310 C 
ATOM      6  O   UNL A   1      34.648  25.590  24.921  1.00  0.00    -0.252 OA
BRANCH   5   7
ATOM      7  C   UNL A   1      33.339  23.588  25.127  1.00  0.00     0.119 C 
ATOM      8  C   UNL A   1      31.788  23.351  24.991  1.00  0.00     0.100 C 
ATOM      9  C   UNL A   1      31.602  22.154  25.964  1.00  0.00     0.025 C 
ATOM     10  C   UNL A   1      33.765  22.605  26.242  1.00  0.00     0.027 C 
ATOM     11  C   UNL A   1      32.352  20.953  25.461  1.00  0.00    -0.027 C 
ATOM     12  C   UNL A   1      32.529  22.550  27.126  1.00  0.00     0.017 C 
ATOM     13  C   UNL A   1      33.655  21.209  25.644  1.00  0.00    -0.027 C 
BRANCH   8  14
ATOM     14  C   UNL A   1      31.474  23.254  23.497  1.00  0.00     0.229 C 
ATOM     15  N   UNL A   1      31.005  24.251  22.713  1.00  0.00    -0.316 N 
ATOM     16  H   UNL A   1      30.838  23.984  21.780  1.00  0.00     0.170 HD
ATOM     17  O   UNL A   1      31.701  22.199  22.884  1.00  0.00    -0.274 OA
BRANCH  15  18
ATOM     18  C   UNL A   1      30.719  25.562  22.979  1.00  0.00     0.113 A 
ATOM     19  C   UNL A   1      28.153  28.368  23.315  1.00  0.00     0.057 C 
ATOM     20  C   UNL A   1      29.410  27.565  23.285  1.00  0.00     0.008 A 
ATOM     21  S   UNL A   1      29.449  26.012  24.004  1.00  0.00    -0.122 S 
ATOM     22  C   UNL A   1      30.662  27.879  22.774  1.00  0.00    -0.017 A 
ATOM     23  C   UNL A   1      31.447  26.680  22.624  1.00  0.00     0.090 A 
ATOM     24  C   UNL A   1      31.103  29.235  22.336  1.00  0.00     0.047 C 
BRANCH  23  25
ATOM     25  C   UNL A   1      32.744  26.605  22.031  1.00  0.00     0.103 C 
ATOM     26  N   UNL A   1      33.803  26.508  21.546  1.00  0.00    -0.192 NA
ENDBRANCH  23  25
ENDBRANCH  15  18
ENDBRANCH   8  14
ENDBRANCH   5   7
ENDBRANCH   4   5
ENDBRANCH   3   4
ENDBRANCH   2   3
ENDBRANCH   1   2
BRANCH   1  27
ATOM     27  C   UNL A   1      31.978  30.167  26.321  1.00  0.00     0.202 C 
BRANCH  27  28
ATOM     28  C   UNL A   1      31.901  31.626  26.734  1.00  0.00     0.261 C 
BRANCH  28  29
ATOM     29  O   UNL A   1      32.969  31.976  27.597  1.00  0.00    -0.460 OA
BRANCH  29  30
ATOM     30  C   UNL A   1      32.938  33.267  27.994  1.00  0.00     0.338 C 
ATOM     31  O   UNL A   1      32.136  34.125  27.662  1.00  0.00    -0.246 OA
BRANCH  30  32
ATOM     32  C   UNL A   1      34.139  33.535  28.785  1.00  0.00     0.060 A 
ATOM     33  C   UNL A   1      35.163  34.194  28.105  1.00  0.00     0.016 A 
ATOM     34  C   UNL A   1      34.368  32.746  29.920  1.00  0.00     0.016 A 
ATOM     35  C   UNL A   1      36.446  33.776  28.348  1.00  0.00     0.010 A 
ATOM     36  C   UNL A   1      35.647  32.328  30.155  1.00  0.00     0.010 A 
ATOM     37  C   UNL A   1      36.644  32.751  29.282  1.00  0.00    -0.014 A 
BRANCH  37  38
ATOM     38  C   UNL A   1      37.984  32.265  29.508  1.00  0.00     0.031 A 
ATOM     39  C   UNL A   1      38.043  30.838  29.121  1.00  0.00     0.074 A 
ATOM     40  C   UNL A   1      38.995  33.070  29.897  1.00  0.00     0.049 A 
ATOM     41  N   UNL A   1      38.042  29.829  29.927  1.00  0.00    -0.248 NA
ATOM     42  C   UNL A   1      37.733  30.476  27.723  1.00  0.00     0.031 C 
ATOM     43  C   UNL A   1      39.008  34.525  30.079  1.00  0.00     0.029 A 
ATOM     44  N   UNL A   1      40.294  32.753  30.131  1.00  0.00    -0.354 N 
ATOM     45  C   UNL A   1      38.071  28.721  29.090  1.00  0.00     0.074 A 
ATOM     46  C   UNL A   1      37.558  29.157  27.824  1.00  0.00     0.031 C 
ATOM     47  C   UNL A   1      40.291  34.964  30.110  1.00  0.00     0.029 A 
ATOM     48  C   UNL A   1      41.186  33.820  30.069  1.00  0.00     0.049 A 
ATOM     49  H   UNL A   1      40.584  31.833  30.330  1.00  0.00     0.167 HD
ATOM     50  C   UNL A   1      38.885  27.674  29.385  1.00  0.00     0.034 A 
ATOM     51  C   UNL A   1      42.540  33.741  29.922  1.00  0.00     0.034 A 
ATOM     52  C   UNL A   1      39.281  27.707  30.772  1.00  0.00     0.049 A 
ATOM     53  C   UNL A   1      42.930  32.356  30.294  1.00  0.00     0.074 A 
ATOM     54  C   UNL A   1      38.594  27.735  31.971  1.00  0.00     0.029 A 
ATOM     55  N   UNL A   1      40.536  28.200  31.038  1.00  0.00    -0.354 N 
ATOM     56  N   UNL A   1      42.822  31.902  31.511  1.00  0.00    -0.248 NA
ATOM     57  C   UNL A   1      42.909  31.353  29.238  1.00  0.00     0.031 C 
ATOM     58  C   UNL A   1      39.297  28.679  32.774  1.00  0.00     0.029 A 
ATOM     59  C   UNL A   1      40.440  29.081  32.082  1.00  0.00     0.049 A 
ATOM     60  H   UNL A   1      41.362  27.961  30.559  1.00  0.00     0.167 HD
ATOM     61  C   UNL A   1      42.227  30.659  31.352  1.00  0.00     0.074 A 
ATOM     62  C   UNL A   1      42.363  30.345  29.927  1.00  0.00     0.031 C 
ATOM     63  C   UNL A   1      41.377  30.162  32.298  1.00  0.00     0.034 A 
BRANCH  50  64
ATOM     64  C   UNL A   1      39.667  26.909  28.343  1.00  0.00     0.023 A 
ATOM     65  C   UNL A   1      39.581  25.504  28.385  1.00  0.00     0.012 A 
ATOM     66  C   UNL A   1      40.670  27.466  27.510  1.00  0.00     0.148 A 
ATOM     67  C   UNL A   1      40.466  24.697  27.660  1.00  0.00     0.002 A 
ATOM     68  C   UNL A   1      41.488  26.666  26.726  1.00  0.00     0.091 A 
ATOM     69  F   UNL A   1      40.947  28.769  27.561  1.00  0.00    -0.205 F 
ATOM     70  C   UNL A   1      41.412  25.278  26.821  1.00  0.00     0.022 A 
BRANCH  68  71
ATOM     71  S   UNL A   1      42.696  27.372  25.594  1.00  0.00     0.127 S 
ATOM     72  O   UNL A   1      43.049  26.214  24.780  1.00  0.00    -0.237 OA
ATOM     73  O   UNL A   1      41.899  28.393  24.914  1.00  0.00    -0.237 OA
ATOM     74  O   UNL A   1      43.761  27.911  26.432  1.00  0.00    -0.744 OA
ENDBRANCH  68  71
ENDBRANCH  50  64
BRANCH  51  75
ATOM     75  C   UNL A   1      43.478  34.616  29.160  1.00  0.00     0.023 A 
ATOM     76  C   UNL A   1      43.790  34.329  27.810  1.00  0.00     0.012 A 
ATOM     77  C   UNL A   1      43.822  35.894  29.649  1.00  0.00     0.148 A 
ATOM     78  C   UNL A   1      44.389  35.289  26.978  1.00  0.00     0.002 A 
ATOM     79  C   UNL A   1      44.413  36.846  28.820  1.00  0.00     0.091 A 
ATOM     80  F   UNL A   1      43.480  36.215  30.902  1.00  0.00    -0.205 F 
ATOM     81  C   UNL A   1      44.691  36.552  27.479  1.00  0.00     0.022 A 
BRANCH  79  82
ATOM     82  S   UNL A   1      44.776  38.512  29.394  1.00  0.00     0.127 S 
ATOM     83  O   UNL A   1      45.667  38.253  30.526  1.00  0.00    -0.237 OA
ATOM     84  O   UNL A   1      45.426  39.100  28.226  1.00  0.00    -0.237 OA
ATOM     85  O   UNL A   1      43.493  39.097  29.762  1.00  0.00    -0.744 OA
ENDBRANCH  79  82
ENDBRANCH  51  75
BRANCH  63  86
ATOM     86  C   UNL A   1      41.270  30.894  33.614  1.00  0.00     0.023 A 
ATOM     87  C   UNL A   1      42.218  30.783  34.657  1.00  0.00     0.012 A 
ATOM     88  C   UNL A   1      40.250  31.848  33.731  1.00  0.00     0.148 A 
ATOM     89  C   UNL A   1      42.127  31.591  35.797  1.00  0.00     0.002 A 
ATOM     90  C   UNL A   1      40.188  32.678  34.841  1.00  0.00     0.091 A 
ATOM     91  F   UNL A   1      39.365  31.947  32.727  1.00  0.00    -0.205 F 
ATOM     92  C   UNL A   1      41.117  32.547  35.884  1.00  0.00     0.022 A 
BRANCH  90  93
ATOM     93  S   UNL A   1      38.978  33.994  34.943  1.00  0.00     0.127 S 
ATOM     94  O   UNL A   1      37.723  33.246  35.011  1.00  0.00    -0.237 OA
ATOM     95  O   UNL A   1      39.356  34.672  36.184  1.00  0.00    -0.237 OA
ATOM     96  O   UNL A   1      39.161  34.804  33.745  1.00  0.00    -0.744 OA
ENDBRANCH  90  93
ENDBRANCH  63  86
ENDBRANCH  37  38
ENDBRANCH  30  32
ENDBRANCH  29  30
ENDBRANCH  28  29
ENDBRANCH  27  28
ENDBRANCH   1  27
TORSDOF 20
ENDMDL
MODEL 2
REMARK VINA RESULT:     -11.2      1.929      3.474
REMARK SMILES Cc1sc(NC(=O)[C@@H]2[C@@H](C(=O)OCCOCCOC(=O)c3ccc(-c4c5nc(c(-c6cccc(S(=O)(=O)[O-])c6F)c6ccc([nH]6)c(-c6cccc(S(=O)(=O)[O-])c6F)c6nc(c(-c7cccc(S(=O)(=O)[O-])c7F)c7ccc4[nH]7)C=C6)C=C5)cc3)[C@@H]3C=C[C@H]2C3)c(C#N)c1C
REMARK SMILES IDX 15 1 14 2 13 3 12 4 10 5 11 6 9 7 8 8 87 9 84 10 86 11 88 12
REMARK SMILES IDX 85 13 6 14 5 15 7 17 4 18 1 19 2 20 3 21 92 22 89 23 93 24
REMARK SMILES IDX 90 25 91 26 16 27 17 28 18 29 19 30 20 31 21 32 22 33 83 34
REMARK SMILES IDX 23 35 82 36 24 37 25 38 26 39 76 40 27 41 81 42 75 43 77 44
REMARK SMILES IDX 28 45 80 46 74 47 73 48 29 50 61 51 41 52 60 53 42 54 45 55
REMARK SMILES IDX 59 56 78 57 43 58 44 59 58 61 79 62 46 63 30 64 31 65 39 66
REMARK SMILES IDX 32 67 34 68 40 69 33 70 35 71 36 72 37 73 38 74 62 75 63 76
REMARK SMILES IDX 71 77 64 78 66 79 72 80 65 81 67 82 68 83 69 84 70 85 47 86
REMARK SMILES IDX 48 87 56 88 49 89 51 90 57 91 50 92 52 93 53 94 54 95 55 96
REMARK H PARENT 5 16 77 49 45 60
REMARK Flexibility Score: inf
ROOT
ATOM      1  O   UNL A   1      31.964  29.032  25.352  1.00  0.00    -0.374 OA
ENDROOT
BRANCH   1   2
ATOM      2  C   UNL A   1      32.981  29.269  24.379  1.00  0.00     0.202 C 
BRANCH   2   3
ATOM      3  C   UNL A   1      33.907  28.124  23.982  1.00  0.00     0.261 C 
BRANCH   3   4
ATOM      4  O   UNL A   1      33.503  27.453  22.785  1.00  0.00    -0.463 OA
BRANCH   4   5
ATOM      5  C   UNL A   1      33.341  26.110  22.916  1.00  0.00     0.310 C 
ATOM      6  O   UNL A   1      33.867  25.270  22.196  1.00  0.00    -0.252 OA
BRANCH   5   7
ATOM      7  C   UNL A   1      32.429  25.752  24.059  1.00  0.00     0.119 C 
ATOM      8  C   UNL A   1      32.518  24.209  24.360  1.00  0.00     0.100 C 
ATOM      9  C   UNL A   1      31.008  23.857  24.460  1.00  0.00     0.025 C 
ATOM     10  C   UNL A   1      30.913  26.009  23.894  1.00  0.00     0.027 C 
ATOM     11  C   UNL A   1      30.383  24.574  25.624  1.00  0.00    -0.027 C 
ATOM     12  C   UNL A   1      30.415  24.695  23.314  1.00  0.00     0.017 C 
ATOM     13  C   UNL A   1      30.305  25.868  25.282  1.00  0.00    -0.027 C 
BRANCH   8  14
ATOM     14  C   UNL A   1      33.484  24.031  25.532  1.00  0.00     0.229 C 
ATOM     15  N   UNL A   1      34.044  22.867  25.935  1.00  0.00    -0.316 N 
ATOM     16  H   UNL A   1      34.619  22.952  26.731  1.00  0.00     0.170 HD
ATOM     17  O   UNL A   1      33.864  25.020  26.178  1.00  0.00    -0.274 OA
BRANCH  15  18
ATOM     18  C   UNL A   1      33.957  21.594  25.441  1.00  0.00     0.113 A 
ATOM     19  C   UNL A   1      32.499  18.073  25.658  1.00  0.00     0.057 C 
ATOM     20  C   UNL A   1      33.254  19.294  25.252  1.00  0.00     0.008 A 
ATOM     21  S   UNL A   1      32.469  20.815  25.228  1.00  0.00    -0.122 S 
ATOM     22  C   UNL A   1      34.567  19.436  24.824  1.00  0.00    -0.017 A 
ATOM     23  C   UNL A   1      34.968  20.817  24.912  1.00  0.00     0.090 A 
ATOM     24  C   UNL A   1      35.476  18.318  24.436  1.00  0.00     0.047 C 
BRANCH  23  25
ATOM     25  C   UNL A   1      36.279  21.319  24.655  1.00  0.00     0.103 C 
ATOM     26  N   UNL A   1      37.350  21.753  24.473  1.00  0.00    -0.192 NA
ENDBRANCH  23  25
ENDBRANCH  15  18
ENDBRANCH   8  14
ENDBRANCH   5   7
ENDBRANCH   4   5
ENDBRANCH   3   4
ENDBRANCH   2   3
ENDBRANCH   1   2
BRANCH   1  27
ATOM     27  C   UNL A   1      31.959  29.751  26.582  1.00  0.00     0.202 C 
BRANCH  27  28
ATOM     28  C   UNL A   1      32.288  31.233  26.566  1.00  0.00     0.261 C 
BRANCH  28  29
ATOM     29  O   UNL A   1      33.009  31.615  27.725  1.00  0.00    -0.460 OA
BRANCH  29  30
ATOM     30  C   UNL A   1      32.970  32.944  27.967  1.00  0.00     0.338 C 
ATOM     31  O   UNL A   1      32.143  33.746  27.566  1.00  0.00    -0.246 OA
BRANCH  30  32
ATOM     32  C   UNL A   1      34.193  33.319  28.677  1.00  0.00     0.060 A 
ATOM     33  C   UNL A   1      35.202  33.854  27.878  1.00  0.00     0.016 A 
ATOM     34  C   UNL A   1      34.447  32.711  29.914  1.00  0.00     0.016 A 
ATOM     35  C   UNL A   1      36.489  33.466  28.149  1.00  0.00     0.010 A 
ATOM     36  C   UNL A   1      35.730  32.321  30.178  1.00  0.00     0.010 A 
ATOM     37  C   UNL A   1      36.706  32.595  29.225  1.00  0.00    -0.014 A 
BRANCH  37  38
ATOM     38  C   UNL A   1      38.048  32.136  29.489  1.00  0.00     0.031 A 
ATOM     39  C   UNL A   1      38.145  30.709  29.109  1.00  0.00     0.074 A 
ATOM     40  C   UNL A   1      39.032  32.962  29.902  1.00  0.00     0.049 A 
ATOM     41  N   UNL A   1      38.142  29.703  29.919  1.00  0.00    -0.248 NA
ATOM     42  C   UNL A   1      37.880  30.336  27.705  1.00  0.00     0.031 C 
ATOM     43  C   UNL A   1      39.012  34.417  30.078  1.00  0.00     0.029 A 
ATOM     44  N   UNL A   1      40.330  32.670  30.172  1.00  0.00    -0.354 N 
ATOM     45  C   UNL A   1      38.215  28.592  29.088  1.00  0.00     0.074 A 
ATOM     46  C   UNL A   1      37.728  29.014  27.807  1.00  0.00     0.031 C 
ATOM     47  C   UNL A   1      40.286  34.882  30.142  1.00  0.00     0.029 A 
ATOM     48  C   UNL A   1      41.203  33.755  30.130  1.00  0.00     0.049 A 
ATOM     49  H   UNL A   1      40.633  31.758  30.382  1.00  0.00     0.167 HD
ATOM     50  C   UNL A   1      39.041  27.562  29.409  1.00  0.00     0.034 A 
ATOM     51  C   UNL A   1      42.562  33.701  30.020  1.00  0.00     0.034 A 
ATOM     52  C   UNL A   1      39.399  27.608  30.806  1.00  0.00     0.049 A 
ATOM     53  C   UNL A   1      42.969  32.325  30.408  1.00  0.00     0.074 A 
ATOM     54  C   UNL A   1      38.678  27.627  31.986  1.00  0.00     0.029 A 
ATOM     55  N   UNL A   1      40.636  28.127  31.104  1.00  0.00    -0.354 N 
ATOM     56  N   UNL A   1      42.837  31.874  31.624  1.00  0.00    -0.248 NA
ATOM     57  C   UNL A   1      42.996  31.319  29.356  1.00  0.00     0.031 C 
ATOM     58  C   UNL A   1      39.341  28.588  32.804  1.00  0.00     0.029 A 
ATOM     59  C   UNL A   1      40.495  29.010  32.142  1.00  0.00     0.049 A 
ATOM     60  H   UNL A   1      41.479  27.902  30.649  1.00  0.00     0.167 HD
ATOM     61  C   UNL A   1      42.270  30.619  31.454  1.00  0.00     0.074 A 
ATOM     62  C   UNL A   1      42.451  30.302  30.034  1.00  0.00     0.031 C 
ATOM     63  C   UNL A   1      41.405  30.109  32.379  1.00  0.00     0.034 A 
BRANCH  50  64
ATOM     64  C   UNL A   1      39.866  26.809  28.392  1.00  0.00     0.023 A 
ATOM     65  C   UNL A   1      39.822  25.402  28.451  1.00  0.00     0.012 A 
ATOM     66  C   UNL A   1      40.866  27.386  27.570  1.00  0.00     0.148 A 
ATOM     67  C   UNL A   1      40.745  24.615  27.753  1.00  0.00     0.002 A 
ATOM     68  C   UNL A   1      41.723  26.603  26.812  1.00  0.00     0.091 A 
ATOM     69  F   UNL A   1      41.102  28.698  27.609  1.00  0.00    -0.205 F 
ATOM     70  C   UNL A   1      41.688  25.214  26.924  1.00  0.00     0.022 A 
BRANCH  68  71
ATOM     71  S   UNL A   1      42.929  27.332  25.693  1.00  0.00     0.127 S 
ATOM     72  O   UNL A   1      42.084  28.186  24.865  1.00  0.00    -0.237 OA
ATOM     73  O   UNL A   1      43.805  28.039  26.628  1.00  0.00    -0.237 OA
ATOM     74  O   UNL A   1      43.568  26.213  25.010  1.00  0.00    -0.744 OA
ENDBRANCH  68  71
ENDBRANCH  50  64
BRANCH  51  75
ATOM     75  C   UNL A   1      43.503  34.592  29.280  1.00  0.00     0.023 A 
ATOM     76  C   UNL A   1      44.229  35.595  29.965  1.00  0.00     0.012 A 
ATOM     77  C   UNL A   1      43.924  34.261  27.975  1.00  0.00     0.148 A 
ATOM     78  C   UNL A   1      45.345  36.217  29.381  1.00  0.00     0.002 A 
ATOM     79  C   UNL A   1      45.035  34.877  27.400  1.00  0.00     0.091 A 
ATOM     80  F   UNL A   1      43.298  33.270  27.331  1.00  0.00    -0.205 F 
ATOM     81  C   UNL A   1      45.756  35.850  28.103  1.00  0.00     0.022 A 
BRANCH  79  82
ATOM     82  S   UNL A   1      45.646  34.407  25.774  1.00  0.00     0.127 S 
ATOM     83  O   UNL A   1      46.725  35.373  25.566  1.00  0.00    -0.237 OA
ATOM     84  O   UNL A   1      46.088  33.034  26.001  1.00  0.00    -0.237 OA
ATOM     85  O   UNL A   1      44.519  34.563  24.864  1.00  0.00    -0.744 OA
ENDBRANCH  79  82
ENDBRANCH  51  75
BRANCH  63  86
ATOM     86  C   UNL A   1      41.248  30.843  33.688  1.00  0.00     0.023 A 
ATOM     87  C   UNL A   1      42.173  30.761  34.754  1.00  0.00     0.012 A 
ATOM     88  C   UNL A   1      40.201  31.772  33.776  1.00  0.00     0.148 A 
ATOM     89  C   UNL A   1      42.035  31.571  35.887  1.00  0.00     0.002 A 
ATOM     90  C   UNL A   1      40.092  32.604  34.881  1.00  0.00     0.091 A 
ATOM     91  F   UNL A   1      39.339  31.843  32.751  1.00  0.00    -0.205 F 
ATOM     92  C   UNL A   1      40.999  32.501  35.946  1.00  0.00     0.022 A 
BRANCH  90  93
ATOM     93  S   UNL A   1      38.846  33.889  34.948  1.00  0.00     0.127 S 
ATOM     94  O   UNL A   1      39.362  34.861  33.986  1.00  0.00    -0.237 OA
ATOM     95  O   UNL A   1      37.640  33.180  34.518  1.00  0.00    -0.237 OA
ATOM     96  O   UNL A   1      38.807  34.340  36.334  1.00  0.00    -0.744 OA
ENDBRANCH  90  93
ENDBRANCH  63  86
ENDBRANCH  37  38
ENDBRANCH  30  32
ENDBRANCH  29  30
ENDBRANCH  28  29
ENDBRANCH  27  28
ENDBRANCH   1  27
TORSDOF 20
ENDMDL
MODEL 3
REMARK VINA RESULT:     -11.0      2.667      7.483
REMARK SMILES Cc1sc(NC(=O)[C@@H]2[C@@H](C(=O)OCCOCCOC(=O)c3ccc(-c4c5nc(c(-c6cccc(S(=O)(=O)[O-])c6F)c6ccc([nH]6)c(-c6cccc(S(=O)(=O)[O-])c6F)c6nc(c(-c7cccc(S(=O)(=O)[O-])c7F)c7ccc4[nH]7)C=C6)C=C5)cc3)[C@@H]3C=C[C@H]2C3)c(C#N)c1C
REMARK SMILES IDX 15 1 14 2 13 3 12 4 10 5 11 6 9 7 8 8 87 9 84 10 86 11 88 12
REMARK SMILES IDX 85 13 6 14 5 15 7 17 4 18 1 19 2 20 3 21 92 22 89 23 93 24
REMARK SMILES IDX 90 25 91 26 16 27 17 28 18 29 19 30 20 31 21 32 22 33 83 34
REMARK SMILES IDX 23 35 82 36 24 37 25 38 26 39 76 40 27 41 81 42 75 43 77 44
REMARK SMILES IDX 28 45 80 46 74 47 73 48 29 50 61 51 41 52 60 53 42 54 45 55
REMARK SMILES IDX 59 56 78 57 43 58 44 59 58 61 79 62 46 63 30 64 31 65 39 66
REMARK SMILES IDX 32 67 34 68 40 69 33 70 35 71 36 72 37 73 38 74 62 75 63 76
REMARK SMILES IDX 71 77 64 78 66 79 72 80 65 81 67 82 68 83 69 84 70 85 47 86
REMARK SMILES IDX 48 87 56 88 49 89 51 90 57 91 50 92 52 93 53 94 54 95 55 96
REMARK H PARENT 5 16 77 49 45 60
REMARK Flexibility Score: inf
ROOT
ATOM      1  O   UNL A   1      34.871  33.123  29.208  1.00  0.00    -0.374 OA
ENDROOT
BRANCH   1   2
ATOM      2  C   UNL A   1      34.053  32.483  28.230  1.00  0.00     0.202 C 
BRANCH   2   3
ATOM      3  C   UNL A   1      34.491  31.136  27.664  1.00  0.00     0.261 C 
BRANCH   3   4
ATOM      4  O   UNL A   1      33.474  30.480  26.900  1.00  0.00    -0.463 OA
BRANCH   4   5
ATOM      5  C   UNL A   1      33.710  29.165  26.654  1.00  0.00     0.310 C 
ATOM      6  O   UNL A   1      34.588  28.502  27.192  1.00  0.00    -0.252 OA
BRANCH   5   7
ATOM      7  C   UNL A   1      32.766  28.595  25.630  1.00  0.00     0.119 C 
ATOM      8  C   UNL A   1      32.891  27.026  25.592  1.00  0.00     0.100 C 
ATOM      9  C   UNL A   1      32.983  26.791  24.058  1.00  0.00     0.025 C 
ATOM     10  C   UNL A   1      32.946  29.016  24.153  1.00  0.00     0.027 C 
ATOM     11  C   UNL A   1      31.708  27.221  23.389  1.00  0.00    -0.027 C 
ATOM     12  C   UNL A   1      33.891  27.952  23.618  1.00  0.00     0.017 C 
ATOM     13  C   UNL A   1      31.689  28.562  23.425  1.00  0.00    -0.027 C 
BRANCH   8  14
ATOM     14  C   UNL A   1      31.756  26.459  26.444  1.00  0.00     0.229 C 
ATOM     15  N   UNL A   1      31.496  25.149  26.658  1.00  0.00    -0.316 N 
ATOM     16  H   UNL A   1      30.700  24.983  27.215  1.00  0.00     0.170 HD
ATOM     17  O   UNL A   1      31.003  27.227  27.063  1.00  0.00    -0.274 OA
BRANCH  15  18
ATOM     18  C   UNL A   1      32.133  24.012  26.241  1.00  0.00     0.113 A 
ATOM     19  C   UNL A   1      35.284  21.860  26.129  1.00  0.00     0.057 C 
ATOM     20  C   UNL A   1      33.903  22.398  25.955  1.00  0.00     0.008 A 
ATOM     21  S   UNL A   1      33.078  23.079  27.292  1.00  0.00    -0.122 S 
ATOM     22  C   UNL A   1      33.085  22.422  24.834  1.00  0.00    -0.017 A 
ATOM     23  C   UNL A   1      32.013  23.367  25.027  1.00  0.00     0.090 A 
ATOM     24  C   UNL A   1      33.329  21.672  23.568  1.00  0.00     0.047 C 
BRANCH  23  25
ATOM     25  C   UNL A   1      31.041  23.731  24.047  1.00  0.00     0.103 C 
ATOM     26  N   UNL A   1      30.239  23.995  23.239  1.00  0.00    -0.192 NA
ENDBRANCH  23  25
ENDBRANCH  15  18
ENDBRANCH   8  14
ENDBRANCH   5   7
ENDBRANCH   4   5
ENDBRANCH   3   4
ENDBRANCH   2   3
ENDBRANCH   1   2
BRANCH   1  27
ATOM     27  C   UNL A   1      34.754  34.523  29.444  1.00  0.00     0.202 C 
BRANCH  27  28
ATOM     28  C   UNL A   1      33.442  35.069  29.979  1.00  0.00     0.261 C 
BRANCH  28  29
ATOM     29  O   UNL A   1      33.618  35.695  31.238  1.00  0.00    -0.460 OA
BRANCH  29  30
ATOM     30  C   UNL A   1      33.161  34.955  32.273  1.00  0.00     0.338 C 
ATOM     31  O   UNL A   1      32.013  34.879  32.679  1.00  0.00    -0.246 OA
BRANCH  30  32
ATOM     32  C   UNL A   1      34.310  34.359  32.956  1.00  0.00     0.060 A 
ATOM     33  C   UNL A   1      35.337  35.247  33.272  1.00  0.00     0.016 A 
ATOM     34  C   UNL A   1      34.515  32.981  32.816  1.00  0.00     0.016 A 
ATOM     35  C   UNL A   1      36.623  34.804  33.098  1.00  0.00     0.010 A 
ATOM     36  C   UNL A   1      35.797  32.545  32.636  1.00  0.00     0.010 A 
ATOM     37  C   UNL A   1      36.818  33.490  32.653  1.00  0.00    -0.014 A 
BRANCH  37  38
ATOM     38  C   UNL A   1      38.163  33.029  32.414  1.00  0.00     0.031 A 
ATOM     39  C   UNL A   1      38.923  33.100  33.683  1.00  0.00     0.074 A 
ATOM     40  C   UNL A   1      38.559  32.518  31.229  1.00  0.00     0.049 A 
ATOM     41  N   UNL A   1      39.788  34.004  34.003  1.00  0.00    -0.248 NA
ATOM     42  C   UNL A   1      38.444  32.308  34.834  1.00  0.00     0.031 C 
ATOM     43  C   UNL A   1      37.768  32.240  30.026  1.00  0.00     0.029 A 
ATOM     44  N   UNL A   1      39.778  32.039  30.873  1.00  0.00    -0.354 N 
ATOM     45  C   UNL A   1      40.186  33.658  35.288  1.00  0.00     0.074 A 
ATOM     46  C   UNL A   1      39.129  32.858  35.837  1.00  0.00     0.031 C 
ATOM     47  C   UNL A   1      38.460  31.400  29.216  1.00  0.00     0.029 A 
ATOM     48  C   UNL A   1      39.780  31.177  29.779  1.00  0.00     0.049 A 
ATOM     49  H   UNL A   1      40.601  32.283  31.354  1.00  0.00     0.167 HD
ATOM     50  C   UNL A   1      41.502  33.710  35.624  1.00  0.00     0.034 A 
ATOM     51  C   UNL A   1      40.772  30.306  29.432  1.00  0.00     0.034 A 
ATOM     52  C   UNL A   1      42.235  34.537  34.696  1.00  0.00     0.049 A 
ATOM     53  C   UNL A   1      42.002  30.757  30.134  1.00  0.00     0.074 A 
ATOM     54  C   UNL A   1      42.113  35.845  34.265  1.00  0.00     0.029 A 
ATOM     55  N   UNL A   1      42.952  33.879  33.726  1.00  0.00    -0.354 N 
ATOM     56  N   UNL A   1      42.597  31.881  29.848  1.00  0.00    -0.248 NA
ATOM     57  C   UNL A   1      42.228  30.242  31.476  1.00  0.00     0.031 C 
ATOM     58  C   UNL A   1      42.338  35.790  32.859  1.00  0.00     0.029 A 
ATOM     59  C   UNL A   1      42.709  34.487  32.523  1.00  0.00     0.049 A 
ATOM     60  H   UNL A   1      43.541  33.104  33.871  1.00  0.00     0.167 HD
ATOM     61  C   UNL A   1      42.843  32.453  31.089  1.00  0.00     0.074 A 
ATOM     62  C   UNL A   1      42.654  31.370  32.057  1.00  0.00     0.031 C 
ATOM     63  C   UNL A   1      42.829  33.809  31.251  1.00  0.00     0.034 A 
BRANCH  50  64
ATOM     64  C   UNL A   1      42.181  32.676  36.490  1.00  0.00     0.023 A 
ATOM     65  C   UNL A   1      42.981  33.155  37.547  1.00  0.00     0.012 A 
ATOM     66  C   UNL A   1      42.292  31.299  36.175  1.00  0.00     0.148 A 
ATOM     67  C   UNL A   1      43.866  32.313  38.230  1.00  0.00     0.002 A 
ATOM     68  C   UNL A   1      43.105  30.449  36.910  1.00  0.00     0.091 A 
ATOM     69  F   UNL A   1      41.723  30.807  35.073  1.00  0.00    -0.205 F 
ATOM     70  C   UNL A   1      43.920  30.958  37.921  1.00  0.00     0.022 A 
BRANCH  68  71
ATOM     71  S   UNL A   1      43.175  28.683  36.575  1.00  0.00     0.127 S 
ATOM     72  O   UNL A   1      41.764  28.316  36.634  1.00  0.00    -0.237 OA
ATOM     73  O   UNL A   1      43.769  28.662  35.238  1.00  0.00    -0.237 OA
ATOM     74  O   UNL A   1      44.026  28.112  37.612  1.00  0.00    -0.744 OA
ENDBRANCH  68  71
ENDBRANCH  50  64
BRANCH  51  75
ATOM     75  C   UNL A   1      40.689  28.934  28.851  1.00  0.00     0.023 A 
ATOM     76  C   UNL A   1      39.579  28.102  29.133  1.00  0.00     0.012 A 
ATOM     77  C   UNL A   1      41.528  28.558  27.782  1.00  0.00     0.148 A 
ATOM     78  C   UNL A   1      39.306  26.961  28.360  1.00  0.00     0.002 A 
ATOM     79  C   UNL A   1      41.251  27.428  27.014  1.00  0.00     0.091 A 
ATOM     80  F   UNL A   1      42.546  29.361  27.452  1.00  0.00    -0.205 F 
ATOM     81  C   UNL A   1      40.135  26.630  27.293  1.00  0.00     0.022 A 
BRANCH  79  82
ATOM     82  S   UNL A   1      42.255  26.978  25.590  1.00  0.00     0.127 S 
ATOM     83  O   UNL A   1      43.530  26.630  26.216  1.00  0.00    -0.237 OA
ATOM     84  O   UNL A   1      41.512  25.846  25.041  1.00  0.00    -0.237 OA
ATOM     85  O   UNL A   1      42.305  28.165  24.746  1.00  0.00    -0.744 OA
ENDBRANCH  79  82
ENDBRANCH  51  75
BRANCH  63  86
ATOM     86  C   UNL A   1      42.756  34.674  30.016  1.00  0.00     0.023 A 
ATOM     87  C   UNL A   1      41.549  35.013  29.362  1.00  0.00     0.012 A 
ATOM     88  C   UNL A   1      43.944  35.289  29.599  1.00  0.00     0.148 A 
ATOM     89  C   UNL A   1      41.543  35.927  28.301  1.00  0.00     0.002 A 
ATOM     90  C   UNL A   1      43.927  36.227  28.577  1.00  0.00     0.091 A 
ATOM     91  F   UNL A   1      45.078  34.963  30.238  1.00  0.00    -0.205 F 
ATOM     92  C   UNL A   1      42.731  36.542  27.915  1.00  0.00     0.022 A 
BRANCH  90  93
ATOM     93  S   UNL A   1      45.409  37.126  28.124  1.00  0.00     0.127 S 
ATOM     94  O   UNL A   1      45.810  37.711  29.402  1.00  0.00    -0.237 OA
ATOM     95  O   UNL A   1      46.286  36.059  27.636  1.00  0.00    -0.237 OA
ATOM     96  O   UNL A   1      45.005  38.079  27.097  1.00  0.00    -0.744 OA
ENDBRANCH  90  93
ENDBRANCH  63  86
ENDBRANCH  37  38
ENDBRANCH  30  32
ENDBRANCH  29  30
ENDBRANCH  28  29
ENDBRANCH  27  28
ENDBRANCH   1  27
TORSDOF 20
ENDMDL
