MODEL 1
REMARK VINA RESULT:     -11.2      0.000      0.000
REMARK SMILES O=C(OCCOCCOC(=O)[C@H]1CSCN1C(=O)c1occc1-c1ccccc1)c1ccc(-c2c3nc(c(-c4cccc(S(=O)(=O)[O-])c4F)c4ccc([nH]4)c(-c4cccc(S(=O)(=O)[O-])c4F)c4nc(c(-c5cccc(S(=O)(=O)[O-])c5F)c5ccc2[nH]5)C=C4)C=C3)cc1
REMARK SMILES IDX 6 1 5 2 4 3 3 4 2 5 1 6 30 7 31 8 92 9 32 10 91 11 33 12
REMARK SMILES IDX 34 13 35 14 85 15 36 16 90 17 84 18 86 19 37 20 89 21 83 22
REMARK SMILES IDX 82 23 38 25 70 26 50 27 69 28 51 29 54 30 68 31 87 32 52 33
REMARK SMILES IDX 53 34 67 36 88 37 55 38 39 39 40 40 48 41 41 42 43 43 49 44
REMARK SMILES IDX 42 45 44 46 45 47 46 48 47 49 71 50 72 51 80 52 73 53 75 54
REMARK SMILES IDX 81 55 74 56 76 57 77 58 78 59 79 60 56 61 57 62 65 63 58 64
REMARK SMILES IDX 60 65 66 66 59 67 61 68 62 69 63 70 64 71 7 72 8 73 9 74
REMARK SMILES IDX 10 75 11 76 12 77 13 78 16 79 14 80 15 81 17 82 18 83 19 84
REMARK SMILES IDX 20 85 23 86 21 87 22 88 24 89 25 90 29 91 26 92 28 93 27 94
REMARK H PARENT 86 24 54 35
REMARK Flexibility Score: inf
ROOT
ATOM      1  O   UNL A   1      35.556  22.052  25.982  1.00  0.00    -0.374 OA
ENDROOT
BRANCH   1   2
ATOM      2  C   UNL A   1      36.164  21.901  24.703  1.00  0.00     0.202 C 
BRANCH   2   3
ATOM      3  C   UNL A   1      37.343  20.927  24.642  1.00  0.00     0.261 C 
BRANCH   3   4
ATOM      4  O   UNL A   1      37.964  20.808  25.930  1.00  0.00    -0.460 OA
BRANCH   4   5
ATOM      5  C   UNL A   1      39.284  20.957  26.204  1.00  0.00     0.338 C 
ATOM      6  O   UNL A   1      40.021  19.977  26.128  1.00  0.00    -0.246 OA
BRANCH   5   7
ATOM      7  C   UNL A   1      39.889  22.274  26.566  1.00  0.00     0.060 A 
ATOM      8  C   UNL A   1      39.414  23.501  26.108  1.00  0.00     0.016 A 
ATOM      9  C   UNL A   1      40.949  22.285  27.485  1.00  0.00     0.016 A 
ATOM     10  C   UNL A   1      39.976  24.698  26.483  1.00  0.00     0.010 A 
ATOM     11  C   UNL A   1      41.496  23.497  27.918  1.00  0.00     0.010 A 
ATOM     12  C   UNL A   1      41.001  24.704  27.412  1.00  0.00    -0.014 A 
BRANCH  12  13
ATOM     13  C   UNL A   1      41.562  26.019  27.736  1.00  0.00     0.031 A 
ATOM     14  C   UNL A   1      42.902  26.364  27.184  1.00  0.00     0.074 A 
ATOM     15  C   UNL A   1      40.780  26.918  28.364  1.00  0.00     0.049 A 
ATOM     16  N   UNL A   1      43.614  27.437  27.371  1.00  0.00    -0.248 NA
ATOM     17  C   UNL A   1      43.520  25.373  26.283  1.00  0.00     0.031 C 
ATOM     18  C   UNL A   1      39.396  26.680  28.795  1.00  0.00     0.029 A 
ATOM     19  N   UNL A   1      41.020  28.213  28.723  1.00  0.00    -0.354 N 
ATOM     20  C   UNL A   1      44.790  27.226  26.667  1.00  0.00     0.074 A 
ATOM     21  C   UNL A   1      44.692  25.934  26.029  1.00  0.00     0.031 C 
ATOM     22  C   UNL A   1      38.913  27.796  29.361  1.00  0.00     0.029 A 
ATOM     23  C   UNL A   1      39.975  28.790  29.408  1.00  0.00     0.049 A 
ATOM     24  H   UNL A   1      41.856  28.687  28.514  1.00  0.00     0.167 HD
ATOM     25  C   UNL A   1      45.858  28.049  26.580  1.00  0.00     0.034 A 
ATOM     26  C   UNL A   1      39.919  29.971  30.048  1.00  0.00     0.034 A 
ATOM     27  C   UNL A   1      45.901  29.329  27.228  1.00  0.00     0.049 A 
ATOM     28  C   UNL A   1      41.153  30.830  30.003  1.00  0.00     0.074 A 
ATOM     29  C   UNL A   1      46.939  30.237  27.285  1.00  0.00     0.029 A 
ATOM     30  N   UNL A   1      44.841  29.879  27.940  1.00  0.00    -0.354 N 
ATOM     31  N   UNL A   1      42.282  30.617  29.365  1.00  0.00    -0.248 NA
ATOM     32  C   UNL A   1      41.111  32.090  30.751  1.00  0.00     0.031 C 
ATOM     33  C   UNL A   1      46.515  31.325  28.054  1.00  0.00     0.029 A 
ATOM     34  C   UNL A   1      45.199  31.115  28.442  1.00  0.00     0.049 A 
ATOM     35  H   UNL A   1      43.964  29.451  28.066  1.00  0.00     0.167 HD
ATOM     36  C   UNL A   1      43.075  31.727  29.610  1.00  0.00     0.074 A 
ATOM     37  C   UNL A   1      42.283  32.622  30.435  1.00  0.00     0.031 C 
ATOM     38  C   UNL A   1      44.346  31.986  29.215  1.00  0.00     0.034 A 
BRANCH  25  39
ATOM     39  C   UNL A   1      47.047  27.550  25.809  1.00  0.00     0.023 A 
ATOM     40  C   UNL A   1      48.067  26.830  26.465  1.00  0.00     0.012 A 
ATOM     41  C   UNL A   1      47.171  27.830  24.436  1.00  0.00     0.148 A 
ATOM     42  C   UNL A   1      49.211  26.432  25.773  1.00  0.00     0.002 A 
ATOM     43  C   UNL A   1      48.294  27.393  23.742  1.00  0.00     0.091 A 
ATOM     44  F   UNL A   1      46.206  28.544  23.840  1.00  0.00    -0.205 F 
ATOM     45  C   UNL A   1      49.320  26.707  24.412  1.00  0.00     0.022 A 
BRANCH  43  46
ATOM     46  S   UNL A   1      48.504  27.647  21.977  1.00  0.00     0.127 S 
ATOM     47  O   UNL A   1      47.253  28.317  21.624  1.00  0.00    -0.237 OA
ATOM     48  O   UNL A   1      49.689  28.504  21.934  1.00  0.00    -0.237 OA
ATOM     49  O   UNL A   1      48.685  26.325  21.396  1.00  0.00    -0.744 OA
ENDBRANCH  43  46
ENDBRANCH  25  39
BRANCH  26  50
ATOM     50  C   UNL A   1      38.698  30.379  30.801  1.00  0.00     0.023 A 
ATOM     51  C   UNL A   1      38.533  29.981  32.141  1.00  0.00     0.012 A 
ATOM     52  C   UNL A   1      37.693  31.160  30.194  1.00  0.00     0.148 A 
ATOM     53  C   UNL A   1      37.377  30.317  32.848  1.00  0.00     0.002 A 
ATOM     54  C   UNL A   1      36.571  31.543  30.921  1.00  0.00     0.091 A 
ATOM     55  F   UNL A   1      37.852  31.519  28.912  1.00  0.00    -0.205 F 
ATOM     56  C   UNL A   1      36.401  31.104  32.242  1.00  0.00     0.022 A 
BRANCH  54  57
ATOM     57  S   UNL A   1      35.329  32.657  30.256  1.00  0.00     0.127 S 
ATOM     58  O   UNL A   1      36.130  33.831  29.921  1.00  0.00    -0.237 OA
ATOM     59  O   UNL A   1      34.829  31.903  29.105  1.00  0.00    -0.237 OA
ATOM     60  O   UNL A   1      34.353  32.837  31.322  1.00  0.00    -0.744 OA
ENDBRANCH  54  57
ENDBRANCH  26  50
BRANCH  38  61
ATOM     61  C   UNL A   1      44.928  33.307  29.627  1.00  0.00     0.023 A 
ATOM     62  C   UNL A   1      45.676  33.408  30.815  1.00  0.00     0.012 A 
ATOM     63  C   UNL A   1      44.797  34.427  28.784  1.00  0.00     0.148 A 
ATOM     64  C   UNL A   1      46.261  34.619  31.176  1.00  0.00     0.002 A 
ATOM     65  C   UNL A   1      45.431  35.613  29.120  1.00  0.00     0.091 A 
ATOM     66  F   UNL A   1      44.061  34.307  27.670  1.00  0.00    -0.205 F 
ATOM     67  C   UNL A   1      46.151  35.715  30.322  1.00  0.00     0.022 A 
BRANCH  65  68
ATOM     68  S   UNL A   1      45.438  37.036  28.028  1.00  0.00     0.127 S 
ATOM     69  O   UNL A   1      46.476  37.870  28.633  1.00  0.00    -0.237 OA
ATOM     70  O   UNL A   1      45.805  36.438  26.744  1.00  0.00    -0.237 OA
ATOM     71  O   UNL A   1      44.090  37.585  28.074  1.00  0.00    -0.744 OA
ENDBRANCH  65  68
ENDBRANCH  38  61
ENDBRANCH  12  13
ENDBRANCH   5   7
ENDBRANCH   4   5
ENDBRANCH   3   4
ENDBRANCH   2   3
ENDBRANCH   1   2
BRANCH   1  72
ATOM     72  C   UNL A   1      34.543  21.117  26.329  1.00  0.00     0.202 C 
BRANCH  72  73
ATOM     73  C   UNL A   1      33.328  21.900  26.822  1.00  0.00     0.261 C 
BRANCH  73  74
ATOM     74  O   UNL A   1      32.975  22.858  25.804  1.00  0.00    -0.462 OA
BRANCH  74  75
ATOM     75  C   UNL A   1      32.255  23.951  26.224  1.00  0.00     0.329 C 
ATOM     76  O   UNL A   1      31.594  24.013  27.251  1.00  0.00    -0.250 OA
BRANCH  75  77
ATOM     77  C   UNL A   1      32.444  25.075  25.198  1.00  0.00     0.206 C 
ATOM     78  C   UNL A   1      33.719  24.800  24.411  1.00  0.00     0.108 C 
ATOM     79  N   UNL A   1      31.304  25.290  24.281  1.00  0.00    -0.312 N 
ATOM     80  S   UNL A   1      33.178  24.259  22.778  1.00  0.00    -0.138 SA
ATOM     81  C   UNL A   1      31.638  25.171  22.887  1.00  0.00     0.191 C 
BRANCH  79  82
ATOM     82  C   UNL A   1      30.229  26.097  24.650  1.00  0.00     0.291 C 
ATOM     83  O   UNL A   1      29.423  25.676  25.483  1.00  0.00    -0.265 OA
BRANCH  82  84
ATOM     84  C   UNL A   1      30.134  27.448  24.110  1.00  0.00     0.199 A 
ATOM     85  O   UNL A   1      29.179  27.641  23.136  1.00  0.00    -0.459 OA
ATOM     86  C   UNL A   1      30.814  28.648  24.299  1.00  0.00     0.033 A 
ATOM     87  C   UNL A   1      29.234  28.937  22.743  1.00  0.00     0.196 A 
ATOM     88  C   UNL A   1      30.208  29.606  23.439  1.00  0.00     0.051 A 
BRANCH  86  89
ATOM     89  C   UNL A   1      31.951  28.858  25.170  1.00  0.00    -0.014 A 
ATOM     90  C   UNL A   1      31.778  29.526  26.390  1.00  0.00     0.009 A 
ATOM     91  C   UNL A   1      33.229  28.442  24.788  1.00  0.00     0.009 A 
ATOM     92  C   UNL A   1      32.861  29.718  27.248  1.00  0.00     0.001 A 
ATOM     93  C   UNL A   1      34.316  28.659  25.637  1.00  0.00     0.001 A 
ATOM     94  C   UNL A   1      34.130  29.284  26.870  1.00  0.00     0.000 A 
ENDBRANCH  86  89
ENDBRANCH  82  84
ENDBRANCH  79  82
ENDBRANCH  75  77
ENDBRANCH  74  75
ENDBRANCH  73  74
ENDBRANCH  72  73
ENDBRANCH   1  72
TORSDOF 20
ENDMDL
MODEL 2
REMARK VINA RESULT:     -11.1      1.411      7.749
REMARK SMILES O=C(OCCOCCOC(=O)[C@H]1CSCN1C(=O)c1occc1-c1ccccc1)c1ccc(-c2c3nc(c(-c4cccc(S(=O)(=O)[O-])c4F)c4ccc([nH]4)c(-c4cccc(S(=O)(=O)[O-])c4F)c4nc(c(-c5cccc(S(=O)(=O)[O-])c5F)c5ccc2[nH]5)C=C4)C=C3)cc1
REMARK SMILES IDX 6 1 5 2 4 3 3 4 2 5 1 6 30 7 31 8 92 9 32 10 91 11 33 12
REMARK SMILES IDX 34 13 35 14 85 15 36 16 90 17 84 18 86 19 37 20 89 21 83 22
REMARK SMILES IDX 82 23 38 25 70 26 50 27 69 28 51 29 54 30 68 31 87 32 52 33
REMARK SMILES IDX 53 34 67 36 88 37 55 38 39 39 40 40 48 41 41 42 43 43 49 44
REMARK SMILES IDX 42 45 44 46 45 47 46 48 47 49 71 50 72 51 80 52 73 53 75 54
REMARK SMILES IDX 81 55 74 56 76 57 77 58 78 59 79 60 56 61 57 62 65 63 58 64
REMARK SMILES IDX 60 65 66 66 59 67 61 68 62 69 63 70 64 71 7 72 8 73 9 74
REMARK SMILES IDX 10 75 11 76 12 77 13 78 16 79 14 80 15 81 17 82 18 83 19 84
REMARK SMILES IDX 20 85 23 86 21 87 22 88 24 89 25 90 29 91 26 92 28 93 27 94
REMARK H PARENT 86 24 54 35
REMARK Flexibility Score: inf
ROOT
ATOM      1  O   UNL A   1      35.317  21.253  26.139  1.00  0.00    -0.374 OA
ENDROOT
BRANCH   1   2
ATOM      2  C   UNL A   1      35.863  20.522  25.045  1.00  0.00     0.202 C 
BRANCH   2   3
ATOM      3  C   UNL A   1      37.386  20.576  24.908  1.00  0.00     0.261 C 
BRANCH   3   4
ATOM      4  O   UNL A   1      37.930  21.610  25.741  1.00  0.00    -0.460 OA
BRANCH   4   5
ATOM      5  C   UNL A   1      39.179  21.644  26.270  1.00  0.00     0.338 C 
ATOM      6  O   UNL A   1      39.785  20.587  26.428  1.00  0.00    -0.246 OA
BRANCH   5   7
ATOM      7  C   UNL A   1      39.862  22.918  26.643  1.00  0.00     0.060 A 
ATOM      8  C   UNL A   1      39.563  24.157  26.078  1.00  0.00     0.016 A 
ATOM      9  C   UNL A   1      40.806  22.884  27.679  1.00  0.00     0.016 A 
ATOM     10  C   UNL A   1      40.192  25.316  26.463  1.00  0.00     0.010 A 
ATOM     11  C   UNL A   1      41.415  24.064  28.121  1.00  0.00     0.010 A 
ATOM     12  C   UNL A   1      41.100  25.281  27.506  1.00  0.00    -0.014 A 
BRANCH  12  13
ATOM     13  C   UNL A   1      41.744  26.555  27.836  1.00  0.00     0.031 A 
ATOM     14  C   UNL A   1      40.970  27.544  28.639  1.00  0.00     0.074 A 
ATOM     15  C   UNL A   1      43.052  26.708  27.559  1.00  0.00     0.049 A 
ATOM     16  N   UNL A   1      41.310  28.745  29.008  1.00  0.00    -0.248 NA
ATOM     17  C   UNL A   1      39.637  27.118  29.104  1.00  0.00     0.031 C 
ATOM     18  C   UNL A   1      43.902  25.703  26.905  1.00  0.00     0.029 A 
ATOM     19  N   UNL A   1      43.904  27.746  27.810  1.00  0.00    -0.354 N 
ATOM     20  C   UNL A   1      40.212  29.245  29.692  1.00  0.00     0.074 A 
ATOM     21  C   UNL A   1      39.201  28.212  29.709  1.00  0.00     0.031 C 
ATOM     22  C   UNL A   1      45.153  26.178  26.810  1.00  0.00     0.029 A 
ATOM     23  C   UNL A   1      45.171  27.543  27.314  1.00  0.00     0.049 A 
ATOM     24  H   UNL A   1      43.638  28.558  28.298  1.00  0.00     0.167 HD
ATOM     25  C   UNL A   1      40.072  30.468  30.245  1.00  0.00     0.034 A 
ATOM     26  C   UNL A   1      46.205  28.399  27.230  1.00  0.00     0.034 A 
ATOM     27  C   UNL A   1      41.113  31.457  30.208  1.00  0.00     0.049 A 
ATOM     28  C   UNL A   1      45.991  29.782  27.780  1.00  0.00     0.074 A 
ATOM     29  C   UNL A   1      41.087  32.759  30.664  1.00  0.00     0.029 A 
ATOM     30  N   UNL A   1      42.377  31.237  29.674  1.00  0.00    -0.354 N 
ATOM     31  N   UNL A   1      44.939  30.269  28.399  1.00  0.00    -0.248 NA
ATOM     32  C   UNL A   1      47.098  30.732  27.635  1.00  0.00     0.031 C 
ATOM     33  C   UNL A   1      42.330  33.336  30.381  1.00  0.00     0.029 A 
ATOM     34  C   UNL A   1      43.143  32.380  29.787  1.00  0.00     0.049 A 
ATOM     35  H   UNL A   1      42.682  30.391  29.275  1.00  0.00     0.167 HD
ATOM     36  C   UNL A   1      45.266  31.572  28.741  1.00  0.00     0.074 A 
ATOM     37  C   UNL A   1      46.627  31.787  28.283  1.00  0.00     0.031 C 
ATOM     38  C   UNL A   1      44.514  32.518  29.358  1.00  0.00     0.034 A 
BRANCH  25  39
ATOM     39  C   UNL A   1      38.744  30.791  30.869  1.00  0.00     0.023 A 
ATOM     40  C   UNL A   1      38.476  30.420  32.203  1.00  0.00     0.012 A 
ATOM     41  C   UNL A   1      37.742  31.432  30.115  1.00  0.00     0.148 A 
ATOM     42  C   UNL A   1      37.218  30.646  32.762  1.00  0.00     0.002 A 
ATOM     43  C   UNL A   1      36.506  31.693  30.693  1.00  0.00     0.091 A 
ATOM     44  F   UNL A   1      38.007  31.746  28.840  1.00  0.00    -0.205 F 
ATOM     45  C   UNL A   1      36.238  31.288  32.011  1.00  0.00     0.022 A 
BRANCH  43  46
ATOM     46  S   UNL A   1      35.195  32.564  29.828  1.00  0.00     0.127 S 
ATOM     47  O   UNL A   1      34.818  31.590  28.805  1.00  0.00    -0.237 OA
ATOM     48  O   UNL A   1      34.205  32.750  30.889  1.00  0.00    -0.237 OA
ATOM     49  O   UNL A   1      35.790  33.794  29.325  1.00  0.00    -0.744 OA
ENDBRANCH  43  46
ENDBRANCH  25  39
BRANCH  26  50
ATOM     50  C   UNL A   1      47.484  27.995  26.580  1.00  0.00     0.023 A 
ATOM     51  C   UNL A   1      48.608  27.688  27.371  1.00  0.00     0.012 A 
ATOM     52  C   UNL A   1      47.597  27.914  25.177  1.00  0.00     0.148 A 
ATOM     53  C   UNL A   1      49.826  27.349  26.778  1.00  0.00     0.002 A 
ATOM     54  C   UNL A   1      48.796  27.517  24.593  1.00  0.00     0.091 A 
ATOM     55  F   UNL A   1      46.526  28.225  24.432  1.00  0.00    -0.205 F 
ATOM     56  C   UNL A   1      49.918  27.255  25.392  1.00  0.00     0.022 A 
BRANCH  54  57
ATOM     57  S   UNL A   1      48.962  27.252  22.824  1.00  0.00     0.127 S 
ATOM     58  O   UNL A   1      48.295  28.432  22.281  1.00  0.00    -0.237 OA
ATOM     59  O   UNL A   1      50.416  27.233  22.655  1.00  0.00    -0.237 OA
ATOM     60  O   UNL A   1      48.313  25.976  22.557  1.00  0.00    -0.744 OA
ENDBRANCH  54  57
ENDBRANCH  26  50
BRANCH  38  61
ATOM     61  C   UNL A   1      45.171  33.844  29.614  1.00  0.00     0.023 A 
ATOM     62  C   UNL A   1      45.876  34.061  30.813  1.00  0.00     0.012 A 
ATOM     63  C   UNL A   1      45.153  34.841  28.621  1.00  0.00     0.148 A 
ATOM     64  C   UNL A   1      46.530  35.271  31.033  1.00  0.00     0.002 A 
ATOM     65  C   UNL A   1      45.855  36.019  28.823  1.00  0.00     0.091 A 
ATOM     66  F   UNL A   1      44.455  34.615  27.498  1.00  0.00    -0.205 F 
ATOM     67  C   UNL A   1      46.532  36.242  30.034  1.00  0.00     0.022 A 
BRANCH  65  68
ATOM     68  S   UNL A   1      46.006  37.272  27.548  1.00  0.00     0.127 S 
ATOM     69  O   UNL A   1      44.643  37.800  27.487  1.00  0.00    -0.237 OA
ATOM     70  O   UNL A   1      46.990  38.185  28.128  1.00  0.00    -0.237 OA
ATOM     71  O   UNL A   1      46.459  36.576  26.351  1.00  0.00    -0.744 OA
ENDBRANCH  65  68
ENDBRANCH  38  61
ENDBRANCH  12  13
ENDBRANCH   5   7
ENDBRANCH   4   5
ENDBRANCH   3   4
ENDBRANCH   2   3
ENDBRANCH   1   2
BRANCH   1  72
ATOM     72  C   UNL A   1      34.332  22.231  25.834  1.00  0.00     0.202 C 
BRANCH  72  73
ATOM     73  C   UNL A   1      35.053  23.522  25.453  1.00  0.00     0.261 C 
BRANCH  73  74
ATOM     74  O   UNL A   1      34.323  24.136  24.371  1.00  0.00    -0.462 OA
BRANCH  74  75
ATOM     75  C   UNL A   1      34.488  23.570  23.131  1.00  0.00     0.329 C 
ATOM     76  O   UNL A   1      35.545  23.156  22.674  1.00  0.00    -0.250 OA
BRANCH  75  77
ATOM     77  C   UNL A   1      33.122  23.528  22.434  1.00  0.00     0.206 C 
ATOM     78  C   UNL A   1      32.456  22.197  22.762  1.00  0.00     0.108 C 
ATOM     79  N   UNL A   1      32.218  24.654  22.751  1.00  0.00    -0.312 N 
ATOM     80  S   UNL A   1      31.141  22.586  23.934  1.00  0.00    -0.138 SA
ATOM     81  C   UNL A   1      30.952  24.256  23.306  1.00  0.00     0.191 C 
BRANCH  79  82
ATOM     82  C   UNL A   1      32.298  25.856  22.051  1.00  0.00     0.291 C 
ATOM     83  O   UNL A   1      32.045  25.864  20.843  1.00  0.00    -0.265 OA
BRANCH  82  84
ATOM     84  C   UNL A   1      32.592  27.086  22.777  1.00  0.00     0.199 A 
ATOM     85  O   UNL A   1      33.893  27.238  23.202  1.00  0.00    -0.459 OA
ATOM     86  C   UNL A   1      31.858  28.186  23.212  1.00  0.00     0.033 A 
ATOM     87  C   UNL A   1      33.985  28.418  23.862  1.00  0.00     0.196 A 
ATOM     88  C   UNL A   1      32.769  29.051  23.881  1.00  0.00     0.051 A 
BRANCH  86  89
ATOM     89  C   UNL A   1      30.432  28.380  23.052  1.00  0.00    -0.014 A 
ATOM     90  C   UNL A   1      29.958  29.477  22.320  1.00  0.00     0.009 A 
ATOM     91  C   UNL A   1      29.522  27.511  23.659  1.00  0.00     0.009 A 
ATOM     92  C   UNL A   1      28.587  29.666  22.143  1.00  0.00     0.001 A 
ATOM     93  C   UNL A   1      28.150  27.717  23.501  1.00  0.00     0.001 A 
ATOM     94  C   UNL A   1      27.684  28.785  22.733  1.00  0.00     0.000 A 
ENDBRANCH  86  89
ENDBRANCH  82  84
ENDBRANCH  79  82
ENDBRANCH  75  77
ENDBRANCH  74  75
ENDBRANCH  73  74
ENDBRANCH  72  73
ENDBRANCH   1  72
TORSDOF 20
ENDMDL
MODEL 3
REMARK VINA RESULT:     -10.9      0.638      7.474
REMARK SMILES O=C(OCCOCCOC(=O)[C@H]1CSCN1C(=O)c1occc1-c1ccccc1)c1ccc(-c2c3nc(c(-c4cccc(S(=O)(=O)[O-])c4F)c4ccc([nH]4)c(-c4cccc(S(=O)(=O)[O-])c4F)c4nc(c(-c5cccc(S(=O)(=O)[O-])c5F)c5ccc2[nH]5)C=C4)C=C3)cc1
REMARK SMILES IDX 6 1 5 2 4 3 3 4 2 5 1 6 30 7 31 8 92 9 32 10 91 11 33 12
REMARK SMILES IDX 34 13 35 14 85 15 36 16 90 17 84 18 86 19 37 20 89 21 83 22
REMARK SMILES IDX 82 23 38 25 70 26 50 27 69 28 51 29 54 30 68 31 87 32 52 33
REMARK SMILES IDX 53 34 67 36 88 37 55 38 39 39 40 40 48 41 41 42 43 43 49 44
REMARK SMILES IDX 42 45 44 46 45 47 46 48 47 49 71 50 72 51 80 52 73 53 75 54
REMARK SMILES IDX 81 55 74 56 76 57 77 58 78 59 79 60 56 61 57 62 65 63 58 64
REMARK SMILES IDX 60 65 66 66 59 67 61 68 62 69 63 70 64 71 7 72 8 73 9 74
REMARK SMILES IDX 10 75 11 76 12 77 13 78 16 79 14 80 15 81 17 82 18 83 19 84
REMARK SMILES IDX 20 85 23 86 21 87 22 88 24 89 25 90 29 91 26 92 28 93 27 94
REMARK H PARENT 86 24 54 35
REMARK Flexibility Score: inf
ROOT
ATOM      1  O   UNL A   1      35.567  22.862  26.061  1.00  0.00    -0.374 OA
ENDROOT
BRANCH   1   2
ATOM      2  C   UNL A   1      36.061  22.574  24.756  1.00  0.00     0.202 C 
BRANCH   2   3
ATOM      3  C   UNL A   1      37.159  21.511  24.684  1.00  0.00     0.261 C 
BRANCH   3   4
ATOM      4  O   UNL A   1      37.780  21.340  25.967  1.00  0.00    -0.460 OA
BRANCH   4   5
ATOM      5  C   UNL A   1      39.108  21.416  26.235  1.00  0.00     0.338 C 
ATOM      6  O   UNL A   1      39.789  20.397  26.152  1.00  0.00    -0.246 OA
BRANCH   5   7
ATOM      7  C   UNL A   1      39.785  22.696  26.599  1.00  0.00     0.060 A 
ATOM      8  C   UNL A   1      39.457  23.935  26.051  1.00  0.00     0.016 A 
ATOM      9  C   UNL A   1      40.756  22.666  27.611  1.00  0.00     0.016 A 
ATOM     10  C   UNL A   1      40.081  25.099  26.429  1.00  0.00     0.010 A 
ATOM     11  C   UNL A   1      41.361  23.850  28.045  1.00  0.00     0.010 A 
ATOM     12  C   UNL A   1      41.015  25.068  27.448  1.00  0.00    -0.014 A 
BRANCH  12  13
ATOM     13  C   UNL A   1      41.653  26.347  27.771  1.00  0.00     0.031 A 
ATOM     14  C   UNL A   1      40.877  27.333  28.576  1.00  0.00     0.074 A 
ATOM     15  C   UNL A   1      42.958  26.510  27.484  1.00  0.00     0.049 A 
ATOM     16  N   UNL A   1      41.209  28.537  28.939  1.00  0.00    -0.248 NA
ATOM     17  C   UNL A   1      39.550  26.898  29.050  1.00  0.00     0.031 C 
ATOM     18  C   UNL A   1      43.811  25.509  26.828  1.00  0.00     0.029 A 
ATOM     19  N   UNL A   1      43.804  27.554  27.728  1.00  0.00    -0.354 N 
ATOM     20  C   UNL A   1      40.112  29.030  29.629  1.00  0.00     0.074 A 
ATOM     21  C   UNL A   1      39.110  27.991  29.655  1.00  0.00     0.031 C 
ATOM     22  C   UNL A   1      45.058  25.992  26.724  1.00  0.00     0.029 A 
ATOM     23  C   UNL A   1      45.068  27.359  27.224  1.00  0.00     0.049 A 
ATOM     24  H   UNL A   1      43.534  28.365  28.215  1.00  0.00     0.167 HD
ATOM     25  C   UNL A   1      39.967  30.254  30.181  1.00  0.00     0.034 A 
ATOM     26  C   UNL A   1      46.096  28.223  27.131  1.00  0.00     0.034 A 
ATOM     27  C   UNL A   1      41.000  31.250  30.134  1.00  0.00     0.049 A 
ATOM     28  C   UNL A   1      45.875  29.606  27.680  1.00  0.00     0.074 A 
ATOM     29  C   UNL A   1      40.968  32.553  30.587  1.00  0.00     0.029 A 
ATOM     30  N   UNL A   1      42.263  31.039  29.593  1.00  0.00    -0.354 N 
ATOM     31  N   UNL A   1      44.823  30.086  28.304  1.00  0.00    -0.248 NA
ATOM     32  C   UNL A   1      46.974  30.563  27.525  1.00  0.00     0.031 C 
ATOM     33  C   UNL A   1      42.205  33.138  30.295  1.00  0.00     0.029 A 
ATOM     34  C   UNL A   1      43.021  32.188  29.698  1.00  0.00     0.049 A 
ATOM     35  H   UNL A   1      42.571  30.193  29.194  1.00  0.00     0.167 HD
ATOM     36  C   UNL A   1      45.143  31.392  28.641  1.00  0.00     0.074 A 
ATOM     37  C   UNL A   1      46.499  31.616  28.173  1.00  0.00     0.031 C 
ATOM     38  C   UNL A   1      44.388  32.334  29.260  1.00  0.00     0.034 A 
BRANCH  25  39
ATOM     39  C   UNL A   1      38.641  30.569  30.812  1.00  0.00     0.023 A 
ATOM     40  C   UNL A   1      38.345  30.107  32.111  1.00  0.00     0.012 A 
ATOM     41  C   UNL A   1      37.668  31.294  30.098  1.00  0.00     0.148 A 
ATOM     42  C   UNL A   1      37.087  30.328  32.672  1.00  0.00     0.002 A 
ATOM     43  C   UNL A   1      36.432  31.548  30.680  1.00  0.00     0.091 A 
ATOM     44  F   UNL A   1      37.959  31.695  28.853  1.00  0.00    -0.205 F 
ATOM     45  C   UNL A   1      36.135  31.053  31.961  1.00  0.00     0.022 A 
BRANCH  43  46
ATOM     46  S   UNL A   1      35.159  32.520  29.869  1.00  0.00     0.127 S 
ATOM     47  O   UNL A   1      34.744  31.623  28.791  1.00  0.00    -0.237 OA
ATOM     48  O   UNL A   1      34.175  32.684  30.940  1.00  0.00    -0.237 OA
ATOM     49  O   UNL A   1      35.803  33.752  29.437  1.00  0.00    -0.744 OA
ENDBRANCH  43  46
ENDBRANCH  25  39
BRANCH  26  50
ATOM     50  C   UNL A   1      47.374  27.826  26.474  1.00  0.00     0.023 A 
ATOM     51  C   UNL A   1      48.471  27.421  27.258  1.00  0.00     0.012 A 
ATOM     52  C   UNL A   1      47.512  27.850  25.071  1.00  0.00     0.148 A 
ATOM     53  C   UNL A   1      49.688  27.087  26.662  1.00  0.00     0.002 A 
ATOM     54  C   UNL A   1      48.708  27.458  24.479  1.00  0.00     0.091 A 
ATOM     55  F   UNL A   1      46.467  28.254  24.334  1.00  0.00    -0.205 F 
ATOM     56  C   UNL A   1      49.805  27.097  25.275  1.00  0.00     0.022 A 
BRANCH  54  57
ATOM     57  S   UNL A   1      48.901  27.325  22.698  1.00  0.00     0.127 S 
ATOM     58  O   UNL A   1      48.352  25.997  22.438  1.00  0.00    -0.237 OA
ATOM     59  O   UNL A   1      48.079  28.437  22.219  1.00  0.00    -0.237 OA
ATOM     60  O   UNL A   1      50.327  27.483  22.446  1.00  0.00    -0.744 OA
ENDBRANCH  54  57
ENDBRANCH  26  50
BRANCH  38  61
ATOM     61  C   UNL A   1      45.037  33.665  29.509  1.00  0.00     0.023 A 
ATOM     62  C   UNL A   1      45.757  33.888  30.698  1.00  0.00     0.012 A 
ATOM     63  C   UNL A   1      44.996  34.664  28.517  1.00  0.00     0.148 A 
ATOM     64  C   UNL A   1      46.403  35.103  30.910  1.00  0.00     0.002 A 
ATOM     65  C   UNL A   1      45.690  35.848  28.711  1.00  0.00     0.091 A 
ATOM     66  F   UNL A   1      44.284  34.433  27.404  1.00  0.00    -0.205 F 
ATOM     67  C   UNL A   1      46.382  36.075  29.912  1.00  0.00     0.022 A 
BRANCH  65  68
ATOM     68  S   UNL A   1      45.812  37.104  27.436  1.00  0.00     0.127 S 
ATOM     69  O   UNL A   1      44.420  37.530  27.303  1.00  0.00    -0.237 OA
ATOM     70  O   UNL A   1      46.697  38.089  28.056  1.00  0.00    -0.237 OA
ATOM     71  O   UNL A   1      46.374  36.438  26.268  1.00  0.00    -0.744 OA
ENDBRANCH  65  68
ENDBRANCH  38  61
ENDBRANCH  12  13
ENDBRANCH   5   7
ENDBRANCH   4   5
ENDBRANCH   3   4
ENDBRANCH   2   3
ENDBRANCH   1   2
BRANCH   1  72
ATOM     72  C   UNL A   1      34.470  22.084  26.521  1.00  0.00     0.202 C 
BRANCH  72  73
ATOM     73  C   UNL A   1      33.369  23.044  26.969  1.00  0.00     0.261 C 
BRANCH  73  74
ATOM     74  O   UNL A   1      32.487  23.261  25.850  1.00  0.00    -0.462 OA
BRANCH  74  75
ATOM     75  C   UNL A   1      31.580  24.285  25.983  1.00  0.00     0.329 C 
ATOM     76  O   UNL A   1      30.660  24.317  26.789  1.00  0.00    -0.250 OA
BRANCH  75  77
ATOM     77  C   UNL A   1      31.934  25.379  24.968  1.00  0.00     0.206 C 
ATOM     78  C   UNL A   1      33.312  25.073  24.394  1.00  0.00     0.108 C 
ATOM     79  N   UNL A   1      30.950  25.574  23.882  1.00  0.00    -0.312 N 
ATOM     80  S   UNL A   1      33.022  24.489  22.713  1.00  0.00    -0.138 SA
ATOM     81  C   UNL A   1      31.492  25.414  22.559  1.00  0.00     0.191 C 
BRANCH  79  82
ATOM     82  C   UNL A   1      29.840  26.398  24.060  1.00  0.00     0.291 C 
ATOM     83  O   UNL A   1      28.807  25.916  24.532  1.00  0.00    -0.265 OA
BRANCH  82  84
ATOM     84  C   UNL A   1      29.955  27.822  23.768  1.00  0.00     0.199 A 
ATOM     85  O   UNL A   1      29.130  28.301  22.774  1.00  0.00    -0.459 OA
ATOM     86  C   UNL A   1      30.746  28.872  24.224  1.00  0.00     0.033 A 
ATOM     87  C   UNL A   1      29.373  29.626  22.627  1.00  0.00     0.196 A 
ATOM     88  C   UNL A   1      30.343  30.034  23.507  1.00  0.00     0.051 A 
BRANCH  86  89
ATOM     89  C   UNL A   1      31.807  28.781  25.205  1.00  0.00    -0.014 A 
ATOM     90  C   UNL A   1      31.488  28.648  26.563  1.00  0.00     0.009 A 
ATOM     91  C   UNL A   1      33.146  28.869  24.818  1.00  0.00     0.009 A 
ATOM     92  C   UNL A   1      32.500  28.540  27.517  1.00  0.00     0.001 A 
ATOM     93  C   UNL A   1      34.157  28.787  25.777  1.00  0.00     0.001 A 
ATOM     94  C   UNL A   1      33.834  28.609  27.123  1.00  0.00     0.000 A 
ENDBRANCH  86  89
ENDBRANCH  82  84
ENDBRANCH  79  82
ENDBRANCH  75  77
ENDBRANCH  74  75
ENDBRANCH  73  74
ENDBRANCH  72  73
ENDBRANCH   1  72
TORSDOF 20
ENDMDL
