MODEL 1
REMARK VINA RESULT:     -11.7      0.000      0.000
REMARK SMILES O=C(OCCOCCOC(=O)[C@H]1CC2(CC[NH+](C(=O)c3cccc(O)c3)CC2)CN1C(=O)C1CC1)c1ccc(-c2c3nc(c(-c4cccc(S(=O)(=O)[O-])c4F)c4ccc([nH]4)c(-c4cccc(S(=O)(=O)[O-])c4F)c4nc(c(-c5cccc(S(=O)(=O)[O-])c5F)c5ccc2[nH]5)C=C4)C=C3)cc1
REMARK SMILES IDX 6 1 5 2 4 3 3 4 2 5 1 6 36 7 37 8 98 9 38 10 97 11 39 12
REMARK SMILES IDX 40 13 41 14 91 15 42 16 96 17 90 18 92 19 43 20 95 21 89 22
REMARK SMILES IDX 88 23 44 25 76 26 56 27 75 28 57 29 60 30 74 31 93 32 58 33
REMARK SMILES IDX 59 34 73 36 94 37 61 38 45 39 46 40 54 41 47 42 49 43 55 44
REMARK SMILES IDX 48 45 50 46 51 47 52 48 53 49 77 50 78 51 86 52 79 53 81 54
REMARK SMILES IDX 87 55 80 56 82 57 83 58 84 59 85 60 62 61 63 62 71 63 64 64
REMARK SMILES IDX 66 65 72 66 65 67 67 68 68 69 69 70 70 71 7 72 8 73 9 74
REMARK SMILES IDX 10 75 11 76 12 77 13 78 30 79 14 80 29 81 15 82 28 83 16 84
REMARK SMILES IDX 27 85 17 86 31 88 32 89 33 90 34 91 35 92 18 93 19 94 20 95
REMARK SMILES IDX 21 96 26 97 22 98 24 99 23 100 25 101
REMARK H PARENT 92 24 60 35 17 87 25 102
REMARK Flexibility Score: inf
ROOT
ATOM      1  O   UNL A   1      32.485  30.681  26.181  1.00  0.00    -0.374 OA
ENDROOT
BRANCH   1   2
ATOM      2  C   UNL A   1      31.578  31.628  26.740  1.00  0.00     0.202 C 
BRANCH   2   3
ATOM      3  C   UNL A   1      31.967  33.104  26.621  1.00  0.00     0.261 C 
BRANCH   3   4
ATOM      4  O   UNL A   1      32.186  33.692  27.908  1.00  0.00    -0.460 OA
BRANCH   4   5
ATOM      5  C   UNL A   1      33.277  34.361  28.352  1.00  0.00     0.338 C 
ATOM      6  O   UNL A   1      33.342  35.567  28.125  1.00  0.00    -0.246 OA
BRANCH   5   7
ATOM      7  C   UNL A   1      34.435  33.710  29.048  1.00  0.00     0.060 A 
ATOM      8  C   UNL A   1      35.776  33.951  28.760  1.00  0.00     0.016 A 
ATOM      9  C   UNL A   1      34.149  32.868  30.137  1.00  0.00     0.016 A 
ATOM     10  C   UNL A   1      36.798  33.477  29.546  1.00  0.00     0.010 A 
ATOM     11  C   UNL A   1      35.179  32.319  30.908  1.00  0.00     0.010 A 
ATOM     12  C   UNL A   1      36.502  32.644  30.609  1.00  0.00    -0.014 A 
BRANCH  12  13
ATOM     13  C   UNL A   1      37.671  31.987  31.189  1.00  0.00     0.031 A 
ATOM     14  C   UNL A   1      38.036  32.381  32.582  1.00  0.00     0.074 A 
ATOM     15  C   UNL A   1      38.166  30.895  30.583  1.00  0.00     0.049 A 
ATOM     16  N   UNL A   1      38.980  31.921  33.348  1.00  0.00    -0.248 NA
ATOM     17  C   UNL A   1      37.182  33.405  33.221  1.00  0.00     0.031 C 
ATOM     18  C   UNL A   1      37.674  30.335  29.319  1.00  0.00     0.029 A 
ATOM     19  N   UNL A   1      39.158  30.040  30.964  1.00  0.00    -0.354 N 
ATOM     20  C   UNL A   1      38.867  32.628  34.536  1.00  0.00     0.074 A 
ATOM     21  C   UNL A   1      37.743  33.523  34.413  1.00  0.00     0.031 C 
ATOM     22  C   UNL A   1      38.394  29.242  29.015  1.00  0.00     0.029 A 
ATOM     23  C   UNL A   1      39.428  29.071  30.028  1.00  0.00     0.049 A 
ATOM     24  H   UNL A   1      39.633  30.110  31.824  1.00  0.00     0.167 HD
ATOM     25  C   UNL A   1      39.660  32.540  35.624  1.00  0.00     0.034 A 
ATOM     26  C   UNL A   1      40.445  28.193  29.988  1.00  0.00     0.034 A 
ATOM     27  C   UNL A   1      40.786  31.654  35.678  1.00  0.00     0.049 A 
ATOM     28  C   UNL A   1      41.404  28.217  31.150  1.00  0.00     0.074 A 
ATOM     29  C   UNL A   1      41.758  31.541  36.650  1.00  0.00     0.029 A 
ATOM     30  N   UNL A   1      41.093  30.732  34.683  1.00  0.00    -0.354 N 
ATOM     31  N   UNL A   1      41.344  28.929  32.252  1.00  0.00    -0.248 NA
ATOM     32  C   UNL A   1      42.562  27.321  31.073  1.00  0.00     0.031 C 
ATOM     33  C   UNL A   1      42.673  30.573  36.222  1.00  0.00     0.029 A 
ATOM     34  C   UNL A   1      42.244  30.049  35.009  1.00  0.00     0.049 A 
ATOM     35  H   UNL A   1      40.564  30.588  33.865  1.00  0.00     0.167 HD
ATOM     36  C   UNL A   1      42.437  28.546  33.016  1.00  0.00     0.074 A 
ATOM     37  C   UNL A   1      43.127  27.520  32.255  1.00  0.00     0.031 C 
ATOM     38  C   UNL A   1      42.851  29.002  34.225  1.00  0.00     0.034 A 
BRANCH  25  39
ATOM     39  C   UNL A   1      39.372  33.486  36.754  1.00  0.00     0.023 A 
ATOM     40  C   UNL A   1      39.827  34.820  36.702  1.00  0.00     0.012 A 
ATOM     41  C   UNL A   1      38.708  33.026  37.906  1.00  0.00     0.148 A 
ATOM     42  C   UNL A   1      39.659  35.668  37.798  1.00  0.00     0.002 A 
ATOM     43  C   UNL A   1      38.508  33.887  38.977  1.00  0.00     0.091 A 
ATOM     44  F   UNL A   1      38.320  31.744  37.948  1.00  0.00    -0.205 F 
ATOM     45  C   UNL A   1      38.997  35.204  38.931  1.00  0.00     0.022 A 
BRANCH  43  46
ATOM     46  S   UNL A   1      37.628  33.399  40.463  1.00  0.00     0.127 S 
ATOM     47  O   UNL A   1      38.502  32.354  40.994  1.00  0.00    -0.237 OA
ATOM     48  O   UNL A   1      37.624  34.642  41.234  1.00  0.00    -0.237 OA
ATOM     49  O   UNL A   1      36.316  32.944  40.026  1.00  0.00    -0.744 OA
ENDBRANCH  43  46
ENDBRANCH  25  39
BRANCH  26  50
ATOM     50  C   UNL A   1      40.639  27.289  28.818  1.00  0.00     0.023 A 
ATOM     51  C   UNL A   1      39.881  26.109  28.701  1.00  0.00     0.012 A 
ATOM     52  C   UNL A   1      41.597  27.584  27.824  1.00  0.00     0.148 A 
ATOM     53  C   UNL A   1      40.104  25.220  27.646  1.00  0.00     0.002 A 
ATOM     54  C   UNL A   1      41.775  26.723  26.746  1.00  0.00     0.091 A 
ATOM     55  F   UNL A   1      42.328  28.701  27.953  1.00  0.00    -0.205 F 
ATOM     56  C   UNL A   1      41.044  25.529  26.666  1.00  0.00     0.022 A 
BRANCH  54  57
ATOM     57  S   UNL A   1      42.883  27.103  25.384  1.00  0.00     0.127 S 
ATOM     58  O   UNL A   1      44.132  27.389  26.087  1.00  0.00    -0.237 OA
ATOM     59  O   UNL A   1      42.874  25.851  24.627  1.00  0.00    -0.237 OA
ATOM     60  O   UNL A   1      42.276  28.229  24.686  1.00  0.00    -0.744 OA
ENDBRANCH  54  57
ENDBRANCH  26  50
BRANCH  38  61
ATOM     61  C   UNL A   1      44.071  28.352  34.812  1.00  0.00     0.023 A 
ATOM     62  C   UNL A   1      45.353  28.817  34.467  1.00  0.00     0.012 A 
ATOM     63  C   UNL A   1      43.927  27.343  35.781  1.00  0.00     0.148 A 
ATOM     64  C   UNL A   1      46.483  28.262  35.062  1.00  0.00     0.002 A 
ATOM     65  C   UNL A   1      45.052  26.839  36.413  1.00  0.00     0.091 A 
ATOM     66  F   UNL A   1      42.692  26.907  36.073  1.00  0.00    -0.205 F 
ATOM     67  C   UNL A   1      46.331  27.286  36.045  1.00  0.00     0.022 A 
BRANCH  65  68
ATOM     68  S   UNL A   1      44.939  25.673  37.773  1.00  0.00     0.127 S 
ATOM     69  O   UNL A   1      43.937  26.308  38.626  1.00  0.00    -0.237 OA
ATOM     70  O   UNL A   1      44.487  24.456  37.097  1.00  0.00    -0.237 OA
ATOM     71  O   UNL A   1      46.278  25.586  38.339  1.00  0.00    -0.744 OA
ENDBRANCH  65  68
ENDBRANCH  38  61
ENDBRANCH  12  13
ENDBRANCH   5   7
ENDBRANCH   4   5
ENDBRANCH   3   4
ENDBRANCH   2   3
ENDBRANCH   1   2
BRANCH   1  72
ATOM     72  C   UNL A   1      33.525  30.211  27.044  1.00  0.00     0.202 C 
BRANCH  72  73
ATOM     73  C   UNL A   1      34.065  28.921  26.468  1.00  0.00     0.261 C 
BRANCH  73  74
ATOM     74  O   UNL A   1      33.082  28.500  25.515  1.00  0.00    -0.462 OA
BRANCH  74  75
ATOM     75  C   UNL A   1      33.535  28.069  24.319  1.00  0.00     0.328 C 
ATOM     76  O   UNL A   1      34.384  28.617  23.633  1.00  0.00    -0.250 OA
BRANCH  75  77
ATOM     77  C   UNL A   1      32.884  26.748  23.923  1.00  0.00     0.195 C 
ATOM     78  C   UNL A   1      33.794  25.646  24.517  1.00  0.00     0.046 C 
ATOM     79  N   UNL A   1      31.555  26.297  24.344  1.00  0.00    -0.328 N 
ATOM     80  C   UNL A   1      32.981  24.340  24.539  1.00  0.00     0.001 C 
ATOM     81  C   UNL A   1      31.536  24.838  24.358  1.00  0.00     0.128 C 
ATOM     82  C   UNL A   1      33.069  23.551  25.878  1.00  0.00     0.071 C 
ATOM     83  C   UNL A   1      33.459  23.429  23.390  1.00  0.00     0.071 C 
ATOM     84  C   UNL A   1      34.403  22.840  26.112  1.00  0.00     0.271 C 
ATOM     85  C   UNL A   1      34.826  22.796  23.692  1.00  0.00     0.271 C 
ATOM     86  N   UNL A   1      34.778  22.050  24.943  1.00  0.00    -0.267 N 
ATOM     87  H   UNL A   1      33.961  22.599  24.916  1.00  0.00     0.357 HD
BRANCH  79  88
ATOM     88  C   UNL A   1      30.310  26.908  24.214  1.00  0.00     0.226 C 
ATOM     89  O   UNL A   1      29.292  26.295  24.539  1.00  0.00    -0.275 OA
BRANCH  88  90
ATOM     90  C   UNL A   1      30.100  28.347  23.881  1.00  0.00     0.079 C 
ATOM     91  C   UNL A   1      30.508  29.251  22.750  1.00  0.00     0.014 C 
ATOM     92  C   UNL A   1      29.192  28.576  22.670  1.00  0.00     0.014 C 
ENDBRANCH  88  90
ENDBRANCH  79  88
BRANCH  86  93
ATOM     93  C   UNL A   1      35.265  20.742  24.953  1.00  0.00     0.344 C 
ATOM     94  O   UNL A   1      36.439  20.465  25.196  1.00  0.00    -0.226 OA
BRANCH  93  95
ATOM     95  C   UNL A   1      34.374  19.608  24.616  1.00  0.00     0.083 A 
ATOM     96  C   UNL A   1      33.074  19.834  24.146  1.00  0.00     0.018 A 
ATOM     97  C   UNL A   1      34.902  18.313  24.624  1.00  0.00     0.064 A 
ATOM     98  C   UNL A   1      32.290  18.755  23.728  1.00  0.00     0.005 A 
ATOM     99  C   UNL A   1      34.111  17.249  24.201  1.00  0.00     0.116 A 
ATOM    100  C   UNL A   1      32.808  17.458  23.757  1.00  0.00     0.046 A 
BRANCH  99 101
ATOM    101  O   UNL A   1      34.662  16.001  24.219  1.00  0.00    -0.508 OA
ATOM    102  H   UNL A   1      34.316  15.329  23.666  1.00  0.00     0.293 HD
ENDBRANCH  99 101
ENDBRANCH  93  95
ENDBRANCH  86  93
ENDBRANCH  75  77
ENDBRANCH  74  75
ENDBRANCH  73  74
ENDBRANCH  72  73
ENDBRANCH   1  72
TORSDOF 22
ENDMDL
MODEL 2
REMARK VINA RESULT:     -11.6      1.264      7.640
REMARK SMILES O=C(OCCOCCOC(=O)[C@H]1CC2(CC[NH+](C(=O)c3cccc(O)c3)CC2)CN1C(=O)C1CC1)c1ccc(-c2c3nc(c(-c4cccc(S(=O)(=O)[O-])c4F)c4ccc([nH]4)c(-c4cccc(S(=O)(=O)[O-])c4F)c4nc(c(-c5cccc(S(=O)(=O)[O-])c5F)c5ccc2[nH]5)C=C4)C=C3)cc1
REMARK SMILES IDX 6 1 5 2 4 3 3 4 2 5 1 6 36 7 37 8 98 9 38 10 97 11 39 12
REMARK SMILES IDX 40 13 41 14 91 15 42 16 96 17 90 18 92 19 43 20 95 21 89 22
REMARK SMILES IDX 88 23 44 25 76 26 56 27 75 28 57 29 60 30 74 31 93 32 58 33
REMARK SMILES IDX 59 34 73 36 94 37 61 38 45 39 46 40 54 41 47 42 49 43 55 44
REMARK SMILES IDX 48 45 50 46 51 47 52 48 53 49 77 50 78 51 86 52 79 53 81 54
REMARK SMILES IDX 87 55 80 56 82 57 83 58 84 59 85 60 62 61 63 62 71 63 64 64
REMARK SMILES IDX 66 65 72 66 65 67 67 68 68 69 69 70 70 71 7 72 8 73 9 74
REMARK SMILES IDX 10 75 11 76 12 77 13 78 30 79 14 80 29 81 15 82 28 83 16 84
REMARK SMILES IDX 27 85 17 86 31 88 32 89 33 90 34 91 35 92 18 93 19 94 20 95
REMARK SMILES IDX 21 96 26 97 22 98 24 99 23 100 25 101
REMARK H PARENT 92 24 60 35 17 87 25 102
REMARK Flexibility Score: inf
ROOT
ATOM      1  O   UNL A   1      30.998  31.911  26.651  1.00  0.00    -0.374 OA
ENDROOT
BRANCH   1   2
ATOM      2  C   UNL A   1      31.624  33.190  26.613  1.00  0.00     0.202 C 
BRANCH   2   3
ATOM      3  C   UNL A   1      32.729  33.447  27.642  1.00  0.00     0.261 C 
BRANCH   3   4
ATOM      4  O   UNL A   1      32.446  34.606  28.433  1.00  0.00    -0.460 OA
BRANCH   4   5
ATOM      5  C   UNL A   1      33.146  35.099  29.483  1.00  0.00     0.338 C 
ATOM      6  O   UNL A   1      32.816  36.197  29.928  1.00  0.00    -0.246 OA
BRANCH   5   7
ATOM      7  C   UNL A   1      34.333  34.418  30.094  1.00  0.00     0.060 A 
ATOM      8  C   UNL A   1      34.285  33.568  31.197  1.00  0.00     0.016 A 
ATOM      9  C   UNL A   1      35.573  34.571  29.449  1.00  0.00     0.016 A 
ATOM     10  C   UNL A   1      35.365  32.822  31.603  1.00  0.00     0.010 A 
ATOM     11  C   UNL A   1      36.702  33.872  29.891  1.00  0.00     0.010 A 
ATOM     12  C   UNL A   1      36.579  32.988  30.964  1.00  0.00    -0.014 A 
BRANCH  12  13
ATOM     13  C   UNL A   1      37.703  32.361  31.656  1.00  0.00     0.031 A 
ATOM     14  C   UNL A   1      38.413  31.270  30.924  1.00  0.00     0.074 A 
ATOM     15  C   UNL A   1      38.209  32.963  32.745  1.00  0.00     0.049 A 
ATOM     16  N   UNL A   1      39.463  30.590  31.276  1.00  0.00    -0.248 NA
ATOM     17  C   UNL A   1      37.894  30.932  29.582  1.00  0.00     0.031 C 
ATOM     18  C   UNL A   1      37.673  34.182  33.362  1.00  0.00     0.029 A 
ATOM     19  N   UNL A   1      39.305  32.660  33.499  1.00  0.00    -0.354 N 
ATOM     20  C   UNL A   1      39.704  29.715  30.227  1.00  0.00     0.074 A 
ATOM     21  C   UNL A   1      38.718  29.969  29.205  1.00  0.00     0.031 C 
ATOM     22  C   UNL A   1      38.429  34.503  34.424  1.00  0.00     0.029 A 
ATOM     23  C   UNL A   1      39.453  33.481  34.591  1.00  0.00     0.049 A 
ATOM     24  H   UNL A   1      39.925  31.927  33.283  1.00  0.00     0.167 HD
ATOM     25  C   UNL A   1      40.662  28.768  30.149  1.00  0.00     0.034 A 
ATOM     26  C   UNL A   1      40.297  33.359  35.632  1.00  0.00     0.034 A 
ATOM     27  C   UNL A   1      41.596  28.538  31.212  1.00  0.00     0.049 A 
ATOM     28  C   UNL A   1      41.260  32.202  35.589  1.00  0.00     0.074 A 
ATOM     29  C   UNL A   1      42.538  27.539  31.340  1.00  0.00     0.029 A 
ATOM     30  N   UNL A   1      41.682  29.332  32.350  1.00  0.00    -0.354 N 
ATOM     31  N   UNL A   1      41.453  31.326  34.629  1.00  0.00    -0.248 NA
ATOM     32  C   UNL A   1      42.124  32.015  36.759  1.00  0.00     0.031 C 
ATOM     33  C   UNL A   1      43.168  27.709  32.578  1.00  0.00     0.029 A 
ATOM     34  C   UNL A   1      42.654  28.842  33.195  1.00  0.00     0.049 A 
ATOM     35  H   UNL A   1      41.129  30.127  32.527  1.00  0.00     0.167 HD
ATOM     36  C   UNL A   1      42.480  30.502  35.063  1.00  0.00     0.074 A 
ATOM     37  C   UNL A   1      42.883  31.002  36.365  1.00  0.00     0.031 C 
ATOM     38  C   UNL A   1      43.038  29.421  34.460  1.00  0.00     0.034 A 
BRANCH  25  39
ATOM     39  C   UNL A   1      40.650  27.889  28.931  1.00  0.00     0.023 A 
ATOM     40  C   UNL A   1      39.742  26.814  28.835  1.00  0.00     0.012 A 
ATOM     41  C   UNL A   1      41.597  28.088  27.910  1.00  0.00     0.148 A 
ATOM     42  C   UNL A   1      39.806  25.928  27.758  1.00  0.00     0.002 A 
ATOM     43  C   UNL A   1      41.628  27.227  26.821  1.00  0.00     0.091 A 
ATOM     44  F   UNL A   1      42.476  29.092  28.042  1.00  0.00    -0.205 F 
ATOM     45  C   UNL A   1      40.743  26.137  26.751  1.00  0.00     0.022 A 
BRANCH  43  46
ATOM     46  S   UNL A   1      42.769  27.437  25.451  1.00  0.00     0.127 S 
ATOM     47  O   UNL A   1      42.657  26.145  24.773  1.00  0.00    -0.237 OA
ATOM     48  O   UNL A   1      42.169  28.559  24.728  1.00  0.00    -0.237 OA
ATOM     49  O   UNL A   1      44.069  27.714  26.044  1.00  0.00    -0.744 OA
ENDBRANCH  43  46
ENDBRANCH  25  39
BRANCH  26  50
ATOM     50  C   UNL A   1      40.229  34.292  36.793  1.00  0.00     0.023 A 
ATOM     51  C   UNL A   1      40.812  35.570  36.709  1.00  0.00     0.012 A 
ATOM     52  C   UNL A   1      39.605  33.907  37.999  1.00  0.00     0.148 A 
ATOM     53  C   UNL A   1      40.815  36.426  37.813  1.00  0.00     0.002 A 
ATOM     54  C   UNL A   1      39.563  34.785  39.077  1.00  0.00     0.091 A 
ATOM     55  F   UNL A   1      39.069  32.680  38.076  1.00  0.00    -0.205 F 
ATOM     56  C   UNL A   1      40.186  36.038  38.993  1.00  0.00     0.022 A 
BRANCH  54  57
ATOM     57  S   UNL A   1      38.675  34.405  40.592  1.00  0.00     0.127 S 
ATOM     58  O   UNL A   1      39.659  33.612  41.324  1.00  0.00    -0.237 OA
ATOM     59  O   UNL A   1      38.428  35.739  41.140  1.00  0.00    -0.237 OA
ATOM     60  O   UNL A   1      37.472  33.697  40.176  1.00  0.00    -0.744 OA
ENDBRANCH  54  57
ENDBRANCH  26  50
BRANCH  38  61
ATOM     61  C   UNL A   1      44.172  28.753  35.181  1.00  0.00     0.023 A 
ATOM     62  C   UNL A   1      45.489  29.219  35.011  1.00  0.00     0.012 A 
ATOM     63  C   UNL A   1      43.905  27.724  36.102  1.00  0.00     0.148 A 
ATOM     64  C   UNL A   1      46.534  28.645  35.731  1.00  0.00     0.002 A 
ATOM     65  C   UNL A   1      44.940  27.200  36.859  1.00  0.00     0.091 A 
ATOM     66  F   UNL A   1      42.642  27.288  36.226  1.00  0.00    -0.205 F 
ATOM     67  C   UNL A   1      46.257  27.648  36.665  1.00  0.00     0.022 A 
BRANCH  65  68
ATOM     68  S   UNL A   1      44.654  26.005  38.167  1.00  0.00     0.127 S 
ATOM     69  O   UNL A   1      46.017  25.588  38.490  1.00  0.00    -0.237 OA
ATOM     70  O   UNL A   1      44.004  26.821  39.193  1.00  0.00    -0.237 OA
ATOM     71  O   UNL A   1      43.805  24.973  37.590  1.00  0.00    -0.744 OA
ENDBRANCH  65  68
ENDBRANCH  38  61
ENDBRANCH  12  13
ENDBRANCH   5   7
ENDBRANCH   4   5
ENDBRANCH   3   4
ENDBRANCH   2   3
ENDBRANCH   1   2
BRANCH   1  72
ATOM     72  C   UNL A   1      31.755  30.816  26.124  1.00  0.00     0.202 C 
BRANCH  72  73
ATOM     73  C   UNL A   1      32.172  29.934  27.280  1.00  0.00     0.261 C 
BRANCH  73  74
ATOM     74  O   UNL A   1      32.448  28.658  26.692  1.00  0.00    -0.462 OA
BRANCH  74  75
ATOM     75  C   UNL A   1      33.698  28.456  26.226  1.00  0.00     0.328 C 
ATOM     76  O   UNL A   1      34.714  28.994  26.641  1.00  0.00    -0.250 OA
BRANCH  75  77
ATOM     77  C   UNL A   1      33.716  27.410  25.118  1.00  0.00     0.195 C 
ATOM     78  C   UNL A   1      33.430  26.061  25.821  1.00  0.00     0.046 C 
ATOM     79  N   UNL A   1      32.789  27.359  23.985  1.00  0.00    -0.328 N 
ATOM     80  C   UNL A   1      33.002  25.058  24.736  1.00  0.00     0.001 C 
ATOM     81  C   UNL A   1      32.658  25.972  23.547  1.00  0.00     0.128 C 
ATOM     82  C   UNL A   1      31.740  24.219  25.097  1.00  0.00     0.071 C 
ATOM     83  C   UNL A   1      34.173  24.097  24.446  1.00  0.00     0.071 C 
ATOM     84  C   UNL A   1      31.977  23.133  26.147  1.00  0.00     0.271 C 
ATOM     85  C   UNL A   1      34.366  23.072  25.573  1.00  0.00     0.271 C 
ATOM     86  N   UNL A   1      33.137  22.320  25.795  1.00  0.00    -0.267 N 
ATOM     87  H   UNL A   1      32.894  23.089  25.230  1.00  0.00     0.357 HD
BRANCH  79  88
ATOM     88  C   UNL A   1      32.482  28.319  23.023  1.00  0.00     0.226 C 
ATOM     89  O   UNL A   1      33.392  28.903  22.432  1.00  0.00    -0.275 OA
BRANCH  88  90
ATOM     90  C   UNL A   1      31.113  28.584  22.493  1.00  0.00     0.079 C 
ATOM     91  C   UNL A   1      29.742  28.020  22.750  1.00  0.00     0.014 C 
ATOM     92  C   UNL A   1      30.166  29.216  23.514  1.00  0.00     0.014 C 
ENDBRANCH  88  90
ENDBRANCH  79  88
BRANCH  86  93
ATOM     93  C   UNL A   1      33.214  20.927  25.843  1.00  0.00     0.344 C 
ATOM     94  O   UNL A   1      33.526  20.306  26.857  1.00  0.00    -0.226 OA
BRANCH  93  95
ATOM     95  C   UNL A   1      32.959  20.120  24.627  1.00  0.00     0.083 A 
ATOM     96  C   UNL A   1      33.044  18.723  24.665  1.00  0.00     0.018 A 
ATOM     97  C   UNL A   1      32.480  20.762  23.481  1.00  0.00     0.064 A 
ATOM     98  C   UNL A   1      32.690  17.975  23.538  1.00  0.00     0.005 A 
ATOM     99  C   UNL A   1      32.128  20.005  22.368  1.00  0.00     0.116 A 
ATOM    100  C   UNL A   1      32.234  18.617  22.385  1.00  0.00     0.046 A 
BRANCH  99 101
ATOM    101  O   UNL A   1      31.660  20.667  21.271  1.00  0.00    -0.508 OA
ATOM    102  H   UNL A   1      30.748  20.871  21.201  1.00  0.00     0.293 HD
ENDBRANCH  99 101
ENDBRANCH  93  95
ENDBRANCH  86  93
ENDBRANCH  75  77
ENDBRANCH  74  75
ENDBRANCH  73  74
ENDBRANCH  72  73
ENDBRANCH   1  72
TORSDOF 22
ENDMDL
MODEL 3
REMARK VINA RESULT:     -11.6      1.934      2.626
REMARK SMILES O=C(OCCOCCOC(=O)[C@H]1CC2(CC[NH+](C(=O)c3cccc(O)c3)CC2)CN1C(=O)C1CC1)c1ccc(-c2c3nc(c(-c4cccc(S(=O)(=O)[O-])c4F)c4ccc([nH]4)c(-c4cccc(S(=O)(=O)[O-])c4F)c4nc(c(-c5cccc(S(=O)(=O)[O-])c5F)c5ccc2[nH]5)C=C4)C=C3)cc1
REMARK SMILES IDX 6 1 5 2 4 3 3 4 2 5 1 6 36 7 37 8 98 9 38 10 97 11 39 12
REMARK SMILES IDX 40 13 41 14 91 15 42 16 96 17 90 18 92 19 43 20 95 21 89 22
REMARK SMILES IDX 88 23 44 25 76 26 56 27 75 28 57 29 60 30 74 31 93 32 58 33
REMARK SMILES IDX 59 34 73 36 94 37 61 38 45 39 46 40 54 41 47 42 49 43 55 44
REMARK SMILES IDX 48 45 50 46 51 47 52 48 53 49 77 50 78 51 86 52 79 53 81 54
REMARK SMILES IDX 87 55 80 56 82 57 83 58 84 59 85 60 62 61 63 62 71 63 64 64
REMARK SMILES IDX 66 65 72 66 65 67 67 68 68 69 69 70 70 71 7 72 8 73 9 74
REMARK SMILES IDX 10 75 11 76 12 77 13 78 30 79 14 80 29 81 15 82 28 83 16 84
REMARK SMILES IDX 27 85 17 86 31 88 32 89 33 90 34 91 35 92 18 93 19 94 20 95
REMARK SMILES IDX 21 96 26 97 22 98 24 99 23 100 25 101
REMARK H PARENT 92 24 60 35 17 87 25 102
REMARK Flexibility Score: inf
ROOT
ATOM      1  O   UNL A   1      33.684  31.164  27.794  1.00  0.00    -0.374 OA
ENDROOT
BRANCH   1   2
ATOM      2  C   UNL A   1      33.328  32.314  27.033  1.00  0.00     0.202 C 
BRANCH   2   3
ATOM      3  C   UNL A   1      32.152  33.146  27.552  1.00  0.00     0.261 C 
BRANCH   3   4
ATOM      4  O   UNL A   1      32.582  34.438  27.996  1.00  0.00    -0.460 OA
BRANCH   4   5
ATOM      5  C   UNL A   1      33.257  34.756  29.126  1.00  0.00     0.338 C 
ATOM      6  O   UNL A   1      32.879  35.740  29.762  1.00  0.00    -0.246 OA
BRANCH   5   7
ATOM      7  C   UNL A   1      34.469  34.023  29.615  1.00  0.00     0.060 A 
ATOM      8  C   UNL A   1      34.450  32.967  30.524  1.00  0.00     0.016 A 
ATOM      9  C   UNL A   1      35.708  34.360  29.042  1.00  0.00     0.016 A 
ATOM     10  C   UNL A   1      35.561  32.206  30.797  1.00  0.00     0.010 A 
ATOM     11  C   UNL A   1      36.865  33.640  29.360  1.00  0.00     0.010 A 
ATOM     12  C   UNL A   1      36.773  32.555  30.232  1.00  0.00    -0.014 A 
BRANCH  12  13
ATOM     13  C   UNL A   1      37.918  31.854  30.809  1.00  0.00     0.031 A 
ATOM     14  C   UNL A   1      38.181  32.088  32.261  1.00  0.00     0.074 A 
ATOM     15  C   UNL A   1      38.480  30.851  30.115  1.00  0.00     0.049 A 
ATOM     16  N   UNL A   1      39.084  31.557  33.030  1.00  0.00    -0.248 NA
ATOM     17  C   UNL A   1      37.261  33.013  32.955  1.00  0.00     0.031 C 
ATOM     18  C   UNL A   1      38.087  30.436  28.763  1.00  0.00     0.029 A 
ATOM     19  N   UNL A   1      39.466  29.974  30.461  1.00  0.00    -0.354 N 
ATOM     20  C   UNL A   1      38.876  32.116  34.282  1.00  0.00     0.074 A 
ATOM     21  C   UNL A   1      37.739  32.999  34.188  1.00  0.00     0.031 C 
ATOM     22  C   UNL A   1      38.853  29.400  28.384  1.00  0.00     0.029 A 
ATOM     23  C   UNL A   1      39.822  29.129  29.438  1.00  0.00     0.049 A 
ATOM     24  H   UNL A   1      39.882  29.951  31.353  1.00  0.00     0.167 HD
ATOM     25  C   UNL A   1      39.598  31.914  35.404  1.00  0.00     0.034 A 
ATOM     26  C   UNL A   1      40.862  28.279  29.366  1.00  0.00     0.034 A 
ATOM     27  C   UNL A   1      40.740  31.049  35.430  1.00  0.00     0.049 A 
ATOM     28  C   UNL A   1      41.742  28.184  30.585  1.00  0.00     0.074 A 
ATOM     29  C   UNL A   1      41.648  30.838  36.447  1.00  0.00     0.029 A 
ATOM     30  N   UNL A   1      41.135  30.257  34.358  1.00  0.00    -0.354 N 
ATOM     31  N   UNL A   1      41.592  28.759  31.756  1.00  0.00    -0.248 NA
ATOM     32  C   UNL A   1      42.926  27.323  30.482  1.00  0.00     0.031 C 
ATOM     33  C   UNL A   1      42.615  29.944  35.972  1.00  0.00     0.029 A 
ATOM     34  C   UNL A   1      42.280  29.560  34.680  1.00  0.00     0.049 A 
ATOM     35  H   UNL A   1      40.665  30.201  33.495  1.00  0.00     0.167 HD
ATOM     36  C   UNL A   1      42.642  28.308  32.542  1.00  0.00     0.074 A 
ATOM     37  C   UNL A   1      43.407  27.391  31.715  1.00  0.00     0.031 C 
ATOM     38  C   UNL A   1      42.964  28.624  33.822  1.00  0.00     0.034 A 
BRANCH  25  39
ATOM     39  C   UNL A   1      39.211  32.715  36.614  1.00  0.00     0.023 A 
ATOM     40  C   UNL A   1      39.780  33.985  36.842  1.00  0.00     0.012 A 
ATOM     41  C   UNL A   1      38.333  32.169  37.569  1.00  0.00     0.148 A 
ATOM     42  C   UNL A   1      39.510  34.680  38.021  1.00  0.00     0.002 A 
ATOM     43  C   UNL A   1      38.035  32.885  38.721  1.00  0.00     0.091 A 
ATOM     44  F   UNL A   1      37.835  30.944  37.350  1.00  0.00    -0.205 F 
ATOM     45  C   UNL A   1      38.635  34.134  38.957  1.00  0.00     0.022 A 
BRANCH  43  46
ATOM     46  S   UNL A   1      36.888  32.287  39.965  1.00  0.00     0.127 S 
ATOM     47  O   UNL A   1      37.581  31.098  40.460  1.00  0.00    -0.237 OA
ATOM     48  O   UNL A   1      36.851  33.408  40.905  1.00  0.00    -0.237 OA
ATOM     49  O   UNL A   1      35.635  32.028  39.270  1.00  0.00    -0.744 OA
ENDBRANCH  43  46
ENDBRANCH  25  39
BRANCH  26  50
ATOM     50  C   UNL A   1      41.156  27.525  28.114  1.00  0.00     0.023 A 
ATOM     51  C   UNL A   1      41.591  28.207  26.962  1.00  0.00     0.012 A 
ATOM     52  C   UNL A   1      40.981  26.126  28.050  1.00  0.00     0.148 A 
ATOM     53  C   UNL A   1      41.803  27.520  25.764  1.00  0.00     0.002 A 
ATOM     54  C   UNL A   1      41.247  25.439  26.870  1.00  0.00     0.091 A 
ATOM     55  F   UNL A   1      40.548  25.487  29.147  1.00  0.00    -0.205 F 
ATOM     56  C   UNL A   1      41.637  26.137  25.719  1.00  0.00     0.022 A 
BRANCH  54  57
ATOM     57  S   UNL A   1      41.168  23.648  26.761  1.00  0.00     0.127 S 
ATOM     58  O   UNL A   1      39.755  23.429  26.461  1.00  0.00    -0.237 OA
ATOM     59  O   UNL A   1      42.083  23.371  25.653  1.00  0.00    -0.237 OA
ATOM     60  O   UNL A   1      41.627  23.155  28.052  1.00  0.00    -0.744 OA
ENDBRANCH  54  57
ENDBRANCH  26  50
BRANCH  38  61
ATOM     61  C   UNL A   1      44.159  27.932  34.411  1.00  0.00     0.023 A 
ATOM     62  C   UNL A   1      45.429  28.535  34.342  1.00  0.00     0.012 A 
ATOM     63  C   UNL A   1      43.990  26.727  35.116  1.00  0.00     0.148 A 
ATOM     64  C   UNL A   1      46.526  27.927  34.947  1.00  0.00     0.002 A 
ATOM     65  C   UNL A   1      45.074  26.161  35.767  1.00  0.00     0.091 A 
ATOM     66  F   UNL A   1      42.772  26.167  35.146  1.00  0.00    -0.205 F 
ATOM     67  C   UNL A   1      46.345  26.750  35.672  1.00  0.00     0.022 A 
BRANCH  65  68
ATOM     68  S   UNL A   1      44.906  24.718  36.822  1.00  0.00     0.127 S 
ATOM     69  O   UNL A   1      43.938  25.186  37.812  1.00  0.00    -0.237 OA
ATOM     70  O   UNL A   1      44.392  23.714  35.889  1.00  0.00    -0.237 OA
ATOM     71  O   UNL A   1      46.239  24.438  37.335  1.00  0.00    -0.744 OA
ENDBRANCH  65  68
ENDBRANCH  38  61
ENDBRANCH  12  13
ENDBRANCH   5   7
ENDBRANCH   4   5
ENDBRANCH   3   4
ENDBRANCH   2   3
ENDBRANCH   1   2
BRANCH   1  72
ATOM     72  C   UNL A   1      33.314  29.896  27.242  1.00  0.00     0.202 C 
BRANCH  72  73
ATOM     73  C   UNL A   1      31.814  29.748  27.370  1.00  0.00     0.261 C 
BRANCH  73  74
ATOM     74  O   UNL A   1      31.396  29.135  26.145  1.00  0.00    -0.462 OA
BRANCH  74  75
ATOM     75  C   UNL A   1      31.102  29.959  25.118  1.00  0.00     0.328 C 
ATOM     76  O   UNL A   1      30.770  31.131  25.211  1.00  0.00    -0.250 OA
BRANCH  75  77
ATOM     77  C   UNL A   1      31.283  29.260  23.776  1.00  0.00     0.195 C 
ATOM     78  C   UNL A   1      31.804  27.842  24.117  1.00  0.00     0.046 C 
ATOM     79  N   UNL A   1      30.211  28.962  22.823  1.00  0.00    -0.328 N 
ATOM     80  C   UNL A   1      31.587  26.961  22.875  1.00  0.00     0.001 C 
ATOM     81  C   UNL A   1      30.585  27.784  22.046  1.00  0.00     0.128 C 
ATOM     82  C   UNL A   1      30.955  25.570  23.176  1.00  0.00     0.071 C 
ATOM     83  C   UNL A   1      32.939  26.752  22.163  1.00  0.00     0.071 C 
ATOM     84  C   UNL A   1      31.904  24.571  23.841  1.00  0.00     0.271 C 
ATOM     85  C   UNL A   1      33.842  25.771  22.924  1.00  0.00     0.271 C 
ATOM     86  N   UNL A   1      33.166  24.493  23.111  1.00  0.00    -0.267 N 
ATOM     87  H   UNL A   1      32.476  25.133  22.821  1.00  0.00     0.357 HD
BRANCH  79  88
ATOM     88  C   UNL A   1      29.280  29.804  22.217  1.00  0.00     0.226 C 
ATOM     89  O   UNL A   1      29.389  30.073  21.020  1.00  0.00    -0.275 OA
BRANCH  88  90
ATOM     90  C   UNL A   1      28.019  30.278  22.858  1.00  0.00     0.079 C 
ATOM     91  C   UNL A   1      27.679  31.254  23.952  1.00  0.00     0.014 C 
ATOM     92  C   UNL A   1      27.680  31.738  22.552  1.00  0.00     0.014 C 
ENDBRANCH  88  90
ENDBRANCH  79  88
BRANCH  86  93
ATOM     93  C   UNL A   1      33.848  23.326  22.764  1.00  0.00     0.344 C 
ATOM     94  O   UNL A   1      33.639  22.712  21.720  1.00  0.00    -0.226 OA
BRANCH  93  95
ATOM     95  C   UNL A   1      34.846  22.739  23.688  1.00  0.00     0.083 A 
ATOM     96  C   UNL A   1      36.213  22.780  23.384  1.00  0.00     0.018 A 
ATOM     97  C   UNL A   1      34.420  22.286  24.940  1.00  0.00     0.064 A 
ATOM     98  C   UNL A   1      37.146  22.322  24.319  1.00  0.00     0.005 A 
ATOM     99  C   UNL A   1      35.360  21.837  25.861  1.00  0.00     0.116 A 
ATOM    100  C   UNL A   1      36.719  21.847  25.561  1.00  0.00     0.046 A 
BRANCH  99 101
ATOM    101  O   UNL A   1      34.906  21.406  27.074  1.00  0.00    -0.508 OA
ATOM    102  H   UNL A   1      34.713  22.027  27.749  1.00  0.00     0.293 HD
ENDBRANCH  99 101
ENDBRANCH  93  95
ENDBRANCH  86  93
ENDBRANCH  75  77
ENDBRANCH  74  75
ENDBRANCH  73  74
ENDBRANCH  72  73
ENDBRANCH   1  72
TORSDOF 22
ENDMDL
