MODEL 1
REMARK VINA RESULT:      -9.9      0.000      0.000
REMARK SMILES COC(=O)c1ccccc1N1C(=O)/C(=C\c2ccc(-c3ccc(Cl)c(C(=O)OCCOCCOC(=O)c4ccc(-c5c6nc(c(-c7cccc(S(=O)(=O)[O-])c7F)c7ccc([nH]7)c(-c7cccc(S(=O)(=O)[O-])c7F)c7nc(c(-c8cccc(S(=O)(=O)[O-])c8F)c8ccc5[nH]8)C=C7)C=C6)cc4)c3)o2)SC1=S
REMARK SMILES IDX 30 1 29 2 28 3 26 4 27 5 25 6 20 7 21 8 100 9 22 10 23 11
REMARK SMILES IDX 24 12 19 13 16 14 17 15 101 16 18 17 15 18 11 19 12 20
REMARK SMILES IDX 103 21 13 22 14 23 102 24 104 25 10 26 5 27 6 28 7 29 9 30
REMARK SMILES IDX 8 31 3 32 4 33 2 34 1 35 31 36 32 37 33 38 34 39 35 40 36 41
REMARK SMILES IDX 37 42 38 43 99 44 39 45 98 46 40 47 41 48 42 49 92 50 43 51
REMARK SMILES IDX 97 52 91 53 93 54 44 55 96 56 90 57 89 58 45 60 77 61 57 62
REMARK SMILES IDX 76 63 58 64 61 65 75 66 94 67 59 68 60 69 74 71 95 72 62 73
REMARK SMILES IDX 46 74 47 75 55 76 48 77 50 78 56 79 49 80 51 81 52 82 53 83
REMARK SMILES IDX 54 84 78 85 79 86 87 87 80 88 82 89 88 90 81 91 83 92 84 93
REMARK SMILES IDX 85 94 86 95 63 96 64 97 72 98 65 99 67 100 73 101 66 102
REMARK SMILES IDX 68 103 69 104 70 105 71 106
REMARK H PARENT 93 59 61 70
REMARK Flexibility Score: inf
ROOT
ATOM      1  C   UNL A   1      36.615  34.640  32.508  1.00  0.00     0.202 C 
ENDROOT
BRANCH   1   2
ATOM      2  C   UNL A   1      35.838  33.465  31.907  1.00  0.00     0.261 C 
BRANCH   2   3
ATOM      3  O   UNL A   1      36.656  32.718  30.995  1.00  0.00    -0.460 OA
BRANCH   3   4
ATOM      4  C   UNL A   1      36.524  33.041  29.685  1.00  0.00     0.339 C 
ATOM      5  O   UNL A   1      36.546  34.158  29.197  1.00  0.00    -0.246 OA
BRANCH   4   6
ATOM      6  C   UNL A   1      36.452  31.787  28.903  1.00  0.00     0.079 A 
ATOM      7  C   UNL A   1      35.117  30.238  27.578  1.00  0.00     0.018 A 
ATOM      8  C   UNL A   1      36.245  29.421  27.430  1.00  0.00     0.013 A 
ATOM      9  C   UNL A   1      35.229  31.420  28.322  1.00  0.00     0.029 A 
ATOM     10  C   UNL A   1      37.463  29.778  28.015  1.00  0.00     0.022 A 
ATOM     11  C   UNL A   1      37.570  30.959  28.754  1.00  0.00     0.055 A 
ATOM     12  Cl  UNL A   1      39.093  31.275  29.508  1.00  0.00    -0.083 Cl
BRANCH   7  13
ATOM     13  C   UNL A   1      33.858  29.903  26.934  1.00  0.00     0.134 A 
ATOM     14  C   UNL A   1      32.656  29.010  25.295  1.00  0.00     0.128 A 
ATOM     15  C   UNL A   1      31.777  29.578  26.209  1.00  0.00     0.051 A 
ATOM     16  O   UNL A   1      33.934  29.198  25.770  1.00  0.00    -0.457 OA
ATOM     17  C   UNL A   1      32.542  30.149  27.248  1.00  0.00     0.051 A 
BRANCH  14  18
ATOM     18  C   UNL A   1      32.373  28.331  24.083  1.00  0.00     0.068 C 
ATOM     19  N   UNL A   1      33.480  24.858  24.285  1.00  0.00    -0.260 N 
ATOM     20  C   UNL A   1      33.173  26.064  24.904  1.00  0.00     0.270 C 
ATOM     21  C   UNL A   1      33.076  24.712  22.970  1.00  0.00     0.152 C 
ATOM     22  O   UNL A   1      33.288  26.307  26.097  1.00  0.00    -0.268 OA
ATOM     23  C   UNL A   1      32.635  27.030  23.901  1.00  0.00     0.084 C 
ATOM     24  S   UNL A   1      32.391  26.230  22.391  1.00  0.00    -0.054 SA
ATOM     25  S   UNL A   1      33.080  23.338  22.016  1.00  0.00    -0.051 S 
BRANCH  19  26
ATOM     26  C   UNL A   1      34.175  23.864  25.032  1.00  0.00     0.065 A 
ATOM     27  C   UNL A   1      33.524  22.797  25.687  1.00  0.00     0.084 A 
ATOM     28  C   UNL A   1      34.284  21.852  26.399  1.00  0.00     0.018 A 
ATOM     29  C   UNL A   1      35.676  21.944  26.442  1.00  0.00     0.001 A 
ATOM     30  C   UNL A   1      35.580  23.928  25.072  1.00  0.00     0.028 A 
ATOM     31  C   UNL A   1      36.323  22.978  25.775  1.00  0.00     0.002 A 
BRANCH  27  32
ATOM     32  C   UNL A   1      32.061  22.539  25.627  1.00  0.00     0.339 C 
ATOM     33  O   UNL A   1      31.563  21.665  24.936  1.00  0.00    -0.246 OA
BRANCH  32  34
ATOM     34  O   UNL A   1      31.392  23.431  26.399  1.00  0.00    -0.465 OA
ATOM     35  C   UNL A   1      30.133  22.961  26.889  1.00  0.00     0.282 C 
ENDBRANCH  32  34
ENDBRANCH  27  32
ENDBRANCH  19  26
ENDBRANCH  14  18
ENDBRANCH   7  13
ENDBRANCH   4   6
ENDBRANCH   3   4
ENDBRANCH   2   3
ENDBRANCH   1   2
BRANCH   1  36
ATOM     36  O   UNL A   1      36.361  34.958  33.877  1.00  0.00    -0.374 OA
BRANCH  36  37
ATOM     37  C   UNL A   1      35.938  33.900  34.736  1.00  0.00     0.202 C 
BRANCH  37  38
ATOM     38  C   UNL A   1      36.895  33.455  35.850  1.00  0.00     0.261 C 
BRANCH  38  39
ATOM     39  O   UNL A   1      37.037  32.028  35.936  1.00  0.00    -0.460 OA
BRANCH  39  40
ATOM     40  C   UNL A   1      38.241  31.609  36.399  1.00  0.00     0.338 C 
ATOM     41  O   UNL A   1      38.492  31.170  37.509  1.00  0.00    -0.246 OA
BRANCH  40  42
ATOM     42  C   UNL A   1      39.217  31.587  35.296  1.00  0.00     0.060 A 
ATOM     43  C   UNL A   1      38.797  31.071  34.063  1.00  0.00     0.016 A 
ATOM     44  C   UNL A   1      40.538  31.992  35.487  1.00  0.00     0.016 A 
ATOM     45  C   UNL A   1      39.713  30.911  33.025  1.00  0.00     0.010 A 
ATOM     46  C   UNL A   1      41.456  31.825  34.448  1.00  0.00     0.010 A 
ATOM     47  C   UNL A   1      41.056  31.248  33.228  1.00  0.00    -0.014 A 
BRANCH  47  48
ATOM     48  C   UNL A   1      42.078  30.862  32.227  1.00  0.00     0.031 A 
ATOM     49  C   UNL A   1      42.724  29.508  32.336  1.00  0.00     0.074 A 
ATOM     50  C   UNL A   1      42.444  31.712  31.251  1.00  0.00     0.049 A 
ATOM     51  N   UNL A   1      43.686  28.989  31.621  1.00  0.00    -0.248 NA
ATOM     52  C   UNL A   1      42.224  28.626  33.403  1.00  0.00     0.031 C 
ATOM     53  C   UNL A   1      41.874  33.039  31.031  1.00  0.00     0.029 A 
ATOM     54  N   UNL A   1      43.403  31.589  30.279  1.00  0.00    -0.354 N 
ATOM     55  C   UNL A   1      43.941  27.742  32.178  1.00  0.00     0.074 A 
ATOM     56  C   UNL A   1      43.034  27.584  33.295  1.00  0.00     0.031 C 
ATOM     57  C   UNL A   1      42.511  33.620  30.000  1.00  0.00     0.029 A 
ATOM     58  C   UNL A   1      43.553  32.719  29.512  1.00  0.00     0.049 A 
ATOM     59  H   UNL A   1      43.934  30.771  30.144  1.00  0.00     0.167 HD
ATOM     60  C   UNL A   1      44.846  26.810  31.794  1.00  0.00     0.034 A 
ATOM     61  C   UNL A   1      44.446  33.002  28.542  1.00  0.00     0.034 A 
ATOM     62  C   UNL A   1      45.730  26.965  30.671  1.00  0.00     0.049 A 
ATOM     63  C   UNL A   1      45.465  31.962  28.155  1.00  0.00     0.074 A 
ATOM     64  C   UNL A   1      46.635  26.055  30.157  1.00  0.00     0.029 A 
ATOM     65  N   UNL A   1      45.836  28.113  29.902  1.00  0.00    -0.354 N 
ATOM     66  N   UNL A   1      45.622  30.745  28.617  1.00  0.00    -0.248 NA
ATOM     67  C   UNL A   1      46.415  32.326  27.093  1.00  0.00     0.031 C 
ATOM     68  C   UNL A   1      47.322  26.670  29.106  1.00  0.00     0.029 A 
ATOM     69  C   UNL A   1      46.810  27.945  28.932  1.00  0.00     0.049 A 
ATOM     70  H   UNL A   1      45.298  28.929  30.026  1.00  0.00     0.167 HD
ATOM     71  C   UNL A   1      46.651  30.181  27.870  1.00  0.00     0.074 A 
ATOM     72  C   UNL A   1      47.080  31.189  26.924  1.00  0.00     0.031 C 
ATOM     73  C   UNL A   1      47.191  28.940  27.961  1.00  0.00     0.034 A 
BRANCH  60  74
ATOM     74  C   UNL A   1      44.928  25.542  32.604  1.00  0.00     0.023 A 
ATOM     75  C   UNL A   1      44.140  24.426  32.256  1.00  0.00     0.012 A 
ATOM     76  C   UNL A   1      45.810  25.449  33.697  1.00  0.00     0.148 A 
ATOM     77  C   UNL A   1      44.194  23.255  33.012  1.00  0.00     0.002 A 
ATOM     78  C   UNL A   1      45.897  24.262  34.415  1.00  0.00     0.091 A 
ATOM     79  F   UNL A   1      46.534  26.527  34.030  1.00  0.00    -0.205 F 
ATOM     80  C   UNL A   1      45.079  23.169  34.084  1.00  0.00     0.022 A 
BRANCH  78  81
ATOM     81  S   UNL A   1      47.066  24.031  35.758  1.00  0.00     0.127 S 
ATOM     82  O   UNL A   1      46.372  24.681  36.869  1.00  0.00    -0.237 OA
ATOM     83  O   UNL A   1      47.141  22.573  35.856  1.00  0.00    -0.237 OA
ATOM     84  O   UNL A   1      48.301  24.673  35.329  1.00  0.00    -0.744 OA
ENDBRANCH  78  81
ENDBRANCH  60  74
BRANCH  61  85
ATOM     85  C   UNL A   1      44.384  34.311  27.835  1.00  0.00     0.023 A 
ATOM     86  C   UNL A   1      43.439  34.493  26.807  1.00  0.00     0.012 A 
ATOM     87  C   UNL A   1      45.229  35.380  28.190  1.00  0.00     0.148 A 
ATOM     88  C   UNL A   1      43.353  35.708  26.127  1.00  0.00     0.002 A 
ATOM     89  C   UNL A   1      45.103  36.605  27.545  1.00  0.00     0.091 A 
ATOM     90  F   UNL A   1      46.128  35.182  29.165  1.00  0.00    -0.205 F 
ATOM     91  C   UNL A   1      44.177  36.766  26.502  1.00  0.00     0.022 A 
BRANCH  89  92
ATOM     92  S   UNL A   1      46.034  38.060  28.039  1.00  0.00     0.127 S 
ATOM     93  O   UNL A   1      47.412  37.597  27.894  1.00  0.00    -0.237 OA
ATOM     94  O   UNL A   1      45.603  39.041  27.042  1.00  0.00    -0.237 OA
ATOM     95  O   UNL A   1      45.612  38.358  29.401  1.00  0.00    -0.744 OA
ENDBRANCH  89  92
ENDBRANCH  61  85
BRANCH  73  96
ATOM     96  C   UNL A   1      48.269  28.564  26.976  1.00  0.00     0.023 A 
ATOM     97  C   UNL A   1      49.626  28.615  27.354  1.00  0.00     0.012 A 
ATOM     98  C   UNL A   1      47.924  28.067  25.703  1.00  0.00     0.148 A 
ATOM     99  C   UNL A   1      50.622  28.203  26.469  1.00  0.00     0.002 A 
ATOM    100  C   UNL A   1      48.918  27.608  24.849  1.00  0.00     0.091 A 
ATOM    101  F   UNL A   1      46.629  28.042  25.358  1.00  0.00    -0.205 F 
ATOM    102  C   UNL A   1      50.268  27.687  25.224  1.00  0.00     0.022 A 
BRANCH 100 103
ATOM    103  S   UNL A   1      48.550  26.832  23.270  1.00  0.00     0.127 S 
ATOM    104  O   UNL A   1      47.693  27.832  22.639  1.00  0.00    -0.237 OA
ATOM    105  O   UNL A   1      49.881  26.703  22.673  1.00  0.00    -0.237 OA
ATOM    106  O   UNL A   1      47.904  25.565  23.584  1.00  0.00    -0.744 OA
ENDBRANCH 100 103
ENDBRANCH  73  96
ENDBRANCH  47  48
ENDBRANCH  40  42
ENDBRANCH  39  40
ENDBRANCH  38  39
ENDBRANCH  37  38
ENDBRANCH  36  37
ENDBRANCH   1  36
TORSDOF 22
ENDMDL
MODEL 2
REMARK VINA RESULT:      -9.8      2.362      3.283
REMARK SMILES COC(=O)c1ccccc1N1C(=O)/C(=C\c2ccc(-c3ccc(Cl)c(C(=O)OCCOCCOC(=O)c4ccc(-c5c6nc(c(-c7cccc(S(=O)(=O)[O-])c7F)c7ccc([nH]7)c(-c7cccc(S(=O)(=O)[O-])c7F)c7nc(c(-c8cccc(S(=O)(=O)[O-])c8F)c8ccc5[nH]8)C=C7)C=C6)cc4)c3)o2)SC1=S
REMARK SMILES IDX 30 1 29 2 28 3 26 4 27 5 25 6 20 7 21 8 100 9 22 10 23 11
REMARK SMILES IDX 24 12 19 13 16 14 17 15 101 16 18 17 15 18 11 19 12 20
REMARK SMILES IDX 103 21 13 22 14 23 102 24 104 25 10 26 5 27 6 28 7 29 9 30
REMARK SMILES IDX 8 31 3 32 4 33 2 34 1 35 31 36 32 37 33 38 34 39 35 40 36 41
REMARK SMILES IDX 37 42 38 43 99 44 39 45 98 46 40 47 41 48 42 49 92 50 43 51
REMARK SMILES IDX 97 52 91 53 93 54 44 55 96 56 90 57 89 58 45 60 77 61 57 62
REMARK SMILES IDX 76 63 58 64 61 65 75 66 94 67 59 68 60 69 74 71 95 72 62 73
REMARK SMILES IDX 46 74 47 75 55 76 48 77 50 78 56 79 49 80 51 81 52 82 53 83
REMARK SMILES IDX 54 84 78 85 79 86 87 87 80 88 82 89 88 90 81 91 83 92 84 93
REMARK SMILES IDX 85 94 86 95 63 96 64 97 72 98 65 99 67 100 73 101 66 102
REMARK SMILES IDX 68 103 69 104 70 105 71 106
REMARK H PARENT 93 59 61 70
REMARK Flexibility Score: inf
ROOT
ATOM      1  C   UNL A   1      37.766  31.811  34.754  1.00  0.00     0.202 C 
ENDROOT
BRANCH   1   2
ATOM      2  C   UNL A   1      38.377  30.863  33.719  1.00  0.00     0.261 C 
BRANCH   2   3
ATOM      3  O   UNL A   1      37.494  30.680  32.603  1.00  0.00    -0.460 OA
BRANCH   3   4
ATOM      4  C   UNL A   1      37.423  29.419  32.108  1.00  0.00     0.339 C 
ATOM      5  O   UNL A   1      37.196  28.396  32.732  1.00  0.00    -0.246 OA
BRANCH   4   6
ATOM      6  C   UNL A   1      37.563  29.489  30.637  1.00  0.00     0.079 A 
ATOM      7  C   UNL A   1      36.496  29.658  28.453  1.00  0.00     0.018 A 
ATOM      8  C   UNL A   1      37.761  29.606  27.851  1.00  0.00     0.013 A 
ATOM      9  C   UNL A   1      36.407  29.593  29.850  1.00  0.00     0.029 A 
ATOM     10  C   UNL A   1      38.914  29.493  28.631  1.00  0.00     0.022 A 
ATOM     11  C   UNL A   1      38.820  29.432  30.024  1.00  0.00     0.055 A 
ATOM     12  Cl  UNL A   1      40.294  29.209  30.900  1.00  0.00    -0.083 Cl
BRANCH   7  13
ATOM     13  C   UNL A   1      35.292  29.824  27.656  1.00  0.00     0.134 A 
ATOM     14  C   UNL A   1      34.024  29.396  25.885  1.00  0.00     0.128 A 
ATOM     15  C   UNL A   1      33.360  30.330  26.671  1.00  0.00     0.051 A 
ATOM     16  O   UNL A   1      35.203  29.077  26.519  1.00  0.00    -0.457 OA
ATOM     17  C   UNL A   1      34.169  30.604  27.794  1.00  0.00     0.051 A 
BRANCH  14  18
ATOM     18  C   UNL A   1      33.626  28.815  24.654  1.00  0.00     0.068 C 
ATOM     19  N   UNL A   1      33.050  25.234  25.068  1.00  0.00    -0.260 N 
ATOM     20  C   UNL A   1      33.232  26.498  25.617  1.00  0.00     0.270 C 
ATOM     21  C   UNL A   1      32.793  25.176  23.710  1.00  0.00     0.152 C 
ATOM     22  O   UNL A   1      33.291  26.759  26.811  1.00  0.00    -0.268 OA
ATOM     23  C   UNL A   1      33.307  27.520  24.532  1.00  0.00     0.084 C 
ATOM     24  S   UNL A   1      32.927  26.790  23.014  1.00  0.00    -0.054 SA
ATOM     25  S   UNL A   1      32.310  23.866  22.787  1.00  0.00    -0.051 S 
BRANCH  19  26
ATOM     26  C   UNL A   1      33.134  24.098  25.924  1.00  0.00     0.065 A 
ATOM     27  C   UNL A   1      34.293  23.303  26.038  1.00  0.00     0.084 A 
ATOM     28  C   UNL A   1      34.297  22.201  26.912  1.00  0.00     0.018 A 
ATOM     29  C   UNL A   1      33.175  21.903  27.687  1.00  0.00     0.001 A 
ATOM     30  C   UNL A   1      32.021  23.793  26.728  1.00  0.00     0.028 A 
ATOM     31  C   UNL A   1      32.040  22.701  27.599  1.00  0.00     0.002 A 
BRANCH  27  32
ATOM     32  C   UNL A   1      35.577  23.581  25.342  1.00  0.00     0.339 C 
ATOM     33  O   UNL A   1      36.188  24.631  25.459  1.00  0.00    -0.246 OA
BRANCH  32  34
ATOM     34  O   UNL A   1      35.921  22.537  24.549  1.00  0.00    -0.465 OA
ATOM     35  C   UNL A   1      36.563  22.908  23.326  1.00  0.00     0.282 C 
ENDBRANCH  32  34
ENDBRANCH  27  32
ENDBRANCH  19  26
ENDBRANCH  14  18
ENDBRANCH   7  13
ENDBRANCH   4   6
ENDBRANCH   3   4
ENDBRANCH   2   3
ENDBRANCH   1   2
BRANCH   1  36
ATOM     36  O   UNL A   1      38.528  32.065  35.935  1.00  0.00    -0.374 OA
BRANCH  36  37
ATOM     37  C   UNL A   1      37.920  32.845  36.964  1.00  0.00     0.202 C 
BRANCH  37  38
ATOM     38  C   UNL A   1      38.656  34.105  37.439  1.00  0.00     0.261 C 
BRANCH  38  39
ATOM     39  O   UNL A   1      38.567  35.195  36.508  1.00  0.00    -0.460 OA
BRANCH  39  40
ATOM     40  C   UNL A   1      39.743  35.826  36.265  1.00  0.00     0.338 C 
ATOM     41  O   UNL A   1      40.201  36.788  36.858  1.00  0.00    -0.246 OA
BRANCH  40  42
ATOM     42  C   UNL A   1      40.515  35.068  35.265  1.00  0.00     0.060 A 
ATOM     43  C   UNL A   1      39.855  34.671  34.094  1.00  0.00     0.016 A 
ATOM     44  C   UNL A   1      41.836  34.687  35.504  1.00  0.00     0.016 A 
ATOM     45  C   UNL A   1      40.501  33.848  33.175  1.00  0.00     0.010 A 
ATOM     46  C   UNL A   1      42.479  33.855  34.584  1.00  0.00     0.010 A 
ATOM     47  C   UNL A   1      41.801  33.401  33.437  1.00  0.00    -0.014 A 
BRANCH  47  48
ATOM     48  C   UNL A   1      42.406  32.341  32.597  1.00  0.00     0.031 A 
ATOM     49  C   UNL A   1      42.528  30.951  33.160  1.00  0.00     0.074 A 
ATOM     50  C   UNL A   1      42.864  32.615  31.363  1.00  0.00     0.049 A 
ATOM     51  N   UNL A   1      43.084  29.892  32.638  1.00  0.00    -0.248 NA
ATOM     52  C   UNL A   1      41.954  30.732  34.498  1.00  0.00     0.031 C 
ATOM     53  C   UNL A   1      42.781  33.916  30.703  1.00  0.00     0.029 A 
ATOM     54  N   UNL A   1      43.512  31.816  30.457  1.00  0.00    -0.354 N 
ATOM     55  C   UNL A   1      42.972  28.893  33.597  1.00  0.00     0.074 A 
ATOM     56  C   UNL A   1      42.297  29.477  34.737  1.00  0.00     0.031 C 
ATOM     57  C   UNL A   1      43.377  33.832  29.501  1.00  0.00     0.029 A 
ATOM     58  C   UNL A   1      43.912  32.484  29.324  1.00  0.00     0.049 A 
ATOM     59  H   UNL A   1      43.675  30.856  30.603  1.00  0.00     0.167 HD
ATOM     60  C   UNL A   1      43.389  27.606  33.536  1.00  0.00     0.034 A 
ATOM     61  C   UNL A   1      44.646  32.060  28.277  1.00  0.00     0.034 A 
ATOM     62  C   UNL A   1      44.040  27.028  32.392  1.00  0.00     0.049 A 
ATOM     63  C   UNL A   1      45.129  30.632  28.246  1.00  0.00     0.074 A 
ATOM     64  C   UNL A   1      44.441  25.718  32.201  1.00  0.00     0.029 A 
ATOM     65  N   UNL A   1      44.406  27.728  31.253  1.00  0.00    -0.354 N 
ATOM     66  N   UNL A   1      44.919  29.669  29.111  1.00  0.00    -0.248 NA
ATOM     67  C   UNL A   1      45.927  30.226  27.080  1.00  0.00     0.031 C 
ATOM     68  C   UNL A   1      45.092  25.637  30.966  1.00  0.00     0.029 A 
ATOM     69  C   UNL A   1      45.052  26.885  30.365  1.00  0.00     0.049 A 
ATOM     70  H   UNL A   1      44.233  28.685  31.098  1.00  0.00     0.167 HD
ATOM     71  C   UNL A   1      45.514  28.534  28.572  1.00  0.00     0.074 A 
ATOM     72  C   UNL A   1      46.091  28.928  27.304  1.00  0.00     0.031 C 
ATOM     73  C   UNL A   1      45.576  27.279  29.082  1.00  0.00     0.034 A 
BRANCH  60  74
ATOM     74  C   UNL A   1      43.158  26.739  34.746  1.00  0.00     0.023 A 
ATOM     75  C   UNL A   1      41.928  26.072  34.918  1.00  0.00     0.012 A 
ATOM     76  C   UNL A   1      44.176  26.564  35.703  1.00  0.00     0.148 A 
ATOM     77  C   UNL A   1      41.698  25.284  36.045  1.00  0.00     0.002 A 
ATOM     78  C   UNL A   1      43.959  25.736  36.798  1.00  0.00     0.091 A 
ATOM     79  F   UNL A   1      45.331  27.225  35.538  1.00  0.00    -0.205 F 
ATOM     80  C   UNL A   1      42.716  25.108  36.980  1.00  0.00     0.022 A 
BRANCH  78  81
ATOM     81  S   UNL A   1      45.238  25.384  38.008  1.00  0.00     0.127 S 
ATOM     82  O   UNL A   1      46.443  25.405  37.180  1.00  0.00    -0.237 OA
ATOM     83  O   UNL A   1      45.111  26.514  38.930  1.00  0.00    -0.237 OA
ATOM     84  O   UNL A   1      44.898  24.092  38.586  1.00  0.00    -0.744 OA
ENDBRANCH  78  81
ENDBRANCH  60  74
BRANCH  61  85
ATOM     85  C   UNL A   1      44.929  32.986  27.145  1.00  0.00     0.023 A 
ATOM     86  C   UNL A   1      44.005  33.082  26.087  1.00  0.00     0.012 A 
ATOM     87  C   UNL A   1      46.086  33.789  27.123  1.00  0.00     0.148 A 
ATOM     88  C   UNL A   1      44.238  33.942  25.015  1.00  0.00     0.002 A 
ATOM     89  C   UNL A   1      46.287  34.683  26.078  1.00  0.00     0.091 A 
ATOM     90  F   UNL A   1      46.957  33.675  28.135  1.00  0.00    -0.205 F 
ATOM     91  C   UNL A   1      45.373  34.749  25.014  1.00  0.00     0.022 A 
BRANCH  89  92
ATOM     92  S   UNL A   1      47.653  35.849  26.050  1.00  0.00     0.127 S 
ATOM     93  O   UNL A   1      46.986  37.081  25.639  1.00  0.00    -0.237 OA
ATOM     94  O   UNL A   1      48.096  35.821  27.445  1.00  0.00    -0.237 OA
ATOM     95  O   UNL A   1      48.617  35.310  25.100  1.00  0.00    -0.744 OA
ENDBRANCH  89  92
ENDBRANCH  61  85
BRANCH  73  96
ATOM     96  C   UNL A   1      46.239  26.210  28.250  1.00  0.00     0.023 A 
ATOM     97  C   UNL A   1      47.631  26.008  28.331  1.00  0.00     0.012 A 
ATOM     98  C   UNL A   1      45.459  25.341  27.460  1.00  0.00     0.148 A 
ATOM     99  C   UNL A   1      48.239  24.976  27.616  1.00  0.00     0.002 A 
ATOM    100  C   UNL A   1      46.064  24.283  26.795  1.00  0.00     0.091 A 
ATOM    101  F   UNL A   1      44.138  25.560  27.385  1.00  0.00    -0.205 F 
ATOM    102  C   UNL A   1      47.456  24.106  26.861  1.00  0.00     0.022 A 
BRANCH 100 103
ATOM    103  S   UNL A   1      45.124  23.051  25.884  1.00  0.00     0.127 S 
ATOM    104  O   UNL A   1      46.114  21.992  25.707  1.00  0.00    -0.237 OA
ATOM    105  O   UNL A   1      44.047  22.731  26.822  1.00  0.00    -0.237 OA
ATOM    106  O   UNL A   1      44.685  23.704  24.659  1.00  0.00    -0.744 OA
ENDBRANCH 100 103
ENDBRANCH  73  96
ENDBRANCH  47  48
ENDBRANCH  40  42
ENDBRANCH  39  40
ENDBRANCH  38  39
ENDBRANCH  37  38
ENDBRANCH  36  37
ENDBRANCH   1  36
TORSDOF 22
ENDMDL
MODEL 3
REMARK VINA RESULT:      -9.8      3.889      9.578
REMARK SMILES COC(=O)c1ccccc1N1C(=O)/C(=C\c2ccc(-c3ccc(Cl)c(C(=O)OCCOCCOC(=O)c4ccc(-c5c6nc(c(-c7cccc(S(=O)(=O)[O-])c7F)c7ccc([nH]7)c(-c7cccc(S(=O)(=O)[O-])c7F)c7nc(c(-c8cccc(S(=O)(=O)[O-])c8F)c8ccc5[nH]8)C=C7)C=C6)cc4)c3)o2)SC1=S
REMARK SMILES IDX 30 1 29 2 28 3 26 4 27 5 25 6 20 7 21 8 100 9 22 10 23 11
REMARK SMILES IDX 24 12 19 13 16 14 17 15 101 16 18 17 15 18 11 19 12 20
REMARK SMILES IDX 103 21 13 22 14 23 102 24 104 25 10 26 5 27 6 28 7 29 9 30
REMARK SMILES IDX 8 31 3 32 4 33 2 34 1 35 31 36 32 37 33 38 34 39 35 40 36 41
REMARK SMILES IDX 37 42 38 43 99 44 39 45 98 46 40 47 41 48 42 49 92 50 43 51
REMARK SMILES IDX 97 52 91 53 93 54 44 55 96 56 90 57 89 58 45 60 77 61 57 62
REMARK SMILES IDX 76 63 58 64 61 65 75 66 94 67 59 68 60 69 74 71 95 72 62 73
REMARK SMILES IDX 46 74 47 75 55 76 48 77 50 78 56 79 49 80 51 81 52 82 53 83
REMARK SMILES IDX 54 84 78 85 79 86 87 87 80 88 82 89 88 90 81 91 83 92 84 93
REMARK SMILES IDX 85 94 86 95 63 96 64 97 72 98 65 99 67 100 73 101 66 102
REMARK SMILES IDX 68 103 69 104 70 105 71 106
REMARK H PARENT 93 59 61 70
REMARK Flexibility Score: inf
ROOT
ATOM      1  C   UNL A   1      35.952  23.359  25.406  1.00  0.00     0.202 C 
ENDROOT
BRANCH   1   2
ATOM      2  C   UNL A   1      35.383  22.777  26.703  1.00  0.00     0.261 C 
BRANCH   2   3
ATOM      3  O   UNL A   1      34.047  23.244  26.936  1.00  0.00    -0.460 OA
BRANCH   3   4
ATOM      4  C   UNL A   1      33.064  22.323  26.781  1.00  0.00     0.339 C 
ATOM      5  O   UNL A   1      32.426  21.774  27.663  1.00  0.00    -0.246 OA
BRANCH   4   6
ATOM      6  C   UNL A   1      32.806  22.159  25.334  1.00  0.00     0.079 A 
ATOM      7  C   UNL A   1      32.323  23.187  23.178  1.00  0.00     0.018 A 
ATOM      8  C   UNL A   1      32.294  21.913  22.597  1.00  0.00     0.013 A 
ATOM      9  C   UNL A   1      32.576  23.300  24.552  1.00  0.00     0.029 A 
ATOM     10  C   UNL A   1      32.515  20.772  23.374  1.00  0.00     0.022 A 
ATOM     11  C   UNL A   1      32.769  20.890  24.743  1.00  0.00     0.055 A 
ATOM     12  Cl  UNL A   1      32.947  19.421  25.636  1.00  0.00    -0.083 Cl
BRANCH   7  13
ATOM     13  C   UNL A   1      32.143  24.383  22.373  1.00  0.00     0.134 A 
ATOM     14  C   UNL A   1      31.326  26.416  22.014  1.00  0.00     0.128 A 
ATOM     15  C   UNL A   1      32.041  26.037  20.884  1.00  0.00     0.051 A 
ATOM     16  O   UNL A   1      31.420  25.395  22.932  1.00  0.00    -0.457 OA
ATOM     17  C   UNL A   1      32.556  24.743  21.112  1.00  0.00     0.051 A 
BRANCH  14  18
ATOM     18  C   UNL A   1      30.617  27.618  22.264  1.00  0.00     0.068 C 
ATOM     19  N   UNL A   1      32.111  29.413  25.071  1.00  0.00    -0.260 N 
ATOM     20  C   UNL A   1      32.181  28.424  24.096  1.00  0.00     0.270 C 
ATOM     21  C   UNL A   1      31.100  30.348  24.937  1.00  0.00     0.152 C 
ATOM     22  O   UNL A   1      33.099  27.628  23.948  1.00  0.00    -0.268 OA
ATOM     23  C   UNL A   1      30.980  28.491  23.213  1.00  0.00     0.084 C 
ATOM     24  S   UNL A   1      30.056  29.900  23.589  1.00  0.00    -0.054 SA
ATOM     25  S   UNL A   1      30.868  31.772  25.784  1.00  0.00    -0.051 S 
BRANCH  19  26
ATOM     26  C   UNL A   1      33.070  29.404  26.124  1.00  0.00     0.065 A 
ATOM     27  C   UNL A   1      32.897  28.672  27.318  1.00  0.00     0.084 A 
ATOM     28  C   UNL A   1      33.896  28.711  28.307  1.00  0.00     0.018 A 
ATOM     29  C   UNL A   1      35.068  29.445  28.108  1.00  0.00     0.001 A 
ATOM     30  C   UNL A   1      34.266  30.121  25.935  1.00  0.00     0.028 A 
ATOM     31  C   UNL A   1      35.254  30.145  26.921  1.00  0.00     0.002 A 
BRANCH  27  32
ATOM     32  C   UNL A   1      31.744  27.778  27.598  1.00  0.00     0.339 C 
ATOM     33  O   UNL A   1      30.799  28.103  28.299  1.00  0.00    -0.246 OA
BRANCH  32  34
ATOM     34  O   UNL A   1      31.927  26.571  27.008  1.00  0.00    -0.465 OA
ATOM     35  C   UNL A   1      30.788  26.080  26.297  1.00  0.00     0.282 C 
ENDBRANCH  32  34
ENDBRANCH  27  32
ENDBRANCH  19  26
ENDBRANCH  14  18
ENDBRANCH   7  13
ENDBRANCH   4   6
ENDBRANCH   3   4
ENDBRANCH   2   3
ENDBRANCH   1   2
BRANCH   1  36
ATOM     36  O   UNL A   1      35.930  22.520  24.250  1.00  0.00    -0.374 OA
BRANCH  36  37
ATOM     37  C   UNL A   1      37.147  21.878  23.872  1.00  0.00     0.202 C 
BRANCH  37  38
ATOM     38  C   UNL A   1      37.544  20.597  24.617  1.00  0.00     0.261 C 
BRANCH  38  39
ATOM     39  O   UNL A   1      37.980  20.839  25.964  1.00  0.00    -0.460 OA
BRANCH  39  40
ATOM     40  C   UNL A   1      39.323  20.774  26.141  1.00  0.00     0.338 C 
ATOM     41  O   UNL A   1      40.078  19.904  25.740  1.00  0.00    -0.246 OA
BRANCH  40  42
ATOM     42  C   UNL A   1      39.804  22.022  26.757  1.00  0.00     0.060 A 
ATOM     43  C   UNL A   1      39.294  23.232  26.266  1.00  0.00     0.016 A 
ATOM     44  C   UNL A   1      40.792  22.013  27.742  1.00  0.00     0.016 A 
ATOM     45  C   UNL A   1      39.806  24.442  26.726  1.00  0.00     0.010 A 
ATOM     46  C   UNL A   1      41.310  23.228  28.196  1.00  0.00     0.010 A 
ATOM     47  C   UNL A   1      40.846  24.445  27.662  1.00  0.00    -0.014 A 
BRANCH  47  48
ATOM     48  C   UNL A   1      41.560  25.705  27.976  1.00  0.00     0.031 A 
ATOM     49  C   UNL A   1      40.827  26.789  28.718  1.00  0.00     0.074 A 
ATOM     50  C   UNL A   1      42.832  25.893  27.584  1.00  0.00     0.049 A 
ATOM     51  N   UNL A   1      41.225  27.991  29.035  1.00  0.00    -0.248 NA
ATOM     52  C   UNL A   1      39.456  26.474  29.153  1.00  0.00     0.031 C 
ATOM     53  C   UNL A   1      43.652  24.910  26.879  1.00  0.00     0.029 A 
ATOM     54  N   UNL A   1      43.647  26.990  27.703  1.00  0.00    -0.354 N 
ATOM     55  C   UNL A   1      40.142  28.596  29.661  1.00  0.00     0.074 A 
ATOM     56  C   UNL A   1      39.067  27.626  29.676  1.00  0.00     0.031 C 
ATOM     57  C   UNL A   1      44.850  25.456  26.608  1.00  0.00     0.029 A 
ATOM     58  C   UNL A   1      44.867  26.836  27.090  1.00  0.00     0.049 A 
ATOM     59  H   UNL A   1      43.383  27.809  28.182  1.00  0.00     0.167 HD
ATOM     60  C   UNL A   1      40.049  29.843  30.181  1.00  0.00     0.034 A 
ATOM     61  C   UNL A   1      45.873  27.717  26.918  1.00  0.00     0.034 A 
ATOM     62  C   UNL A   1      41.128  30.793  30.181  1.00  0.00     0.049 A 
ATOM     63  C   UNL A   1      45.734  29.110  27.475  1.00  0.00     0.074 A 
ATOM     64  C   UNL A   1      41.160  32.057  30.741  1.00  0.00     0.029 A 
ATOM     65  N   UNL A   1      42.358  30.594  29.573  1.00  0.00    -0.354 N 
ATOM     66  N   UNL A   1      44.746  29.631  28.162  1.00  0.00    -0.248 NA
ATOM     67  C   UNL A   1      46.861  30.029  27.256  1.00  0.00     0.031 C 
ATOM     68  C   UNL A   1      42.393  32.640  30.430  1.00  0.00     0.029 A 
ATOM     69  C   UNL A   1      43.148  31.720  29.721  1.00  0.00     0.049 A 
ATOM     70  H   UNL A   1      42.630  29.771  29.105  1.00  0.00     0.167 HD
ATOM     71  C   UNL A   1      45.152  30.918  28.500  1.00  0.00     0.074 A 
ATOM     72  C   UNL A   1      46.477  31.097  27.943  1.00  0.00     0.031 C 
ATOM     73  C   UNL A   1      44.487  31.865  29.207  1.00  0.00     0.034 A 
BRANCH  60  74
ATOM     74  C   UNL A   1      38.731  30.252  30.785  1.00  0.00     0.023 A 
ATOM     75  C   UNL A   1      38.300  29.681  31.999  1.00  0.00     0.012 A 
ATOM     76  C   UNL A   1      37.930  31.227  30.159  1.00  0.00     0.148 A 
ATOM     77  C   UNL A   1      37.072  30.038  32.556  1.00  0.00     0.002 A 
ATOM     78  C   UNL A   1      36.732  31.615  30.745  1.00  0.00     0.091 A 
ATOM     79  F   UNL A   1      38.343  31.742  28.992  1.00  0.00    -0.205 F 
ATOM     80  C   UNL A   1      36.293  31.012  31.935  1.00  0.00     0.022 A 
BRANCH  78  81
ATOM     81  S   UNL A   1      35.704  32.919  30.062  1.00  0.00     0.127 S 
ATOM     82  O   UNL A   1      34.381  32.544  30.561  1.00  0.00    -0.237 OA
ATOM     83  O   UNL A   1      36.271  34.117  30.682  1.00  0.00    -0.237 OA
ATOM     84  O   UNL A   1      35.873  32.848  28.618  1.00  0.00    -0.744 OA
ENDBRANCH  78  81
ENDBRANCH  60  74
BRANCH  61  85
ATOM     85  C   UNL A   1      47.122  27.291  26.227  1.00  0.00     0.023 A 
ATOM     86  C   UNL A   1      47.266  27.546  24.850  1.00  0.00     0.012 A 
ATOM     87  C   UNL A   1      48.173  26.667  26.925  1.00  0.00     0.148 A 
ATOM     88  C   UNL A   1      48.424  27.163  24.173  1.00  0.00     0.002 A 
ATOM     89  C   UNL A   1      49.346  26.336  26.257  1.00  0.00     0.091 A 
ATOM     90  F   UNL A   1      48.011  26.426  28.234  1.00  0.00    -0.205 F 
ATOM     91  C   UNL A   1      49.468  26.568  24.878  1.00  0.00     0.022 A 
BRANCH  89  92
ATOM     92  S   UNL A   1      50.789  25.678  27.102  1.00  0.00     0.127 S 
ATOM     93  O   UNL A   1      51.774  25.638  26.023  1.00  0.00    -0.237 OA
ATOM     94  O   UNL A   1      51.029  26.701  28.120  1.00  0.00    -0.237 OA
ATOM     95  O   UNL A   1      50.384  24.383  27.631  1.00  0.00    -0.744 OA
ENDBRANCH  89  92
ENDBRANCH  61  85
BRANCH  73  96
ATOM     96  C   UNL A   1      45.193  33.169  29.481  1.00  0.00     0.023 A 
ATOM     97  C   UNL A   1      46.125  33.264  30.534  1.00  0.00     0.012 A 
ATOM     98  C   UNL A   1      44.999  34.274  28.628  1.00  0.00     0.148 A 
ATOM     99  C   UNL A   1      46.831  34.448  30.748  1.00  0.00     0.002 A 
ATOM    100  C   UNL A   1      45.745  35.431  28.815  1.00  0.00     0.091 A 
ATOM    101  F   UNL A   1      44.095  34.168  27.643  1.00  0.00    -0.205 F 
ATOM    102  C   UNL A   1      46.652  35.524  29.882  1.00  0.00     0.022 A 
BRANCH 100 103
ATOM    103  S   UNL A   1      45.658  36.828  27.688  1.00  0.00     0.127 S 
ATOM    104  O   UNL A   1      44.439  37.497  28.137  1.00  0.00    -0.237 OA
ATOM    105  O   UNL A   1      46.897  37.546  27.991  1.00  0.00    -0.237 OA
ATOM    106  O   UNL A   1      45.599  36.262  26.347  1.00  0.00    -0.744 OA
ENDBRANCH 100 103
ENDBRANCH  73  96
ENDBRANCH  47  48
ENDBRANCH  40  42
ENDBRANCH  39  40
ENDBRANCH  38  39
ENDBRANCH  37  38
ENDBRANCH  36  37
ENDBRANCH   1  36
TORSDOF 22
ENDMDL
