MODEL 1
REMARK VINA RESULT:     -11.2      0.000      0.000
REMARK SMILES O=C(OCCOCCOC(=O)[C@H]1C=C[C@H](NS(=O)(=O)c2ccc(F)c(F)c2F)C1)c1ccc(-c2c3nc(c(-c4cccc(S(=O)(=O)[O-])c4F)c4ccc([nH]4)c(-c4cccc(S(=O)(=O)[O-])c4F)c4nc(c(-c5cccc(S(=O)(=O)[O-])c5F)c5ccc2[nH]5)C=C4)C=C3)cc1
REMARK SMILES IDX 6 1 5 2 4 3 3 4 2 5 1 6 30 7 31 8 92 9 32 10 91 11 33 12
REMARK SMILES IDX 34 13 35 14 85 15 36 16 90 17 84 18 86 19 37 20 89 21 83 22
REMARK SMILES IDX 82 23 38 25 70 26 50 27 69 28 51 29 54 30 68 31 87 32 52 33
REMARK SMILES IDX 53 34 67 36 88 37 55 38 39 39 40 40 48 41 41 42 43 43 49 44
REMARK SMILES IDX 42 45 44 46 45 47 46 48 47 49 71 50 72 51 80 52 73 53 75 54
REMARK SMILES IDX 81 55 74 56 76 57 77 58 78 59 79 60 56 61 57 62 65 63 58 64
REMARK SMILES IDX 60 65 66 66 59 67 61 68 62 69 63 70 64 71 7 72 8 73 9 74
REMARK SMILES IDX 10 75 11 76 12 77 13 78 29 79 14 80 15 81 16 82 17 84 18 85
REMARK SMILES IDX 19 86 20 87 21 88 27 89 22 90 25 91 28 92 23 93 26 94 24 95
REMARK H PARENT 86 24 54 35 16 83
REMARK Flexibility Score: inf
ROOT
ATOM      1  O   UNL A   1      36.835  19.606  24.864  1.00  0.00    -0.374 OA
ENDROOT
BRANCH   1   2
ATOM      2  C   UNL A   1      38.150  19.076  25.041  1.00  0.00     0.202 C 
BRANCH   2   3
ATOM      3  C   UNL A   1      39.262  19.884  25.737  1.00  0.00     0.261 C 
BRANCH   3   4
ATOM      4  O   UNL A   1      40.560  19.278  25.647  1.00  0.00    -0.460 OA
BRANCH   4   5
ATOM      5  C   UNL A   1      41.658  19.632  26.367  1.00  0.00     0.338 C 
ATOM      6  O   UNL A   1      42.423  18.762  26.770  1.00  0.00    -0.246 OA
BRANCH   5   7
ATOM      7  C   UNL A   1      41.941  21.060  26.688  1.00  0.00     0.060 A 
ATOM      8  C   UNL A   1      41.830  22.081  25.747  1.00  0.00     0.016 A 
ATOM      9  C   UNL A   1      42.272  21.404  28.002  1.00  0.00     0.016 A 
ATOM     10  C   UNL A   1      42.194  23.377  26.030  1.00  0.00     0.010 A 
ATOM     11  C   UNL A   1      42.532  22.739  28.333  1.00  0.00     0.010 A 
ATOM     12  C   UNL A   1      42.518  23.720  27.333  1.00  0.00    -0.014 A 
BRANCH  12  13
ATOM     13  C   UNL A   1      42.876  25.125  27.571  1.00  0.00     0.031 A 
ATOM     14  C   UNL A   1      44.174  25.631  27.035  1.00  0.00     0.074 A 
ATOM     15  C   UNL A   1      41.959  25.939  28.129  1.00  0.00     0.049 A 
ATOM     16  N   UNL A   1      44.700  26.818  27.153  1.00  0.00    -0.248 NA
ATOM     17  C   UNL A   1      44.985  24.684  26.250  1.00  0.00     0.031 C 
ATOM     18  C   UNL A   1      40.619  25.526  28.567  1.00  0.00     0.029 A 
ATOM     19  N   UNL A   1      41.994  27.279  28.398  1.00  0.00    -0.354 N 
ATOM     20  C   UNL A   1      45.934  26.740  26.522  1.00  0.00     0.074 A 
ATOM     21  C   UNL A   1      46.066  25.404  25.989  1.00  0.00     0.031 C 
ATOM     22  C   UNL A   1      39.956  26.595  29.031  1.00  0.00     0.029 A 
ATOM     23  C   UNL A   1      40.850  27.743  29.007  1.00  0.00     0.049 A 
ATOM     24  H   UNL A   1      42.760  27.854  28.176  1.00  0.00     0.167 HD
ATOM     25  C   UNL A   1      46.872  27.706  26.420  1.00  0.00     0.034 A 
ATOM     26  C   UNL A   1      40.587  28.954  29.531  1.00  0.00     0.034 A 
ATOM     27  C   UNL A   1      46.688  29.029  26.947  1.00  0.00     0.049 A 
ATOM     28  C   UNL A   1      41.667  29.994  29.437  1.00  0.00     0.074 A 
ATOM     29  C   UNL A   1      47.575  30.087  26.951  1.00  0.00     0.029 A 
ATOM     30  N   UNL A   1      45.527  29.468  27.570  1.00  0.00    -0.354 N 
ATOM     31  N   UNL A   1      42.836  29.913  28.846  1.00  0.00    -0.248 NA
ATOM     32  C   UNL A   1      41.400  31.288  30.074  1.00  0.00     0.031 C 
ATOM     33  C   UNL A   1      46.955  31.162  27.597  1.00  0.00     0.029 A 
ATOM     34  C   UNL A   1      45.673  30.782  27.968  1.00  0.00     0.049 A 
ATOM     35  H   UNL A   1      44.719  28.923  27.706  1.00  0.00     0.167 HD
ATOM     36  C   UNL A   1      43.439  31.150  29.022  1.00  0.00     0.074 A 
ATOM     37  C   UNL A   1      42.489  31.971  29.749  1.00  0.00     0.031 C 
ATOM     38  C   UNL A   1      44.672  31.569  28.644  1.00  0.00     0.034 A 
BRANCH  25  39
ATOM     39  C   UNL A   1      48.173  27.340  25.766  1.00  0.00     0.023 A 
ATOM     40  C   UNL A   1      49.251  26.865  26.539  1.00  0.00     0.012 A 
ATOM     41  C   UNL A   1      48.326  27.477  24.372  1.00  0.00     0.148 A 
ATOM     42  C   UNL A   1      50.472  26.558  25.938  1.00  0.00     0.002 A 
ATOM     43  C   UNL A   1      49.533  27.134  23.775  1.00  0.00     0.091 A 
ATOM     44  F   UNL A   1      47.297  27.961  23.663  1.00  0.00    -0.205 F 
ATOM     45  C   UNL A   1      50.610  26.685  24.557  1.00  0.00     0.022 A 
BRANCH  43  46
ATOM     46  S   UNL A   1      49.795  27.217  22.001  1.00  0.00     0.127 S 
ATOM     47  O   UNL A   1      48.797  26.267  21.511  1.00  0.00    -0.237 OA
ATOM     48  O   UNL A   1      49.495  28.619  21.714  1.00  0.00    -0.237 OA
ATOM     49  O   UNL A   1      51.181  26.830  21.779  1.00  0.00    -0.744 OA
ENDBRANCH  43  46
ENDBRANCH  25  39
BRANCH  26  50
ATOM     50  C   UNL A   1      39.283  29.224  30.205  1.00  0.00     0.023 A 
ATOM     51  C   UNL A   1      39.001  28.634  31.451  1.00  0.00     0.012 A 
ATOM     52  C   UNL A   1      38.323  30.078  29.624  1.00  0.00     0.148 A 
ATOM     53  C   UNL A   1      37.780  28.864  32.090  1.00  0.00     0.002 A 
ATOM     54  C   UNL A   1      37.135  30.352  30.292  1.00  0.00     0.091 A 
ATOM     55  F   UNL A   1      38.589  30.614  28.424  1.00  0.00    -0.205 F 
ATOM     56  C   UNL A   1      36.853  29.731  31.517  1.00  0.00     0.022 A 
BRANCH  54  57
ATOM     57  S   UNL A   1      35.958  31.563  29.680  1.00  0.00     0.127 S 
ATOM     58  O   UNL A   1      35.384  30.869  28.531  1.00  0.00    -0.237 OA
ATOM     59  O   UNL A   1      35.053  31.720  30.821  1.00  0.00    -0.237 OA
ATOM     60  O   UNL A   1      36.748  32.750  29.382  1.00  0.00    -0.744 OA
ENDBRANCH  54  57
ENDBRANCH  26  50
BRANCH  38  61
ATOM     61  C   UNL A   1      45.041  32.984  28.980  1.00  0.00     0.023 A 
ATOM     62  C   UNL A   1      45.575  33.285  30.247  1.00  0.00     0.012 A 
ATOM     63  C   UNL A   1      44.940  33.993  28.004  1.00  0.00     0.148 A 
ATOM     64  C   UNL A   1      45.983  34.582  30.548  1.00  0.00     0.002 A 
ATOM     65  C   UNL A   1      45.399  35.270  28.293  1.00  0.00     0.091 A 
ATOM     66  F   UNL A   1      44.406  33.682  26.814  1.00  0.00    -0.205 F 
ATOM     67  C   UNL A   1      45.910  35.569  29.566  1.00  0.00     0.022 A 
BRANCH  65  68
ATOM     68  S   UNL A   1      45.442  36.568  27.054  1.00  0.00     0.127 S 
ATOM     69  O   UNL A   1      44.024  36.889  26.911  1.00  0.00    -0.237 OA
ATOM     70  O   UNL A   1      46.240  37.602  27.716  1.00  0.00    -0.237 OA
ATOM     71  O   UNL A   1      46.074  35.980  25.881  1.00  0.00    -0.744 OA
ENDBRANCH  65  68
ENDBRANCH  38  61
ENDBRANCH  12  13
ENDBRANCH   5   7
ENDBRANCH   4   5
ENDBRANCH   3   4
ENDBRANCH   2   3
ENDBRANCH   1   2
BRANCH   1  72
ATOM     72  C   UNL A   1      36.557  20.919  25.364  1.00  0.00     0.202 C 
BRANCH  72  73
ATOM     73  C   UNL A   1      35.130  21.331  24.998  1.00  0.00     0.261 C 
BRANCH  73  74
ATOM     74  O   UNL A   1      35.170  22.744  24.752  1.00  0.00    -0.463 OA
BRANCH  74  75
ATOM     75  C   UNL A   1      35.207  23.053  23.434  1.00  0.00     0.312 C 
ATOM     76  O   UNL A   1      36.190  22.935  22.713  1.00  0.00    -0.252 OA
BRANCH  75  77
ATOM     77  C   UNL A   1      33.851  23.495  22.917  1.00  0.00     0.123 C 
ATOM     78  C   UNL A   1      32.827  22.452  22.542  1.00  0.00    -0.015 C 
ATOM     79  C   UNL A   1      33.071  24.292  23.954  1.00  0.00     0.043 C 
ATOM     80  C   UNL A   1      31.588  22.885  22.794  1.00  0.00    -0.011 C 
ATOM     81  C   UNL A   1      31.617  24.196  23.503  1.00  0.00     0.093 C 
BRANCH  81  82
ATOM     82  N   UNL A   1      31.097  25.237  22.637  1.00  0.00    -0.204 NA
ATOM     83  H   UNL A   1      30.119  25.326  22.912  1.00  0.00     0.142 HD
BRANCH  82  84
ATOM     84  S   UNL A   1      31.605  26.806  22.432  1.00  0.00     0.244 S 
ATOM     85  O   UNL A   1      32.804  26.728  21.622  1.00  0.00    -0.207 OA
ATOM     86  O   UNL A   1      30.486  27.614  22.016  1.00  0.00    -0.207 OA
BRANCH  84  87
ATOM     87  C   UNL A   1      32.129  27.384  24.011  1.00  0.00     0.121 A 
ATOM     88  C   UNL A   1      33.447  27.833  24.191  1.00  0.00     0.028 A 
ATOM     89  C   UNL A   1      31.249  27.336  25.084  1.00  0.00     0.181 A 
ATOM     90  C   UNL A   1      33.871  28.239  25.458  1.00  0.00     0.044 A 
ATOM     91  C   UNL A   1      31.669  27.767  26.337  1.00  0.00     0.195 A 
ATOM     92  F   UNL A   1      29.998  26.879  24.939  1.00  0.00    -0.202 F 
ATOM     93  C   UNL A   1      32.971  28.216  26.521  1.00  0.00     0.161 A 
ATOM     94  F   UNL A   1      30.813  27.758  27.368  1.00  0.00    -0.200 F 
ATOM     95  F   UNL A   1      33.366  28.661  27.722  1.00  0.00    -0.204 F 
ENDBRANCH  84  87
ENDBRANCH  82  84
ENDBRANCH  81  82
ENDBRANCH  75  77
ENDBRANCH  74  75
ENDBRANCH  73  74
ENDBRANCH  72  73
ENDBRANCH   1  72
TORSDOF 20
ENDMDL
MODEL 2
REMARK VINA RESULT:     -11.1      2.013      7.848
REMARK SMILES O=C(OCCOCCOC(=O)[C@H]1C=C[C@H](NS(=O)(=O)c2ccc(F)c(F)c2F)C1)c1ccc(-c2c3nc(c(-c4cccc(S(=O)(=O)[O-])c4F)c4ccc([nH]4)c(-c4cccc(S(=O)(=O)[O-])c4F)c4nc(c(-c5cccc(S(=O)(=O)[O-])c5F)c5ccc2[nH]5)C=C4)C=C3)cc1
REMARK SMILES IDX 6 1 5 2 4 3 3 4 2 5 1 6 30 7 31 8 92 9 32 10 91 11 33 12
REMARK SMILES IDX 34 13 35 14 85 15 36 16 90 17 84 18 86 19 37 20 89 21 83 22
REMARK SMILES IDX 82 23 38 25 70 26 50 27 69 28 51 29 54 30 68 31 87 32 52 33
REMARK SMILES IDX 53 34 67 36 88 37 55 38 39 39 40 40 48 41 41 42 43 43 49 44
REMARK SMILES IDX 42 45 44 46 45 47 46 48 47 49 71 50 72 51 80 52 73 53 75 54
REMARK SMILES IDX 81 55 74 56 76 57 77 58 78 59 79 60 56 61 57 62 65 63 58 64
REMARK SMILES IDX 60 65 66 66 59 67 61 68 62 69 63 70 64 71 7 72 8 73 9 74
REMARK SMILES IDX 10 75 11 76 12 77 13 78 29 79 14 80 15 81 16 82 17 84 18 85
REMARK SMILES IDX 19 86 20 87 21 88 27 89 22 90 25 91 28 92 23 93 26 94 24 95
REMARK H PARENT 86 24 54 35 16 83
REMARK Flexibility Score: inf
ROOT
ATOM      1  O   UNL A   1      34.149  21.226  25.533  1.00  0.00    -0.374 OA
ENDROOT
BRANCH   1   2
ATOM      2  C   UNL A   1      35.085  21.316  24.457  1.00  0.00     0.202 C 
BRANCH   2   3
ATOM      3  C   UNL A   1      36.498  21.895  24.658  1.00  0.00     0.261 C 
BRANCH   3   4
ATOM      4  O   UNL A   1      37.187  21.357  25.796  1.00  0.00    -0.460 OA
BRANCH   4   5
ATOM      5  C   UNL A   1      38.534  21.353  25.986  1.00  0.00     0.338 C 
ATOM      6  O   UNL A   1      39.171  20.326  25.777  1.00  0.00    -0.246 OA
BRANCH   5   7
ATOM      7  C   UNL A   1      39.248  22.571  26.461  1.00  0.00     0.060 A 
ATOM      8  C   UNL A   1      38.858  23.861  26.105  1.00  0.00     0.016 A 
ATOM      9  C   UNL A   1      40.318  22.425  27.350  1.00  0.00     0.016 A 
ATOM     10  C   UNL A   1      39.588  24.969  26.466  1.00  0.00     0.010 A 
ATOM     11  C   UNL A   1      40.999  23.554  27.818  1.00  0.00     0.010 A 
ATOM     12  C   UNL A   1      40.646  24.826  27.350  1.00  0.00    -0.014 A 
BRANCH  12  13
ATOM     13  C   UNL A   1      41.369  26.053  27.711  1.00  0.00     0.031 A 
ATOM     14  C   UNL A   1      40.684  27.056  28.579  1.00  0.00     0.074 A 
ATOM     15  C   UNL A   1      42.669  26.159  27.374  1.00  0.00     0.049 A 
ATOM     16  N   UNL A   1      41.119  28.212  28.993  1.00  0.00    -0.248 NA
ATOM     17  C   UNL A   1      39.334  26.709  29.059  1.00  0.00     0.031 C 
ATOM     18  C   UNL A   1      43.431  25.151  26.624  1.00  0.00     0.029 A 
ATOM     19  N   UNL A   1      43.587  27.137  27.636  1.00  0.00    -0.354 N 
ATOM     20  C   UNL A   1      40.073  28.764  29.719  1.00  0.00     0.074 A 
ATOM     21  C   UNL A   1      38.994  27.803  29.724  1.00  0.00     0.031 C 
ATOM     22  C   UNL A   1      44.704  25.557  26.505  1.00  0.00     0.029 A 
ATOM     23  C   UNL A   1      44.824  26.886  27.087  1.00  0.00     0.049 A 
ATOM     24  H   UNL A   1      43.383  27.941  28.165  1.00  0.00     0.167 HD
ATOM     25  C   UNL A   1      40.027  29.977  30.310  1.00  0.00     0.034 A 
ATOM     26  C   UNL A   1      45.912  27.674  27.023  1.00  0.00     0.034 A 
ATOM     27  C   UNL A   1      41.134  30.892  30.298  1.00  0.00     0.049 A 
ATOM     28  C   UNL A   1      45.815  29.034  27.656  1.00  0.00     0.074 A 
ATOM     29  C   UNL A   1      41.204  32.168  30.819  1.00  0.00     0.029 A 
ATOM     30  N   UNL A   1      42.369  30.618  29.725  1.00  0.00    -0.354 N 
ATOM     31  N   UNL A   1      44.819  29.554  28.335  1.00  0.00    -0.248 NA
ATOM     32  C   UNL A   1      46.979  29.914  27.519  1.00  0.00     0.031 C 
ATOM     33  C   UNL A   1      42.478  32.674  30.541  1.00  0.00     0.029 A 
ATOM     34  C   UNL A   1      43.210  31.702  29.874  1.00  0.00     0.049 A 
ATOM     35  H   UNL A   1      42.609  29.774  29.279  1.00  0.00     0.167 HD
ATOM     36  C   UNL A   1      45.243  30.816  28.725  1.00  0.00     0.074 A 
ATOM     37  C   UNL A   1      46.598  30.967  28.230  1.00  0.00     0.031 C 
ATOM     38  C   UNL A   1      44.571  31.777  29.406  1.00  0.00     0.034 A 
BRANCH  25  39
ATOM     39  C   UNL A   1      38.736  30.381  30.959  1.00  0.00     0.023 A 
ATOM     40  C   UNL A   1      38.469  30.028  32.297  1.00  0.00     0.012 A 
ATOM     41  C   UNL A   1      37.776  31.111  30.231  1.00  0.00     0.148 A 
ATOM     42  C   UNL A   1      37.255  30.372  32.892  1.00  0.00     0.002 A 
ATOM     43  C   UNL A   1      36.584  31.482  30.841  1.00  0.00     0.091 A 
ATOM     44  F   UNL A   1      38.038  31.407  28.950  1.00  0.00    -0.205 F 
ATOM     45  C   UNL A   1      36.317  31.104  32.167  1.00  0.00     0.022 A 
BRANCH  43  46
ATOM     46  S   UNL A   1      35.334  32.466  30.009  1.00  0.00     0.127 S 
ATOM     47  O   UNL A   1      34.339  32.636  31.068  1.00  0.00    -0.237 OA
ATOM     48  O   UNL A   1      36.077  33.680  29.671  1.00  0.00    -0.237 OA
ATOM     49  O   UNL A   1      34.895  31.679  28.866  1.00  0.00    -0.744 OA
ENDBRANCH  43  46
ENDBRANCH  25  39
BRANCH  26  50
ATOM     50  C   UNL A   1      47.145  27.214  26.320  1.00  0.00     0.023 A 
ATOM     51  C   UNL A   1      47.323  27.502  24.953  1.00  0.00     0.012 A 
ATOM     52  C   UNL A   1      48.154  26.504  27.002  1.00  0.00     0.148 A 
ATOM     53  C   UNL A   1      48.463  27.067  24.275  1.00  0.00     0.002 A 
ATOM     54  C   UNL A   1      49.315  26.126  26.337  1.00  0.00     0.091 A 
ATOM     55  F   UNL A   1      47.964  26.211  28.296  1.00  0.00    -0.205 F 
ATOM     56  C   UNL A   1      49.464  26.390  24.968  1.00  0.00     0.022 A 
BRANCH  54  57
ATOM     57  S   UNL A   1      50.702  25.375  27.197  1.00  0.00     0.127 S 
ATOM     58  O   UNL A   1      50.041  24.331  27.975  1.00  0.00    -0.237 OA
ATOM     59  O   UNL A   1      51.528  24.890  26.090  1.00  0.00    -0.237 OA
ATOM     60  O   UNL A   1      51.310  26.456  27.963  1.00  0.00    -0.744 OA
ENDBRANCH  54  57
ENDBRANCH  26  50
BRANCH  38  61
ATOM     61  C   UNL A   1      45.310  33.054  29.683  1.00  0.00     0.023 A 
ATOM     62  C   UNL A   1      46.123  33.157  30.826  1.00  0.00     0.012 A 
ATOM     63  C   UNL A   1      45.264  34.113  28.757  1.00  0.00     0.148 A 
ATOM     64  C   UNL A   1      46.866  34.313  31.058  1.00  0.00     0.002 A 
ATOM     65  C   UNL A   1      46.048  35.238  28.967  1.00  0.00     0.091 A 
ATOM     66  F   UNL A   1      44.461  33.995  27.689  1.00  0.00    -0.205 F 
ATOM     67  C   UNL A   1      46.840  35.345  30.122  1.00  0.00     0.022 A 
BRANCH  65  68
ATOM     68  S   UNL A   1      46.156  36.562  27.759  1.00  0.00     0.127 S 
ATOM     69  O   UNL A   1      47.023  37.518  28.443  1.00  0.00    -0.237 OA
ATOM     70  O   UNL A   1      46.770  35.887  26.615  1.00  0.00    -0.237 OA
ATOM     71  O   UNL A   1      44.788  37.007  27.532  1.00  0.00    -0.744 OA
ENDBRANCH  65  68
ENDBRANCH  38  61
ENDBRANCH  12  13
ENDBRANCH   5   7
ENDBRANCH   4   5
ENDBRANCH   3   4
ENDBRANCH   2   3
ENDBRANCH   1   2
BRANCH   1  72
ATOM     72  C   UNL A   1      32.906  20.554  25.300  1.00  0.00     0.202 C 
BRANCH  72  73
ATOM     73  C   UNL A   1      31.736  21.472  25.654  1.00  0.00     0.261 C 
BRANCH  73  74
ATOM     74  O   UNL A   1      31.759  22.540  24.696  1.00  0.00    -0.463 OA
BRANCH  74  75
ATOM     75  C   UNL A   1      31.688  23.767  25.267  1.00  0.00     0.312 C 
ATOM     76  O   UNL A   1      31.453  23.977  26.450  1.00  0.00    -0.252 OA
BRANCH  75  77
ATOM     77  C   UNL A   1      32.015  24.872  24.280  1.00  0.00     0.123 C 
ATOM     78  C   UNL A   1      33.371  24.892  23.617  1.00  0.00    -0.015 C 
ATOM     79  C   UNL A   1      31.106  24.840  23.059  1.00  0.00     0.043 C 
ATOM     80  C   UNL A   1      33.289  25.385  22.377  1.00  0.00    -0.011 C 
ATOM     81  C   UNL A   1      31.868  25.617  21.988  1.00  0.00     0.093 C 
BRANCH  81  82
ATOM     82  N   UNL A   1      31.616  27.040  21.864  1.00  0.00    -0.204 NA
ATOM     83  H   UNL A   1      31.176  27.137  20.949  1.00  0.00     0.142 HD
BRANCH  82  84
ATOM     84  S   UNL A   1      30.743  28.058  22.845  1.00  0.00     0.244 S 
ATOM     85  O   UNL A   1      30.839  29.370  22.236  1.00  0.00    -0.207 OA
ATOM     86  O   UNL A   1      29.457  27.464  23.115  1.00  0.00    -0.207 OA
BRANCH  84  87
ATOM     87  C   UNL A   1      31.615  28.171  24.371  1.00  0.00     0.121 A 
ATOM     88  C   UNL A   1      30.986  27.790  25.567  1.00  0.00     0.028 A 
ATOM     89  C   UNL A   1      32.901  28.694  24.387  1.00  0.00     0.181 A 
ATOM     90  C   UNL A   1      31.665  27.933  26.779  1.00  0.00     0.044 A 
ATOM     91  C   UNL A   1      33.582  28.809  25.594  1.00  0.00     0.195 A 
ATOM     92  F   UNL A   1      33.505  29.094  23.259  1.00  0.00    -0.202 F 
ATOM     93  C   UNL A   1      32.967  28.430  26.781  1.00  0.00     0.161 A 
ATOM     94  F   UNL A   1      34.837  29.277  25.611  1.00  0.00    -0.200 F 
ATOM     95  F   UNL A   1      33.634  28.511  27.939  1.00  0.00    -0.204 F 
ENDBRANCH  84  87
ENDBRANCH  82  84
ENDBRANCH  81  82
ENDBRANCH  75  77
ENDBRANCH  74  75
ENDBRANCH  73  74
ENDBRANCH  72  73
ENDBRANCH   1  72
TORSDOF 20
ENDMDL
MODEL 3
REMARK VINA RESULT:     -10.7      6.219      9.851
REMARK SMILES O=C(OCCOCCOC(=O)[C@H]1C=C[C@H](NS(=O)(=O)c2ccc(F)c(F)c2F)C1)c1ccc(-c2c3nc(c(-c4cccc(S(=O)(=O)[O-])c4F)c4ccc([nH]4)c(-c4cccc(S(=O)(=O)[O-])c4F)c4nc(c(-c5cccc(S(=O)(=O)[O-])c5F)c5ccc2[nH]5)C=C4)C=C3)cc1
REMARK SMILES IDX 6 1 5 2 4 3 3 4 2 5 1 6 30 7 31 8 92 9 32 10 91 11 33 12
REMARK SMILES IDX 34 13 35 14 85 15 36 16 90 17 84 18 86 19 37 20 89 21 83 22
REMARK SMILES IDX 82 23 38 25 70 26 50 27 69 28 51 29 54 30 68 31 87 32 52 33
REMARK SMILES IDX 53 34 67 36 88 37 55 38 39 39 40 40 48 41 41 42 43 43 49 44
REMARK SMILES IDX 42 45 44 46 45 47 46 48 47 49 71 50 72 51 80 52 73 53 75 54
REMARK SMILES IDX 81 55 74 56 76 57 77 58 78 59 79 60 56 61 57 62 65 63 58 64
REMARK SMILES IDX 60 65 66 66 59 67 61 68 62 69 63 70 64 71 7 72 8 73 9 74
REMARK SMILES IDX 10 75 11 76 12 77 13 78 29 79 14 80 15 81 16 82 17 84 18 85
REMARK SMILES IDX 19 86 20 87 21 88 27 89 22 90 25 91 28 92 23 93 26 94 24 95
REMARK H PARENT 86 24 54 35 16 83
REMARK Flexibility Score: inf
ROOT
ATOM      1  O   UNL A   1      33.344  30.709  27.165  1.00  0.00    -0.374 OA
ENDROOT
BRANCH   1   2
ATOM      2  C   UNL A   1      33.539  31.999  27.747  1.00  0.00     0.202 C 
BRANCH   2   3
ATOM      3  C   UNL A   1      32.758  33.235  27.260  1.00  0.00     0.261 C 
BRANCH   3   4
ATOM      4  O   UNL A   1      32.427  34.159  28.307  1.00  0.00    -0.460 OA
BRANCH   4   5
ATOM      5  C   UNL A   1      33.304  34.949  28.982  1.00  0.00     0.338 C 
ATOM      6  O   UNL A   1      33.154  36.166  28.970  1.00  0.00    -0.246 OA
BRANCH   5   7
ATOM      7  C   UNL A   1      34.454  34.362  29.726  1.00  0.00     0.060 A 
ATOM      8  C   UNL A   1      35.777  34.526  29.321  1.00  0.00     0.016 A 
ATOM      9  C   UNL A   1      34.207  33.668  30.915  1.00  0.00     0.016 A 
ATOM     10  C   UNL A   1      36.818  33.893  29.958  1.00  0.00     0.010 A 
ATOM     11  C   UNL A   1      35.270  33.116  31.638  1.00  0.00     0.010 A 
ATOM     12  C   UNL A   1      36.576  33.209  31.139  1.00  0.00    -0.014 A 
BRANCH  12  13
ATOM     13  C   UNL A   1      37.736  32.574  31.779  1.00  0.00     0.031 A 
ATOM     14  C   UNL A   1      38.453  31.491  31.043  1.00  0.00     0.074 A 
ATOM     15  C   UNL A   1      38.200  33.092  32.933  1.00  0.00     0.049 A 
ATOM     16  N   UNL A   1      39.474  30.779  31.428  1.00  0.00    -0.248 NA
ATOM     17  C   UNL A   1      37.968  31.173  29.688  1.00  0.00     0.031 C 
ATOM     18  C   UNL A   1      37.609  34.234  33.643  1.00  0.00     0.029 A 
ATOM     19  N   UNL A   1      39.282  32.754  33.697  1.00  0.00    -0.354 N 
ATOM     20  C   UNL A   1      39.708  29.879  30.397  1.00  0.00     0.074 A 
ATOM     21  C   UNL A   1      38.750  30.157  29.352  1.00  0.00     0.031 C 
ATOM     22  C   UNL A   1      38.348  34.512  34.727  1.00  0.00     0.029 A 
ATOM     23  C   UNL A   1      39.405  33.517  34.836  1.00  0.00     0.049 A 
ATOM     24  H   UNL A   1      39.910  32.037  33.455  1.00  0.00     0.167 HD
ATOM     25  C   UNL A   1      40.637  28.901  30.350  1.00  0.00     0.034 A 
ATOM     26  C   UNL A   1      40.252  33.383  35.873  1.00  0.00     0.034 A 
ATOM     27  C   UNL A   1      41.585  28.675  31.404  1.00  0.00     0.049 A 
ATOM     28  C   UNL A   1      41.247  32.258  35.807  1.00  0.00     0.074 A 
ATOM     29  C   UNL A   1      42.549  27.691  31.502  1.00  0.00     0.029 A 
ATOM     30  N   UNL A   1      41.680  29.453  32.551  1.00  0.00    -0.354 N 
ATOM     31  N   UNL A   1      41.460  31.405  34.832  1.00  0.00    -0.248 NA
ATOM     32  C   UNL A   1      42.117  32.075  36.972  1.00  0.00     0.031 C 
ATOM     33  C   UNL A   1      43.213  27.863  32.721  1.00  0.00     0.029 A 
ATOM     34  C   UNL A   1      42.683  28.971  33.368  1.00  0.00     0.049 A 
ATOM     35  H   UNL A   1      41.115  30.234  32.750  1.00  0.00     0.167 HD
ATOM     36  C   UNL A   1      42.501  30.594  35.256  1.00  0.00     0.074 A 
ATOM     37  C   UNL A   1      42.895  31.080  36.565  1.00  0.00     0.031 C 
ATOM     38  C   UNL A   1      43.068  29.528  34.640  1.00  0.00     0.034 A 
BRANCH  25  39
ATOM     39  C   UNL A   1      40.625  27.994  29.154  1.00  0.00     0.023 A 
ATOM     40  C   UNL A   1      39.735  26.904  29.094  1.00  0.00     0.012 A 
ATOM     41  C   UNL A   1      41.512  28.223  28.083  1.00  0.00     0.148 A 
ATOM     42  C   UNL A   1      39.746  26.039  27.999  1.00  0.00     0.002 A 
ATOM     43  C   UNL A   1      41.493  27.380  26.980  1.00  0.00     0.091 A 
ATOM     44  F   UNL A   1      42.371  29.248  28.177  1.00  0.00    -0.205 F 
ATOM     45  C   UNL A   1      40.619  26.281  26.941  1.00  0.00     0.022 A 
BRANCH  43  46
ATOM     46  S   UNL A   1      42.542  27.635  25.545  1.00  0.00     0.127 S 
ATOM     47  O   UNL A   1      42.023  28.898  25.021  1.00  0.00    -0.237 OA
ATOM     48  O   UNL A   1      43.870  27.727  26.152  1.00  0.00    -0.237 OA
ATOM     49  O   UNL A   1      42.340  26.477  24.686  1.00  0.00    -0.744 OA
ENDBRANCH  43  46
ENDBRANCH  25  39
BRANCH  26  50
ATOM     50  C   UNL A   1      40.169  34.301  37.046  1.00  0.00     0.023 A 
ATOM     51  C   UNL A   1      40.632  35.626  36.935  1.00  0.00     0.012 A 
ATOM     52  C   UNL A   1      39.619  33.873  38.272  1.00  0.00     0.148 A 
ATOM     53  C   UNL A   1      40.575  36.494  38.028  1.00  0.00     0.002 A 
ATOM     54  C   UNL A   1      39.509  34.760  39.337  1.00  0.00     0.091 A 
ATOM     55  F   UNL A   1      39.206  32.602  38.376  1.00  0.00    -0.205 F 
ATOM     56  C   UNL A   1      40.004  36.066  39.223  1.00  0.00     0.022 A 
BRANCH  54  57
ATOM     57  S   UNL A   1      38.662  34.318  40.858  1.00  0.00     0.127 S 
ATOM     58  O   UNL A   1      37.301  34.083  40.385  1.00  0.00    -0.237 OA
ATOM     59  O   UNL A   1      39.385  33.116  41.278  1.00  0.00    -0.237 OA
ATOM     60  O   UNL A   1      38.843  35.460  41.745  1.00  0.00    -0.744 OA
ENDBRANCH  54  57
ENDBRANCH  26  50
BRANCH  38  61
ATOM     61  C   UNL A   1      44.194  28.847  35.361  1.00  0.00     0.023 A 
ATOM     62  C   UNL A   1      45.498  29.369  35.272  1.00  0.00     0.012 A 
ATOM     63  C   UNL A   1      43.935  27.745  36.197  1.00  0.00     0.148 A 
ATOM     64  C   UNL A   1      46.539  28.785  35.991  1.00  0.00     0.002 A 
ATOM     65  C   UNL A   1      44.966  27.203  36.951  1.00  0.00     0.091 A 
ATOM     66  F   UNL A   1      42.688  27.255  36.243  1.00  0.00    -0.205 F 
ATOM     67  C   UNL A   1      46.270  27.714  36.840  1.00  0.00     0.022 A 
BRANCH  65  68
ATOM     68  S   UNL A   1      44.684  25.897  38.149  1.00  0.00     0.127 S 
ATOM     69  O   UNL A   1      43.855  26.577  39.141  1.00  0.00    -0.237 OA
ATOM     70  O   UNL A   1      43.983  24.890  37.350  1.00  0.00    -0.237 OA
ATOM     71  O   UNL A   1      46.004  25.486  38.610  1.00  0.00    -0.744 OA
ENDBRANCH  65  68
ENDBRANCH  38  61
ENDBRANCH  12  13
ENDBRANCH   5   7
ENDBRANCH   4   5
ENDBRANCH   3   4
ENDBRANCH   2   3
ENDBRANCH   1   2
BRANCH   1  72
ATOM     72  C   UNL A   1      32.042  30.378  26.667  1.00  0.00     0.202 C 
BRANCH  72  73
ATOM     73  C   UNL A   1      31.898  28.861  26.539  1.00  0.00     0.261 C 
BRANCH  73  74
ATOM     74  O   UNL A   1      32.900  28.439  25.603  1.00  0.00    -0.463 OA
BRANCH  74  75
ATOM     75  C   UNL A   1      32.408  28.221  24.359  1.00  0.00     0.312 C 
ATOM     76  O   UNL A   1      32.680  28.891  23.371  1.00  0.00    -0.252 OA
BRANCH  75  77
ATOM     77  C   UNL A   1      31.529  26.986  24.305  1.00  0.00     0.123 C 
ATOM     78  C   UNL A   1      30.801  26.653  23.026  1.00  0.00    -0.015 C 
ATOM     79  C   UNL A   1      32.324  25.704  24.517  1.00  0.00     0.043 C 
ATOM     80  C   UNL A   1      30.689  25.329  22.870  1.00  0.00    -0.011 C 
ATOM     81  C   UNL A   1      31.447  24.603  23.928  1.00  0.00     0.093 C 
BRANCH  81  82
ATOM     82  N   UNL A   1      30.526  23.914  24.812  1.00  0.00    -0.204 NA
ATOM     83  H   UNL A   1      30.105  23.195  24.223  1.00  0.00     0.142 HD
BRANCH  82  84
ATOM     84  S   UNL A   1      30.808  23.143  26.256  1.00  0.00     0.244 S 
ATOM     85  O   UNL A   1      30.866  24.190  27.257  1.00  0.00    -0.207 OA
ATOM     86  O   UNL A   1      29.884  22.045  26.393  1.00  0.00    -0.207 OA
BRANCH  84  87
ATOM     87  C   UNL A   1      32.434  22.472  26.168  1.00  0.00     0.121 A 
ATOM     88  C   UNL A   1      33.471  23.049  26.918  1.00  0.00     0.028 A 
ATOM     89  C   UNL A   1      32.691  21.411  25.309  1.00  0.00     0.181 A 
ATOM     90  C   UNL A   1      34.769  22.545  26.802  1.00  0.00     0.044 A 
ATOM     91  C   UNL A   1      33.979  20.897  25.219  1.00  0.00     0.195 A 
ATOM     92  F   UNL A   1      31.720  20.869  24.562  1.00  0.00    -0.202 F 
ATOM     93  C   UNL A   1      35.010  21.461  25.961  1.00  0.00     0.161 A 
ATOM     94  F   UNL A   1      34.226  19.850  24.420  1.00  0.00    -0.200 F 
ATOM     95  F   UNL A   1      36.245  20.945  25.897  1.00  0.00    -0.204 F 
ENDBRANCH  84  87
ENDBRANCH  82  84
ENDBRANCH  81  82
ENDBRANCH  75  77
ENDBRANCH  74  75
ENDBRANCH  73  74
ENDBRANCH  72  73
ENDBRANCH   1  72
TORSDOF 20
ENDMDL
