MODEL 1
REMARK VINA RESULT:     -11.2      0.000      0.000
REMARK SMILES O=C(Cn1cnc(-c2ccccc2)c1-c1ccccc1)OCCOCCOC(=O)c1ccc(-c2c3nc(c(-c4cccc(S(=O)(=O)[O-])c4F)c4ccc([nH]4)c(-c4cccc(S(=O)(=O)[O-])c4F)c4nc(c(-c5cccc(S(=O)(=O)[O-])c5F)c5ccc2[nH]5)C=C4)C=C3)cc1
REMARK SMILES IDX 25 1 24 2 23 3 22 4 21 5 2 6 1 7 3 8 4 9 5 10 14 11 6 12
REMARK SMILES IDX 7 13 15 14 16 15 20 16 17 17 19 18 18 19 8 20 9 21 13 22
REMARK SMILES IDX 10 23 12 24 11 25 26 26 27 27 28 28 29 29 30 30 31 31 92 32
REMARK SMILES IDX 32 33 91 34 33 35 34 36 35 37 85 38 36 39 90 40 84 41 86 42
REMARK SMILES IDX 37 43 89 44 83 45 82 46 38 48 70 49 50 50 69 51 51 52 54 53
REMARK SMILES IDX 68 54 87 55 52 56 53 57 67 59 88 60 55 61 39 62 40 63 48 64
REMARK SMILES IDX 41 65 43 66 49 67 42 68 44 69 45 70 46 71 47 72 71 73 72 74
REMARK SMILES IDX 80 75 73 76 75 77 81 78 74 79 76 80 77 81 78 82 79 83 56 84
REMARK SMILES IDX 57 85 65 86 58 87 60 88 66 89 59 90 61 91 62 92 63 93 64 94
REMARK H PARENT 86 47 54 58
REMARK Flexibility Score: inf
ROOT
ATOM      1  C   UNL A   1      33.354  29.123  27.293  1.00  0.00     0.202 C 
ENDROOT
BRANCH   1   2
ATOM      2  O   UNL A   1      31.956  29.024  27.062  1.00  0.00    -0.374 OA
BRANCH   2   3
ATOM      3  C   UNL A   1      31.308  27.764  27.002  1.00  0.00     0.202 C 
BRANCH   3   4
ATOM      4  C   UNL A   1      31.106  27.022  25.674  1.00  0.00     0.261 C 
BRANCH   4   5
ATOM      5  O   UNL A   1      32.198  26.871  24.772  1.00  0.00    -0.462 OA
BRANCH   5   6
ATOM      6  C   UNL A   1      32.589  25.608  24.464  1.00  0.00     0.326 C 
ATOM      7  O   UNL A   1      32.730  25.239  23.302  1.00  0.00    -0.250 OA
BRANCH   6   8
ATOM      8  C   UNL A   1      32.580  24.656  25.613  1.00  0.00     0.246 C 
BRANCH   8   9
ATOM      9  N   UNL A   1      32.339  23.240  25.390  1.00  0.00    -0.319 N 
ATOM     10  C   UNL A   1      31.080  22.751  25.675  1.00  0.00     0.201 A 
ATOM     11  C   UNL A   1      33.128  22.163  25.023  1.00  0.00     0.076 A 
ATOM     12  N   UNL A   1      30.978  21.469  25.439  1.00  0.00    -0.236 NA
ATOM     13  C   UNL A   1      32.233  21.093  25.049  1.00  0.00     0.096 A 
BRANCH  11  14
ATOM     14  C   UNL A   1      34.562  22.126  24.708  1.00  0.00     0.000 A 
ATOM     15  C   UNL A   1      35.089  22.728  23.565  1.00  0.00     0.010 A 
ATOM     16  C   UNL A   1      35.447  21.465  25.586  1.00  0.00     0.010 A 
ATOM     17  C   UNL A   1      36.471  22.727  23.342  1.00  0.00     0.001 A 
ATOM     18  C   UNL A   1      36.828  21.487  25.377  1.00  0.00     0.001 A 
ATOM     19  C   UNL A   1      37.340  22.126  24.254  1.00  0.00     0.000 A 
ENDBRANCH  11  14
BRANCH  13  20
ATOM     20  C   UNL A   1      32.540  19.751  24.615  1.00  0.00     0.002 A 
ATOM     21  C   UNL A   1      32.826  18.785  25.584  1.00  0.00     0.010 A 
ATOM     22  C   UNL A   1      32.485  19.390  23.266  1.00  0.00     0.010 A 
ATOM     23  C   UNL A   1      32.990  17.453  25.209  1.00  0.00     0.001 A 
ATOM     24  C   UNL A   1      32.630  18.056  22.895  1.00  0.00     0.001 A 
ATOM     25  C   UNL A   1      32.872  17.088  23.867  1.00  0.00     0.000 A 
ENDBRANCH  13  20
ENDBRANCH   8   9
ENDBRANCH   6   8
ENDBRANCH   5   6
ENDBRANCH   4   5
ENDBRANCH   3   4
ENDBRANCH   2   3
ENDBRANCH   1   2
BRANCH   1  26
ATOM     26  C   UNL A   1      34.035  30.458  27.042  1.00  0.00     0.261 C 
BRANCH  26  27
ATOM     27  O   UNL A   1      35.395  30.431  27.438  1.00  0.00    -0.460 OA
BRANCH  27  28
ATOM     28  C   UNL A   1      35.859  31.546  28.030  1.00  0.00     0.338 C 
ATOM     29  O   UNL A   1      35.771  32.700  27.606  1.00  0.00    -0.246 OA
BRANCH  28  30
ATOM     30  C   UNL A   1      36.616  31.156  29.228  1.00  0.00     0.060 A 
ATOM     31  C   UNL A   1      37.729  31.957  29.473  1.00  0.00     0.016 A 
ATOM     32  C   UNL A   1      36.549  29.809  29.622  1.00  0.00     0.016 A 
ATOM     33  C   UNL A   1      38.912  31.303  29.685  1.00  0.00     0.010 A 
ATOM     34  C   UNL A   1      37.735  29.154  29.801  1.00  0.00     0.010 A 
ATOM     35  C   UNL A   1      38.900  29.904  29.699  1.00  0.00    -0.014 A 
BRANCH  35  36
ATOM     36  C   UNL A   1      40.169  29.234  29.622  1.00  0.00     0.031 A 
ATOM     37  C   UNL A   1      40.786  29.076  30.947  1.00  0.00     0.074 A 
ATOM     38  C   UNL A   1      40.675  28.775  28.464  1.00  0.00     0.049 A 
ATOM     39  N   UNL A   1      41.764  29.758  31.437  1.00  0.00    -0.248 NA
ATOM     40  C   UNL A   1      40.076  28.232  31.917  1.00  0.00     0.031 C 
ATOM     41  C   UNL A   1      40.007  28.605  27.169  1.00  0.00     0.029 A 
ATOM     42  N   UNL A   1      41.896  28.228  28.255  1.00  0.00    -0.354 N 
ATOM     43  C   UNL A   1      41.940  29.248  32.717  1.00  0.00     0.074 A 
ATOM     44  C   UNL A   1      40.744  28.516  33.034  1.00  0.00     0.031 C 
ATOM     45  C   UNL A   1      40.744  27.763  26.406  1.00  0.00     0.029 A 
ATOM     46  C   UNL A   1      41.981  27.455  27.106  1.00  0.00     0.049 A 
ATOM     47  H   UNL A   1      42.656  28.365  28.865  1.00  0.00     0.167 HD
ATOM     48  C   UNL A   1      43.164  29.229  33.305  1.00  0.00     0.034 A 
ATOM     49  C   UNL A   1      42.956  26.551  26.841  1.00  0.00     0.034 A 
ATOM     50  C   UNL A   1      44.096  30.081  32.614  1.00  0.00     0.049 A 
ATOM     51  C   UNL A   1      44.107  26.873  27.723  1.00  0.00     0.074 A 
ATOM     52  C   UNL A   1      44.164  31.432  32.343  1.00  0.00     0.029 A 
ATOM     53  N   UNL A   1      44.959  29.468  31.739  1.00  0.00    -0.354 N 
ATOM     54  N   UNL A   1      44.809  27.969  27.620  1.00  0.00    -0.248 NA
ATOM     55  C   UNL A   1      44.190  26.199  29.010  1.00  0.00     0.031 C 
ATOM     56  C   UNL A   1      44.712  31.516  31.030  1.00  0.00     0.029 A 
ATOM     57  C   UNL A   1      44.996  30.219  30.593  1.00  0.00     0.049 A 
ATOM     58  H   UNL A   1      45.462  28.637  31.904  1.00  0.00     0.167 HD
ATOM     59  C   UNL A   1      45.053  28.353  28.934  1.00  0.00     0.074 A 
ATOM     60  C   UNL A   1      44.741  27.174  29.739  1.00  0.00     0.031 C 
ATOM     61  C   UNL A   1      45.197  29.669  29.269  1.00  0.00     0.034 A 
BRANCH  48  62
ATOM     62  C   UNL A   1      43.624  28.165  34.267  1.00  0.00     0.023 A 
ATOM     63  C   UNL A   1      44.199  28.602  35.478  1.00  0.00     0.012 A 
ATOM     64  C   UNL A   1      43.766  26.796  33.944  1.00  0.00     0.148 A 
ATOM     65  C   UNL A   1      44.912  27.730  36.304  1.00  0.00     0.002 A 
ATOM     66  C   UNL A   1      44.398  25.915  34.810  1.00  0.00     0.091 A 
ATOM     67  F   UNL A   1      43.420  26.347  32.736  1.00  0.00    -0.205 F 
ATOM     68  C   UNL A   1      45.003  26.382  35.977  1.00  0.00     0.022 A 
BRANCH  66  69
ATOM     69  S   UNL A   1      44.491  24.157  34.450  1.00  0.00     0.127 S 
ATOM     70  O   UNL A   1      45.267  24.152  33.214  1.00  0.00    -0.237 OA
ATOM     71  O   UNL A   1      45.193  23.647  35.627  1.00  0.00    -0.237 OA
ATOM     72  O   UNL A   1      43.107  23.709  34.344  1.00  0.00    -0.744 OA
ENDBRANCH  66  69
ENDBRANCH  48  62
BRANCH  49  73
ATOM     73  C   UNL A   1      42.842  25.245  26.151  1.00  0.00     0.023 A 
ATOM     74  C   UNL A   1      43.708  24.938  25.084  1.00  0.00     0.012 A 
ATOM     75  C   UNL A   1      42.078  24.195  26.712  1.00  0.00     0.148 A 
ATOM     76  C   UNL A   1      43.831  23.627  24.608  1.00  0.00     0.002 A 
ATOM     77  C   UNL A   1      42.198  22.895  26.233  1.00  0.00     0.091 A 
ATOM     78  F   UNL A   1      41.309  24.456  27.778  1.00  0.00    -0.205 F 
ATOM     79  C   UNL A   1      43.082  22.604  25.187  1.00  0.00     0.022 A 
BRANCH  77  80
ATOM     80  S   UNL A   1      41.286  21.522  26.950  1.00  0.00     0.127 S 
ATOM     81  O   UNL A   1      39.899  21.957  26.776  1.00  0.00    -0.237 OA
ATOM     82  O   UNL A   1      41.692  20.411  26.095  1.00  0.00    -0.237 OA
ATOM     83  O   UNL A   1      41.717  21.439  28.340  1.00  0.00    -0.744 OA
ENDBRANCH  77  80
ENDBRANCH  49  73
BRANCH  61  84
ATOM     84  C   UNL A   1      45.318  30.677  28.154  1.00  0.00     0.023 A 
ATOM     85  C   UNL A   1      44.189  31.279  27.558  1.00  0.00     0.012 A 
ATOM     86  C   UNL A   1      46.595  31.181  27.858  1.00  0.00     0.148 A 
ATOM     87  C   UNL A   1      44.336  32.355  26.677  1.00  0.00     0.002 A 
ATOM     88  C   UNL A   1      46.732  32.284  27.023  1.00  0.00     0.091 A 
ATOM     89  F   UNL A   1      47.654  30.598  28.439  1.00  0.00    -0.205 F 
ATOM     90  C   UNL A   1      45.606  32.868  26.423  1.00  0.00     0.022 A 
BRANCH  88  91
ATOM     91  S   UNL A   1      48.321  33.080  26.777  1.00  0.00     0.127 S 
ATOM     92  O   UNL A   1      48.593  33.632  28.102  1.00  0.00    -0.237 OA
ATOM     93  O   UNL A   1      49.176  31.956  26.393  1.00  0.00    -0.237 OA
ATOM     94  O   UNL A   1      48.119  34.061  25.717  1.00  0.00    -0.744 OA
ENDBRANCH  88  91
ENDBRANCH  61  84
ENDBRANCH  35  36
ENDBRANCH  28  30
ENDBRANCH  27  28
ENDBRANCH  26  27
ENDBRANCH   1  26
TORSDOF 20
ENDMDL
MODEL 2
REMARK VINA RESULT:     -11.1      4.272      8.732
REMARK SMILES O=C(Cn1cnc(-c2ccccc2)c1-c1ccccc1)OCCOCCOC(=O)c1ccc(-c2c3nc(c(-c4cccc(S(=O)(=O)[O-])c4F)c4ccc([nH]4)c(-c4cccc(S(=O)(=O)[O-])c4F)c4nc(c(-c5cccc(S(=O)(=O)[O-])c5F)c5ccc2[nH]5)C=C4)C=C3)cc1
REMARK SMILES IDX 25 1 24 2 23 3 22 4 21 5 2 6 1 7 3 8 4 9 5 10 14 11 6 12
REMARK SMILES IDX 7 13 15 14 16 15 20 16 17 17 19 18 18 19 8 20 9 21 13 22
REMARK SMILES IDX 10 23 12 24 11 25 26 26 27 27 28 28 29 29 30 30 31 31 92 32
REMARK SMILES IDX 32 33 91 34 33 35 34 36 35 37 85 38 36 39 90 40 84 41 86 42
REMARK SMILES IDX 37 43 89 44 83 45 82 46 38 48 70 49 50 50 69 51 51 52 54 53
REMARK SMILES IDX 68 54 87 55 52 56 53 57 67 59 88 60 55 61 39 62 40 63 48 64
REMARK SMILES IDX 41 65 43 66 49 67 42 68 44 69 45 70 46 71 47 72 71 73 72 74
REMARK SMILES IDX 80 75 73 76 75 77 81 78 74 79 76 80 77 81 78 82 79 83 56 84
REMARK SMILES IDX 57 85 65 86 58 87 60 88 66 89 59 90 61 91 62 92 63 93 64 94
REMARK H PARENT 86 47 54 58
REMARK Flexibility Score: inf
ROOT
ATOM      1  C   UNL A   1      33.933  29.803  27.125  1.00  0.00     0.202 C 
ENDROOT
BRANCH   1   2
ATOM      2  O   UNL A   1      33.403  28.586  27.631  1.00  0.00    -0.374 OA
BRANCH   2   3
ATOM      3  C   UNL A   1      33.213  27.459  26.790  1.00  0.00     0.202 C 
BRANCH   3   4
ATOM      4  C   UNL A   1      31.821  26.862  26.543  1.00  0.00     0.261 C 
BRANCH   4   5
ATOM      5  O   UNL A   1      31.695  25.585  25.926  1.00  0.00    -0.462 OA
BRANCH   5   6
ATOM      6  C   UNL A   1      30.445  25.076  25.784  1.00  0.00     0.326 C 
ATOM      7  O   UNL A   1      29.924  24.387  26.655  1.00  0.00    -0.250 OA
BRANCH   6   8
ATOM      8  C   UNL A   1      29.874  25.202  24.412  1.00  0.00     0.246 C 
BRANCH   8   9
ATOM      9  N   UNL A   1      29.314  26.466  23.963  1.00  0.00    -0.319 N 
ATOM     10  C   UNL A   1      27.939  26.585  23.937  1.00  0.00     0.201 A 
ATOM     11  C   UNL A   1      29.840  27.633  23.435  1.00  0.00     0.076 A 
ATOM     12  N   UNL A   1      27.548  27.760  23.518  1.00  0.00    -0.236 NA
ATOM     13  C   UNL A   1      28.706  28.409  23.195  1.00  0.00     0.096 A 
BRANCH  11  14
ATOM     14  C   UNL A   1      31.240  27.980  23.159  1.00  0.00     0.000 A 
ATOM     15  C   UNL A   1      31.874  29.060  23.774  1.00  0.00     0.010 A 
ATOM     16  C   UNL A   1      31.980  27.198  22.247  1.00  0.00     0.010 A 
ATOM     17  C   UNL A   1      33.231  29.310  23.532  1.00  0.00     0.001 A 
ATOM     18  C   UNL A   1      33.340  27.431  22.026  1.00  0.00     0.001 A 
ATOM     19  C   UNL A   1      33.967  28.487  22.677  1.00  0.00     0.000 A 
ENDBRANCH  11  14
BRANCH  13  20
ATOM     20  C   UNL A   1      28.727  29.785  22.756  1.00  0.00     0.002 A 
ATOM     21  C   UNL A   1      28.491  30.060  21.407  1.00  0.00     0.010 A 
ATOM     22  C   UNL A   1      28.905  30.835  23.660  1.00  0.00     0.010 A 
ATOM     23  C   UNL A   1      28.368  31.379  20.978  1.00  0.00     0.001 A 
ATOM     24  C   UNL A   1      28.761  32.154  23.235  1.00  0.00     0.001 A 
ATOM     25  C   UNL A   1      28.483  32.424  21.896  1.00  0.00     0.000 A 
ENDBRANCH  13  20
ENDBRANCH   8   9
ENDBRANCH   6   8
ENDBRANCH   5   6
ENDBRANCH   4   5
ENDBRANCH   3   4
ENDBRANCH   2   3
ENDBRANCH   1   2
BRANCH   1  26
ATOM     26  C   UNL A   1      33.052  31.040  27.148  1.00  0.00     0.261 C 
BRANCH  26  27
ATOM     27  O   UNL A   1      33.821  32.225  27.249  1.00  0.00    -0.460 OA
BRANCH  27  28
ATOM     28  C   UNL A   1      33.286  33.215  27.987  1.00  0.00     0.338 C 
ATOM     29  O   UNL A   1      32.232  33.813  27.768  1.00  0.00    -0.246 OA
BRANCH  28  30
ATOM     30  C   UNL A   1      34.237  33.568  29.050  1.00  0.00     0.060 A 
ATOM     31  C   UNL A   1      35.226  34.462  28.644  1.00  0.00     0.016 A 
ATOM     32  C   UNL A   1      34.440  32.625  30.072  1.00  0.00     0.016 A 
ATOM     33  C   UNL A   1      36.517  34.109  28.928  1.00  0.00     0.010 A 
ATOM     34  C   UNL A   1      35.731  32.255  30.328  1.00  0.00     0.010 A 
ATOM     35  C   UNL A   1      36.736  32.928  29.645  1.00  0.00    -0.014 A 
BRANCH  35  36
ATOM     36  C   UNL A   1      38.079  32.416  29.677  1.00  0.00     0.031 A 
ATOM     37  C   UNL A   1      38.147  31.026  29.206  1.00  0.00     0.074 A 
ATOM     38  C   UNL A   1      39.128  33.168  30.052  1.00  0.00     0.049 A 
ATOM     39  N   UNL A   1      38.281  29.965  29.927  1.00  0.00    -0.248 NA
ATOM     40  C   UNL A   1      37.781  30.777  27.805  1.00  0.00     0.031 C 
ATOM     41  C   UNL A   1      39.205  34.622  30.229  1.00  0.00     0.029 A 
ATOM     42  N   UNL A   1      40.412  32.769  30.222  1.00  0.00    -0.354 N 
ATOM     43  C   UNL A   1      38.252  28.917  29.017  1.00  0.00     0.074 A 
ATOM     44  C   UNL A   1      37.701  29.447  27.799  1.00  0.00     0.031 C 
ATOM     45  C   UNL A   1      40.508  34.994  30.218  1.00  0.00     0.029 A 
ATOM     46  C   UNL A   1      41.338  33.800  30.170  1.00  0.00     0.049 A 
ATOM     47  H   UNL A   1      40.666  31.829  30.367  1.00  0.00     0.167 HD
ATOM     48  C   UNL A   1      38.943  27.769  29.241  1.00  0.00     0.034 A 
ATOM     49  C   UNL A   1      42.671  33.647  29.982  1.00  0.00     0.034 A 
ATOM     50  C   UNL A   1      39.365  27.667  30.613  1.00  0.00     0.049 A 
ATOM     51  C   UNL A   1      43.003  32.237  30.313  1.00  0.00     0.074 A 
ATOM     52  C   UNL A   1      38.718  27.605  31.830  1.00  0.00     0.029 A 
ATOM     53  N   UNL A   1      40.665  28.020  30.886  1.00  0.00    -0.354 N 
ATOM     54  N   UNL A   1      42.906  31.737  31.514  1.00  0.00    -0.248 NA
ATOM     55  C   UNL A   1      43.001  31.264  29.230  1.00  0.00     0.031 C 
ATOM     56  C   UNL A   1      39.535  28.360  32.720  1.00  0.00     0.029 A 
ATOM     57  C   UNL A   1      40.659  28.798  32.014  1.00  0.00     0.049 A 
ATOM     58  H   UNL A   1      41.459  27.761  30.365  1.00  0.00     0.167 HD
ATOM     59  C   UNL A   1      42.388  30.461  31.321  1.00  0.00     0.074 A 
ATOM     60  C   UNL A   1      42.567  30.190  29.896  1.00  0.00     0.031 C 
ATOM     61  C   UNL A   1      41.601  29.868  32.265  1.00  0.00     0.034 A 
BRANCH  48  62
ATOM     62  C   UNL A   1      39.559  26.926  28.156  1.00  0.00     0.023 A 
ATOM     63  C   UNL A   1      39.164  25.573  28.094  1.00  0.00     0.012 A 
ATOM     64  C   UNL A   1      40.677  27.306  27.379  1.00  0.00     0.148 A 
ATOM     65  C   UNL A   1      39.871  24.641  27.330  1.00  0.00     0.002 A 
ATOM     66  C   UNL A   1      41.321  26.396  26.553  1.00  0.00     0.091 A 
ATOM     67  F   UNL A   1      41.226  28.513  27.530  1.00  0.00    -0.205 F 
ATOM     68  C   UNL A   1      40.944  25.053  26.549  1.00  0.00     0.022 A 
BRANCH  66  69
ATOM     69  S   UNL A   1      42.678  26.900  25.488  1.00  0.00     0.127 S 
ATOM     70  O   UNL A   1      43.727  27.181  26.463  1.00  0.00    -0.237 OA
ATOM     71  O   UNL A   1      42.887  25.698  24.681  1.00  0.00    -0.237 OA
ATOM     72  O   UNL A   1      42.176  28.042  24.734  1.00  0.00    -0.744 OA
ENDBRANCH  66  69
ENDBRANCH  48  62
BRANCH  49  73
ATOM     73  C   UNL A   1      43.601  34.510  29.219  1.00  0.00     0.023 A 
ATOM     74  C   UNL A   1      43.853  34.239  27.860  1.00  0.00     0.012 A 
ATOM     75  C   UNL A   1      44.024  35.755  29.738  1.00  0.00     0.148 A 
ATOM     76  C   UNL A   1      44.480  35.185  27.039  1.00  0.00     0.002 A 
ATOM     77  C   UNL A   1      44.652  36.690  28.923  1.00  0.00     0.091 A 
ATOM     78  F   UNL A   1      43.721  36.060  31.008  1.00  0.00    -0.205 F 
ATOM     79  C   UNL A   1      44.874  36.413  27.568  1.00  0.00     0.022 A 
BRANCH  77  80
ATOM     80  S   UNL A   1      45.159  38.305  29.529  1.00  0.00     0.127 S 
ATOM     81  O   UNL A   1      46.235  37.954  30.458  1.00  0.00    -0.237 OA
ATOM     82  O   UNL A   1      45.599  38.963  28.302  1.00  0.00    -0.237 OA
ATOM     83  O   UNL A   1      43.981  38.880  30.166  1.00  0.00    -0.744 OA
ENDBRANCH  77  80
ENDBRANCH  49  73
BRANCH  61  84
ATOM     84  C   UNL A   1      41.494  30.528  33.618  1.00  0.00     0.023 A 
ATOM     85  C   UNL A   1      42.467  30.345  34.623  1.00  0.00     0.012 A 
ATOM     86  C   UNL A   1      40.511  31.515  33.792  1.00  0.00     0.148 A 
ATOM     87  C   UNL A   1      42.451  31.126  35.783  1.00  0.00     0.002 A 
ATOM     88  C   UNL A   1      40.530  32.324  34.922  1.00  0.00     0.091 A 
ATOM     89  F   UNL A   1      39.598  31.677  32.823  1.00  0.00    -0.205 F 
ATOM     90  C   UNL A   1      41.493  32.127  35.924  1.00  0.00     0.022 A 
BRANCH  88  91
ATOM     91  S   UNL A   1      39.419  33.723  35.092  1.00  0.00     0.127 S 
ATOM     92  O   UNL A   1      38.987  33.601  36.482  1.00  0.00    -0.237 OA
ATOM     93  O   UNL A   1      40.302  34.858  34.821  1.00  0.00    -0.237 OA
ATOM     94  O   UNL A   1      38.376  33.531  34.092  1.00  0.00    -0.744 OA
ENDBRANCH  88  91
ENDBRANCH  61  84
ENDBRANCH  35  36
ENDBRANCH  28  30
ENDBRANCH  27  28
ENDBRANCH  26  27
ENDBRANCH   1  26
TORSDOF 20
ENDMDL
MODEL 3
REMARK VINA RESULT:     -11.1      3.260      7.536
REMARK SMILES O=C(Cn1cnc(-c2ccccc2)c1-c1ccccc1)OCCOCCOC(=O)c1ccc(-c2c3nc(c(-c4cccc(S(=O)(=O)[O-])c4F)c4ccc([nH]4)c(-c4cccc(S(=O)(=O)[O-])c4F)c4nc(c(-c5cccc(S(=O)(=O)[O-])c5F)c5ccc2[nH]5)C=C4)C=C3)cc1
REMARK SMILES IDX 25 1 24 2 23 3 22 4 21 5 2 6 1 7 3 8 4 9 5 10 14 11 6 12
REMARK SMILES IDX 7 13 15 14 16 15 20 16 17 17 19 18 18 19 8 20 9 21 13 22
REMARK SMILES IDX 10 23 12 24 11 25 26 26 27 27 28 28 29 29 30 30 31 31 92 32
REMARK SMILES IDX 32 33 91 34 33 35 34 36 35 37 85 38 36 39 90 40 84 41 86 42
REMARK SMILES IDX 37 43 89 44 83 45 82 46 38 48 70 49 50 50 69 51 51 52 54 53
REMARK SMILES IDX 68 54 87 55 52 56 53 57 67 59 88 60 55 61 39 62 40 63 48 64
REMARK SMILES IDX 41 65 43 66 49 67 42 68 44 69 45 70 46 71 47 72 71 73 72 74
REMARK SMILES IDX 80 75 73 76 75 77 81 78 74 79 76 80 77 81 78 82 79 83 56 84
REMARK SMILES IDX 57 85 65 86 58 87 60 88 66 89 59 90 61 91 62 92 63 93 64 94
REMARK H PARENT 86 47 54 58
REMARK Flexibility Score: inf
ROOT
ATOM      1  C   UNL A   1      31.810  29.886  26.905  1.00  0.00     0.202 C 
ENDROOT
BRANCH   1   2
ATOM      2  O   UNL A   1      31.797  28.611  26.280  1.00  0.00    -0.374 OA
BRANCH   2   3
ATOM      3  C   UNL A   1      32.490  28.380  25.064  1.00  0.00     0.202 C 
BRANCH   3   4
ATOM      4  C   UNL A   1      33.769  27.534  25.012  1.00  0.00     0.261 C 
BRANCH   4   5
ATOM      5  O   UNL A   1      33.811  26.360  24.207  1.00  0.00    -0.462 OA
BRANCH   5   6
ATOM      6  C   UNL A   1      32.723  25.548  24.222  1.00  0.00     0.326 C 
ATOM      7  O   UNL A   1      31.799  25.691  23.427  1.00  0.00    -0.250 OA
BRANCH   6   8
ATOM      8  C   UNL A   1      32.625  24.660  25.416  1.00  0.00     0.246 C 
BRANCH   8   9
ATOM      9  N   UNL A   1      32.350  23.242  25.255  1.00  0.00    -0.319 N 
ATOM     10  C   UNL A   1      31.068  22.802  25.517  1.00  0.00     0.201 A 
ATOM     11  C   UNL A   1      33.120  22.126  24.970  1.00  0.00     0.076 A 
ATOM     12  N   UNL A   1      30.938  21.513  25.341  1.00  0.00    -0.236 NA
ATOM     13  C   UNL A   1      32.194  21.084  25.016  1.00  0.00     0.096 A 
BRANCH  11  14
ATOM     14  C   UNL A   1      34.563  22.034  24.710  1.00  0.00     0.000 A 
ATOM     15  C   UNL A   1      35.402  21.204  25.454  1.00  0.00     0.010 A 
ATOM     16  C   UNL A   1      35.129  22.803  23.671  1.00  0.00     0.010 A 
ATOM     17  C   UNL A   1      36.758  21.096  25.124  1.00  0.00     0.001 A 
ATOM     18  C   UNL A   1      36.477  22.676  23.325  1.00  0.00     0.001 A 
ATOM     19  C   UNL A   1      37.291  21.814  24.052  1.00  0.00     0.000 A 
ENDBRANCH  11  14
BRANCH  13  20
ATOM     20  C   UNL A   1      32.477  19.714  24.660  1.00  0.00     0.002 A 
ATOM     21  C   UNL A   1      32.465  19.358  23.309  1.00  0.00     0.010 A 
ATOM     22  C   UNL A   1      32.829  18.768  25.627  1.00  0.00     0.010 A 
ATOM     23  C   UNL A   1      32.867  18.081  22.924  1.00  0.00     0.001 A 
ATOM     24  C   UNL A   1      33.251  17.499  25.239  1.00  0.00     0.001 A 
ATOM     25  C   UNL A   1      33.279  17.160  23.887  1.00  0.00     0.000 A 
ENDBRANCH  13  20
ENDBRANCH   8   9
ENDBRANCH   6   8
ENDBRANCH   5   6
ENDBRANCH   4   5
ENDBRANCH   3   4
ENDBRANCH   2   3
ENDBRANCH   1   2
BRANCH   1  26
ATOM     26  C   UNL A   1      33.040  30.763  26.733  1.00  0.00     0.261 C 
BRANCH  26  27
ATOM     27  O   UNL A   1      33.417  31.376  27.952  1.00  0.00    -0.460 OA
BRANCH  27  28
ATOM     28  C   UNL A   1      33.145  32.689  28.061  1.00  0.00     0.338 C 
ATOM     29  O   UNL A   1      32.272  33.316  27.458  1.00  0.00    -0.246 OA
BRANCH  28  30
ATOM     30  C   UNL A   1      34.155  33.302  28.936  1.00  0.00     0.060 A 
ATOM     31  C   UNL A   1      35.083  34.087  28.256  1.00  0.00     0.016 A 
ATOM     32  C   UNL A   1      34.458  32.635  30.135  1.00  0.00     0.016 A 
ATOM     33  C   UNL A   1      36.402  33.832  28.519  1.00  0.00     0.010 A 
ATOM     34  C   UNL A   1      35.775  32.357  30.375  1.00  0.00     0.010 A 
ATOM     35  C   UNL A   1      36.708  32.861  29.478  1.00  0.00    -0.014 A 
BRANCH  35  36
ATOM     36  C   UNL A   1      38.066  32.393  29.531  1.00  0.00     0.031 A 
ATOM     37  C   UNL A   1      38.171  30.974  29.163  1.00  0.00     0.074 A 
ATOM     38  C   UNL A   1      39.096  33.200  29.836  1.00  0.00     0.049 A 
ATOM     39  N   UNL A   1      38.344  29.973  29.957  1.00  0.00    -0.248 NA
ATOM     40  C   UNL A   1      37.798  30.612  27.789  1.00  0.00     0.031 C 
ATOM     41  C   UNL A   1      39.131  34.665  29.906  1.00  0.00     0.029 A 
ATOM     42  N   UNL A   1      40.393  32.852  30.019  1.00  0.00    -0.354 N 
ATOM     43  C   UNL A   1      38.337  28.860  29.127  1.00  0.00     0.074 A 
ATOM     44  C   UNL A   1      37.757  29.283  27.881  1.00  0.00     0.031 C 
ATOM     45  C   UNL A   1      40.422  35.073  29.851  1.00  0.00     0.029 A 
ATOM     46  C   UNL A   1      41.287  33.904  29.880  1.00  0.00     0.049 A 
ATOM     47  H   UNL A   1      40.676  31.934  30.230  1.00  0.00     0.167 HD
ATOM     48  C   UNL A   1      39.064  27.753  29.427  1.00  0.00     0.034 A 
ATOM     49  C   UNL A   1      42.622  33.776  29.687  1.00  0.00     0.034 A 
ATOM     50  C   UNL A   1      39.504  27.765  30.797  1.00  0.00     0.049 A 
ATOM     51  C   UNL A   1      43.000  32.404  30.116  1.00  0.00     0.074 A 
ATOM     52  C   UNL A   1      38.871  27.774  32.024  1.00  0.00     0.029 A 
ATOM     53  N   UNL A   1      40.795  28.174  31.027  1.00  0.00    -0.354 N 
ATOM     54  N   UNL A   1      42.929  31.991  31.352  1.00  0.00    -0.248 NA
ATOM     55  C   UNL A   1      43.015  31.354  29.108  1.00  0.00     0.031 C 
ATOM     56  C   UNL A   1      39.674  28.617  32.845  1.00  0.00     0.029 A 
ATOM     57  C   UNL A   1      40.777  29.033  32.095  1.00  0.00     0.049 A 
ATOM     58  H   UNL A   1      41.591  27.901  30.516  1.00  0.00     0.167 HD
ATOM     59  C   UNL A   1      42.449  30.690  31.260  1.00  0.00     0.074 A 
ATOM     60  C   UNL A   1      42.621  30.320  29.857  1.00  0.00     0.031 C 
ATOM     61  C   UNL A   1      41.689  30.146  32.255  1.00  0.00     0.034 A 
BRANCH  48  62
ATOM     62  C   UNL A   1      39.694  26.850  28.399  1.00  0.00     0.023 A 
ATOM     63  C   UNL A   1      39.366  25.480  28.463  1.00  0.00     0.012 A 
ATOM     64  C   UNL A   1      40.772  27.216  27.559  1.00  0.00     0.148 A 
ATOM     65  C   UNL A   1      40.100  24.521  27.761  1.00  0.00     0.002 A 
ATOM     66  C   UNL A   1      41.439  26.270  26.794  1.00  0.00     0.091 A 
ATOM     67  F   UNL A   1      41.263  28.456  27.592  1.00  0.00    -0.205 F 
ATOM     68  C   UNL A   1      41.130  24.916  26.916  1.00  0.00     0.022 A 
BRANCH  66  69
ATOM     69  S   UNL A   1      42.742  26.746  25.651  1.00  0.00     0.127 S 
ATOM     70  O   UNL A   1      43.077  25.464  25.040  1.00  0.00    -0.237 OA
ATOM     71  O   UNL A   1      42.042  27.688  24.777  1.00  0.00    -0.237 OA
ATOM     72  O   UNL A   1      43.777  27.358  26.475  1.00  0.00    -0.744 OA
ENDBRANCH  66  69
ENDBRANCH  48  62
BRANCH  49  73
ATOM     73  C   UNL A   1      43.518  34.607  28.851  1.00  0.00     0.023 A 
ATOM     74  C   UNL A   1      43.793  34.224  27.524  1.00  0.00     0.012 A 
ATOM     75  C   UNL A   1      43.879  35.913  29.255  1.00  0.00     0.148 A 
ATOM     76  C   UNL A   1      44.383  35.118  26.622  1.00  0.00     0.002 A 
ATOM     77  C   UNL A   1      44.470  36.797  28.358  1.00  0.00     0.091 A 
ATOM     78  F   UNL A   1      43.552  36.319  30.490  1.00  0.00    -0.205 F 
ATOM     79  C   UNL A   1      44.716  36.406  27.036  1.00  0.00     0.022 A 
BRANCH  77  80
ATOM     80  S   UNL A   1      44.897  38.482  28.814  1.00  0.00     0.127 S 
ATOM     81  O   UNL A   1      45.819  38.269  29.932  1.00  0.00    -0.237 OA
ATOM     82  O   UNL A   1      45.522  38.977  27.591  1.00  0.00    -0.237 OA
ATOM     83  O   UNL A   1      43.643  39.125  29.187  1.00  0.00    -0.744 OA
ENDBRANCH  77  80
ENDBRANCH  49  73
BRANCH  61  84
ATOM     84  C   UNL A   1      41.576  30.901  33.557  1.00  0.00     0.023 A 
ATOM     85  C   UNL A   1      40.469  31.722  33.857  1.00  0.00     0.012 A 
ATOM     86  C   UNL A   1      42.497  30.601  34.573  1.00  0.00     0.148 A 
ATOM     87  C   UNL A   1      40.292  32.241  35.143  1.00  0.00     0.002 A 
ATOM     88  C   UNL A   1      42.289  31.075  35.862  1.00  0.00     0.091 A 
ATOM     89  F   UNL A   1      43.541  29.815  34.269  1.00  0.00    -0.205 F 
ATOM     90  C   UNL A   1      41.193  31.903  36.150  1.00  0.00     0.022 A 
BRANCH  88  91
ATOM     91  S   UNL A   1      43.329  30.556  37.230  1.00  0.00     0.127 S 
ATOM     92  O   UNL A   1      43.260  29.100  37.129  1.00  0.00    -0.237 OA
ATOM     93  O   UNL A   1      44.625  31.135  36.874  1.00  0.00    -0.237 OA
ATOM     94  O   UNL A   1      42.731  31.130  38.429  1.00  0.00    -0.744 OA
ENDBRANCH  88  91
ENDBRANCH  61  84
ENDBRANCH  35  36
ENDBRANCH  28  30
ENDBRANCH  27  28
ENDBRANCH  26  27
ENDBRANCH   1  26
TORSDOF 20
ENDMDL
