MODEL 1
REMARK VINA RESULT:     -11.1      0.000      0.000
REMARK SMILES C[C@@H](C(=O)OCCOCCOC(=O)c1ccc(-c2c3nc(c(-c4cccc(S(=O)(=O)[O-])c4F)c4ccc([nH]4)c(-c4cccc(S(=O)(=O)[O-])c4F)c4nc(c(-c5cccc(S(=O)(=O)[O-])c5F)c5ccc2[nH]5)C=C4)C=C3)cc1)c1ccc(C[C@@H]2CCC[C@@H]2O)cc1F
REMARK SMILES IDX 7 1 6 2 5 3 3 4 4 5 2 6 1 7 77 8 78 9 89 10 79 11 88 12
REMARK SMILES IDX 90 13 80 14 81 15 82 16 83 17 86 18 84 19 85 20 87 21 8 23
REMARK SMILES IDX 9 24 10 25 11 26 12 27 13 28 14 29 15 30 76 31 16 32 75 33
REMARK SMILES IDX 17 34 18 35 19 36 69 37 20 38 74 39 68 40 70 41 21 42 73 43
REMARK SMILES IDX 67 44 66 45 22 47 54 48 34 49 53 50 35 51 38 52 52 53 71 54
REMARK SMILES IDX 36 55 37 56 51 58 72 59 39 60 23 61 24 62 32 63 25 64 27 65
REMARK SMILES IDX 33 66 26 67 28 68 29 69 30 70 31 71 55 72 56 73 64 74 57 75
REMARK SMILES IDX 59 76 65 77 58 78 60 79 61 80 62 81 63 82 40 83 41 84 49 85
REMARK SMILES IDX 42 86 44 87 50 88 43 89 45 90 46 91 47 92 48 93
REMARK H PARENT 87 22 70 46 38 57
REMARK Flexibility Score: inf
ROOT
ATOM      1  C   UNL A   1      33.009  29.079  26.209  1.00  0.00     0.202 C 
ENDROOT
BRANCH   1   2
ATOM      2  C   UNL A   1      31.787  28.213  25.890  1.00  0.00     0.261 C 
BRANCH   2   3
ATOM      3  O   UNL A   1      32.053  26.839  26.203  1.00  0.00    -0.463 OA
BRANCH   3   4
ATOM      4  C   UNL A   1      32.591  26.095  25.199  1.00  0.00     0.313 C 
ATOM      5  O   UNL A   1      33.791  26.023  24.960  1.00  0.00    -0.252 OA
BRANCH   4   6
ATOM      6  C   UNL A   1      31.537  25.234  24.494  1.00  0.00     0.129 C 
ATOM      7  C   UNL A   1      30.143  25.479  25.088  1.00  0.00     0.025 C 
BRANCH   6   8
ATOM      8  C   UNL A   1      31.939  23.758  24.354  1.00  0.00     0.002 A 
ATOM      9  C   UNL A   1      32.138  23.161  23.095  1.00  0.00     0.008 A 
ATOM     10  C   UNL A   1      31.996  22.905  25.463  1.00  0.00     0.127 A 
ATOM     11  C   UNL A   1      32.321  21.779  22.955  1.00  0.00     0.004 A 
ATOM     12  C   UNL A   1      32.164  21.524  25.331  1.00  0.00     0.043 A 
ATOM     13  F   UNL A   1      31.838  23.382  26.705  1.00  0.00    -0.207 F 
ATOM     14  C   UNL A   1      32.270  20.937  24.067  1.00  0.00    -0.045 A 
BRANCH  14  15
ATOM     15  C   UNL A   1      32.246  19.437  23.914  1.00  0.00     0.041 C 
BRANCH  15  16
ATOM     16  C   UNL A   1      33.501  18.650  24.370  1.00  0.00     0.022 C 
ATOM     17  C   UNL A   1      34.023  17.620  23.362  1.00  0.00     0.007 C 
ATOM     18  C   UNL A   1      33.394  17.823  25.656  1.00  0.00     0.117 C 
ATOM     19  C   UNL A   1      33.507  16.252  23.820  1.00  0.00     0.003 C 
ATOM     20  C   UNL A   1      32.896  16.456  25.204  1.00  0.00     0.032 C 
BRANCH  18  21
ATOM     21  O   UNL A   1      32.561  18.395  26.642  1.00  0.00    -0.393 OA
ATOM     22  H   UNL A   1      31.648  18.422  26.318  1.00  0.00     0.210 HD
ENDBRANCH  18  21
ENDBRANCH  15  16
ENDBRANCH  14  15
ENDBRANCH   6   8
ENDBRANCH   4   6
ENDBRANCH   3   4
ENDBRANCH   2   3
ENDBRANCH   1   2
BRANCH   1  23
ATOM     23  O   UNL A   1      32.854  30.489  26.034  1.00  0.00    -0.374 OA
BRANCH  23  24
ATOM     24  C   UNL A   1      31.675  31.100  26.566  1.00  0.00     0.202 C 
BRANCH  24  25
ATOM     25  C   UNL A   1      31.770  32.573  26.986  1.00  0.00     0.261 C 
BRANCH  25  26
ATOM     26  O   UNL A   1      33.101  33.109  26.867  1.00  0.00    -0.460 OA
BRANCH  26  27
ATOM     27  C   UNL A   1      33.639  33.553  28.029  1.00  0.00     0.338 C 
ATOM     28  O   UNL A   1      33.128  34.328  28.830  1.00  0.00    -0.246 OA
BRANCH  27  29
ATOM     29  C   UNL A   1      34.889  32.834  28.330  1.00  0.00     0.060 A 
ATOM     30  C   UNL A   1      34.786  31.495  28.728  1.00  0.00     0.016 A 
ATOM     31  C   UNL A   1      36.128  33.479  28.327  1.00  0.00     0.016 A 
ATOM     32  C   UNL A   1      35.913  30.808  29.171  1.00  0.00     0.010 A 
ATOM     33  C   UNL A   1      37.257  32.789  28.782  1.00  0.00     0.010 A 
ATOM     34  C   UNL A   1      37.149  31.463  29.242  1.00  0.00    -0.014 A 
BRANCH  34  35
ATOM     35  C   UNL A   1      38.287  30.802  29.925  1.00  0.00     0.031 A 
ATOM     36  C   UNL A   1      38.639  31.211  31.330  1.00  0.00     0.074 A 
ATOM     37  C   UNL A   1      38.992  29.835  29.309  1.00  0.00     0.049 A 
ATOM     38  N   UNL A   1      39.594  30.769  32.107  1.00  0.00    -0.248 NA
ATOM     39  C   UNL A   1      37.803  32.258  31.941  1.00  0.00     0.031 C 
ATOM     40  C   UNL A   1      38.747  29.349  27.952  1.00  0.00     0.029 A 
ATOM     41  N   UNL A   1      40.071  29.105  29.740  1.00  0.00    -0.354 N 
ATOM     42  C   UNL A   1      39.490  31.495  33.287  1.00  0.00     0.074 A 
ATOM     43  C   UNL A   1      38.388  32.419  33.120  1.00  0.00     0.031 C 
ATOM     44  C   UNL A   1      39.673  28.422  27.649  1.00  0.00     0.029 A 
ATOM     45  C   UNL A   1      40.583  28.264  28.782  1.00  0.00     0.049 A 
ATOM     46  H   UNL A   1      40.443  29.178  30.649  1.00  0.00     0.167 HD
ATOM     47  C   UNL A   1      40.230  31.392  34.416  1.00  0.00     0.034 A 
ATOM     48  C   UNL A   1      41.673  27.471  28.808  1.00  0.00     0.034 A 
ATOM     49  C   UNL A   1      41.313  30.462  34.589  1.00  0.00     0.049 A 
ATOM     50  C   UNL A   1      42.494  27.388  30.069  1.00  0.00     0.074 A 
ATOM     51  C   UNL A   1      42.097  30.253  35.711  1.00  0.00     0.029 A 
ATOM     52  N   UNL A   1      41.774  29.592  33.614  1.00  0.00    -0.354 N 
ATOM     53  N   UNL A   1      42.308  27.992  31.218  1.00  0.00    -0.248 NA
ATOM     54  C   UNL A   1      43.657  26.486  30.049  1.00  0.00     0.031 C 
ATOM     55  C   UNL A   1      43.045  29.271  35.406  1.00  0.00     0.029 A 
ATOM     56  C   UNL A   1      42.837  28.851  34.102  1.00  0.00     0.049 A 
ATOM     57  H   UNL A   1      41.400  29.513  32.706  1.00  0.00     0.167 HD
ATOM     58  C   UNL A   1      43.305  27.521  32.066  1.00  0.00     0.074 A 
ATOM     59  C   UNL A   1      44.081  26.564  31.303  1.00  0.00     0.031 C 
ATOM     60  C   UNL A   1      43.565  27.860  33.353  1.00  0.00     0.034 A 
BRANCH  47  61
ATOM     61  C   UNL A   1      39.871  32.289  35.571  1.00  0.00     0.023 A 
ATOM     62  C   UNL A   1      40.465  33.565  35.669  1.00  0.00     0.012 A 
ATOM     63  C   UNL A   1      38.911  31.897  36.524  1.00  0.00     0.148 A 
ATOM     64  C   UNL A   1      40.130  34.424  36.714  1.00  0.00     0.002 A 
ATOM     65  C   UNL A   1      38.553  32.776  37.540  1.00  0.00     0.091 A 
ATOM     66  F   UNL A   1      38.376  30.672  36.427  1.00  0.00    -0.205 F 
ATOM     67  C   UNL A   1      39.168  34.035  37.643  1.00  0.00     0.022 A 
BRANCH  65  68
ATOM     68  S   UNL A   1      37.272  32.395  38.740  1.00  0.00     0.127 S 
ATOM     69  O   UNL A   1      37.418  30.947  38.878  1.00  0.00    -0.237 OA
ATOM     70  O   UNL A   1      37.704  33.163  39.908  1.00  0.00    -0.237 OA
ATOM     71  O   UNL A   1      36.021  32.846  38.148  1.00  0.00    -0.744 OA
ENDBRANCH  65  68
ENDBRANCH  47  61
BRANCH  48  72
ATOM     72  C   UNL A   1      42.034  26.665  27.608  1.00  0.00     0.023 A 
ATOM     73  C   UNL A   1      42.699  27.280  26.530  1.00  0.00     0.012 A 
ATOM     74  C   UNL A   1      41.741  25.289  27.540  1.00  0.00     0.148 A 
ATOM     75  C   UNL A   1      43.040  26.545  25.393  1.00  0.00     0.002 A 
ATOM     76  C   UNL A   1      42.132  24.551  26.428  1.00  0.00     0.091 A 
ATOM     77  F   UNL A   1      41.088  24.727  28.567  1.00  0.00    -0.205 F 
ATOM     78  C   UNL A   1      42.766  25.180  25.347  1.00  0.00     0.022 A 
BRANCH  76  79
ATOM     79  S   UNL A   1      41.935  22.768  26.343  1.00  0.00     0.127 S 
ATOM     80  O   UNL A   1      40.485  22.622  26.425  1.00  0.00    -0.237 OA
ATOM     81  O   UNL A   1      42.512  22.462  25.032  1.00  0.00    -0.237 OA
ATOM     82  O   UNL A   1      42.692  22.237  27.468  1.00  0.00    -0.744 OA
ENDBRANCH  76  79
ENDBRANCH  48  72
BRANCH  60  83
ATOM     83  C   UNL A   1      44.716  27.173  34.041  1.00  0.00     0.023 A 
ATOM     84  C   UNL A   1      46.007  27.733  33.971  1.00  0.00     0.012 A 
ATOM     85  C   UNL A   1      44.504  26.021  34.823  1.00  0.00     0.148 A 
ATOM     86  C   UNL A   1      47.075  27.138  34.644  1.00  0.00     0.002 A 
ATOM     87  C   UNL A   1      45.563  25.461  35.528  1.00  0.00     0.091 A 
ATOM     88  F   UNL A   1      43.272  25.493  34.863  1.00  0.00    -0.205 F 
ATOM     89  C   UNL A   1      46.851  26.011  35.431  1.00  0.00     0.022 A 
BRANCH  87  90
ATOM     90  S   UNL A   1      45.349  24.065  36.640  1.00  0.00     0.127 S 
ATOM     91  O   UNL A   1      44.374  24.591  37.594  1.00  0.00    -0.237 OA
ATOM     92  O   UNL A   1      44.829  23.031  35.745  1.00  0.00    -0.237 OA
ATOM     93  O   UNL A   1      46.670  23.781  37.184  1.00  0.00    -0.744 OA
ENDBRANCH  87  90
ENDBRANCH  60  83
ENDBRANCH  34  35
ENDBRANCH  27  29
ENDBRANCH  26  27
ENDBRANCH  25  26
ENDBRANCH  24  25
ENDBRANCH  23  24
ENDBRANCH   1  23
TORSDOF 21
ENDMDL
MODEL 2
REMARK VINA RESULT:     -11.1      1.409      7.689
REMARK SMILES C[C@@H](C(=O)OCCOCCOC(=O)c1ccc(-c2c3nc(c(-c4cccc(S(=O)(=O)[O-])c4F)c4ccc([nH]4)c(-c4cccc(S(=O)(=O)[O-])c4F)c4nc(c(-c5cccc(S(=O)(=O)[O-])c5F)c5ccc2[nH]5)C=C4)C=C3)cc1)c1ccc(C[C@@H]2CCC[C@@H]2O)cc1F
REMARK SMILES IDX 7 1 6 2 5 3 3 4 4 5 2 6 1 7 77 8 78 9 89 10 79 11 88 12
REMARK SMILES IDX 90 13 80 14 81 15 82 16 83 17 86 18 84 19 85 20 87 21 8 23
REMARK SMILES IDX 9 24 10 25 11 26 12 27 13 28 14 29 15 30 76 31 16 32 75 33
REMARK SMILES IDX 17 34 18 35 19 36 69 37 20 38 74 39 68 40 70 41 21 42 73 43
REMARK SMILES IDX 67 44 66 45 22 47 54 48 34 49 53 50 35 51 38 52 52 53 71 54
REMARK SMILES IDX 36 55 37 56 51 58 72 59 39 60 23 61 24 62 32 63 25 64 27 65
REMARK SMILES IDX 33 66 26 67 28 68 29 69 30 70 31 71 55 72 56 73 64 74 57 75
REMARK SMILES IDX 59 76 65 77 58 78 60 79 61 80 62 81 63 82 40 83 41 84 49 85
REMARK SMILES IDX 42 86 44 87 50 88 43 89 45 90 46 91 47 92 48 93
REMARK H PARENT 87 22 70 46 38 57
REMARK Flexibility Score: inf
ROOT
ATOM      1  C   UNL A   1      30.594  29.282  24.113  1.00  0.00     0.202 C 
ENDROOT
BRANCH   1   2
ATOM      2  C   UNL A   1      30.640  27.800  24.500  1.00  0.00     0.261 C 
BRANCH   2   3
ATOM      3  O   UNL A   1      31.301  27.038  23.482  1.00  0.00    -0.463 OA
BRANCH   3   4
ATOM      4  C   UNL A   1      32.610  26.749  23.712  1.00  0.00     0.313 C 
ATOM      5  O   UNL A   1      33.546  27.250  23.098  1.00  0.00    -0.252 OA
BRANCH   4   6
ATOM      6  C   UNL A   1      32.792  25.838  24.932  1.00  0.00     0.129 C 
ATOM      7  C   UNL A   1      33.927  26.348  25.831  1.00  0.00     0.025 C 
BRANCH   6   8
ATOM      8  C   UNL A   1      32.854  24.344  24.581  1.00  0.00     0.002 A 
ATOM      9  C   UNL A   1      33.778  23.841  23.645  1.00  0.00     0.008 A 
ATOM     10  C   UNL A   1      31.910  23.435  25.073  1.00  0.00     0.127 A 
ATOM     11  C   UNL A   1      33.716  22.519  23.186  1.00  0.00     0.004 A 
ATOM     12  C   UNL A   1      31.833  22.119  24.609  1.00  0.00     0.043 A 
ATOM     13  F   UNL A   1      31.000  23.813  25.981  1.00  0.00    -0.207 F 
ATOM     14  C   UNL A   1      32.701  21.662  23.614  1.00  0.00    -0.045 A 
BRANCH  14  15
ATOM     15  C   UNL A   1      32.490  20.315  22.971  1.00  0.00     0.041 C 
BRANCH  15  16
ATOM     16  C   UNL A   1      32.420  19.079  23.904  1.00  0.00     0.022 C 
ATOM     17  C   UNL A   1      33.568  18.961  24.912  1.00  0.00     0.007 C 
ATOM     18  C   UNL A   1      32.419  17.693  23.248  1.00  0.00     0.117 C 
ATOM     19  C   UNL A   1      34.565  17.952  24.332  1.00  0.00     0.003 C 
ATOM     20  C   UNL A   1      33.889  17.316  23.121  1.00  0.00     0.032 C 
BRANCH  18  21
ATOM     21  O   UNL A   1      31.745  17.642  22.008  1.00  0.00    -0.393 OA
ATOM     22  H   UNL A   1      30.803  17.824  22.145  1.00  0.00     0.210 HD
ENDBRANCH  18  21
ENDBRANCH  15  16
ENDBRANCH  14  15
ENDBRANCH   6   8
ENDBRANCH   4   6
ENDBRANCH   3   4
ENDBRANCH   2   3
ENDBRANCH   1   2
BRANCH   1  23
ATOM     23  O   UNL A   1      31.409  30.167  24.883  1.00  0.00    -0.374 OA
BRANCH  23  24
ATOM     24  C   UNL A   1      30.790  31.332  25.435  1.00  0.00     0.202 C 
BRANCH  24  25
ATOM     25  C   UNL A   1      31.402  31.920  26.714  1.00  0.00     0.261 C 
BRANCH  25  26
ATOM     26  O   UNL A   1      32.792  31.583  26.881  1.00  0.00    -0.460 OA
BRANCH  26  27
ATOM     27  C   UNL A   1      33.540  32.542  27.478  1.00  0.00     0.338 C 
ATOM     28  O   UNL A   1      33.189  33.682  27.759  1.00  0.00    -0.246 OA
BRANCH  27  29
ATOM     29  C   UNL A   1      34.826  31.988  27.935  1.00  0.00     0.060 A 
ATOM     30  C   UNL A   1      34.855  30.635  28.298  1.00  0.00     0.016 A 
ATOM     31  C   UNL A   1      35.954  32.793  28.108  1.00  0.00     0.016 A 
ATOM     32  C   UNL A   1      35.998  30.092  28.880  1.00  0.00     0.010 A 
ATOM     33  C   UNL A   1      37.097  32.247  28.703  1.00  0.00     0.010 A 
ATOM     34  C   UNL A   1      37.112  30.904  29.126  1.00  0.00    -0.014 A 
BRANCH  34  35
ATOM     35  C   UNL A   1      38.230  30.380  29.947  1.00  0.00     0.031 A 
ATOM     36  C   UNL A   1      39.197  29.404  29.334  1.00  0.00     0.074 A 
ATOM     37  C   UNL A   1      38.394  30.779  31.222  1.00  0.00     0.049 A 
ATOM     38  N   UNL A   1      40.237  28.820  29.870  1.00  0.00    -0.248 NA
ATOM     39  C   UNL A   1      38.962  29.038  27.927  1.00  0.00     0.031 C 
ATOM     40  C   UNL A   1      37.527  31.721  31.928  1.00  0.00     0.029 A 
ATOM     41  N   UNL A   1      39.336  30.423  32.154  1.00  0.00    -0.354 N 
ATOM     42  C   UNL A   1      40.767  28.002  28.880  1.00  0.00     0.074 A 
ATOM     43  C   UNL A   1      39.926  28.153  27.712  1.00  0.00     0.031 C 
ATOM     44  C   UNL A   1      37.960  31.844  33.195  1.00  0.00     0.029 A 
ATOM     45  C   UNL A   1      39.120  30.978  33.392  1.00  0.00     0.049 A 
ATOM     46  H   UNL A   1      40.095  29.828  31.954  1.00  0.00     0.167 HD
ATOM     47  C   UNL A   1      41.864  27.211  28.928  1.00  0.00     0.034 A 
ATOM     48  C   UNL A   1      39.773  30.793  34.558  1.00  0.00     0.034 A 
ATOM     49  C   UNL A   1      42.712  27.075  30.082  1.00  0.00     0.049 A 
ATOM     50  C   UNL A   1      40.980  29.891  34.593  1.00  0.00     0.074 A 
ATOM     51  C   UNL A   1      43.870  26.329  30.216  1.00  0.00     0.029 A 
ATOM     52  N   UNL A   1      42.488  27.688  31.305  1.00  0.00    -0.354 N 
ATOM     53  N   UNL A   1      41.538  29.220  33.614  1.00  0.00    -0.248 NA
ATOM     54  C   UNL A   1      41.667  29.747  35.885  1.00  0.00     0.031 C 
ATOM     55  C   UNL A   1      44.336  26.475  31.526  1.00  0.00     0.029 A 
ATOM     56  C   UNL A   1      43.481  27.331  32.202  1.00  0.00     0.049 A 
ATOM     57  H   UNL A   1      41.735  28.288  31.506  1.00  0.00     0.167 HD
ATOM     58  C   UNL A   1      42.659  28.605  34.162  1.00  0.00     0.074 A 
ATOM     59  C   UNL A   1      42.711  28.999  35.555  1.00  0.00     0.031 C 
ATOM     60  C   UNL A   1      43.554  27.775  33.570  1.00  0.00     0.034 A 
BRANCH  47  61
ATOM     61  C   UNL A   1      42.235  26.453  27.680  1.00  0.00     0.023 A 
ATOM     62  C   UNL A   1      42.941  27.113  26.652  1.00  0.00     0.012 A 
ATOM     63  C   UNL A   1      41.938  25.084  27.547  1.00  0.00     0.148 A 
ATOM     64  C   UNL A   1      43.319  26.427  25.499  1.00  0.00     0.002 A 
ATOM     65  C   UNL A   1      42.353  24.397  26.411  1.00  0.00     0.091 A 
ATOM     66  F   UNL A   1      41.246  24.481  28.524  1.00  0.00    -0.205 F 
ATOM     67  C   UNL A   1      43.035  25.069  25.383  1.00  0.00     0.022 A 
BRANCH  65  68
ATOM     68  S   UNL A   1      42.100  22.631  26.202  1.00  0.00     0.127 S 
ATOM     69  O   UNL A   1      40.640  22.545  26.166  1.00  0.00    -0.237 OA
ATOM     70  O   UNL A   1      42.755  22.375  24.920  1.00  0.00    -0.237 OA
ATOM     71  O   UNL A   1      42.737  21.996  27.346  1.00  0.00    -0.744 OA
ENDBRANCH  65  68
ENDBRANCH  47  61
BRANCH  48  72
ATOM     72  C   UNL A   1      39.315  31.502  35.786  1.00  0.00     0.023 A 
ATOM     73  C   UNL A   1      38.192  31.025  36.489  1.00  0.00     0.012 A 
ATOM     74  C   UNL A   1      39.999  32.634  36.271  1.00  0.00     0.148 A 
ATOM     75  C   UNL A   1      37.742  31.679  37.637  1.00  0.00     0.002 A 
ATOM     76  C   UNL A   1      39.578  33.248  37.444  1.00  0.00     0.091 A 
ATOM     77  F   UNL A   1      41.052  33.085  35.574  1.00  0.00    -0.205 F 
ATOM     78  C   UNL A   1      38.441  32.783  38.120  1.00  0.00     0.022 A 
BRANCH  76  79
ATOM     79  S   UNL A   1      40.495  34.592  38.205  1.00  0.00     0.127 S 
ATOM     80  O   UNL A   1      41.774  33.952  38.502  1.00  0.00    -0.237 OA
ATOM     81  O   UNL A   1      40.535  35.580  37.126  1.00  0.00    -0.237 OA
ATOM     82  O   UNL A   1      39.706  34.999  39.360  1.00  0.00    -0.744 OA
ENDBRANCH  76  79
ENDBRANCH  48  72
BRANCH  60  83
ATOM     83  C   UNL A   1      44.693  27.258  34.411  1.00  0.00     0.023 A 
ATOM     84  C   UNL A   1      45.874  28.016  34.532  1.00  0.00     0.012 A 
ATOM     85  C   UNL A   1      44.562  26.062  35.144  1.00  0.00     0.148 A 
ATOM     86  C   UNL A   1      46.919  27.577  35.345  1.00  0.00     0.002 A 
ATOM     87  C   UNL A   1      45.588  25.655  35.989  1.00  0.00     0.091 A 
ATOM     88  F   UNL A   1      43.437  25.345  35.003  1.00  0.00    -0.205 F 
ATOM     89  C   UNL A   1      46.771  26.404  36.082  1.00  0.00     0.022 A 
BRANCH  87  90
ATOM     90  S   UNL A   1      45.446  24.208  37.047  1.00  0.00     0.127 S 
ATOM     91  O   UNL A   1      44.504  24.672  38.063  1.00  0.00    -0.237 OA
ATOM     92  O   UNL A   1      44.908  23.203  36.129  1.00  0.00    -0.237 OA
ATOM     93  O   UNL A   1      46.795  23.928  37.522  1.00  0.00    -0.744 OA
ENDBRANCH  87  90
ENDBRANCH  60  83
ENDBRANCH  34  35
ENDBRANCH  27  29
ENDBRANCH  26  27
ENDBRANCH  25  26
ENDBRANCH  24  25
ENDBRANCH  23  24
ENDBRANCH   1  23
TORSDOF 21
ENDMDL
MODEL 3
REMARK VINA RESULT:     -10.3      1.425      2.051
REMARK SMILES C[C@@H](C(=O)OCCOCCOC(=O)c1ccc(-c2c3nc(c(-c4cccc(S(=O)(=O)[O-])c4F)c4ccc([nH]4)c(-c4cccc(S(=O)(=O)[O-])c4F)c4nc(c(-c5cccc(S(=O)(=O)[O-])c5F)c5ccc2[nH]5)C=C4)C=C3)cc1)c1ccc(C[C@@H]2CCC[C@@H]2O)cc1F
REMARK SMILES IDX 7 1 6 2 5 3 3 4 4 5 2 6 1 7 77 8 78 9 89 10 79 11 88 12
REMARK SMILES IDX 90 13 80 14 81 15 82 16 83 17 86 18 84 19 85 20 87 21 8 23
REMARK SMILES IDX 9 24 10 25 11 26 12 27 13 28 14 29 15 30 76 31 16 32 75 33
REMARK SMILES IDX 17 34 18 35 19 36 69 37 20 38 74 39 68 40 70 41 21 42 73 43
REMARK SMILES IDX 67 44 66 45 22 47 54 48 34 49 53 50 35 51 38 52 52 53 71 54
REMARK SMILES IDX 36 55 37 56 51 58 72 59 39 60 23 61 24 62 32 63 25 64 27 65
REMARK SMILES IDX 33 66 26 67 28 68 29 69 30 70 31 71 55 72 56 73 64 74 57 75
REMARK SMILES IDX 59 76 65 77 58 78 60 79 61 80 62 81 63 82 40 83 41 84 49 85
REMARK SMILES IDX 42 86 44 87 50 88 43 89 45 90 46 91 47 92 48 93
REMARK H PARENT 87 22 70 46 38 57
REMARK Flexibility Score: inf
ROOT
ATOM      1  C   UNL A   1      31.772  29.510  26.904  1.00  0.00     0.202 C 
ENDROOT
BRANCH   1   2
ATOM      2  C   UNL A   1      32.285  28.229  26.238  1.00  0.00     0.261 C 
BRANCH   2   3
ATOM      3  O   UNL A   1      31.252  27.630  25.446  1.00  0.00    -0.463 OA
BRANCH   3   4
ATOM      4  C   UNL A   1      31.586  27.332  24.161  1.00  0.00     0.313 C 
ATOM      5  O   UNL A   1      30.774  27.158  23.259  1.00  0.00    -0.252 OA
BRANCH   4   6
ATOM      6  C   UNL A   1      33.101  27.385  23.934  1.00  0.00     0.129 C 
ATOM      7  C   UNL A   1      33.445  28.293  22.744  1.00  0.00     0.025 C 
BRANCH   6   8
ATOM      8  C   UNL A   1      33.771  26.003  23.919  1.00  0.00     0.002 A 
ATOM      9  C   UNL A   1      33.578  25.098  22.859  1.00  0.00     0.008 A 
ATOM     10  C   UNL A   1      34.496  25.527  25.019  1.00  0.00     0.127 A 
ATOM     11  C   UNL A   1      34.032  23.774  22.928  1.00  0.00     0.004 A 
ATOM     12  C   UNL A   1      34.940  24.205  25.101  1.00  0.00     0.043 A 
ATOM     13  F   UNL A   1      34.749  26.319  26.070  1.00  0.00    -0.207 F 
ATOM     14  C   UNL A   1      34.661  23.295  24.078  1.00  0.00    -0.045 A 
BRANCH  14  15
ATOM     15  C   UNL A   1      34.959  21.828  24.254  1.00  0.00     0.041 C 
BRANCH  15  16
ATOM     16  C   UNL A   1      33.844  20.937  24.860  1.00  0.00     0.022 C 
ATOM     17  C   UNL A   1      32.439  21.185  24.299  1.00  0.00     0.007 C 
ATOM     18  C   UNL A   1      33.610  21.022  26.373  1.00  0.00     0.117 C 
ATOM     19  C   UNL A   1      31.708  22.073  25.310  1.00  0.00     0.003 C 
ATOM     20  C   UNL A   1      32.593  22.143  26.552  1.00  0.00     0.032 C 
BRANCH  18  21
ATOM     21  O   UNL A   1      34.784  21.241  27.127  1.00  0.00    -0.393 OA
ATOM     22  H   UNL A   1      34.773  20.675  27.913  1.00  0.00     0.210 HD
ENDBRANCH  18  21
ENDBRANCH  15  16
ENDBRANCH  14  15
ENDBRANCH   6   8
ENDBRANCH   4   6
ENDBRANCH   3   4
ENDBRANCH   2   3
ENDBRANCH   1   2
BRANCH   1  23
ATOM     23  O   UNL A   1      32.210  30.745  26.333  1.00  0.00    -0.374 OA
BRANCH  23  24
ATOM     24  C   UNL A   1      31.286  31.835  26.317  1.00  0.00     0.202 C 
BRANCH  24  25
ATOM     25  C   UNL A   1      31.797  33.201  26.796  1.00  0.00     0.261 C 
BRANCH  25  26
ATOM     26  O   UNL A   1      32.724  33.105  27.893  1.00  0.00    -0.460 OA
BRANCH  26  27
ATOM     27  C   UNL A   1      33.904  33.740  27.695  1.00  0.00     0.338 C 
ATOM     28  O   UNL A   1      34.106  34.715  26.979  1.00  0.00    -0.246 OA
BRANCH  27  29
ATOM     29  C   UNL A   1      34.934  33.221  28.612  1.00  0.00     0.060 A 
ATOM     30  C   UNL A   1      36.238  33.713  28.464  1.00  0.00     0.016 A 
ATOM     31  C   UNL A   1      34.660  32.201  29.525  1.00  0.00     0.016 A 
ATOM     32  C   UNL A   1      37.283  33.153  29.195  1.00  0.00     0.010 A 
ATOM     33  C   UNL A   1      35.714  31.634  30.251  1.00  0.00     0.010 A 
ATOM     34  C   UNL A   1      37.036  32.081  30.062  1.00  0.00    -0.014 A 
BRANCH  34  35
ATOM     35  C   UNL A   1      38.178  31.347  30.658  1.00  0.00     0.031 A 
ATOM     36  C   UNL A   1      38.606  31.671  32.063  1.00  0.00     0.074 A 
ATOM     37  C   UNL A   1      38.819  30.390  29.963  1.00  0.00     0.049 A 
ATOM     38  N   UNL A   1      39.577  31.157  32.773  1.00  0.00    -0.248 NA
ATOM     39  C   UNL A   1      37.836  32.713  32.764  1.00  0.00     0.031 C 
ATOM     40  C   UNL A   1      38.498  29.983  28.595  1.00  0.00     0.029 A 
ATOM     41  N   UNL A   1      39.889  29.602  30.307  1.00  0.00    -0.354 N 
ATOM     42  C   UNL A   1      39.552  31.825  33.992  1.00  0.00     0.074 A 
ATOM     43  C   UNL A   1      38.478  32.792  33.922  1.00  0.00     0.031 C 
ATOM     44  C   UNL A   1      39.375  29.042  28.205  1.00  0.00     0.029 A 
ATOM     45  C   UNL A   1      40.327  28.795  29.285  1.00  0.00     0.049 A 
ATOM     46  H   UNL A   1      40.303  29.615  31.200  1.00  0.00     0.167 HD
ATOM     47  C   UNL A   1      40.336  31.638  35.079  1.00  0.00     0.034 A 
ATOM     48  C   UNL A   1      41.388  27.964  29.222  1.00  0.00     0.034 A 
ATOM     49  C   UNL A   1      41.391  30.664  35.156  1.00  0.00     0.049 A 
ATOM     50  C   UNL A   1      42.261  27.789  30.439  1.00  0.00     0.074 A 
ATOM     51  C   UNL A   1      42.216  30.371  36.229  1.00  0.00     0.029 A 
ATOM     52  N   UNL A   1      41.777  29.830  34.118  1.00  0.00    -0.354 N 
ATOM     53  N   UNL A   1      42.147  28.339  31.623  1.00  0.00    -0.248 NA
ATOM     54  C   UNL A   1      43.388  26.851  30.320  1.00  0.00     0.031 C 
ATOM     55  C   UNL A   1      43.113  29.374  35.832  1.00  0.00     0.029 A 
ATOM     56  C   UNL A   1      42.833  29.029  34.520  1.00  0.00     0.049 A 
ATOM     57  H   UNL A   1      41.361  29.811  33.226  1.00  0.00     0.167 HD
ATOM     58  C   UNL A   1      43.162  27.791  32.400  1.00  0.00     0.074 A 
ATOM     59  C   UNL A   1      43.869  26.849  31.556  1.00  0.00     0.031 C 
ATOM     60  C   UNL A   1      43.491  28.054  33.689  1.00  0.00     0.034 A 
BRANCH  47  61
ATOM     61  C   UNL A   1      40.061  32.486  36.293  1.00  0.00     0.023 A 
ATOM     62  C   UNL A   1      40.787  33.680  36.483  1.00  0.00     0.012 A 
ATOM     63  C   UNL A   1      39.054  32.134  37.211  1.00  0.00     0.148 A 
ATOM     64  C   UNL A   1      40.533  34.496  37.585  1.00  0.00     0.002 A 
ATOM     65  C   UNL A   1      38.779  32.973  38.286  1.00  0.00     0.091 A 
ATOM     66  F   UNL A   1      38.391  30.984  37.026  1.00  0.00    -0.205 F 
ATOM     67  C   UNL A   1      39.523  34.149  38.479  1.00  0.00     0.022 A 
BRANCH  65  68
ATOM     68  S   UNL A   1      37.450  32.650  39.450  1.00  0.00     0.127 S 
ATOM     69  O   UNL A   1      37.583  33.779  40.370  1.00  0.00    -0.237 OA
ATOM     70  O   UNL A   1      36.267  32.702  38.591  1.00  0.00    -0.237 OA
ATOM     71  O   UNL A   1      37.727  31.340  40.021  1.00  0.00    -0.744 OA
ENDBRANCH  65  68
ENDBRANCH  47  61
BRANCH  48  72
ATOM     72  C   UNL A   1      41.667  27.210  27.967  1.00  0.00     0.023 A 
ATOM     73  C   UNL A   1      42.232  27.877  26.864  1.00  0.00     0.012 A 
ATOM     74  C   UNL A   1      41.394  25.831  27.872  1.00  0.00     0.148 A 
ATOM     75  C   UNL A   1      42.494  27.190  25.677  1.00  0.00     0.002 A 
ATOM     76  C   UNL A   1      41.708  25.143  26.706  1.00  0.00     0.091 A 
ATOM     77  F   UNL A   1      40.837  25.220  28.926  1.00  0.00    -0.205 F 
ATOM     78  C   UNL A   1      42.243  25.823  25.602  1.00  0.00     0.022 A 
BRANCH  76  79
ATOM     79  S   UNL A   1      41.538  23.360  26.570  1.00  0.00     0.127 S 
ATOM     80  O   UNL A   1      42.076  22.909  27.850  1.00  0.00    -0.237 OA
ATOM     81  O   UNL A   1      40.090  23.204  26.421  1.00  0.00    -0.237 OA
ATOM     82  O   UNL A   1      42.305  22.982  25.390  1.00  0.00    -0.744 OA
ENDBRANCH  76  79
ENDBRANCH  48  72
BRANCH  60  83
ATOM     83  C   UNL A   1      44.646  27.294  34.289  1.00  0.00     0.023 A 
ATOM     84  C   UNL A   1      45.962  27.763  34.107  1.00  0.00     0.012 A 
ATOM     85  C   UNL A   1      44.421  26.164  35.098  1.00  0.00     0.148 A 
ATOM     86  C   UNL A   1      47.039  27.100  34.697  1.00  0.00     0.002 A 
ATOM     87  C   UNL A   1      45.494  25.537  35.721  1.00  0.00     0.091 A 
ATOM     88  F   UNL A   1      43.163  25.722  35.246  1.00  0.00    -0.205 F 
ATOM     89  C   UNL A   1      46.803  25.996  35.513  1.00  0.00     0.022 A 
BRANCH  87  90
ATOM     90  S   UNL A   1      45.277  24.165  36.863  1.00  0.00     0.127 S 
ATOM     91  O   UNL A   1      46.555  24.163  37.573  1.00  0.00    -0.237 OA
ATOM     92  O   UNL A   1      44.135  24.605  37.665  1.00  0.00    -0.237 OA
ATOM     93  O   UNL A   1      45.017  22.994  36.036  1.00  0.00    -0.744 OA
ENDBRANCH  87  90
ENDBRANCH  60  83
ENDBRANCH  34  35
ENDBRANCH  27  29
ENDBRANCH  26  27
ENDBRANCH  25  26
ENDBRANCH  24  25
ENDBRANCH  23  24
ENDBRANCH   1  23
TORSDOF 21
ENDMDL
