MODEL 1
REMARK VINA RESULT:     -11.2      0.000      0.000
REMARK SMILES O=C(OCCOCCOC(=O)c1cc2ccc(F)cc2o1)c1ccc(-c2c3nc(c(-c4cccc(S(=O)(=O)[O-])c4F)c4ccc([nH]4)c(-c4cccc(S(=O)(=O)[O-])c4F)c4nc(c(-c5cccc(S(=O)(=O)[O-])c5F)c5ccc2[nH]5)C=C4)C=C3)cc1
REMARK SMILES IDX 4 1 3 2 2 3 1 4 22 5 23 6 84 7 24 8 83 9 25 10 26 11 27 12
REMARK SMILES IDX 77 13 28 14 82 15 76 16 78 17 29 18 81 19 75 20 74 21 30 23
REMARK SMILES IDX 62 24 42 25 61 26 43 27 46 28 60 29 79 30 44 31 45 32 59 34
REMARK SMILES IDX 80 35 47 36 31 37 32 38 40 39 33 40 35 41 41 42 34 43 36 44
REMARK SMILES IDX 37 45 38 46 39 47 63 48 64 49 72 50 65 51 67 52 73 53 66 54
REMARK SMILES IDX 68 55 69 56 70 57 71 58 48 59 49 60 57 61 50 62 52 63 58 64
REMARK SMILES IDX 51 65 53 66 54 67 55 68 56 69 5 70 6 71 7 72 8 73 9 74 10 75
REMARK SMILES IDX 11 76 12 77 13 78 21 79 14 80 20 81 15 82 19 83 16 84 17 85
REMARK SMILES IDX 18 86
REMARK H PARENT 78 22 46 33
REMARK Flexibility Score: inf
ROOT
ATOM      1  C   UNL A   1      33.092  33.581  27.855  1.00  0.00     0.261 C 
ENDROOT
BRANCH   1   2
ATOM      2  O   UNL A   1      34.160  32.661  27.499  1.00  0.00    -0.460 OA
BRANCH   2   3
ATOM      3  C   UNL A   1      34.341  31.328  27.669  1.00  0.00     0.338 C 
ATOM      4  O   UNL A   1      33.404  30.555  27.484  1.00  0.00    -0.246 OA
BRANCH   3   5
ATOM      5  C   UNL A   1      35.597  30.794  28.246  1.00  0.00     0.060 A 
ATOM      6  C   UNL A   1      36.532  31.716  28.763  1.00  0.00     0.016 A 
ATOM      7  C   UNL A   1      35.928  29.449  28.178  1.00  0.00     0.016 A 
ATOM      8  C   UNL A   1      37.860  31.330  28.988  1.00  0.00     0.010 A 
ATOM      9  C   UNL A   1      37.253  29.075  28.378  1.00  0.00     0.010 A 
ATOM     10  C   UNL A   1      38.246  30.019  28.705  1.00  0.00    -0.014 A 
BRANCH  10  11
ATOM     11  C   UNL A   1      39.587  29.501  29.017  1.00  0.00     0.031 A 
ATOM     12  C   UNL A   1      39.862  29.609  30.461  1.00  0.00     0.074 A 
ATOM     13  C   UNL A   1      40.476  28.832  28.245  1.00  0.00     0.049 A 
ATOM     14  N   UNL A   1      40.527  30.576  31.005  1.00  0.00    -0.248 NA
ATOM     15  C   UNL A   1      39.188  28.713  31.406  1.00  0.00     0.031 C 
ATOM     16  C   UNL A   1      40.483  28.571  26.815  1.00  0.00     0.029 A 
ATOM     17  N   UNL A   1      41.560  28.103  28.646  1.00  0.00    -0.354 N 
ATOM     18  C   UNL A   1      40.562  30.246  32.344  1.00  0.00     0.074 A 
ATOM     19  C   UNL A   1      39.491  29.304  32.564  1.00  0.00     0.031 C 
ATOM     20  C   UNL A   1      41.244  27.492  26.520  1.00  0.00     0.029 A 
ATOM     21  C   UNL A   1      41.987  27.153  27.716  1.00  0.00     0.049 A 
ATOM     22  H   UNL A   1      42.001  28.236  29.517  1.00  0.00     0.167 HD
ATOM     23  C   UNL A   1      41.667  30.470  33.103  1.00  0.00     0.034 A 
ATOM     24  C   UNL A   1      43.008  26.269  27.836  1.00  0.00     0.034 A 
ATOM     25  C   UNL A   1      42.670  31.240  32.419  1.00  0.00     0.049 A 
ATOM     26  C   UNL A   1      43.959  26.912  28.772  1.00  0.00     0.074 A 
ATOM     27  C   UNL A   1      42.699  32.468  31.788  1.00  0.00     0.029 A 
ATOM     28  N   UNL A   1      43.756  30.543  31.939  1.00  0.00    -0.354 N 
ATOM     29  N   UNL A   1      44.613  28.002  28.479  1.00  0.00    -0.248 NA
ATOM     30  C   UNL A   1      43.838  26.604  30.186  1.00  0.00     0.031 C 
ATOM     31  C   UNL A   1      43.517  32.275  30.635  1.00  0.00     0.029 A 
ATOM     32  C   UNL A   1      43.988  30.962  30.655  1.00  0.00     0.049 A 
ATOM     33  H   UNL A   1      44.272  29.865  32.431  1.00  0.00     0.167 HD
ATOM     34  C   UNL A   1      44.546  28.751  29.646  1.00  0.00     0.074 A 
ATOM     35  C   UNL A   1      44.160  27.801  30.687  1.00  0.00     0.031 C 
ATOM     36  C   UNL A   1      44.525  30.116  29.609  1.00  0.00     0.034 A 
BRANCH  23  37
ATOM     37  C   UNL A   1      41.965  29.656  34.319  1.00  0.00     0.023 A 
ATOM     38  C   UNL A   1      42.365  30.317  35.489  1.00  0.00     0.012 A 
ATOM     39  C   UNL A   1      42.012  28.245  34.307  1.00  0.00     0.148 A 
ATOM     40  C   UNL A   1      42.742  29.593  36.624  1.00  0.00     0.002 A 
ATOM     41  C   UNL A   1      42.274  27.532  35.464  1.00  0.00     0.091 A 
ATOM     42  F   UNL A   1      41.915  27.588  33.142  1.00  0.00    -0.205 F 
ATOM     43  C   UNL A   1      42.659  28.202  36.625  1.00  0.00     0.022 A 
BRANCH  41  44
ATOM     44  S   UNL A   1      42.059  25.753  35.514  1.00  0.00     0.127 S 
ATOM     45  O   UNL A   1      42.943  25.319  34.437  1.00  0.00    -0.237 OA
ATOM     46  O   UNL A   1      42.515  25.428  36.865  1.00  0.00    -0.237 OA
ATOM     47  O   UNL A   1      40.630  25.545  35.305  1.00  0.00    -0.744 OA
ENDBRANCH  41  44
ENDBRANCH  23  37
BRANCH  24  48
ATOM     48  C   UNL A   1      43.069  24.822  27.495  1.00  0.00     0.023 A 
ATOM     49  C   UNL A   1      41.917  24.029  27.707  1.00  0.00     0.012 A 
ATOM     50  C   UNL A   1      44.105  24.275  26.704  1.00  0.00     0.148 A 
ATOM     51  C   UNL A   1      41.764  22.780  27.094  1.00  0.00     0.002 A 
ATOM     52  C   UNL A   1      43.947  23.028  26.092  1.00  0.00     0.091 A 
ATOM     53  F   UNL A   1      45.205  25.007  26.482  1.00  0.00    -0.205 F 
ATOM     54  C   UNL A   1      42.770  22.288  26.272  1.00  0.00     0.022 A 
BRANCH  52  55
ATOM     55  S   UNL A   1      45.186  22.323  24.993  1.00  0.00     0.127 S 
ATOM     56  O   UNL A   1      45.108  23.207  23.829  1.00  0.00    -0.237 OA
ATOM     57  O   UNL A   1      46.408  22.457  25.780  1.00  0.00    -0.237 OA
ATOM     58  O   UNL A   1      44.758  20.954  24.733  1.00  0.00    -0.744 OA
ENDBRANCH  52  55
ENDBRANCH  24  48
BRANCH  36  59
ATOM     59  C   UNL A   1      44.848  30.801  28.305  1.00  0.00     0.023 A 
ATOM     60  C   UNL A   1      43.857  31.114  27.350  1.00  0.00     0.012 A 
ATOM     61  C   UNL A   1      46.142  31.320  28.139  1.00  0.00     0.148 A 
ATOM     62  C   UNL A   1      44.153  31.930  26.253  1.00  0.00     0.002 A 
ATOM     63  C   UNL A   1      46.424  32.160  27.067  1.00  0.00     0.091 A 
ATOM     64  F   UNL A   1      47.066  31.017  29.062  1.00  0.00    -0.205 F 
ATOM     65  C   UNL A   1      45.432  32.467  26.120  1.00  0.00     0.022 A 
BRANCH  63  66
ATOM     66  S   UNL A   1      48.016  32.968  26.890  1.00  0.00     0.127 S 
ATOM     67  O   UNL A   1      48.899  31.843  26.591  1.00  0.00    -0.237 OA
ATOM     68  O   UNL A   1      47.778  33.876  25.766  1.00  0.00    -0.237 OA
ATOM     69  O   UNL A   1      48.275  33.639  28.159  1.00  0.00    -0.744 OA
ENDBRANCH  63  66
ENDBRANCH  36  59
ENDBRANCH  10  11
ENDBRANCH   3   5
ENDBRANCH   2   3
ENDBRANCH   1   2
BRANCH   1  70
ATOM     70  C   UNL A   1      33.432  34.749  28.775  1.00  0.00     0.202 C 
BRANCH  70  71
ATOM     71  O   UNL A   1      32.659  35.946  28.606  1.00  0.00    -0.374 OA
BRANCH  71  72
ATOM     72  C   UNL A   1      33.325  37.130  29.053  1.00  0.00     0.202 C 
BRANCH  72  73
ATOM     73  C   UNL A   1      33.265  37.427  30.562  1.00  0.00     0.261 C 
BRANCH  73  74
ATOM     74  O   UNL A   1      32.174  36.795  31.241  1.00  0.00    -0.457 OA
BRANCH  74  75
ATOM     75  C   UNL A   1      32.451  36.455  32.524  1.00  0.00     0.374 C 
ATOM     76  O   UNL A   1      31.798  36.845  33.488  1.00  0.00    -0.242 OA
BRANCH  75  77
ATOM     77  C   UNL A   1      33.504  35.509  32.628  1.00  0.00     0.212 A 
ATOM     78  C   UNL A   1      34.644  35.573  33.402  1.00  0.00     0.067 A 
ATOM     79  O   UNL A   1      33.443  34.326  31.956  1.00  0.00    -0.449 OA
ATOM     80  C   UNL A   1      35.270  34.318  33.286  1.00  0.00     0.021 A 
ATOM     81  C   UNL A   1      34.521  33.605  32.357  1.00  0.00     0.138 A 
ATOM     82  C   UNL A   1      36.392  33.712  33.864  1.00  0.00     0.015 A 
ATOM     83  C   UNL A   1      34.825  32.324  31.923  1.00  0.00     0.087 A 
ATOM     84  C   UNL A   1      36.710  32.407  33.473  1.00  0.00     0.040 A 
ATOM     85  C   UNL A   1      35.942  31.744  32.517  1.00  0.00     0.126 A 
ATOM     86  F   UNL A   1      36.281  30.497  32.160  1.00  0.00    -0.207 F 
ENDBRANCH  75  77
ENDBRANCH  74  75
ENDBRANCH  73  74
ENDBRANCH  72  73
ENDBRANCH  71  72
ENDBRANCH  70  71
ENDBRANCH   1  70
TORSDOF 17
ENDMDL
MODEL 2
REMARK VINA RESULT:     -11.0      1.644      2.041
REMARK SMILES O=C(OCCOCCOC(=O)c1cc2ccc(F)cc2o1)c1ccc(-c2c3nc(c(-c4cccc(S(=O)(=O)[O-])c4F)c4ccc([nH]4)c(-c4cccc(S(=O)(=O)[O-])c4F)c4nc(c(-c5cccc(S(=O)(=O)[O-])c5F)c5ccc2[nH]5)C=C4)C=C3)cc1
REMARK SMILES IDX 4 1 3 2 2 3 1 4 22 5 23 6 84 7 24 8 83 9 25 10 26 11 27 12
REMARK SMILES IDX 77 13 28 14 82 15 76 16 78 17 29 18 81 19 75 20 74 21 30 23
REMARK SMILES IDX 62 24 42 25 61 26 43 27 46 28 60 29 79 30 44 31 45 32 59 34
REMARK SMILES IDX 80 35 47 36 31 37 32 38 40 39 33 40 35 41 41 42 34 43 36 44
REMARK SMILES IDX 37 45 38 46 39 47 63 48 64 49 72 50 65 51 67 52 73 53 66 54
REMARK SMILES IDX 68 55 69 56 70 57 71 58 48 59 49 60 57 61 50 62 52 63 58 64
REMARK SMILES IDX 51 65 53 66 54 67 55 68 56 69 5 70 6 71 7 72 8 73 9 74 10 75
REMARK SMILES IDX 11 76 12 77 13 78 21 79 14 80 20 81 15 82 19 83 16 84 17 85
REMARK SMILES IDX 18 86
REMARK H PARENT 78 22 46 33
REMARK Flexibility Score: inf
ROOT
ATOM      1  C   UNL A   1      33.686  33.950  29.183  1.00  0.00     0.261 C 
ENDROOT
BRANCH   1   2
ATOM      2  O   UNL A   1      34.262  32.618  29.273  1.00  0.00    -0.460 OA
BRANCH   2   3
ATOM      3  C   UNL A   1      34.557  31.664  28.355  1.00  0.00     0.338 C 
ATOM      4  O   UNL A   1      33.657  31.150  27.697  1.00  0.00    -0.246 OA
BRANCH   3   5
ATOM      5  C   UNL A   1      35.923  31.099  28.253  1.00  0.00     0.060 A 
ATOM      6  C   UNL A   1      36.052  29.745  27.873  1.00  0.00     0.016 A 
ATOM      7  C   UNL A   1      37.049  31.812  28.636  1.00  0.00     0.016 A 
ATOM      8  C   UNL A   1      37.251  29.055  28.098  1.00  0.00     0.010 A 
ATOM      9  C   UNL A   1      38.230  31.119  28.882  1.00  0.00     0.010 A 
ATOM     10  C   UNL A   1      38.321  29.726  28.695  1.00  0.00    -0.014 A 
BRANCH  10  11
ATOM     11  C   UNL A   1      39.647  29.112  28.864  1.00  0.00     0.031 A 
ATOM     12  C   UNL A   1      39.956  28.929  30.293  1.00  0.00     0.074 A 
ATOM     13  C   UNL A   1      40.494  28.576  27.954  1.00  0.00     0.049 A 
ATOM     14  N   UNL A   1      40.667  29.749  30.996  1.00  0.00    -0.248 NA
ATOM     15  C   UNL A   1      39.267  27.890  31.066  1.00  0.00     0.031 C 
ATOM     16  C   UNL A   1      40.462  28.599  26.500  1.00  0.00     0.029 A 
ATOM     17  N   UNL A   1      41.557  27.748  28.176  1.00  0.00    -0.354 N 
ATOM     18  C   UNL A   1      40.716  29.164  32.245  1.00  0.00     0.074 A 
ATOM     19  C   UNL A   1      39.615  28.234  32.307  1.00  0.00     0.031 C 
ATOM     20  C   UNL A   1      41.175  27.572  25.982  1.00  0.00     0.029 A 
ATOM     21  C   UNL A   1      41.929  26.983  27.069  1.00  0.00     0.049 A 
ATOM     22  H   UNL A   1      42.021  27.694  29.044  1.00  0.00     0.167 HD
ATOM     23  C   UNL A   1      41.844  29.200  33.003  1.00  0.00     0.034 A 
ATOM     24  C   UNL A   1      42.918  26.059  26.988  1.00  0.00     0.034 A 
ATOM     25  C   UNL A   1      42.862  30.054  32.453  1.00  0.00     0.049 A 
ATOM     26  C   UNL A   1      43.912  26.475  28.004  1.00  0.00     0.074 A 
ATOM     27  C   UNL A   1      42.926  31.379  32.071  1.00  0.00     0.029 A 
ATOM     28  N   UNL A   1      43.911  29.427  31.818  1.00  0.00    -0.354 N 
ATOM     29  N   UNL A   1      44.601  27.579  27.910  1.00  0.00    -0.248 NA
ATOM     30  C   UNL A   1      43.808  25.904  29.335  1.00  0.00     0.031 C 
ATOM     31  C   UNL A   1      43.712  31.386  30.881  1.00  0.00     0.029 A 
ATOM     32  C   UNL A   1      44.133  30.080  30.633  1.00  0.00     0.049 A 
ATOM     33  H   UNL A   1      44.411  28.650  32.155  1.00  0.00     0.167 HD
ATOM     34  C   UNL A   1      44.586  28.090  29.201  1.00  0.00     0.074 A 
ATOM     35  C   UNL A   1      44.186  26.968  30.049  1.00  0.00     0.031 C 
ATOM     36  C   UNL A   1      44.616  29.435  29.430  1.00  0.00     0.034 A 
BRANCH  23  37
ATOM     37  C   UNL A   1      42.136  28.155  34.029  1.00  0.00     0.023 A 
ATOM     38  C   UNL A   1      41.772  28.402  35.361  1.00  0.00     0.012 A 
ATOM     39  C   UNL A   1      42.896  26.997  33.754  1.00  0.00     0.148 A 
ATOM     40  C   UNL A   1      42.106  27.495  36.371  1.00  0.00     0.002 A 
ATOM     41  C   UNL A   1      43.123  26.047  34.734  1.00  0.00     0.091 A 
ATOM     42  F   UNL A   1      43.500  26.868  32.564  1.00  0.00    -0.205 F 
ATOM     43  C   UNL A   1      42.746  26.298  36.053  1.00  0.00     0.022 A 
BRANCH  41  44
ATOM     44  S   UNL A   1      43.841  24.456  34.320  1.00  0.00     0.127 S 
ATOM     45  O   UNL A   1      45.037  24.447  35.155  1.00  0.00    -0.237 OA
ATOM     46  O   UNL A   1      42.786  23.530  34.730  1.00  0.00    -0.237 OA
ATOM     47  O   UNL A   1      44.055  24.510  32.878  1.00  0.00    -0.744 OA
ENDBRANCH  41  44
ENDBRANCH  23  37
BRANCH  24  48
ATOM     48  C   UNL A   1      42.917  24.704  26.372  1.00  0.00     0.023 A 
ATOM     49  C   UNL A   1      44.104  24.241  25.759  1.00  0.00     0.012 A 
ATOM     50  C   UNL A   1      41.897  23.759  26.626  1.00  0.00     0.148 A 
ATOM     51  C   UNL A   1      44.305  22.883  25.486  1.00  0.00     0.002 A 
ATOM     52  C   UNL A   1      42.103  22.404  26.354  1.00  0.00     0.091 A 
ATOM     53  F   UNL A   1      40.763  24.171  27.211  1.00  0.00    -0.205 F 
ATOM     54  C   UNL A   1      43.313  21.962  25.800  1.00  0.00     0.022 A 
BRANCH  52  55
ATOM     55  S   UNL A   1      40.884  21.138  26.749  1.00  0.00     0.127 S 
ATOM     56  O   UNL A   1      39.719  21.579  25.980  1.00  0.00    -0.237 OA
ATOM     57  O   UNL A   1      41.524  19.927  26.246  1.00  0.00    -0.237 OA
ATOM     58  O   UNL A   1      40.702  21.194  28.194  1.00  0.00    -0.744 OA
ENDBRANCH  52  55
ENDBRANCH  24  48
BRANCH  36  59
ATOM     59  C   UNL A   1      44.939  30.350  28.274  1.00  0.00     0.023 A 
ATOM     60  C   UNL A   1      43.936  30.962  27.492  1.00  0.00     0.012 A 
ATOM     61  C   UNL A   1      46.273  30.756  28.111  1.00  0.00     0.148 A 
ATOM     62  C   UNL A   1      44.259  31.962  26.568  1.00  0.00     0.002 A 
ATOM     63  C   UNL A   1      46.586  31.774  27.218  1.00  0.00     0.091 A 
ATOM     64  F   UNL A   1      47.208  30.167  28.870  1.00  0.00    -0.205 F 
ATOM     65  C   UNL A   1      45.582  32.379  26.443  1.00  0.00     0.022 A 
BRANCH  63  66
ATOM     66  S   UNL A   1      48.249  32.434  27.079  1.00  0.00     0.127 S 
ATOM     67  O   UNL A   1      49.008  31.262  26.647  1.00  0.00    -0.237 OA
ATOM     68  O   UNL A   1      48.087  33.469  26.057  1.00  0.00    -0.237 OA
ATOM     69  O   UNL A   1      48.597  32.943  28.401  1.00  0.00    -0.744 OA
ENDBRANCH  63  66
ENDBRANCH  36  59
ENDBRANCH  10  11
ENDBRANCH   3   5
ENDBRANCH   2   3
ENDBRANCH   1   2
BRANCH   1  70
ATOM     70  C   UNL A   1      34.548  35.065  28.601  1.00  0.00     0.202 C 
BRANCH  70  71
ATOM     71  O   UNL A   1      33.963  36.373  28.557  1.00  0.00    -0.374 OA
BRANCH  71  72
ATOM     72  C   UNL A   1      32.918  36.571  29.513  1.00  0.00     0.202 C 
BRANCH  72  73
ATOM     73  C   UNL A   1      33.319  37.234  30.844  1.00  0.00     0.261 C 
BRANCH  73  74
ATOM     74  O   UNL A   1      32.827  36.559  32.007  1.00  0.00    -0.457 OA
BRANCH  74  75
ATOM     75  C   UNL A   1      33.718  36.508  33.027  1.00  0.00     0.374 C 
ATOM     76  O   UNL A   1      33.737  37.311  33.956  1.00  0.00    -0.242 OA
BRANCH  75  77
ATOM     77  C   UNL A   1      34.554  35.362  32.973  1.00  0.00     0.212 A 
ATOM     78  C   UNL A   1      34.189  34.033  32.907  1.00  0.00     0.067 A 
ATOM     79  O   UNL A   1      35.909  35.494  32.919  1.00  0.00    -0.449 OA
ATOM     80  C   UNL A   1      35.377  33.309  32.693  1.00  0.00     0.021 A 
ATOM     81  C   UNL A   1      36.405  34.242  32.752  1.00  0.00     0.138 A 
ATOM     82  C   UNL A   1      35.690  31.964  32.461  1.00  0.00     0.015 A 
ATOM     83  C   UNL A   1      37.751  33.931  32.630  1.00  0.00     0.087 A 
ATOM     84  C   UNL A   1      37.036  31.620  32.302  1.00  0.00     0.040 A 
ATOM     85  C   UNL A   1      38.034  32.589  32.396  1.00  0.00     0.126 A 
ATOM     86  F   UNL A   1      39.314  32.221  32.246  1.00  0.00    -0.207 F 
ENDBRANCH  75  77
ENDBRANCH  74  75
ENDBRANCH  73  74
ENDBRANCH  72  73
ENDBRANCH  71  72
ENDBRANCH  70  71
ENDBRANCH   1  70
TORSDOF 17
ENDMDL
MODEL 3
REMARK VINA RESULT:     -10.9      2.834     11.937
REMARK SMILES O=C(OCCOCCOC(=O)c1cc2ccc(F)cc2o1)c1ccc(-c2c3nc(c(-c4cccc(S(=O)(=O)[O-])c4F)c4ccc([nH]4)c(-c4cccc(S(=O)(=O)[O-])c4F)c4nc(c(-c5cccc(S(=O)(=O)[O-])c5F)c5ccc2[nH]5)C=C4)C=C3)cc1
REMARK SMILES IDX 4 1 3 2 2 3 1 4 22 5 23 6 84 7 24 8 83 9 25 10 26 11 27 12
REMARK SMILES IDX 77 13 28 14 82 15 76 16 78 17 29 18 81 19 75 20 74 21 30 23
REMARK SMILES IDX 62 24 42 25 61 26 43 27 46 28 60 29 79 30 44 31 45 32 59 34
REMARK SMILES IDX 80 35 47 36 31 37 32 38 40 39 33 40 35 41 41 42 34 43 36 44
REMARK SMILES IDX 37 45 38 46 39 47 63 48 64 49 72 50 65 51 67 52 73 53 66 54
REMARK SMILES IDX 68 55 69 56 70 57 71 58 48 59 49 60 57 61 50 62 52 63 58 64
REMARK SMILES IDX 51 65 53 66 54 67 55 68 56 69 5 70 6 71 7 72 8 73 9 74 10 75
REMARK SMILES IDX 11 76 12 77 13 78 21 79 14 80 20 81 15 82 19 83 16 84 17 85
REMARK SMILES IDX 18 86
REMARK H PARENT 78 22 46 33
REMARK Flexibility Score: inf
ROOT
ATOM      1  C   UNL A   1      41.007  19.768  26.123  1.00  0.00     0.261 C 
ENDROOT
BRANCH   1   2
ATOM      2  O   UNL A   1      40.713  21.171  25.882  1.00  0.00    -0.460 OA
BRANCH   2   3
ATOM      3  C   UNL A   1      39.686  21.985  26.234  1.00  0.00     0.338 C 
ATOM      4  O   UNL A   1      38.588  21.847  25.702  1.00  0.00    -0.246 OA
BRANCH   3   5
ATOM      5  C   UNL A   1      39.905  23.153  27.118  1.00  0.00     0.060 A 
ATOM      6  C   UNL A   1      39.012  24.241  27.010  1.00  0.00     0.016 A 
ATOM      7  C   UNL A   1      41.015  23.259  27.942  1.00  0.00     0.016 A 
ATOM      8  C   UNL A   1      39.352  25.495  27.536  1.00  0.00     0.010 A 
ATOM      9  C   UNL A   1      41.363  24.511  28.440  1.00  0.00     0.010 A 
ATOM     10  C   UNL A   1      40.583  25.653  28.176  1.00  0.00    -0.014 A 
BRANCH  10  11
ATOM     11  C   UNL A   1      40.971  26.901  28.853  1.00  0.00     0.031 A 
ATOM     12  C   UNL A   1      42.237  27.417  28.304  1.00  0.00     0.074 A 
ATOM     13  C   UNL A   1      40.292  27.676  29.731  1.00  0.00     0.049 A 
ATOM     14  N   UNL A   1      43.398  27.216  28.837  1.00  0.00    -0.248 NA
ATOM     15  C   UNL A   1      42.266  28.017  26.966  1.00  0.00     0.031 C 
ATOM     16  C   UNL A   1      39.044  27.439  30.438  1.00  0.00     0.029 A 
ATOM     17  N   UNL A   1      40.552  28.968  30.092  1.00  0.00    -0.354 N 
ATOM     18  C   UNL A   1      44.268  27.901  28.014  1.00  0.00     0.074 A 
ATOM     19  C   UNL A   1      43.583  28.090  26.758  1.00  0.00     0.031 C 
ATOM     20  C   UNL A   1      38.470  28.604  30.817  1.00  0.00     0.029 A 
ATOM     21  C   UNL A   1      39.450  29.650  30.611  1.00  0.00     0.049 A 
ATOM     22  H   UNL A   1      41.440  29.382  29.993  1.00  0.00     0.167 HD
ATOM     23  C   UNL A   1      45.332  28.583  28.514  1.00  0.00     0.034 A 
ATOM     24  C   UNL A   1      39.388  30.940  31.025  1.00  0.00     0.034 A 
ATOM     25  C   UNL A   1      45.541  28.345  29.916  1.00  0.00     0.049 A 
ATOM     26  C   UNL A   1      40.767  31.269  31.452  1.00  0.00     0.074 A 
ATOM     27  C   UNL A   1      45.730  27.224  30.701  1.00  0.00     0.029 A 
ATOM     28  N   UNL A   1      45.136  29.342  30.775  1.00  0.00    -0.354 N 
ATOM     29  N   UNL A   1      41.343  30.709  32.480  1.00  0.00    -0.248 NA
ATOM     30  C   UNL A   1      41.658  31.873  30.477  1.00  0.00     0.031 C 
ATOM     31  C   UNL A   1      44.992  27.477  31.895  1.00  0.00     0.029 A 
ATOM     32  C   UNL A   1      44.443  28.756  31.802  1.00  0.00     0.049 A 
ATOM     33  H   UNL A   1      45.313  30.304  30.670  1.00  0.00     0.167 HD
ATOM     34  C   UNL A   1      42.634  30.455  32.039  1.00  0.00     0.074 A 
ATOM     35  C   UNL A   1      42.801  31.289  30.850  1.00  0.00     0.031 C 
ATOM     36  C   UNL A   1      43.343  29.384  32.502  1.00  0.00     0.034 A 
BRANCH  23  37
ATOM     37  C   UNL A   1      45.926  29.751  27.797  1.00  0.00     0.023 A 
ATOM     38  C   UNL A   1      47.316  29.794  27.620  1.00  0.00     0.012 A 
ATOM     39  C   UNL A   1      45.175  30.887  27.422  1.00  0.00     0.148 A 
ATOM     40  C   UNL A   1      47.927  30.908  27.037  1.00  0.00     0.002 A 
ATOM     41  C   UNL A   1      45.766  31.936  26.741  1.00  0.00     0.091 A 
ATOM     42  F   UNL A   1      43.902  31.003  27.827  1.00  0.00    -0.205 F 
ATOM     43  C   UNL A   1      47.149  31.962  26.561  1.00  0.00     0.022 A 
BRANCH  41  44
ATOM     44  S   UNL A   1      44.768  33.241  26.022  1.00  0.00     0.127 S 
ATOM     45  O   UNL A   1      44.193  33.861  27.211  1.00  0.00    -0.237 OA
ATOM     46  O   UNL A   1      45.771  34.043  25.323  1.00  0.00    -0.237 OA
ATOM     47  O   UNL A   1      43.838  32.551  25.135  1.00  0.00    -0.744 OA
ENDBRANCH  41  44
ENDBRANCH  23  37
BRANCH  24  48
ATOM     48  C   UNL A   1      38.354  31.980  30.772  1.00  0.00     0.023 A 
ATOM     49  C   UNL A   1      37.923  32.193  29.443  1.00  0.00     0.012 A 
ATOM     50  C   UNL A   1      37.580  32.545  31.812  1.00  0.00     0.148 A 
ATOM     51  C   UNL A   1      36.730  32.869  29.159  1.00  0.00     0.002 A 
ATOM     52  C   UNL A   1      36.389  33.217  31.524  1.00  0.00     0.091 A 
ATOM     53  F   UNL A   1      37.963  32.353  33.082  1.00  0.00    -0.205 F 
ATOM     54  C   UNL A   1      35.954  33.365  30.199  1.00  0.00     0.022 A 
BRANCH  52  55
ATOM     55  S   UNL A   1      35.309  33.871  32.808  1.00  0.00     0.127 S 
ATOM     56  O   UNL A   1      35.986  35.113  33.181  1.00  0.00    -0.237 OA
ATOM     57  O   UNL A   1      34.052  34.054  32.088  1.00  0.00    -0.237 OA
ATOM     58  O   UNL A   1      35.284  32.864  33.861  1.00  0.00    -0.744 OA
ENDBRANCH  52  55
ENDBRANCH  24  48
BRANCH  36  59
ATOM     59  C   UNL A   1      42.808  28.638  33.699  1.00  0.00     0.023 A 
ATOM     60  C   UNL A   1      41.714  27.751  33.610  1.00  0.00     0.012 A 
ATOM     61  C   UNL A   1      43.556  28.678  34.887  1.00  0.00     0.148 A 
ATOM     62  C   UNL A   1      41.376  26.920  34.683  1.00  0.00     0.002 A 
ATOM     63  C   UNL A   1      43.240  27.827  35.939  1.00  0.00     0.091 A 
ATOM     64  F   UNL A   1      44.597  29.523  34.947  1.00  0.00    -0.205 F 
ATOM     65  C   UNL A   1      42.149  26.946  35.842  1.00  0.00     0.022 A 
BRANCH  63  66
ATOM     66  S   UNL A   1      44.252  27.732  37.417  1.00  0.00     0.127 S 
ATOM     67  O   UNL A   1      44.205  29.108  37.909  1.00  0.00    -0.237 OA
ATOM     68  O   UNL A   1      43.516  26.765  38.234  1.00  0.00    -0.237 OA
ATOM     69  O   UNL A   1      45.566  27.273  36.983  1.00  0.00    -0.744 OA
ENDBRANCH  63  66
ENDBRANCH  36  59
ENDBRANCH  10  11
ENDBRANCH   3   5
ENDBRANCH   2   3
ENDBRANCH   1   2
BRANCH   1  70
ATOM     70  C   UNL A   1      42.461  19.371  26.358  1.00  0.00     0.202 C 
BRANCH  70  71
ATOM     71  O   UNL A   1      43.036  18.453  25.419  1.00  0.00    -0.374 OA
BRANCH  71  72
ATOM     72  C   UNL A   1      44.463  18.522  25.344  1.00  0.00     0.202 C 
BRANCH  72  73
ATOM     73  C   UNL A   1      45.052  19.541  24.351  1.00  0.00     0.261 C 
BRANCH  73  74
ATOM     74  O   UNL A   1      45.629  20.696  24.970  1.00  0.00    -0.457 OA
BRANCH  74  75
ATOM     75  C   UNL A   1      44.929  21.837  24.756  1.00  0.00     0.374 C 
ATOM     76  O   UNL A   1      43.812  21.866  24.243  1.00  0.00    -0.242 OA
BRANCH  75  77
ATOM     77  C   UNL A   1      45.568  22.986  25.293  1.00  0.00     0.212 A 
ATOM     78  C   UNL A   1      45.790  23.306  26.616  1.00  0.00     0.067 A 
ATOM     79  O   UNL A   1      46.113  23.924  24.470  1.00  0.00    -0.449 OA
ATOM     80  C   UNL A   1      46.611  24.449  26.611  1.00  0.00     0.021 A 
ATOM     81  C   UNL A   1      46.745  24.814  25.277  1.00  0.00     0.138 A 
ATOM     82  C   UNL A   1      47.251  25.215  27.593  1.00  0.00     0.015 A 
ATOM     83  C   UNL A   1      47.450  25.923  24.835  1.00  0.00     0.087 A 
ATOM     84  C   UNL A   1      47.998  26.324  27.181  1.00  0.00     0.040 A 
ATOM     85  C   UNL A   1      48.079  26.664  25.831  1.00  0.00     0.126 A 
ATOM     86  F   UNL A   1      48.797  27.738  25.473  1.00  0.00    -0.207 F 
ENDBRANCH  75  77
ENDBRANCH  74  75
ENDBRANCH  73  74
ENDBRANCH  72  73
ENDBRANCH  71  72
ENDBRANCH  70  71
ENDBRANCH   1  70
TORSDOF 17
ENDMDL
