MODEL 1
REMARK VINA RESULT:     -11.6      0.000      0.000
REMARK SMILES CS(=O)(=O)Nc1cc(C(=O)OCCOCCOC(=O)c2ccc(-c3c4nc(c(-c5cccc(S(=O)(=O)[O-])c5F)c5ccc([nH]5)c(-c5cccc(S(=O)(=O)[O-])c5F)c5nc(c(-c6cccc(S(=O)(=O)[O-])c6F)c6ccc3[nH]6)C=C5)C=C4)cc2)ccc1N1CC[NH+](CC(=O)N2CCCC2)CC1
REMARK SMILES IDX 14 1 13 2 12 3 11 4 9 5 10 6 8 7 6 8 7 9 85 10 84 11 83 12
REMARK SMILES IDX 5 13 2 15 1 16 3 17 4 18 86 19 87 20 99 21 88 22 98 23 89 24
REMARK SMILES IDX 90 26 91 27 92 28 93 29 94 30 97 31 95 32 96 33 15 34 16 35
REMARK SMILES IDX 17 36 18 37 19 38 20 39 21 40 82 41 22 42 81 43 23 44 24 45
REMARK SMILES IDX 25 46 75 47 26 48 80 49 74 50 76 51 27 52 79 53 73 54 72 55
REMARK SMILES IDX 28 57 60 58 40 59 59 60 41 61 44 62 58 63 77 64 42 65 43 66
REMARK SMILES IDX 57 68 78 69 45 70 29 71 30 72 38 73 31 74 33 75 39 76 32 77
REMARK SMILES IDX 34 78 35 79 36 80 37 81 61 82 62 83 70 84 63 85 65 86 71 87
REMARK SMILES IDX 64 88 66 89 67 90 68 91 69 92 46 93 47 94 55 95 48 96 50 97
REMARK SMILES IDX 56 98 49 99 51 100 52 101 53 102 54 103
REMARK H PARENT 5 14 89 25 76 56 44 67
REMARK Flexibility Score: inf
ROOT
ATOM      1  O   UNL A   1      42.360  20.862  25.514  1.00  0.00    -0.374 OA
ENDROOT
BRANCH   1   2
ATOM      2  C   UNL A   1      41.780  21.221  26.770  1.00  0.00     0.202 C 
BRANCH   2   3
ATOM      3  C   UNL A   1      40.278  20.968  26.922  1.00  0.00     0.261 C 
BRANCH   3   4
ATOM      4  O   UNL A   1      39.549  21.428  25.772  1.00  0.00    -0.460 OA
BRANCH   4   5
ATOM      5  C   UNL A   1      38.670  20.528  25.272  1.00  0.00     0.338 C 
ATOM      6  O   UNL A   1      38.874  19.349  25.042  1.00  0.00    -0.246 OA
BRANCH   5   7
ATOM      7  C   UNL A   1      37.317  21.117  25.191  1.00  0.00     0.062 A 
ATOM      8  C   UNL A   1      34.931  20.683  25.182  1.00  0.00     0.073 A 
ATOM      9  C   UNL A   1      36.247  20.228  25.269  1.00  0.00     0.044 A 
ATOM     10  C   UNL A   1      34.642  22.061  24.976  1.00  0.00     0.062 A 
ATOM     11  C   UNL A   1      35.751  22.935  24.946  1.00  0.00     0.029 A 
ATOM     12  C   UNL A   1      37.073  22.481  25.074  1.00  0.00     0.018 A 
BRANCH   8  13
ATOM     13  N   UNL A   1      33.966  19.692  25.527  1.00  0.00    -0.282 N 
ATOM     14  H   UNL A   1      33.765  19.568  26.483  1.00  0.00     0.180 HD
BRANCH  13  15
ATOM     15  S   UNL A   1      33.157  18.735  24.449  1.00  0.00     0.229 S 
ATOM     16  C   UNL A   1      34.268  17.479  23.851  1.00  0.00     0.183 C 
ATOM     17  O   UNL A   1      32.813  19.615  23.347  1.00  0.00    -0.207 OA
ATOM     18  O   UNL A   1      32.100  18.077  25.187  1.00  0.00    -0.207 OA
ENDBRANCH  13  15
ENDBRANCH   8  13
BRANCH  10  19
ATOM     19  N   UNL A   1      33.338  22.553  24.813  1.00  0.00    -0.359 N 
ATOM     20  C   UNL A   1      33.072  23.686  23.880  1.00  0.00     0.178 C 
ATOM     21  C   UNL A   1      32.521  22.652  26.019  1.00  0.00     0.178 C 
ATOM     22  C   UNL A   1      31.545  23.925  23.658  1.00  0.00     0.284 C 
ATOM     23  C   UNL A   1      31.027  22.686  25.667  1.00  0.00     0.284 C 
ATOM     24  N   UNL A   1      30.650  23.822  24.829  1.00  0.00    -0.324 N 
ATOM     25  H   UNL A   1      29.726  23.645  24.432  1.00  0.00     0.348 HD
BRANCH  24  26
ATOM     26  C   UNL A   1      30.390  25.058  25.587  1.00  0.00     0.363 C 
BRANCH  26  27
ATOM     27  C   UNL A   1      31.554  26.036  25.750  1.00  0.00     0.277 C 
ATOM     28  O   UNL A   1      32.487  25.745  26.508  1.00  0.00    -0.268 OA
ATOM     29  N   UNL A   1      31.581  27.204  25.008  1.00  0.00    -0.338 N 
ATOM     30  C   UNL A   1      30.542  27.830  24.194  1.00  0.00     0.119 C 
ATOM     31  C   UNL A   1      32.798  28.001  24.987  1.00  0.00     0.119 C 
ATOM     32  C   UNL A   1      31.248  28.943  23.435  1.00  0.00     0.023 C 
ATOM     33  C   UNL A   1      32.395  29.325  24.363  1.00  0.00     0.023 C 
ENDBRANCH  26  27
ENDBRANCH  24  26
ENDBRANCH  10  19
ENDBRANCH   5   7
ENDBRANCH   4   5
ENDBRANCH   3   4
ENDBRANCH   2   3
ENDBRANCH   1   2
BRANCH   1  34
ATOM     34  C   UNL A   1      43.760  21.104  25.362  1.00  0.00     0.202 C 
BRANCH  34  35
ATOM     35  C   UNL A   1      44.157  22.187  24.350  1.00  0.00     0.261 C 
BRANCH  35  36
ATOM     36  O   UNL A   1      43.434  23.413  24.558  1.00  0.00    -0.460 OA
BRANCH  36  37
ATOM     37  C   UNL A   1      44.185  24.443  25.021  1.00  0.00     0.338 C 
ATOM     38  O   UNL A   1      45.266  24.812  24.599  1.00  0.00    -0.246 OA
BRANCH  37  39
ATOM     39  C   UNL A   1      43.417  25.212  26.022  1.00  0.00     0.060 A 
ATOM     40  C   UNL A   1      43.650  26.593  26.090  1.00  0.00     0.016 A 
ATOM     41  C   UNL A   1      42.532  24.597  26.910  1.00  0.00     0.016 A 
ATOM     42  C   UNL A   1      43.039  27.356  27.084  1.00  0.00     0.010 A 
ATOM     43  C   UNL A   1      41.926  25.365  27.911  1.00  0.00     0.010 A 
ATOM     44  C   UNL A   1      42.207  26.740  28.026  1.00  0.00    -0.014 A 
BRANCH  44  45
ATOM     45  C   UNL A   1      41.739  27.509  29.205  1.00  0.00     0.031 A 
ATOM     46  C   UNL A   1      40.424  28.237  29.131  1.00  0.00     0.074 A 
ATOM     47  C   UNL A   1      42.478  27.563  30.328  1.00  0.00     0.049 A 
ATOM     48  N   UNL A   1      39.842  28.985  30.030  1.00  0.00    -0.248 NA
ATOM     49  C   UNL A   1      39.667  28.110  27.874  1.00  0.00     0.031 C 
ATOM     50  C   UNL A   1      43.773  26.910  30.519  1.00  0.00     0.029 A 
ATOM     51  N   UNL A   1      42.258  28.224  31.510  1.00  0.00    -0.354 N 
ATOM     52  C   UNL A   1      38.674  29.450  29.438  1.00  0.00     0.074 A 
ATOM     53  C   UNL A   1      38.628  28.901  28.100  1.00  0.00     0.031 C 
ATOM     54  C   UNL A   1      44.250  27.236  31.732  1.00  0.00     0.029 A 
ATOM     55  C   UNL A   1      43.307  28.136  32.394  1.00  0.00     0.049 A 
ATOM     56  H   UNL A   1      41.426  28.715  31.707  1.00  0.00     0.167 HD
ATOM     57  C   UNL A   1      37.720  30.254  29.965  1.00  0.00     0.034 A 
ATOM     58  C   UNL A   1      43.499  28.736  33.585  1.00  0.00     0.034 A 
ATOM     59  C   UNL A   1      37.748  30.770  31.307  1.00  0.00     0.049 A 
ATOM     60  C   UNL A   1      42.416  29.621  34.149  1.00  0.00     0.074 A 
ATOM     61  C   UNL A   1      36.786  31.523  31.956  1.00  0.00     0.029 A 
ATOM     62  N   UNL A   1      38.796  30.605  32.197  1.00  0.00    -0.354 N 
ATOM     63  N   UNL A   1      41.250  29.928  33.636  1.00  0.00    -0.248 NA
ATOM     64  C   UNL A   1      42.661  30.212  35.474  1.00  0.00     0.031 C 
ATOM     65  C   UNL A   1      37.269  31.846  33.228  1.00  0.00     0.029 A 
ATOM     66  C   UNL A   1      38.515  31.260  33.383  1.00  0.00     0.049 A 
ATOM     67  H   UNL A   1      39.619  30.097  32.013  1.00  0.00     0.167 HD
ATOM     68  C   UNL A   1      40.609  30.715  34.586  1.00  0.00     0.074 A 
ATOM     69  C   UNL A   1      41.507  30.820  35.717  1.00  0.00     0.031 C 
ATOM     70  C   UNL A   1      39.392  31.311  34.524  1.00  0.00     0.034 A 
BRANCH  57  71
ATOM     71  C   UNL A   1      36.546  30.620  29.098  1.00  0.00     0.023 A 
ATOM     72  C   UNL A   1      35.797  29.609  28.464  1.00  0.00     0.012 A 
ATOM     73  C   UNL A   1      36.132  31.962  28.987  1.00  0.00     0.148 A 
ATOM     74  C   UNL A   1      34.666  29.929  27.715  1.00  0.00     0.002 A 
ATOM     75  C   UNL A   1      34.978  32.269  28.275  1.00  0.00     0.091 A 
ATOM     76  F   UNL A   1      36.871  32.910  29.580  1.00  0.00    -0.205 F 
ATOM     77  C   UNL A   1      34.250  31.255  27.631  1.00  0.00     0.022 A 
BRANCH  75  78
ATOM     78  S   UNL A   1      34.315  33.935  28.176  1.00  0.00     0.127 S 
ATOM     79  O   UNL A   1      35.196  34.544  27.180  1.00  0.00    -0.237 OA
ATOM     80  O   UNL A   1      32.948  33.695  27.717  1.00  0.00    -0.237 OA
ATOM     81  O   UNL A   1      34.419  34.491  29.518  1.00  0.00    -0.744 OA
ENDBRANCH  75  78
ENDBRANCH  57  71
BRANCH  58  82
ATOM     82  C   UNL A   1      44.766  28.513  34.339  1.00  0.00     0.023 A 
ATOM     83  C   UNL A   1      45.878  29.345  34.106  1.00  0.00     0.012 A 
ATOM     84  C   UNL A   1      44.871  27.476  35.286  1.00  0.00     0.148 A 
ATOM     85  C   UNL A   1      47.083  29.125  34.775  1.00  0.00     0.002 A 
ATOM     86  C   UNL A   1      46.053  27.300  35.993  1.00  0.00     0.091 A 
ATOM     87  F   UNL A   1      43.808  26.683  35.480  1.00  0.00    -0.205 F 
ATOM     88  C   UNL A   1      47.168  28.109  35.725  1.00  0.00     0.022 A 
BRANCH  86  89
ATOM     89  S   UNL A   1      46.202  26.108  37.328  1.00  0.00     0.127 S 
ATOM     90  O   UNL A   1      46.203  24.842  36.601  1.00  0.00    -0.237 OA
ATOM     91  O   UNL A   1      47.486  26.478  37.924  1.00  0.00    -0.237 OA
ATOM     92  O   UNL A   1      45.053  26.345  38.192  1.00  0.00    -0.744 OA
ENDBRANCH  86  89
ENDBRANCH  58  82
BRANCH  70  93
ATOM     93  C   UNL A   1      38.930  32.097  35.724  1.00  0.00     0.023 A 
ATOM     94  C   UNL A   1      38.046  31.511  36.652  1.00  0.00     0.012 A 
ATOM     95  C   UNL A   1      39.434  33.390  35.972  1.00  0.00     0.148 A 
ATOM     96  C   UNL A   1      37.644  32.212  37.788  1.00  0.00     0.002 A 
ATOM     97  C   UNL A   1      39.070  34.061  37.133  1.00  0.00     0.091 A 
ATOM     98  F   UNL A   1      40.261  33.937  35.069  1.00  0.00    -0.205 F 
ATOM     99  C   UNL A   1      38.164  33.480  38.035  1.00  0.00     0.022 A 
BRANCH  97 100
ATOM    100  S   UNL A   1      39.768  35.655  37.581  1.00  0.00     0.127 S 
ATOM    101  O   UNL A   1      39.421  36.469  36.417  1.00  0.00    -0.237 OA
ATOM    102  O   UNL A   1      39.029  35.986  38.800  1.00  0.00    -0.237 OA
ATOM    103  O   UNL A   1      41.192  35.427  37.782  1.00  0.00    -0.744 OA
ENDBRANCH  97 100
ENDBRANCH  70  93
ENDBRANCH  44  45
ENDBRANCH  37  39
ENDBRANCH  36  37
ENDBRANCH  35  36
ENDBRANCH  34  35
ENDBRANCH   1  34
TORSDOF 22
ENDMDL
MODEL 2
REMARK VINA RESULT:     -11.1      2.635      8.977
REMARK SMILES CS(=O)(=O)Nc1cc(C(=O)OCCOCCOC(=O)c2ccc(-c3c4nc(c(-c5cccc(S(=O)(=O)[O-])c5F)c5ccc([nH]5)c(-c5cccc(S(=O)(=O)[O-])c5F)c5nc(c(-c6cccc(S(=O)(=O)[O-])c6F)c6ccc3[nH]6)C=C5)C=C4)cc2)ccc1N1CC[NH+](CC(=O)N2CCCC2)CC1
REMARK SMILES IDX 14 1 13 2 12 3 11 4 9 5 10 6 8 7 6 8 7 9 85 10 84 11 83 12
REMARK SMILES IDX 5 13 2 15 1 16 3 17 4 18 86 19 87 20 99 21 88 22 98 23 89 24
REMARK SMILES IDX 90 26 91 27 92 28 93 29 94 30 97 31 95 32 96 33 15 34 16 35
REMARK SMILES IDX 17 36 18 37 19 38 20 39 21 40 82 41 22 42 81 43 23 44 24 45
REMARK SMILES IDX 25 46 75 47 26 48 80 49 74 50 76 51 27 52 79 53 73 54 72 55
REMARK SMILES IDX 28 57 60 58 40 59 59 60 41 61 44 62 58 63 77 64 42 65 43 66
REMARK SMILES IDX 57 68 78 69 45 70 29 71 30 72 38 73 31 74 33 75 39 76 32 77
REMARK SMILES IDX 34 78 35 79 36 80 37 81 61 82 62 83 70 84 63 85 65 86 71 87
REMARK SMILES IDX 64 88 66 89 67 90 68 91 69 92 46 93 47 94 55 95 48 96 50 97
REMARK SMILES IDX 56 98 49 99 51 100 52 101 53 102 54 103
REMARK H PARENT 5 14 89 25 76 56 44 67
REMARK Flexibility Score: inf
ROOT
ATOM      1  O   UNL A   1      31.536  31.181  26.280  1.00  0.00    -0.374 OA
ENDROOT
BRANCH   1   2
ATOM      2  C   UNL A   1      31.139  30.278  25.245  1.00  0.00     0.202 C 
BRANCH   2   3
ATOM      3  C   UNL A   1      32.251  29.429  24.622  1.00  0.00     0.261 C 
BRANCH   3   4
ATOM      4  O   UNL A   1      32.020  29.209  23.222  1.00  0.00    -0.460 OA
BRANCH   4   5
ATOM      5  C   UNL A   1      31.341  28.072  22.940  1.00  0.00     0.338 C 
ATOM      6  O   UNL A   1      30.313  27.970  22.292  1.00  0.00    -0.246 OA
BRANCH   5   7
ATOM      7  C   UNL A   1      32.108  26.889  23.382  1.00  0.00     0.062 A 
ATOM      8  C   UNL A   1      32.551  25.340  25.195  1.00  0.00     0.073 A 
ATOM      9  C   UNL A   1      31.863  26.438  24.677  1.00  0.00     0.044 A 
ATOM     10  C   UNL A   1      33.547  24.670  24.431  1.00  0.00     0.062 A 
ATOM     11  C   UNL A   1      33.735  25.130  23.108  1.00  0.00     0.029 A 
ATOM     12  C   UNL A   1      33.014  26.209  22.575  1.00  0.00     0.018 A 
BRANCH   8  13
ATOM     13  N   UNL A   1      32.010  24.861  26.424  1.00  0.00    -0.282 N 
ATOM     14  H   UNL A   1      32.094  25.443  27.213  1.00  0.00     0.180 HD
BRANCH  13  15
ATOM     15  S   UNL A   1      31.251  23.407  26.628  1.00  0.00     0.229 S 
ATOM     16  C   UNL A   1      31.013  22.656  25.031  1.00  0.00     0.183 C 
ATOM     17  O   UNL A   1      29.951  23.734  27.186  1.00  0.00    -0.207 OA
ATOM     18  O   UNL A   1      32.155  22.566  27.382  1.00  0.00    -0.207 OA
ENDBRANCH  13  15
ENDBRANCH   8  13
BRANCH  10  19
ATOM     19  N   UNL A   1      34.312  23.607  24.934  1.00  0.00    -0.359 N 
ATOM     20  C   UNL A   1      35.279  23.835  26.047  1.00  0.00     0.178 C 
ATOM     21  C   UNL A   1      34.837  22.658  23.957  1.00  0.00     0.178 C 
ATOM     22  C   UNL A   1      35.848  22.500  26.622  1.00  0.00     0.284 C 
ATOM     23  C   UNL A   1      35.178  21.318  24.623  1.00  0.00     0.284 C 
ATOM     24  N   UNL A   1      36.195  21.426  25.667  1.00  0.00    -0.324 N 
ATOM     25  H   UNL A   1      36.185  20.572  26.226  1.00  0.00     0.348 HD
BRANCH  24  26
ATOM     26  C   UNL A   1      37.575  21.402  25.155  1.00  0.00     0.363 C 
BRANCH  26  27
ATOM     27  C   UNL A   1      38.622  22.206  25.928  1.00  0.00     0.277 C 
ATOM     28  O   UNL A   1      38.454  23.420  26.087  1.00  0.00    -0.268 OA
ATOM     29  N   UNL A   1      39.711  21.560  26.487  1.00  0.00    -0.338 N 
ATOM     30  C   UNL A   1      40.201  20.197  26.297  1.00  0.00     0.119 C 
ATOM     31  C   UNL A   1      40.562  22.286  27.417  1.00  0.00     0.119 C 
ATOM     32  C   UNL A   1      41.267  20.006  27.365  1.00  0.00     0.023 C 
ATOM     33  C   UNL A   1      41.796  21.418  27.587  1.00  0.00     0.023 C 
ENDBRANCH  26  27
ENDBRANCH  24  26
ENDBRANCH  10  19
ENDBRANCH   5   7
ENDBRANCH   4   5
ENDBRANCH   3   4
ENDBRANCH   2   3
ENDBRANCH   1   2
BRANCH   1  34
ATOM     34  C   UNL A   1      32.898  31.111  26.704  1.00  0.00     0.202 C 
BRANCH  34  35
ATOM     35  C   UNL A   1      33.297  32.026  27.870  1.00  0.00     0.261 C 
BRANCH  35  36
ATOM     36  O   UNL A   1      33.335  33.410  27.481  1.00  0.00    -0.460 OA
BRANCH  36  37
ATOM     37  C   UNL A   1      33.371  34.289  28.514  1.00  0.00     0.338 C 
ATOM     38  O   UNL A   1      32.552  35.154  28.770  1.00  0.00    -0.246 OA
BRANCH  37  39
ATOM     39  C   UNL A   1      34.472  33.938  29.433  1.00  0.00     0.060 A 
ATOM     40  C   UNL A   1      35.779  34.222  29.010  1.00  0.00     0.016 A 
ATOM     41  C   UNL A   1      34.246  33.297  30.652  1.00  0.00     0.016 A 
ATOM     42  C   UNL A   1      36.866  33.816  29.782  1.00  0.00     0.010 A 
ATOM     43  C   UNL A   1      35.340  32.885  31.421  1.00  0.00     0.010 A 
ATOM     44  C   UNL A   1      36.655  33.109  30.971  1.00  0.00    -0.014 A 
BRANCH  44  45
ATOM     45  C   UNL A   1      37.807  32.490  31.671  1.00  0.00     0.031 A 
ATOM     46  C   UNL A   1      38.540  31.353  31.012  1.00  0.00     0.074 A 
ATOM     47  C   UNL A   1      38.194  32.932  32.881  1.00  0.00     0.049 A 
ATOM     48  N   UNL A   1      39.552  30.655  31.455  1.00  0.00    -0.248 NA
ATOM     49  C   UNL A   1      38.066  30.943  29.679  1.00  0.00     0.031 C 
ATOM     50  C   UNL A   1      37.558  34.018  33.627  1.00  0.00     0.029 A 
ATOM     51  N   UNL A   1      39.198  32.497  33.710  1.00  0.00    -0.354 N 
ATOM     52  C   UNL A   1      39.812  29.701  30.479  1.00  0.00     0.074 A 
ATOM     53  C   UNL A   1      38.850  29.907  29.417  1.00  0.00     0.031 C 
ATOM     54  C   UNL A   1      38.163  34.138  34.820  1.00  0.00     0.029 A 
ATOM     55  C   UNL A   1      39.213  33.127  34.933  1.00  0.00     0.049 A 
ATOM     56  H   UNL A   1      39.847  31.802  33.453  1.00  0.00     0.167 HD
ATOM     57  C   UNL A   1      40.771  28.746  30.463  1.00  0.00     0.034 A 
ATOM     58  C   UNL A   1      39.965  32.894  36.026  1.00  0.00     0.034 A 
ATOM     59  C   UNL A   1      41.749  28.564  31.502  1.00  0.00     0.049 A 
ATOM     60  C   UNL A   1      41.030  31.828  35.976  1.00  0.00     0.074 A 
ATOM     61  C   UNL A   1      42.810  27.678  31.534  1.00  0.00     0.029 A 
ATOM     62  N   UNL A   1      41.774  29.265  32.696  1.00  0.00    -0.354 N 
ATOM     63  N   UNL A   1      41.360  31.035  34.985  1.00  0.00    -0.248 NA
ATOM     64  C   UNL A   1      41.852  31.648  37.183  1.00  0.00     0.031 C 
ATOM     65  C   UNL A   1      43.457  27.816  32.765  1.00  0.00     0.029 A 
ATOM     66  C   UNL A   1      42.821  28.816  33.483  1.00  0.00     0.049 A 
ATOM     67  H   UNL A   1      41.143  29.976  32.948  1.00  0.00     0.167 HD
ATOM     68  C   UNL A   1      42.445  30.291  35.434  1.00  0.00     0.074 A 
ATOM     69  C   UNL A   1      42.734  30.744  36.780  1.00  0.00     0.031 C 
ATOM     70  C   UNL A   1      43.134  29.312  34.798  1.00  0.00     0.034 A 
BRANCH  57  71
ATOM     71  C   UNL A   1      40.830  27.823  29.276  1.00  0.00     0.023 A 
ATOM     72  C   UNL A   1      39.961  26.717  29.201  1.00  0.00     0.012 A 
ATOM     73  C   UNL A   1      41.687  28.106  28.194  1.00  0.00     0.148 A 
ATOM     74  C   UNL A   1      39.957  25.894  28.075  1.00  0.00     0.002 A 
ATOM     75  C   UNL A   1      41.647  27.306  27.058  1.00  0.00     0.091 A 
ATOM     76  F   UNL A   1      42.522  29.150  28.296  1.00  0.00    -0.205 F 
ATOM     77  C   UNL A   1      40.789  26.196  27.000  1.00  0.00     0.022 A 
BRANCH  75  78
ATOM     78  S   UNL A   1      42.620  27.660  25.589  1.00  0.00     0.127 S 
ATOM     79  O   UNL A   1      41.992  28.891  25.110  1.00  0.00    -0.237 OA
ATOM     80  O   UNL A   1      43.962  27.835  26.145  1.00  0.00    -0.237 OA
ATOM     81  O   UNL A   1      42.467  26.505  24.716  1.00  0.00    -0.744 OA
ENDBRANCH  75  78
ENDBRANCH  57  71
BRANCH  58  82
ATOM     82  C   UNL A   1      39.751  33.695  37.265  1.00  0.00     0.023 A 
ATOM     83  C   UNL A   1      40.377  34.947  37.410  1.00  0.00     0.012 A 
ATOM     84  C   UNL A   1      38.925  33.216  38.301  1.00  0.00     0.148 A 
ATOM     85  C   UNL A   1      40.216  35.691  38.580  1.00  0.00     0.002 A 
ATOM     86  C   UNL A   1      38.721  33.988  39.438  1.00  0.00     0.091 A 
ATOM     87  F   UNL A   1      38.353  32.013  38.154  1.00  0.00    -0.205 F 
ATOM     88  C   UNL A   1      39.381  35.217  39.589  1.00  0.00     0.022 A 
BRANCH  86  89
ATOM     89  S   UNL A   1      37.556  33.515  40.720  1.00  0.00     0.127 S 
ATOM     90  O   UNL A   1      37.396  34.765  41.456  1.00  0.00    -0.237 OA
ATOM     91  O   UNL A   1      36.391  33.106  39.936  1.00  0.00    -0.237 OA
ATOM     92  O   UNL A   1      38.198  32.426  41.447  1.00  0.00    -0.744 OA
ENDBRANCH  86  89
ENDBRANCH  58  82
BRANCH  70  93
ATOM     93  C   UNL A   1      44.298  28.684  35.521  1.00  0.00     0.023 A 
ATOM     94  C   UNL A   1      45.604  29.165  35.304  1.00  0.00     0.012 A 
ATOM     95  C   UNL A   1      44.085  27.668  36.475  1.00  0.00     0.148 A 
ATOM     96  C   UNL A   1      46.684  28.621  35.998  1.00  0.00     0.002 A 
ATOM     97  C   UNL A   1      45.160  27.168  37.200  1.00  0.00     0.091 A 
ATOM     98  F   UNL A   1      42.838  27.213  36.655  1.00  0.00    -0.205 F 
ATOM     99  C   UNL A   1      46.462  27.633  36.953  1.00  0.00     0.022 A 
BRANCH  97 100
ATOM    100  S   UNL A   1      44.953  25.966  38.520  1.00  0.00     0.127 S 
ATOM    101  O   UNL A   1      43.977  26.635  39.380  1.00  0.00    -0.237 OA
ATOM    102  O   UNL A   1      44.435  24.801  37.801  1.00  0.00    -0.237 OA
ATOM    103  O   UNL A   1      46.274  25.777  39.103  1.00  0.00    -0.744 OA
ENDBRANCH  97 100
ENDBRANCH  70  93
ENDBRANCH  44  45
ENDBRANCH  37  39
ENDBRANCH  36  37
ENDBRANCH  35  36
ENDBRANCH  34  35
ENDBRANCH   1  34
TORSDOF 22
ENDMDL
MODEL 3
REMARK VINA RESULT:     -11.1      2.751      9.108
REMARK SMILES CS(=O)(=O)Nc1cc(C(=O)OCCOCCOC(=O)c2ccc(-c3c4nc(c(-c5cccc(S(=O)(=O)[O-])c5F)c5ccc([nH]5)c(-c5cccc(S(=O)(=O)[O-])c5F)c5nc(c(-c6cccc(S(=O)(=O)[O-])c6F)c6ccc3[nH]6)C=C5)C=C4)cc2)ccc1N1CC[NH+](CC(=O)N2CCCC2)CC1
REMARK SMILES IDX 14 1 13 2 12 3 11 4 9 5 10 6 8 7 6 8 7 9 85 10 84 11 83 12
REMARK SMILES IDX 5 13 2 15 1 16 3 17 4 18 86 19 87 20 99 21 88 22 98 23 89 24
REMARK SMILES IDX 90 26 91 27 92 28 93 29 94 30 97 31 95 32 96 33 15 34 16 35
REMARK SMILES IDX 17 36 18 37 19 38 20 39 21 40 82 41 22 42 81 43 23 44 24 45
REMARK SMILES IDX 25 46 75 47 26 48 80 49 74 50 76 51 27 52 79 53 73 54 72 55
REMARK SMILES IDX 28 57 60 58 40 59 59 60 41 61 44 62 58 63 77 64 42 65 43 66
REMARK SMILES IDX 57 68 78 69 45 70 29 71 30 72 38 73 31 74 33 75 39 76 32 77
REMARK SMILES IDX 34 78 35 79 36 80 37 81 61 82 62 83 70 84 63 85 65 86 71 87
REMARK SMILES IDX 64 88 66 89 67 90 68 91 69 92 46 93 47 94 55 95 48 96 50 97
REMARK SMILES IDX 56 98 49 99 51 100 52 101 53 102 54 103
REMARK H PARENT 5 14 89 25 76 56 44 67
REMARK Flexibility Score: inf
ROOT
ATOM      1  O   UNL A   1      31.385  31.549  26.731  1.00  0.00    -0.374 OA
ENDROOT
BRANCH   1   2
ATOM      2  C   UNL A   1      30.944  31.418  25.379  1.00  0.00     0.202 C 
BRANCH   2   3
ATOM      3  C   UNL A   1      30.887  29.994  24.818  1.00  0.00     0.261 C 
BRANCH   3   4
ATOM      4  O   UNL A   1      30.328  29.974  23.494  1.00  0.00    -0.460 OA
BRANCH   4   5
ATOM      5  C   UNL A   1      29.494  28.935  23.257  1.00  0.00     0.338 C 
ATOM      6  O   UNL A   1      28.298  28.989  23.023  1.00  0.00    -0.246 OA
BRANCH   5   7
ATOM      7  C   UNL A   1      30.257  27.675  23.136  1.00  0.00     0.062 A 
ATOM      8  C   UNL A   1      30.632  25.455  24.038  1.00  0.00     0.073 A 
ATOM      9  C   UNL A   1      29.952  26.674  24.056  1.00  0.00     0.044 A 
ATOM     10  C   UNL A   1      31.679  25.211  23.106  1.00  0.00     0.062 A 
ATOM     11  C   UNL A   1      31.928  26.233  22.163  1.00  0.00     0.029 A 
ATOM     12  C   UNL A   1      31.217  27.443  22.157  1.00  0.00     0.018 A 
BRANCH   8  13
ATOM     13  N   UNL A   1      30.035  24.463  24.870  1.00  0.00    -0.282 N 
ATOM     14  H   UNL A   1      29.256  23.979  24.511  1.00  0.00     0.180 HD
BRANCH  13  15
ATOM     15  S   UNL A   1      30.548  24.059  26.388  1.00  0.00     0.229 S 
ATOM     16  C   UNL A   1      31.775  25.240  26.911  1.00  0.00     0.183 C 
ATOM     17  O   UNL A   1      31.184  22.763  26.240  1.00  0.00    -0.207 OA
ATOM     18  O   UNL A   1      29.404  24.192  27.265  1.00  0.00    -0.207 OA
ENDBRANCH  13  15
ENDBRANCH   8  13
BRANCH  10  19
ATOM     19  N   UNL A   1      32.434  24.029  23.096  1.00  0.00    -0.359 N 
ATOM     20  C   UNL A   1      31.759  22.704  22.981  1.00  0.00     0.178 C 
ATOM     21  C   UNL A   1      33.571  23.971  24.011  1.00  0.00     0.178 C 
ATOM     22  C   UNL A   1      32.774  21.540  22.746  1.00  0.00     0.284 C 
ATOM     23  C   UNL A   1      34.587  22.915  23.556  1.00  0.00     0.284 C 
ATOM     24  N   UNL A   1      34.041  21.561  23.505  1.00  0.00    -0.324 N 
ATOM     25  H   UNL A   1      34.675  20.971  22.964  1.00  0.00     0.348 HD
BRANCH  24  26
ATOM     26  C   UNL A   1      34.059  20.865  24.803  1.00  0.00     0.363 C 
BRANCH  26  27
ATOM     27  C   UNL A   1      33.071  19.713  24.992  1.00  0.00     0.277 C 
ATOM     28  O   UNL A   1      31.920  19.961  25.369  1.00  0.00    -0.268 OA
ATOM     29  N   UNL A   1      33.454  18.419  24.686  1.00  0.00    -0.338 N 
ATOM     30  C   UNL A   1      34.776  17.870  24.392  1.00  0.00     0.119 C 
ATOM     31  C   UNL A   1      32.443  17.375  24.636  1.00  0.00     0.119 C 
ATOM     32  C   UNL A   1      34.516  16.457  23.890  1.00  0.00     0.023 C 
ATOM     33  C   UNL A   1      33.219  16.070  24.590  1.00  0.00     0.023 C 
ENDBRANCH  26  27
ENDBRANCH  24  26
ENDBRANCH  10  19
ENDBRANCH   5   7
ENDBRANCH   4   5
ENDBRANCH   3   4
ENDBRANCH   2   3
ENDBRANCH   1   2
BRANCH   1  34
ATOM     34  C   UNL A   1      32.610  30.898  27.071  1.00  0.00     0.202 C 
BRANCH  34  35
ATOM     35  C   UNL A   1      33.732  31.795  27.612  1.00  0.00     0.261 C 
BRANCH  35  36
ATOM     36  O   UNL A   1      33.523  33.179  27.281  1.00  0.00    -0.460 OA
BRANCH  36  37
ATOM     37  C   UNL A   1      33.489  34.019  28.345  1.00  0.00     0.338 C 
ATOM     38  O   UNL A   1      32.632  34.847  28.600  1.00  0.00    -0.246 OA
BRANCH  37  39
ATOM     39  C   UNL A   1      34.564  33.668  29.295  1.00  0.00     0.060 A 
ATOM     40  C   UNL A   1      35.865  34.084  28.976  1.00  0.00     0.016 A 
ATOM     41  C   UNL A   1      34.324  32.906  30.440  1.00  0.00     0.016 A 
ATOM     42  C   UNL A   1      36.938  33.691  29.774  1.00  0.00     0.010 A 
ATOM     43  C   UNL A   1      35.405  32.508  31.234  1.00  0.00     0.010 A 
ATOM     44  C   UNL A   1      36.720  32.866  30.884  1.00  0.00    -0.014 A 
BRANCH  44  45
ATOM     45  C   UNL A   1      37.879  32.273  31.596  1.00  0.00     0.031 A 
ATOM     46  C   UNL A   1      38.643  31.152  30.945  1.00  0.00     0.074 A 
ATOM     47  C   UNL A   1      38.244  32.725  32.809  1.00  0.00     0.049 A 
ATOM     48  N   UNL A   1      39.665  30.476  31.399  1.00  0.00    -0.248 NA
ATOM     49  C   UNL A   1      38.191  30.731  29.608  1.00  0.00     0.031 C 
ATOM     50  C   UNL A   1      37.578  33.797  33.548  1.00  0.00     0.029 A 
ATOM     51  N   UNL A   1      39.250  32.313  33.648  1.00  0.00    -0.354 N 
ATOM     52  C   UNL A   1      39.955  29.527  30.426  1.00  0.00     0.074 A 
ATOM     53  C   UNL A   1      39.000  29.711  29.356  1.00  0.00     0.031 C 
ATOM     54  C   UNL A   1      38.169  33.932  34.746  1.00  0.00     0.029 A 
ATOM     55  C   UNL A   1      39.239  32.944  34.870  1.00  0.00     0.049 A 
ATOM     56  H   UNL A   1      39.916  31.631  33.399  1.00  0.00     0.167 HD
ATOM     57  C   UNL A   1      40.935  28.593  30.421  1.00  0.00     0.034 A 
ATOM     58  C   UNL A   1      39.986  32.728  35.971  1.00  0.00     0.034 A 
ATOM     59  C   UNL A   1      41.906  28.433  31.469  1.00  0.00     0.049 A 
ATOM     60  C   UNL A   1      41.074  31.685  35.932  1.00  0.00     0.074 A 
ATOM     61  C   UNL A   1      42.986  27.570  31.513  1.00  0.00     0.029 A 
ATOM     62  N   UNL A   1      41.905  29.135  32.663  1.00  0.00    -0.354 N 
ATOM     63  N   UNL A   1      41.430  30.898  34.946  1.00  0.00    -0.248 NA
ATOM     64  C   UNL A   1      41.887  31.525  37.148  1.00  0.00     0.031 C 
ATOM     65  C   UNL A   1      43.618  27.723  32.751  1.00  0.00     0.029 A 
ATOM     66  C   UNL A   1      42.953  28.710  33.461  1.00  0.00     0.049 A 
ATOM     67  H   UNL A   1      41.256  29.833  32.908  1.00  0.00     0.167 HD
ATOM     68  C   UNL A   1      42.527  30.179  35.407  1.00  0.00     0.074 A 
ATOM     69  C   UNL A   1      42.792  30.639  36.754  1.00  0.00     0.031 C 
ATOM     70  C   UNL A   1      43.243  29.214  34.778  1.00  0.00     0.034 A 
BRANCH  57  71
ATOM     71  C   UNL A   1      41.025  27.670  29.236  1.00  0.00     0.023 A 
ATOM     72  C   UNL A   1      40.226  26.511  29.184  1.00  0.00     0.012 A 
ATOM     73  C   UNL A   1      41.838  28.002  28.134  1.00  0.00     0.148 A 
ATOM     74  C   UNL A   1      40.249  25.684  28.061  1.00  0.00     0.002 A 
ATOM     75  C   UNL A   1      41.823  27.196  27.001  1.00  0.00     0.091 A 
ATOM     76  F   UNL A   1      42.607  29.097  28.214  1.00  0.00    -0.205 F 
ATOM     77  C   UNL A   1      41.036  26.034  26.966  1.00  0.00     0.022 A 
BRANCH  75  78
ATOM     78  S   UNL A   1      42.738  27.604  25.510  1.00  0.00     0.127 S 
ATOM     79  O   UNL A   1      44.098  27.747  26.030  1.00  0.00    -0.237 OA
ATOM     80  O   UNL A   1      42.523  26.417  24.683  1.00  0.00    -0.237 OA
ATOM     81  O   UNL A   1      42.140  28.826  24.990  1.00  0.00    -0.744 OA
ENDBRANCH  75  78
ENDBRANCH  57  71
BRANCH  58  82
ATOM     82  C   UNL A   1      39.741  33.525  37.207  1.00  0.00     0.023 A 
ATOM     83  C   UNL A   1      38.766  33.107  38.132  1.00  0.00     0.012 A 
ATOM     84  C   UNL A   1      40.476  34.699  37.467  1.00  0.00     0.148 A 
ATOM     85  C   UNL A   1      38.499  33.863  39.274  1.00  0.00     0.002 A 
ATOM     86  C   UNL A   1      40.248  35.414  38.636  1.00  0.00     0.091 A 
ATOM     87  F   UNL A   1      41.387  35.091  36.566  1.00  0.00    -0.205 F 
ATOM     88  C   UNL A   1      39.246  35.011  39.531  1.00  0.00     0.022 A 
BRANCH  86  89
ATOM     89  S   UNL A   1      41.258  36.822  39.108  1.00  0.00     0.127 S 
ATOM     90  O   UNL A   1      40.256  37.872  39.260  1.00  0.00    -0.237 OA
ATOM     91  O   UNL A   1      41.860  36.358  40.358  1.00  0.00    -0.237 OA
ATOM     92  O   UNL A   1      42.209  37.003  38.019  1.00  0.00    -0.744 OA
ENDBRANCH  86  89
ENDBRANCH  58  82
BRANCH  70  93
ATOM     93  C   UNL A   1      44.413  28.613  35.513  1.00  0.00     0.023 A 
ATOM     94  C   UNL A   1      45.707  29.134  35.323  1.00  0.00     0.012 A 
ATOM     95  C   UNL A   1      44.215  27.579  36.452  1.00  0.00     0.148 A 
ATOM     96  C   UNL A   1      46.792  28.614  36.028  1.00  0.00     0.002 A 
ATOM     97  C   UNL A   1      45.292  27.102  37.189  1.00  0.00     0.091 A 
ATOM     98  F   UNL A   1      42.978  27.085  36.606  1.00  0.00    -0.205 F 
ATOM     99  C   UNL A   1      46.583  27.608  36.969  1.00  0.00     0.022 A 
BRANCH  97 100
ATOM    100  S   UNL A   1      45.099  25.879  38.492  1.00  0.00     0.127 S 
ATOM    101  O   UNL A   1      44.114  26.523  39.359  1.00  0.00    -0.237 OA
ATOM    102  O   UNL A   1      44.597  24.718  37.755  1.00  0.00    -0.237 OA
ATOM    103  O   UNL A   1      46.422  25.700  39.073  1.00  0.00    -0.744 OA
ENDBRANCH  97 100
ENDBRANCH  70  93
ENDBRANCH  44  45
ENDBRANCH  37  39
ENDBRANCH  36  37
ENDBRANCH  35  36
ENDBRANCH  34  35
ENDBRANCH   1  34
TORSDOF 22
ENDMDL
