MODEL 1
REMARK VINA RESULT:      -9.5      0.000      0.000
REMARK SMILES CCCSc1nc(=O)cc(CC(=O)OCCOCCOC(=O)c2ccc(-c3c4nc(c(-c5cccc(S(=O)(=O)[O-])c5F)c5ccc([nH]5)c(-c5cccc(S(=O)(=O)[O-])c5F)c5nc(c(-c6cccc(S(=O)(=O)[O-])c6F)c6ccc3[nH]6)C=C5)C=C4)cc2)[nH]1
REMARK SMILES IDX 16 1 15 2 14 3 12 4 13 5 11 6 10 7 5 8 6 9 86 10 7 11 8 13
REMARK SMILES IDX 9 14 4 15 3 16 2 17 1 18 17 19 18 20 19 21 20 22 21 23 22 24
REMARK SMILES IDX 23 25 24 26 85 27 25 28 84 29 26 30 27 31 28 32 78 33 29 34
REMARK SMILES IDX 83 35 77 36 79 37 30 38 82 39 76 40 75 41 31 43 63 44 43 45
REMARK SMILES IDX 62 46 44 47 47 48 61 49 80 50 45 51 46 52 60 54 81 55 48 56
REMARK SMILES IDX 32 57 33 58 41 59 34 60 36 61 42 62 35 63 37 64 38 65 39 66
REMARK SMILES IDX 40 67 64 68 65 69 73 70 66 71 68 72 74 73 67 74 69 75 70 76
REMARK SMILES IDX 71 77 72 78 49 79 50 80 58 81 51 82 53 83 59 84 52 85 54 86
REMARK SMILES IDX 55 87 56 88 57 89
REMARK H PARENT 86 12 79 42 47 53
REMARK Flexibility Score: inf
ROOT
ATOM      1  C   UNL A   1      34.022  30.221  26.648  1.00  0.00     0.202 C 
ENDROOT
BRANCH   1   2
ATOM      2  C   UNL A   1      33.645  28.979  25.828  1.00  0.00     0.261 C 
BRANCH   2   3
ATOM      3  O   UNL A   1      33.294  29.281  24.463  1.00  0.00    -0.463 OA
BRANCH   3   4
ATOM      4  C   UNL A   1      33.754  28.410  23.527  1.00  0.00     0.311 C 
ATOM      5  O   UNL A   1      34.392  28.724  22.528  1.00  0.00    -0.252 OA
BRANCH   4   6
ATOM      6  C   UNL A   1      33.380  26.956  23.799  1.00  0.00     0.176 C 
BRANCH   6   7
ATOM      7  C   UNL A   1      31.997  26.669  24.326  1.00  0.00     0.034 A 
ATOM      8  C   UNL A   1      29.643  27.002  24.159  1.00  0.00     0.169 A 
ATOM      9  N   UNL A   1      29.342  26.122  25.048  1.00  0.00    -0.185 NA
ATOM     10  N   UNL A   1      30.917  27.366  23.832  1.00  0.00    -0.337 N 
ATOM     11  C   UNL A   1      30.359  25.437  25.659  1.00  0.00     0.273 A 
ATOM     12  H   UNL A   1      31.066  28.137  23.238  1.00  0.00     0.168 HD
ATOM     13  O   UNL A   1      30.178  24.599  26.537  1.00  0.00    -0.267 OA
ATOM     14  C   UNL A   1      31.744  25.651  25.162  1.00  0.00     0.095 A 
BRANCH   8  15
ATOM     15  S   UNL A   1      28.390  27.738  23.195  1.00  0.00    -0.088 SA
BRANCH  15  16
ATOM     16  C   UNL A   1      29.197  29.236  22.541  1.00  0.00     0.078 C 
BRANCH  16  17
ATOM     17  C   UNL A   1      28.524  30.580  22.855  1.00  0.00     0.008 C 
ATOM     18  C   UNL A   1      29.140  31.376  23.997  1.00  0.00     0.005 C 
ENDBRANCH  16  17
ENDBRANCH  15  16
ENDBRANCH   8  15
ENDBRANCH   6   7
ENDBRANCH   4   6
ENDBRANCH   3   4
ENDBRANCH   2   3
ENDBRANCH   1   2
BRANCH   1  19
ATOM     19  O   UNL A   1      33.018  30.775  27.496  1.00  0.00    -0.374 OA
BRANCH  19  20
ATOM     20  C   UNL A   1      32.003  31.559  26.875  1.00  0.00     0.202 C 
BRANCH  20  21
ATOM     21  C   UNL A   1      32.161  33.087  26.908  1.00  0.00     0.261 C 
BRANCH  21  22
ATOM     22  O   UNL A   1      32.234  33.601  28.249  1.00  0.00    -0.460 OA
BRANCH  22  23
ATOM     23  C   UNL A   1      33.280  34.435  28.478  1.00  0.00     0.338 C 
ATOM     24  O   UNL A   1      33.248  35.655  28.532  1.00  0.00    -0.246 OA
BRANCH  23  25
ATOM     25  C   UNL A   1      34.460  33.651  28.895  1.00  0.00     0.060 A 
ATOM     26  C   UNL A   1      35.741  33.929  28.415  1.00  0.00     0.016 A 
ATOM     27  C   UNL A   1      34.257  32.630  29.833  1.00  0.00     0.016 A 
ATOM     28  C   UNL A   1      36.828  33.197  28.910  1.00  0.00     0.010 A 
ATOM     29  C   UNL A   1      35.339  31.901  30.319  1.00  0.00     0.010 A 
ATOM     30  C   UNL A   1      36.637  32.192  29.878  1.00  0.00    -0.014 A 
BRANCH  30  31
ATOM     31  C   UNL A   1      37.795  31.533  30.532  1.00  0.00     0.031 A 
ATOM     32  C   UNL A   1      38.236  31.909  31.916  1.00  0.00     0.074 A 
ATOM     33  C   UNL A   1      38.495  30.621  29.830  1.00  0.00     0.049 A 
ATOM     34  N   UNL A   1      39.218  31.415  32.625  1.00  0.00    -0.248 NA
ATOM     35  C   UNL A   1      37.486  32.978  32.592  1.00  0.00     0.031 C 
ATOM     36  C   UNL A   1      38.201  30.218  28.453  1.00  0.00     0.029 A 
ATOM     37  N   UNL A   1      39.597  29.877  30.168  1.00  0.00    -0.354 N 
ATOM     38  C   UNL A   1      39.208  32.107  33.829  1.00  0.00     0.074 A 
ATOM     39  C   UNL A   1      38.137  33.079  33.744  1.00  0.00     0.031 C 
ATOM     40  C   UNL A   1      39.086  29.284  28.072  1.00  0.00     0.029 A 
ATOM     41  C   UNL A   1      40.025  29.041  29.165  1.00  0.00     0.049 A 
ATOM     42  H   UNL A   1      40.040  29.938  31.045  1.00  0.00     0.167 HD
ATOM     43  C   UNL A   1      40.000  31.929  34.913  1.00  0.00     0.034 A 
ATOM     44  C   UNL A   1      41.051  28.170  29.124  1.00  0.00     0.034 A 
ATOM     45  C   UNL A   1      41.062  30.961  34.994  1.00  0.00     0.049 A 
ATOM     46  C   UNL A   1      41.923  28.000  30.333  1.00  0.00     0.074 A 
ATOM     47  C   UNL A   1      41.889  30.684  36.070  1.00  0.00     0.029 A 
ATOM     48  N   UNL A   1      41.453  30.120  33.964  1.00  0.00    -0.354 N 
ATOM     49  N   UNL A   1      41.830  28.587  31.501  1.00  0.00    -0.248 NA
ATOM     50  C   UNL A   1      43.026  27.033  30.232  1.00  0.00     0.031 C 
ATOM     51  C   UNL A   1      42.790  29.687  35.685  1.00  0.00     0.029 A 
ATOM     52  C   UNL A   1      42.511  29.328  34.377  1.00  0.00     0.049 A 
ATOM     53  H   UNL A   1      41.039  30.091  33.072  1.00  0.00     0.167 HD
ATOM     54  C   UNL A   1      42.844  28.047  32.281  1.00  0.00     0.074 A 
ATOM     55  C   UNL A   1      43.535  27.076  31.457  1.00  0.00     0.031 C 
ATOM     56  C   UNL A   1      43.172  28.339  33.563  1.00  0.00     0.034 A 
BRANCH  43  57
ATOM     57  C   UNL A   1      39.709  32.751  36.139  1.00  0.00     0.023 A 
ATOM     58  C   UNL A   1      40.284  34.034  36.250  1.00  0.00     0.012 A 
ATOM     59  C   UNL A   1      38.802  32.310  37.121  1.00  0.00     0.148 A 
ATOM     60  C   UNL A   1      39.972  34.860  37.328  1.00  0.00     0.002 A 
ATOM     61  C   UNL A   1      38.475  33.151  38.179  1.00  0.00     0.091 A 
ATOM     62  F   UNL A   1      38.272  31.085  36.997  1.00  0.00    -0.205 F 
ATOM     63  C   UNL A   1      39.062  34.423  38.286  1.00  0.00     0.022 A 
BRANCH  61  64
ATOM     64  S   UNL A   1      37.282  32.706  39.447  1.00  0.00     0.127 S 
ATOM     65  O   UNL A   1      37.801  31.413  39.894  1.00  0.00    -0.237 OA
ATOM     66  O   UNL A   1      37.442  33.793  40.413  1.00  0.00    -0.237 OA
ATOM     67  O   UNL A   1      35.987  32.658  38.786  1.00  0.00    -0.744 OA
ENDBRANCH  61  64
ENDBRANCH  43  57
BRANCH  44  68
ATOM     68  C   UNL A   1      41.237  27.335  27.908  1.00  0.00     0.023 A 
ATOM     69  C   UNL A   1      41.879  27.896  26.787  1.00  0.00     0.012 A 
ATOM     70  C   UNL A   1      40.880  25.974  27.893  1.00  0.00     0.148 A 
ATOM     71  C   UNL A   1      42.163  27.114  25.670  1.00  0.00     0.002 A 
ATOM     72  C   UNL A   1      41.196  25.191  26.789  1.00  0.00     0.091 A 
ATOM     73  F   UNL A   1      40.277  25.467  28.978  1.00  0.00    -0.205 F 
ATOM     74  C   UNL A   1      41.832  25.761  25.674  1.00  0.00     0.022 A 
BRANCH  72  75
ATOM     75  S   UNL A   1      40.890  23.423  26.732  1.00  0.00     0.127 S 
ATOM     76  O   UNL A   1      41.321  23.003  28.063  1.00  0.00    -0.237 OA
ATOM     77  O   UNL A   1      39.444  23.380  26.511  1.00  0.00    -0.237 OA
ATOM     78  O   UNL A   1      41.693  22.915  25.629  1.00  0.00    -0.744 OA
ENDBRANCH  72  75
ENDBRANCH  44  68
BRANCH  56  79
ATOM     79  C   UNL A   1      44.327  27.602  34.184  1.00  0.00     0.023 A 
ATOM     80  C   UNL A   1      45.604  28.198  34.196  1.00  0.00     0.012 A 
ATOM     81  C   UNL A   1      44.121  26.385  34.863  1.00  0.00     0.148 A 
ATOM     82  C   UNL A   1      46.661  27.589  34.872  1.00  0.00     0.002 A 
ATOM     83  C   UNL A   1      45.171  25.801  35.561  1.00  0.00     0.091 A 
ATOM     84  F   UNL A   1      42.897  25.837  34.830  1.00  0.00    -0.205 F 
ATOM     85  C   UNL A   1      46.442  26.399  35.564  1.00  0.00     0.022 A 
BRANCH  83  86
ATOM     86  S   UNL A   1      44.973  24.305  36.537  1.00  0.00     0.127 S 
ATOM     87  O   UNL A   1      46.363  23.956  36.830  1.00  0.00    -0.237 OA
ATOM     88  O   UNL A   1      44.210  24.789  37.689  1.00  0.00    -0.237 OA
ATOM     89  O   UNL A   1      44.265  23.357  35.689  1.00  0.00    -0.744 OA
ENDBRANCH  83  86
ENDBRANCH  56  79
ENDBRANCH  30  31
ENDBRANCH  23  25
ENDBRANCH  22  23
ENDBRANCH  21  22
ENDBRANCH  20  21
ENDBRANCH  19  20
ENDBRANCH   1  19
TORSDOF 21
ENDMDL
MODEL 2
REMARK VINA RESULT:      -9.4      2.994      9.432
REMARK SMILES CCCSc1nc(=O)cc(CC(=O)OCCOCCOC(=O)c2ccc(-c3c4nc(c(-c5cccc(S(=O)(=O)[O-])c5F)c5ccc([nH]5)c(-c5cccc(S(=O)(=O)[O-])c5F)c5nc(c(-c6cccc(S(=O)(=O)[O-])c6F)c6ccc3[nH]6)C=C5)C=C4)cc2)[nH]1
REMARK SMILES IDX 16 1 15 2 14 3 12 4 13 5 11 6 10 7 5 8 6 9 86 10 7 11 8 13
REMARK SMILES IDX 9 14 4 15 3 16 2 17 1 18 17 19 18 20 19 21 20 22 21 23 22 24
REMARK SMILES IDX 23 25 24 26 85 27 25 28 84 29 26 30 27 31 28 32 78 33 29 34
REMARK SMILES IDX 83 35 77 36 79 37 30 38 82 39 76 40 75 41 31 43 63 44 43 45
REMARK SMILES IDX 62 46 44 47 47 48 61 49 80 50 45 51 46 52 60 54 81 55 48 56
REMARK SMILES IDX 32 57 33 58 41 59 34 60 36 61 42 62 35 63 37 64 38 65 39 66
REMARK SMILES IDX 40 67 64 68 65 69 73 70 66 71 68 72 74 73 67 74 69 75 70 76
REMARK SMILES IDX 71 77 72 78 49 79 50 80 58 81 51 82 53 83 59 84 52 85 54 86
REMARK SMILES IDX 55 87 56 88 57 89
REMARK H PARENT 86 12 79 42 47 53
REMARK Flexibility Score: inf
ROOT
ATOM      1  C   UNL A   1      39.701  21.602  26.239  1.00  0.00     0.202 C 
ENDROOT
BRANCH   1   2
ATOM      2  C   UNL A   1      39.028  20.549  25.348  1.00  0.00     0.261 C 
BRANCH   2   3
ATOM      3  O   UNL A   1      37.598  20.707  25.256  1.00  0.00    -0.463 OA
BRANCH   3   4
ATOM      4  C   UNL A   1      37.154  21.980  25.083  1.00  0.00     0.311 C 
ATOM      5  O   UNL A   1      37.441  22.701  24.134  1.00  0.00    -0.252 OA
BRANCH   4   6
ATOM      6  C   UNL A   1      36.262  22.483  26.215  1.00  0.00     0.176 C 
BRANCH   6   7
ATOM      7  C   UNL A   1      34.771  22.327  26.062  1.00  0.00     0.034 A 
ATOM      8  C   UNL A   1      32.932  21.133  25.128  1.00  0.00     0.169 A 
ATOM      9  N   UNL A   1      32.035  21.771  25.794  1.00  0.00    -0.185 NA
ATOM     10  N   UNL A   1      34.266  21.421  25.157  1.00  0.00    -0.337 N 
ATOM     11  C   UNL A   1      32.438  22.754  26.658  1.00  0.00     0.273 A 
ATOM     12  H   UNL A   1      34.873  20.976  24.522  1.00  0.00     0.168 HD
ATOM     13  O   UNL A   1      31.660  23.436  27.318  1.00  0.00    -0.267 OA
ATOM     14  C   UNL A   1      33.898  22.935  26.879  1.00  0.00     0.095 A 
BRANCH   8  15
ATOM     15  S   UNL A   1      32.495  19.731  24.189  1.00  0.00    -0.088 SA
BRANCH  15  16
ATOM     16  C   UNL A   1      33.385  18.378  25.024  1.00  0.00     0.078 C 
BRANCH  16  17
ATOM     17  C   UNL A   1      34.545  17.730  24.254  1.00  0.00     0.008 C 
ATOM     18  C   UNL A   1      34.145  16.824  23.098  1.00  0.00     0.005 C 
ENDBRANCH  16  17
ENDBRANCH  15  16
ENDBRANCH   8  15
ENDBRANCH   6   7
ENDBRANCH   4   6
ENDBRANCH   3   4
ENDBRANCH   2   3
ENDBRANCH   1   2
BRANCH   1  19
ATOM     19  O   UNL A   1      40.945  21.251  26.841  1.00  0.00    -0.374 OA
BRANCH  19  20
ATOM     20  C   UNL A   1      41.956  20.725  25.986  1.00  0.00     0.202 C 
BRANCH  20  21
ATOM     21  C   UNL A   1      43.121  21.650  25.604  1.00  0.00     0.261 C 
BRANCH  21  22
ATOM     22  O   UNL A   1      42.678  22.835  24.920  1.00  0.00    -0.460 OA
BRANCH  22  23
ATOM     23  C   UNL A   1      43.467  23.923  25.108  1.00  0.00     0.338 C 
ATOM     24  O   UNL A   1      44.445  24.243  24.448  1.00  0.00    -0.246 OA
BRANCH  23  25
ATOM     25  C   UNL A   1      42.845  24.826  26.096  1.00  0.00     0.060 A 
ATOM     26  C   UNL A   1      41.773  24.425  26.895  1.00  0.00     0.016 A 
ATOM     27  C   UNL A   1      43.398  26.106  26.238  1.00  0.00     0.016 A 
ATOM     28  C   UNL A   1      41.279  25.305  27.866  1.00  0.00     0.010 A 
ATOM     29  C   UNL A   1      42.902  26.981  27.202  1.00  0.00     0.010 A 
ATOM     30  C   UNL A   1      41.851  26.580  28.039  1.00  0.00    -0.014 A 
BRANCH  30  31
ATOM     31  C   UNL A   1      41.451  27.449  29.173  1.00  0.00     0.031 A 
ATOM     32  C   UNL A   1      40.277  28.379  29.077  1.00  0.00     0.074 A 
ATOM     33  C   UNL A   1      42.206  27.435  30.289  1.00  0.00     0.049 A 
ATOM     34  N   UNL A   1      39.796  29.188  29.986  1.00  0.00    -0.248 NA
ATOM     35  C   UNL A   1      39.550  28.412  27.799  1.00  0.00     0.031 C 
ATOM     36  C   UNL A   1      43.408  26.621  30.477  1.00  0.00     0.029 A 
ATOM     37  N   UNL A   1      42.086  28.131  31.465  1.00  0.00    -0.354 N 
ATOM     38  C   UNL A   1      38.713  29.827  29.397  1.00  0.00     0.074 A 
ATOM     39  C   UNL A   1      38.623  29.332  28.039  1.00  0.00     0.031 C 
ATOM     40  C   UNL A   1      43.901  26.845  31.705  1.00  0.00     0.029 A 
ATOM     41  C   UNL A   1      43.069  27.837  32.380  1.00  0.00     0.049 A 
ATOM     42  H   UNL A   1      41.365  28.779  31.638  1.00  0.00     0.167 HD
ATOM     43  C   UNL A   1      37.858  30.721  29.947  1.00  0.00     0.034 A 
ATOM     44  C   UNL A   1      43.278  28.304  33.625  1.00  0.00     0.034 A 
ATOM     45  C   UNL A   1      37.950  31.209  31.298  1.00  0.00     0.049 A 
ATOM     46  C   UNL A   1      42.324  29.306  34.209  1.00  0.00     0.074 A 
ATOM     47  C   UNL A   1      37.101  32.087  31.952  1.00  0.00     0.029 A 
ATOM     48  N   UNL A   1      38.948  30.875  32.200  1.00  0.00    -0.354 N 
ATOM     49  N   UNL A   1      41.243  29.816  33.673  1.00  0.00    -0.248 NA
ATOM     50  C   UNL A   1      42.602  29.777  35.573  1.00  0.00     0.031 C 
ATOM     51  C   UNL A   1      37.595  32.295  33.243  1.00  0.00     0.029 A 
ATOM     52  C   UNL A   1      38.739  31.531  33.401  1.00  0.00     0.049 A 
ATOM     53  H   UNL A   1      39.695  30.261  32.013  1.00  0.00     0.167 HD
ATOM     54  C   UNL A   1      40.698  30.652  34.639  1.00  0.00     0.074 A 
ATOM     55  C   UNL A   1      41.562  30.571  35.799  1.00  0.00     0.031 C 
ATOM     56  C   UNL A   1      39.584  31.420  34.563  1.00  0.00     0.034 A 
BRANCH  43  57
ATOM     57  C   UNL A   1      36.696  31.187  29.113  1.00  0.00     0.023 A 
ATOM     58  C   UNL A   1      36.590  32.557  28.798  1.00  0.00     0.012 A 
ATOM     59  C   UNL A   1      35.776  30.275  28.562  1.00  0.00     0.148 A 
ATOM     60  C   UNL A   1      35.577  33.015  27.959  1.00  0.00     0.002 A 
ATOM     61  C   UNL A   1      34.784  30.736  27.703  1.00  0.00     0.091 A 
ATOM     62  F   UNL A   1      35.893  28.978  28.880  1.00  0.00    -0.205 F 
ATOM     63  C   UNL A   1      34.681  32.106  27.404  1.00  0.00     0.022 A 
BRANCH  61  64
ATOM     64  S   UNL A   1      33.602  29.647  26.900  1.00  0.00     0.127 S 
ATOM     65  O   UNL A   1      32.998  28.975  28.051  1.00  0.00    -0.237 OA
ATOM     66  O   UNL A   1      32.724  30.597  26.219  1.00  0.00    -0.237 OA
ATOM     67  O   UNL A   1      34.379  28.787  26.019  1.00  0.00    -0.744 OA
ENDBRANCH  61  64
ENDBRANCH  43  57
BRANCH  44  68
ATOM     68  C   UNL A   1      44.403  27.746  34.423  1.00  0.00     0.023 A 
ATOM     69  C   UNL A   1      45.645  28.409  34.404  1.00  0.00     0.012 A 
ATOM     70  C   UNL A   1      44.221  26.638  35.269  1.00  0.00     0.148 A 
ATOM     71  C   UNL A   1      46.690  27.975  35.219  1.00  0.00     0.002 A 
ATOM     72  C   UNL A   1      45.255  26.231  36.103  1.00  0.00     0.091 A 
ATOM     73  F   UNL A   1      43.024  26.033  35.270  1.00  0.00    -0.205 F 
ATOM     74  C   UNL A   1      46.492  26.895  36.075  1.00  0.00     0.022 A 
BRANCH  72  75
ATOM     75  S   UNL A   1      45.073  24.907  37.303  1.00  0.00     0.127 S 
ATOM     76  O   UNL A   1      43.971  25.400  38.126  1.00  0.00    -0.237 OA
ATOM     77  O   UNL A   1      44.739  23.772  36.441  1.00  0.00    -0.237 OA
ATOM     78  O   UNL A   1      46.357  24.804  37.980  1.00  0.00    -0.744 OA
ENDBRANCH  72  75
ENDBRANCH  44  68
BRANCH  56  79
ATOM     79  C   UNL A   1      39.207  32.242  35.765  1.00  0.00     0.023 A 
ATOM     80  C   UNL A   1      39.543  33.609  35.804  1.00  0.00     0.012 A 
ATOM     81  C   UNL A   1      38.412  31.691  36.791  1.00  0.00     0.148 A 
ATOM     82  C   UNL A   1      39.098  34.416  36.850  1.00  0.00     0.002 A 
ATOM     83  C   UNL A   1      37.946  32.509  37.812  1.00  0.00     0.091 A 
ATOM     84  F   UNL A   1      38.111  30.386  36.732  1.00  0.00    -0.205 F 
ATOM     85  C   UNL A   1      38.291  33.870  37.846  1.00  0.00     0.022 A 
BRANCH  83  86
ATOM     86  S   UNL A   1      36.846  31.916  39.104  1.00  0.00     0.127 S 
ATOM     87  O   UNL A   1      37.537  32.364  40.312  1.00  0.00    -0.237 OA
ATOM     88  O   UNL A   1      35.607  32.637  38.807  1.00  0.00    -0.237 OA
ATOM     89  O   UNL A   1      36.766  30.472  38.938  1.00  0.00    -0.744 OA
ENDBRANCH  83  86
ENDBRANCH  56  79
ENDBRANCH  30  31
ENDBRANCH  23  25
ENDBRANCH  22  23
ENDBRANCH  21  22
ENDBRANCH  20  21
ENDBRANCH  19  20
ENDBRANCH   1  19
TORSDOF 21
ENDMDL
MODEL 3
REMARK VINA RESULT:      -9.3      5.465     10.775
REMARK SMILES CCCSc1nc(=O)cc(CC(=O)OCCOCCOC(=O)c2ccc(-c3c4nc(c(-c5cccc(S(=O)(=O)[O-])c5F)c5ccc([nH]5)c(-c5cccc(S(=O)(=O)[O-])c5F)c5nc(c(-c6cccc(S(=O)(=O)[O-])c6F)c6ccc3[nH]6)C=C5)C=C4)cc2)[nH]1
REMARK SMILES IDX 16 1 15 2 14 3 12 4 13 5 11 6 10 7 5 8 6 9 86 10 7 11 8 13
REMARK SMILES IDX 9 14 4 15 3 16 2 17 1 18 17 19 18 20 19 21 20 22 21 23 22 24
REMARK SMILES IDX 23 25 24 26 85 27 25 28 84 29 26 30 27 31 28 32 78 33 29 34
REMARK SMILES IDX 83 35 77 36 79 37 30 38 82 39 76 40 75 41 31 43 63 44 43 45
REMARK SMILES IDX 62 46 44 47 47 48 61 49 80 50 45 51 46 52 60 54 81 55 48 56
REMARK SMILES IDX 32 57 33 58 41 59 34 60 36 61 42 62 35 63 37 64 38 65 39 66
REMARK SMILES IDX 40 67 64 68 65 69 73 70 66 71 68 72 74 73 67 74 69 75 70 76
REMARK SMILES IDX 71 77 72 78 49 79 50 80 58 81 51 82 53 83 59 84 52 85 54 86
REMARK SMILES IDX 55 87 56 88 57 89
REMARK H PARENT 86 12 79 42 47 53
REMARK Flexibility Score: inf
ROOT
ATOM      1  C   UNL A   1      36.505  21.822  24.974  1.00  0.00     0.202 C 
ENDROOT
BRANCH   1   2
ATOM      2  C   UNL A   1      35.290  20.885  24.950  1.00  0.00     0.261 C 
BRANCH   2   3
ATOM      3  O   UNL A   1      34.261  21.259  25.889  1.00  0.00    -0.463 OA
BRANCH   3   4
ATOM      4  C   UNL A   1      33.614  22.424  25.624  1.00  0.00     0.311 C 
ATOM      5  O   UNL A   1      33.511  23.364  26.404  1.00  0.00    -0.252 OA
BRANCH   4   6
ATOM      6  C   UNL A   1      32.968  22.471  24.242  1.00  0.00     0.176 C 
BRANCH   6   7
ATOM      7  C   UNL A   1      32.710  23.824  23.630  1.00  0.00     0.034 A 
ATOM      8  C   UNL A   1      31.982  26.078  23.898  1.00  0.00     0.169 A 
ATOM      9  N   UNL A   1      32.329  26.449  22.716  1.00  0.00    -0.185 NA
ATOM     10  N   UNL A   1      32.065  24.796  24.361  1.00  0.00    -0.337 N 
ATOM     11  C   UNL A   1      32.901  25.525  21.883  1.00  0.00     0.273 A 
ATOM     12  H   UNL A   1      31.660  24.565  25.228  1.00  0.00     0.168 HD
ATOM     13  O   UNL A   1      33.242  25.773  20.730  1.00  0.00    -0.267 OA
ATOM     14  C   UNL A   1      33.212  24.181  22.438  1.00  0.00     0.095 A 
BRANCH   8  15
ATOM     15  S   UNL A   1      31.459  27.258  25.070  1.00  0.00    -0.088 SA
BRANCH  15  16
ATOM     16  C   UNL A   1      33.005  28.117  25.511  1.00  0.00     0.078 C 
BRANCH  16  17
ATOM     17  C   UNL A   1      32.956  29.650  25.566  1.00  0.00     0.008 C 
ATOM     18  C   UNL A   1      32.112  30.244  26.686  1.00  0.00     0.005 C 
ENDBRANCH  16  17
ENDBRANCH  15  16
ENDBRANCH   8  15
ENDBRANCH   6   7
ENDBRANCH   4   6
ENDBRANCH   3   4
ENDBRANCH   2   3
ENDBRANCH   1   2
BRANCH   1  19
ATOM     19  O   UNL A   1      37.793  21.227  24.836  1.00  0.00    -0.374 OA
BRANCH  19  20
ATOM     20  C   UNL A   1      37.890  19.824  25.070  1.00  0.00     0.202 C 
BRANCH  20  21
ATOM     21  C   UNL A   1      39.173  19.298  25.730  1.00  0.00     0.261 C 
BRANCH  21  22
ATOM     22  O   UNL A   1      40.206  20.296  25.792  1.00  0.00    -0.460 OA
BRANCH  22  23
ATOM     23  C   UNL A   1      40.906  20.312  26.956  1.00  0.00     0.338 C 
ATOM     24  O   UNL A   1      41.421  19.357  27.515  1.00  0.00    -0.246 OA
BRANCH  23  25
ATOM     25  C   UNL A   1      41.173  21.708  27.357  1.00  0.00     0.060 A 
ATOM     26  C   UNL A   1      41.954  22.022  28.470  1.00  0.00     0.016 A 
ATOM     27  C   UNL A   1      40.644  22.724  26.550  1.00  0.00     0.016 A 
ATOM     28  C   UNL A   1      42.232  23.365  28.751  1.00  0.00     0.010 A 
ATOM     29  C   UNL A   1      40.918  24.059  26.835  1.00  0.00     0.010 A 
ATOM     30  C   UNL A   1      41.733  24.391  27.926  1.00  0.00    -0.014 A 
BRANCH  30  31
ATOM     31  C   UNL A   1      42.162  25.799  28.114  1.00  0.00     0.031 A 
ATOM     32  C   UNL A   1      43.534  26.263  27.719  1.00  0.00     0.074 A 
ATOM     33  C   UNL A   1      41.311  26.656  28.710  1.00  0.00     0.049 A 
ATOM     34  N   UNL A   1      44.050  27.462  27.807  1.00  0.00    -0.248 NA
ATOM     35  C   UNL A   1      44.447  25.256  27.158  1.00  0.00     0.031 C 
ATOM     36  C   UNL A   1      39.974  26.307  29.195  1.00  0.00     0.029 A 
ATOM     37  N   UNL A   1      41.442  27.986  29.021  1.00  0.00    -0.354 N 
ATOM     38  C   UNL A   1      45.344  27.360  27.315  1.00  0.00     0.074 A 
ATOM     39  C   UNL A   1      45.547  25.972  26.955  1.00  0.00     0.031 C 
ATOM     40  C   UNL A   1      39.400  27.400  29.721  1.00  0.00     0.029 A 
ATOM     41  C   UNL A   1      40.335  28.518  29.635  1.00  0.00     0.049 A 
ATOM     42  H   UNL A   1      42.253  28.509  28.823  1.00  0.00     0.167 HD
ATOM     43  C   UNL A   1      46.267  28.338  27.153  1.00  0.00     0.034 A 
ATOM     44  C   UNL A   1      40.089  29.767  30.076  1.00  0.00     0.034 A 
ATOM     45  C   UNL A   1      46.062  29.717  27.511  1.00  0.00     0.049 A 
ATOM     46  C   UNL A   1      41.133  30.831  29.898  1.00  0.00     0.074 A 
ATOM     47  C   UNL A   1      46.929  30.784  27.344  1.00  0.00     0.029 A 
ATOM     48  N   UNL A   1      44.920  30.221  28.114  1.00  0.00    -0.354 N 
ATOM     49  N   UNL A   1      42.311  30.738  29.331  1.00  0.00    -0.248 NA
ATOM     50  C   UNL A   1      40.808  32.176  30.396  1.00  0.00     0.031 C 
ATOM     51  C   UNL A   1      46.318  31.930  27.861  1.00  0.00     0.029 A 
ATOM     52  C   UNL A   1      45.062  31.581  28.330  1.00  0.00     0.049 A 
ATOM     53  H   UNL A   1      44.127  29.690  28.353  1.00  0.00     0.167 HD
ATOM     54  C   UNL A   1      42.860  32.013  29.383  1.00  0.00     0.074 A 
ATOM     55  C   UNL A   1      41.881  32.865  30.027  1.00  0.00     0.031 C 
ATOM     56  C   UNL A   1      44.071  32.430  28.941  1.00  0.00     0.034 A 
BRANCH  43  57
ATOM     57  C   UNL A   1      47.570  27.973  26.496  1.00  0.00     0.023 A 
ATOM     58  C   UNL A   1      48.667  27.619  27.308  1.00  0.00     0.012 A 
ATOM     59  C   UNL A   1      47.686  27.882  25.096  1.00  0.00     0.148 A 
ATOM     60  C   UNL A   1      49.864  27.193  26.736  1.00  0.00     0.002 A 
ATOM     61  C   UNL A   1      48.875  27.431  24.534  1.00  0.00     0.091 A 
ATOM     62  F   UNL A   1      46.632  28.230  24.343  1.00  0.00    -0.205 F 
ATOM     63  C   UNL A   1      49.966  27.090  25.352  1.00  0.00     0.022 A 
BRANCH  61  64
ATOM     64  S   UNL A   1      49.101  27.220  22.764  1.00  0.00     0.127 S 
ATOM     65  O   UNL A   1      48.552  28.474  22.249  1.00  0.00    -0.237 OA
ATOM     66  O   UNL A   1      50.555  27.101  22.653  1.00  0.00    -0.237 OA
ATOM     67  O   UNL A   1      48.357  26.024  22.401  1.00  0.00    -0.744 OA
ENDBRANCH  61  64
ENDBRANCH  43  57
BRANCH  44  68
ATOM     68  C   UNL A   1      38.753  30.078  30.649  1.00  0.00     0.023 A 
ATOM     69  C   UNL A   1      38.485  29.722  31.985  1.00  0.00     0.012 A 
ATOM     70  C   UNL A   1      37.795  30.807  29.920  1.00  0.00     0.148 A 
ATOM     71  C   UNL A   1      37.282  30.089  32.587  1.00  0.00     0.002 A 
ATOM     72  C   UNL A   1      36.613  31.199  30.536  1.00  0.00     0.091 A 
ATOM     73  F   UNL A   1      38.083  31.137  28.653  1.00  0.00    -0.205 F 
ATOM     74  C   UNL A   1      36.352  30.835  31.867  1.00  0.00     0.022 A 
BRANCH  72  75
ATOM     75  S   UNL A   1      35.391  32.234  29.724  1.00  0.00     0.127 S 
ATOM     76  O   UNL A   1      36.203  33.366  29.285  1.00  0.00    -0.237 OA
ATOM     77  O   UNL A   1      34.927  31.356  28.650  1.00  0.00    -0.237 OA
ATOM     78  O   UNL A   1      34.392  32.541  30.737  1.00  0.00    -0.744 OA
ENDBRANCH  72  75
ENDBRANCH  44  68
BRANCH  56  79
ATOM     79  C   UNL A   1      44.427  33.881  29.119  1.00  0.00     0.023 A 
ATOM     80  C   UNL A   1      44.105  34.804  28.105  1.00  0.00     0.012 A 
ATOM     81  C   UNL A   1      44.962  34.345  30.337  1.00  0.00     0.148 A 
ATOM     82  C   UNL A   1      44.315  36.169  28.299  1.00  0.00     0.002 A 
ATOM     83  C   UNL A   1      45.138  35.709  30.535  1.00  0.00     0.091 A 
ATOM     84  F   UNL A   1      45.265  33.444  31.283  1.00  0.00    -0.205 F 
ATOM     85  C   UNL A   1      44.819  36.622  29.517  1.00  0.00     0.022 A 
BRANCH  83  86
ATOM     86  S   UNL A   1      45.717  36.396  32.092  1.00  0.00     0.127 S 
ATOM     87  O   UNL A   1      44.473  36.494  32.854  1.00  0.00    -0.237 OA
ATOM     88  O   UNL A   1      46.639  35.360  32.561  1.00  0.00    -0.237 OA
ATOM     89  O   UNL A   1      46.344  37.669  31.766  1.00  0.00    -0.744 OA
ENDBRANCH  83  86
ENDBRANCH  56  79
ENDBRANCH  30  31
ENDBRANCH  23  25
ENDBRANCH  22  23
ENDBRANCH  21  22
ENDBRANCH  20  21
ENDBRANCH  19  20
ENDBRANCH   1  19
TORSDOF 21
ENDMDL
