MODEL 1
REMARK VINA RESULT:     -11.1      0.000      0.000
REMARK SMILES Cc1n[nH]c(C)c1CC(=O)N1CC[C@H](C(=O)OCCOCCOC(=O)c2ccc(-c3c4nc(c(-c5cccc(S(=O)(=O)[O-])c5F)c5ccc([nH]5)c(-c5cccc(S(=O)(=O)[O-])c5F)c5nc(c(-c6cccc(S(=O)(=O)[O-])c6F)c6ccc3[nH]6)C=C5)C=C4)cc2)[C@H]1C
REMARK SMILES IDX 20 1 19 2 18 3 17 4 15 5 16 6 14 7 11 8 12 9 89 10 13 11
REMARK SMILES IDX 90 12 9 13 10 14 8 15 7 16 1 17 2 18 3 19 4 20 5 21 6 23
REMARK SMILES IDX 21 24 22 25 23 26 24 27 25 28 26 29 27 30 88 31 28 32 87 33
REMARK SMILES IDX 29 34 30 35 31 36 81 37 32 38 86 39 80 40 82 41 33 42 85 43
REMARK SMILES IDX 79 44 78 45 34 47 66 48 46 49 65 50 47 51 50 52 64 53 83 54
REMARK SMILES IDX 48 55 49 56 63 58 84 59 51 60 35 61 36 62 44 63 37 64 39 65
REMARK SMILES IDX 45 66 38 67 40 68 41 69 42 70 43 71 67 72 68 73 76 74 69 75
REMARK SMILES IDX 71 76 77 77 70 78 72 79 73 80 74 81 75 82 52 83 53 84 61 85
REMARK SMILES IDX 54 86 56 87 62 88 55 89 57 90 58 91 59 92 60 93
REMARK H PARENT 4 22 82 46 50 57
REMARK Flexibility Score: inf
ROOT
ATOM      1  O   UNL A   1      31.347  29.548  24.034  1.00  0.00    -0.374 OA
ENDROOT
BRANCH   1   2
ATOM      2  C   UNL A   1      30.000  29.603  23.566  1.00  0.00     0.202 C 
BRANCH   2   3
ATOM      3  C   UNL A   1      29.313  28.272  23.240  1.00  0.00     0.261 C 
BRANCH   3   4
ATOM      4  O   UNL A   1      30.208  27.302  22.657  1.00  0.00    -0.463 OA
BRANCH   4   5
ATOM      5  C   UNL A   1      30.417  26.202  23.415  1.00  0.00     0.311 C 
ATOM      6  O   UNL A   1      30.066  26.091  24.587  1.00  0.00    -0.252 OA
BRANCH   5   7
ATOM      7  C   UNL A   1      31.157  25.073  22.726  1.00  0.00     0.123 C 
ATOM      8  N   UNL A   1      33.452  24.556  23.226  1.00  0.00    -0.339 N 
ATOM      9  C   UNL A   1      33.463  25.618  22.240  1.00  0.00     0.121 C 
ATOM     10  C   UNL A   1      32.077  24.095  23.494  1.00  0.00     0.096 C 
ATOM     11  C   UNL A   1      32.073  25.644  21.636  1.00  0.00     0.039 C 
ATOM     12  C   UNL A   1      31.843  22.704  22.902  1.00  0.00     0.032 C 
BRANCH   8  13
ATOM     13  C   UNL A   1      34.634  24.264  23.887  1.00  0.00     0.227 C 
ATOM     14  O   UNL A   1      35.540  23.688  23.263  1.00  0.00    -0.275 OA
BRANCH  13  15
ATOM     15  C   UNL A   1      34.775  24.364  25.407  1.00  0.00     0.139 C 
BRANCH  15  16
ATOM     16  C   UNL A   1      34.255  23.281  26.283  1.00  0.00     0.005 A 
ATOM     17  C   UNL A   1      35.960  21.371  25.814  1.00  0.00     0.069 C 
ATOM     18  C   UNL A   1      34.799  21.987  26.483  1.00  0.00     0.063 A 
ATOM     19  N   UNL A   1      34.076  21.266  27.342  1.00  0.00    -0.181 NA
ATOM     20  N   UNL A   1      33.013  22.028  27.602  1.00  0.00    -0.282 N 
ATOM     21  C   UNL A   1      33.019  23.211  26.915  1.00  0.00     0.036 A 
ATOM     22  H   UNL A   1      32.297  21.767  28.225  1.00  0.00     0.190 HD
ATOM     23  C   UNL A   1      31.836  24.105  26.905  1.00  0.00     0.066 C 
ENDBRANCH  15  16
ENDBRANCH  13  15
ENDBRANCH   8  13
ENDBRANCH   5   7
ENDBRANCH   4   5
ENDBRANCH   3   4
ENDBRANCH   2   3
ENDBRANCH   1   2
BRANCH   1  24
ATOM     24  C   UNL A   1      31.537  29.649  25.444  1.00  0.00     0.202 C 
BRANCH  24  25
ATOM     25  C   UNL A   1      31.759  31.043  26.038  1.00  0.00     0.261 C 
BRANCH  25  26
ATOM     26  O   UNL A   1      32.456  31.002  27.292  1.00  0.00    -0.460 OA
BRANCH  26  27
ATOM     27  C   UNL A   1      33.279  32.052  27.523  1.00  0.00     0.338 C 
ATOM     28  O   UNL A   1      32.979  33.239  27.546  1.00  0.00    -0.246 OA
BRANCH  27  29
ATOM     29  C   UNL A   1      34.601  31.550  27.931  1.00  0.00     0.060 A 
ATOM     30  C   UNL A   1      34.766  30.173  28.107  1.00  0.00     0.016 A 
ATOM     31  C   UNL A   1      35.659  32.423  28.174  1.00  0.00     0.016 A 
ATOM     32  C   UNL A   1      35.982  29.672  28.569  1.00  0.00     0.010 A 
ATOM     33  C   UNL A   1      36.893  31.918  28.588  1.00  0.00     0.010 A 
ATOM     34  C   UNL A   1      37.045  30.545  28.846  1.00  0.00    -0.014 A 
BRANCH  34  35
ATOM     35  C   UNL A   1      38.244  30.049  29.569  1.00  0.00     0.031 A 
ATOM     36  C   UNL A   1      38.482  30.515  30.984  1.00  0.00     0.074 A 
ATOM     37  C   UNL A   1      39.099  29.188  28.988  1.00  0.00     0.049 A 
ATOM     38  N   UNL A   1      39.466  30.232  31.796  1.00  0.00    -0.248 NA
ATOM     39  C   UNL A   1      37.484  31.438  31.556  1.00  0.00     0.031 C 
ATOM     40  C   UNL A   1      38.997  28.687  27.617  1.00  0.00     0.029 A 
ATOM     41  N   UNL A   1      40.239  28.597  29.476  1.00  0.00    -0.354 N 
ATOM     42  C   UNL A   1      39.223  30.961  32.955  1.00  0.00     0.074 A 
ATOM     43  C   UNL A   1      38.021  31.730  32.729  1.00  0.00     0.031 C 
ATOM     44  C   UNL A   1      40.041  27.878  27.368  1.00  0.00     0.029 A 
ATOM     45  C   UNL A   1      40.896  27.819  28.551  1.00  0.00     0.049 A 
ATOM     46  H   UNL A   1      40.556  28.718  30.399  1.00  0.00     0.167 HD
ATOM     47  C   UNL A   1      39.915  30.964  34.119  1.00  0.00     0.034 A 
ATOM     48  C   UNL A   1      42.064  27.151  28.645  1.00  0.00     0.034 A 
ATOM     49  C   UNL A   1      41.084  30.167  34.359  1.00  0.00     0.049 A 
ATOM     50  C   UNL A   1      42.807  27.158  29.956  1.00  0.00     0.074 A 
ATOM     51  C   UNL A   1      41.832  30.061  35.518  1.00  0.00     0.029 A 
ATOM     52  N   UNL A   1      41.675  29.333  33.422  1.00  0.00    -0.354 N 
ATOM     53  N   UNL A   1      42.497  27.759  31.080  1.00  0.00    -0.248 NA
ATOM     54  C   UNL A   1      44.042  26.362  30.026  1.00  0.00     0.031 C 
ATOM     55  C   UNL A   1      42.887  29.176  35.276  1.00  0.00     0.029 A 
ATOM     56  C   UNL A   1      42.779  28.708  33.976  1.00  0.00     0.049 A 
ATOM     57  H   UNL A   1      41.358  29.205  32.499  1.00  0.00     0.167 HD
ATOM     58  C   UNL A   1      43.474  27.388  31.996  1.00  0.00     0.074 A 
ATOM     59  C   UNL A   1      44.374  26.489  31.304  1.00  0.00     0.031 C 
ATOM     60  C   UNL A   1      43.627  27.770  33.288  1.00  0.00     0.034 A 
BRANCH  47  61
ATOM     61  C   UNL A   1      39.387  31.820  35.242  1.00  0.00     0.023 A 
ATOM     62  C   UNL A   1      38.459  31.273  36.153  1.00  0.00     0.012 A 
ATOM     63  C   UNL A   1      39.842  33.140  35.428  1.00  0.00     0.148 A 
ATOM     64  C   UNL A   1      37.966  32.036  37.210  1.00  0.00     0.002 A 
ATOM     65  C   UNL A   1      39.380  33.879  36.512  1.00  0.00     0.091 A 
ATOM     66  F   UNL A   1      40.708  33.648  34.542  1.00  0.00    -0.205 F 
ATOM     67  C   UNL A   1      38.434  33.334  37.395  1.00  0.00     0.022 A 
BRANCH  65  68
ATOM     68  S   UNL A   1      39.979  35.531  36.887  1.00  0.00     0.127 S 
ATOM     69  O   UNL A   1      41.422  35.309  36.970  1.00  0.00    -0.237 OA
ATOM     70  O   UNL A   1      39.546  36.287  35.712  1.00  0.00    -0.237 OA
ATOM     71  O   UNL A   1      39.337  35.920  38.135  1.00  0.00    -0.744 OA
ENDBRANCH  65  68
ENDBRANCH  47  61
BRANCH  48  72
ATOM     72  C   UNL A   1      42.587  26.390  27.473  1.00  0.00     0.023 A 
ATOM     73  C   UNL A   1      43.436  27.027  26.546  1.00  0.00     0.012 A 
ATOM     74  C   UNL A   1      42.250  25.037  27.275  1.00  0.00     0.148 A 
ATOM     75  C   UNL A   1      43.908  26.341  25.426  1.00  0.00     0.002 A 
ATOM     76  C   UNL A   1      42.772  24.344  26.189  1.00  0.00     0.091 A 
ATOM     77  F   UNL A   1      41.427  24.452  28.156  1.00  0.00    -0.205 F 
ATOM     78  C   UNL A   1      43.585  24.998  25.252  1.00  0.00     0.022 A 
BRANCH  76  79
ATOM     79  S   UNL A   1      42.513  22.579  25.964  1.00  0.00     0.127 S 
ATOM     80  O   UNL A   1      43.190  22.337  24.693  1.00  0.00    -0.237 OA
ATOM     81  O   UNL A   1      43.188  22.023  27.138  1.00  0.00    -0.237 OA
ATOM     82  O   UNL A   1      41.069  22.391  25.962  1.00  0.00    -0.744 OA
ENDBRANCH  76  79
ENDBRANCH  48  72
BRANCH  60  83
ATOM     83  C   UNL A   1      44.783  27.188  34.060  1.00  0.00     0.023 A 
ATOM     84  C   UNL A   1      46.031  27.840  34.052  1.00  0.00     0.012 A 
ATOM     85  C   UNL A   1      44.605  26.041  34.859  1.00  0.00     0.148 A 
ATOM     86  C   UNL A   1      47.096  27.340  34.801  1.00  0.00     0.002 A 
ATOM     87  C   UNL A   1      45.656  25.577  35.640  1.00  0.00     0.091 A 
ATOM     88  F   UNL A   1      43.414  25.426  34.841  1.00  0.00    -0.205 F 
ATOM     89  C   UNL A   1      46.906  26.217  35.604  1.00  0.00     0.022 A 
BRANCH  87  90
ATOM     90  S   UNL A   1      45.475  24.198  36.778  1.00  0.00     0.127 S 
ATOM     91  O   UNL A   1      45.100  23.112  35.873  1.00  0.00    -0.237 OA
ATOM     92  O   UNL A   1      46.820  24.083  37.343  1.00  0.00    -0.237 OA
ATOM     93  O   UNL A   1      44.451  24.597  37.734  1.00  0.00    -0.744 OA
ENDBRANCH  87  90
ENDBRANCH  60  83
ENDBRANCH  34  35
ENDBRANCH  27  29
ENDBRANCH  26  27
ENDBRANCH  25  26
ENDBRANCH  24  25
ENDBRANCH   1  24
TORSDOF 20
ENDMDL
MODEL 2
REMARK VINA RESULT:     -11.0      4.673     10.125
REMARK SMILES Cc1n[nH]c(C)c1CC(=O)N1CC[C@H](C(=O)OCCOCCOC(=O)c2ccc(-c3c4nc(c(-c5cccc(S(=O)(=O)[O-])c5F)c5ccc([nH]5)c(-c5cccc(S(=O)(=O)[O-])c5F)c5nc(c(-c6cccc(S(=O)(=O)[O-])c6F)c6ccc3[nH]6)C=C5)C=C4)cc2)[C@H]1C
REMARK SMILES IDX 20 1 19 2 18 3 17 4 15 5 16 6 14 7 11 8 12 9 89 10 13 11
REMARK SMILES IDX 90 12 9 13 10 14 8 15 7 16 1 17 2 18 3 19 4 20 5 21 6 23
REMARK SMILES IDX 21 24 22 25 23 26 24 27 25 28 26 29 27 30 88 31 28 32 87 33
REMARK SMILES IDX 29 34 30 35 31 36 81 37 32 38 86 39 80 40 82 41 33 42 85 43
REMARK SMILES IDX 79 44 78 45 34 47 66 48 46 49 65 50 47 51 50 52 64 53 83 54
REMARK SMILES IDX 48 55 49 56 63 58 84 59 51 60 35 61 36 62 44 63 37 64 39 65
REMARK SMILES IDX 45 66 38 67 40 68 41 69 42 70 43 71 67 72 68 73 76 74 69 75
REMARK SMILES IDX 71 76 77 77 70 78 72 79 73 80 74 81 75 82 52 83 53 84 61 85
REMARK SMILES IDX 54 86 56 87 62 88 55 89 57 90 58 91 59 92 60 93
REMARK H PARENT 4 22 82 46 50 57
REMARK Flexibility Score: inf
ROOT
ATOM      1  O   UNL A   1      35.097  19.462  25.218  1.00  0.00    -0.374 OA
ENDROOT
BRANCH   1   2
ATOM      2  C   UNL A   1      34.009  19.072  24.381  1.00  0.00     0.202 C 
BRANCH   2   3
ATOM      3  C   UNL A   1      32.645  19.718  24.651  1.00  0.00     0.261 C 
BRANCH   3   4
ATOM      4  O   UNL A   1      32.332  20.783  23.731  1.00  0.00    -0.463 OA
BRANCH   4   5
ATOM      5  C   UNL A   1      32.947  21.958  23.998  1.00  0.00     0.311 C 
ATOM      6  O   UNL A   1      33.610  22.594  23.183  1.00  0.00    -0.252 OA
BRANCH   5   7
ATOM      7  C   UNL A   1      32.789  22.462  25.419  1.00  0.00     0.123 C 
ATOM      8  N   UNL A   1      32.513  24.797  25.922  1.00  0.00    -0.339 N 
ATOM      9  C   UNL A   1      33.937  24.555  25.806  1.00  0.00     0.121 C 
ATOM     10  C   UNL A   1      31.750  23.541  25.805  1.00  0.00     0.096 C 
ATOM     11  C   UNL A   1      34.117  23.053  25.908  1.00  0.00     0.039 C 
ATOM     12  C   UNL A   1      31.161  23.131  27.155  1.00  0.00     0.032 C 
BRANCH   8  13
ATOM     13  C   UNL A   1      32.070  26.111  25.934  1.00  0.00     0.227 C 
ATOM     14  O   UNL A   1      31.516  26.544  26.958  1.00  0.00    -0.275 OA
BRANCH  13  15
ATOM     15  C   UNL A   1      31.980  26.961  24.667  1.00  0.00     0.139 C 
BRANCH  15  16
ATOM     16  C   UNL A   1      32.307  26.373  23.341  1.00  0.00     0.005 A 
ATOM     17  C   UNL A   1      33.974  28.132  22.390  1.00  0.00     0.069 C 
ATOM     18  C   UNL A   1      33.207  26.872  22.366  1.00  0.00     0.063 A 
ATOM     19  N   UNL A   1      33.262  26.090  21.286  1.00  0.00    -0.181 NA
ATOM     20  N   UNL A   1      32.324  25.166  21.499  1.00  0.00    -0.282 N 
ATOM     21  C   UNL A   1      31.650  25.345  22.675  1.00  0.00     0.036 A 
ATOM     22  H   UNL A   1      32.136  24.429  20.873  1.00  0.00     0.190 HD
ATOM     23  C   UNL A   1      30.439  24.553  23.000  1.00  0.00     0.066 C 
ENDBRANCH  15  16
ENDBRANCH  13  15
ENDBRANCH   8  13
ENDBRANCH   5   7
ENDBRANCH   4   5
ENDBRANCH   3   4
ENDBRANCH   2   3
ENDBRANCH   1   2
BRANCH   1  24
ATOM     24  C   UNL A   1      36.093  20.292  24.625  1.00  0.00     0.202 C 
BRANCH  24  25
ATOM     25  C   UNL A   1      37.556  20.028  24.995  1.00  0.00     0.261 C 
BRANCH  25  26
ATOM     26  O   UNL A   1      38.257  21.228  25.353  1.00  0.00    -0.460 OA
BRANCH  26  27
ATOM     27  C   UNL A   1      39.361  21.039  26.113  1.00  0.00     0.338 C 
ATOM     28  O   UNL A   1      40.032  20.020  26.207  1.00  0.00    -0.246 OA
BRANCH  27  29
ATOM     29  C   UNL A   1      39.768  22.325  26.704  1.00  0.00     0.060 A 
ATOM     30  C   UNL A   1      39.105  23.486  26.293  1.00  0.00     0.016 A 
ATOM     31  C   UNL A   1      40.810  22.397  27.625  1.00  0.00     0.016 A 
ATOM     32  C   UNL A   1      39.519  24.728  26.773  1.00  0.00     0.010 A 
ATOM     33  C   UNL A   1      41.191  23.636  28.145  1.00  0.00     0.010 A 
ATOM     34  C   UNL A   1      40.587  24.815  27.677  1.00  0.00    -0.014 A 
BRANCH  34  35
ATOM     35  C   UNL A   1      41.187  26.137  27.992  1.00  0.00     0.031 A 
ATOM     36  C   UNL A   1      42.592  26.426  27.527  1.00  0.00     0.074 A 
ATOM     37  C   UNL A   1      40.493  27.072  28.667  1.00  0.00     0.049 A 
ATOM     38  N   UNL A   1      43.322  27.496  27.704  1.00  0.00    -0.248 NA
ATOM     39  C   UNL A   1      43.274  25.358  26.772  1.00  0.00     0.031 C 
ATOM     40  C   UNL A   1      39.140  26.905  29.198  1.00  0.00     0.029 A 
ATOM     41  N   UNL A   1      40.842  28.347  29.039  1.00  0.00    -0.354 N 
ATOM     42  C   UNL A   1      44.551  27.219  27.114  1.00  0.00     0.074 A 
ATOM     43  C   UNL A   1      44.484  25.868  26.607  1.00  0.00     0.031 C 
ATOM     44  C   UNL A   1      38.781  28.028  29.843  1.00  0.00     0.029 A 
ATOM     45  C   UNL A   1      39.883  28.986  29.790  1.00  0.00     0.049 A 
ATOM     46  H   UNL A   1      41.699  28.764  28.793  1.00  0.00     0.167 HD
ATOM     47  C   UNL A   1      45.627  28.028  26.971  1.00  0.00     0.034 A 
ATOM     48  C   UNL A   1      39.900  30.198  30.381  1.00  0.00     0.034 A 
ATOM     49  C   UNL A   1      45.677  29.385  27.436  1.00  0.00     0.049 A 
ATOM     50  C   UNL A   1      41.104  31.085  30.193  1.00  0.00     0.074 A 
ATOM     51  C   UNL A   1      46.702  30.305  27.300  1.00  0.00     0.029 A 
ATOM     52  N   UNL A   1      44.656  30.021  28.124  1.00  0.00    -0.354 N 
ATOM     53  N   UNL A   1      42.211  30.849  29.529  1.00  0.00    -0.248 NA
ATOM     54  C   UNL A   1      41.048  32.422  30.804  1.00  0.00     0.031 C 
ATOM     55  C   UNL A   1      46.306  31.493  27.923  1.00  0.00     0.029 A 
ATOM     56  C   UNL A   1      45.024  31.322  28.420  1.00  0.00     0.049 A 
ATOM     57  H   UNL A   1      43.795  29.608  28.367  1.00  0.00     0.167 HD
ATOM     58  C   UNL A   1      42.964  32.015  29.612  1.00  0.00     0.074 A 
ATOM     59  C   UNL A   1      42.177  32.966  30.370  1.00  0.00     0.031 C 
ATOM     60  C   UNL A   1      44.202  32.272  29.123  1.00  0.00     0.034 A 
BRANCH  47  61
ATOM     61  C   UNL A   1      46.820  27.478  26.232  1.00  0.00     0.023 A 
ATOM     62  C   UNL A   1      46.937  27.698  24.843  1.00  0.00     0.012 A 
ATOM     63  C   UNL A   1      47.845  26.792  26.911  1.00  0.00     0.148 A 
ATOM     64  C   UNL A   1      48.037  27.214  24.136  1.00  0.00     0.002 A 
ATOM     65  C   UNL A   1      48.961  26.353  26.207  1.00  0.00     0.091 A 
ATOM     66  F   UNL A   1      47.707  26.575  28.225  1.00  0.00    -0.205 F 
ATOM     67  C   UNL A   1      49.052  26.552  24.819  1.00  0.00     0.022 A 
BRANCH  65  68
ATOM     68  S   UNL A   1      50.362  25.560  27.004  1.00  0.00     0.127 S 
ATOM     69  O   UNL A   1      49.733  24.385  27.605  1.00  0.00    -0.237 OA
ATOM     70  O   UNL A   1      51.236  25.268  25.867  1.00  0.00    -0.237 OA
ATOM     71  O   UNL A   1      50.894  26.533  27.948  1.00  0.00    -0.744 OA
ENDBRANCH  65  68
ENDBRANCH  47  61
BRANCH  48  72
ATOM     72  C   UNL A   1      38.726  30.659  31.176  1.00  0.00     0.023 A 
ATOM     73  C   UNL A   1      38.710  30.474  32.573  1.00  0.00     0.012 A 
ATOM     74  C   UNL A   1      37.627  31.284  30.556  1.00  0.00     0.148 A 
ATOM     75  C   UNL A   1      37.606  30.870  33.330  1.00  0.00     0.002 A 
ATOM     76  C   UNL A   1      36.556  31.728  31.324  1.00  0.00     0.091 A 
ATOM     77  F   UNL A   1      37.650  31.436  29.224  1.00  0.00    -0.205 F 
ATOM     78  C   UNL A   1      36.534  31.505  32.709  1.00  0.00     0.022 A 
BRANCH  76  79
ATOM     79  S   UNL A   1      35.199  32.673  30.621  1.00  0.00     0.127 S 
ATOM     80  O   UNL A   1      34.238  32.680  31.719  1.00  0.00    -0.237 OA
ATOM     81  O   UNL A   1      35.836  33.963  30.351  1.00  0.00    -0.237 OA
ATOM     82  O   UNL A   1      34.793  31.947  29.425  1.00  0.00    -0.744 OA
ENDBRANCH  76  79
ENDBRANCH  48  72
BRANCH  60  83
ATOM     83  C   UNL A   1      44.774  33.648  29.349  1.00  0.00     0.023 A 
ATOM     84  C   UNL A   1      45.407  33.952  30.570  1.00  0.00     0.012 A 
ATOM     85  C   UNL A   1      44.756  34.609  28.319  1.00  0.00     0.148 A 
ATOM     86  C   UNL A   1      45.985  35.205  30.775  1.00  0.00     0.002 A 
ATOM     87  C   UNL A   1      45.376  35.837  28.512  1.00  0.00     0.091 A 
ATOM     88  F   UNL A   1      44.135  34.305  27.170  1.00  0.00    -0.205 F 
ATOM     89  C   UNL A   1      45.980  36.142  29.743  1.00  0.00     0.022 A 
BRANCH  87  90
ATOM     90  S   UNL A   1      45.506  37.067  27.210  1.00  0.00     0.127 S 
ATOM     91  O   UNL A   1      44.102  37.413  26.986  1.00  0.00    -0.237 OA
ATOM     92  O   UNL A   1      46.297  38.117  27.852  1.00  0.00    -0.237 OA
ATOM     93  O   UNL A   1      46.171  36.405  26.095  1.00  0.00    -0.744 OA
ENDBRANCH  87  90
ENDBRANCH  60  83
ENDBRANCH  34  35
ENDBRANCH  27  29
ENDBRANCH  26  27
ENDBRANCH  25  26
ENDBRANCH  24  25
ENDBRANCH   1  24
TORSDOF 20
ENDMDL
MODEL 3
REMARK VINA RESULT:     -10.4      5.010      8.166
REMARK SMILES Cc1n[nH]c(C)c1CC(=O)N1CC[C@H](C(=O)OCCOCCOC(=O)c2ccc(-c3c4nc(c(-c5cccc(S(=O)(=O)[O-])c5F)c5ccc([nH]5)c(-c5cccc(S(=O)(=O)[O-])c5F)c5nc(c(-c6cccc(S(=O)(=O)[O-])c6F)c6ccc3[nH]6)C=C5)C=C4)cc2)[C@H]1C
REMARK SMILES IDX 20 1 19 2 18 3 17 4 15 5 16 6 14 7 11 8 12 9 89 10 13 11
REMARK SMILES IDX 90 12 9 13 10 14 8 15 7 16 1 17 2 18 3 19 4 20 5 21 6 23
REMARK SMILES IDX 21 24 22 25 23 26 24 27 25 28 26 29 27 30 88 31 28 32 87 33
REMARK SMILES IDX 29 34 30 35 31 36 81 37 32 38 86 39 80 40 82 41 33 42 85 43
REMARK SMILES IDX 79 44 78 45 34 47 66 48 46 49 65 50 47 51 50 52 64 53 83 54
REMARK SMILES IDX 48 55 49 56 63 58 84 59 51 60 35 61 36 62 44 63 37 64 39 65
REMARK SMILES IDX 45 66 38 67 40 68 41 69 42 70 43 71 67 72 68 73 76 74 69 75
REMARK SMILES IDX 71 76 77 77 70 78 72 79 73 80 74 81 75 82 52 83 53 84 61 85
REMARK SMILES IDX 54 86 56 87 62 88 55 89 57 90 58 91 59 92 60 93
REMARK H PARENT 4 22 82 46 50 57
REMARK Flexibility Score: inf
ROOT
ATOM      1  O   UNL A   1      36.218  20.481  25.366  1.00  0.00    -0.374 OA
ENDROOT
BRANCH   1   2
ATOM      2  C   UNL A   1      35.161  21.113  24.644  1.00  0.00     0.202 C 
BRANCH   2   3
ATOM      3  C   UNL A   1      33.793  20.423  24.649  1.00  0.00     0.261 C 
BRANCH   3   4
ATOM      4  O   UNL A   1      32.691  21.353  24.623  1.00  0.00    -0.463 OA
BRANCH   4   5
ATOM      5  C   UNL A   1      32.429  21.882  23.406  1.00  0.00     0.311 C 
ATOM      6  O   UNL A   1      32.129  21.223  22.414  1.00  0.00    -0.252 OA
BRANCH   5   7
ATOM      7  C   UNL A   1      32.551  23.390  23.316  1.00  0.00     0.123 C 
ATOM      8  N   UNL A   1      31.783  24.840  25.075  1.00  0.00    -0.339 N 
ATOM      9  C   UNL A   1      30.636  24.543  24.241  1.00  0.00     0.121 C 
ATOM     10  C   UNL A   1      33.015  24.256  24.511  1.00  0.00     0.096 C 
ATOM     11  C   UNL A   1      31.193  23.997  22.941  1.00  0.00     0.039 C 
ATOM     12  C   UNL A   1      33.926  25.346  23.945  1.00  0.00     0.032 C 
BRANCH   8  13
ATOM     13  C   UNL A   1      31.560  25.427  26.310  1.00  0.00     0.227 C 
ATOM     14  O   UNL A   1      31.402  24.693  27.300  1.00  0.00    -0.275 OA
BRANCH  13  15
ATOM     15  C   UNL A   1      31.225  26.911  26.469  1.00  0.00     0.139 C 
BRANCH  15  16
ATOM     16  C   UNL A   1      31.881  27.927  25.603  1.00  0.00     0.005 A 
ATOM     17  C   UNL A   1      30.405  27.810  23.461  1.00  0.00     0.069 C 
ATOM     18  C   UNL A   1      31.495  28.340  24.303  1.00  0.00     0.063 A 
ATOM     19  N   UNL A   1      32.308  29.277  23.812  1.00  0.00    -0.181 NA
ATOM     20  N   UNL A   1      33.278  29.384  24.722  1.00  0.00    -0.282 N 
ATOM     21  C   UNL A   1      33.124  28.524  25.774  1.00  0.00     0.036 A 
ATOM     22  H   UNL A   1      34.028  30.017  24.645  1.00  0.00     0.190 HD
ATOM     23  C   UNL A   1      34.194  28.340  26.784  1.00  0.00     0.066 C 
ENDBRANCH  15  16
ENDBRANCH  13  15
ENDBRANCH   8  13
ENDBRANCH   5   7
ENDBRANCH   4   5
ENDBRANCH   3   4
ENDBRANCH   2   3
ENDBRANCH   1   2
BRANCH   1  24
ATOM     24  C   UNL A   1      37.545  20.886  25.039  1.00  0.00     0.202 C 
BRANCH  24  25
ATOM     25  C   UNL A   1      38.690  19.925  25.379  1.00  0.00     0.261 C 
BRANCH  25  26
ATOM     26  O   UNL A   1      39.942  20.603  25.556  1.00  0.00    -0.460 OA
BRANCH  26  27
ATOM     27  C   UNL A   1      40.433  20.575  26.817  1.00  0.00     0.338 C 
ATOM     28  O   UNL A   1      40.720  19.587  27.481  1.00  0.00    -0.246 OA
BRANCH  27  29
ATOM     29  C   UNL A   1      40.755  21.948  27.241  1.00  0.00     0.060 A 
ATOM     30  C   UNL A   1      40.213  23.014  26.516  1.00  0.00     0.016 A 
ATOM     31  C   UNL A   1      41.607  22.189  28.316  1.00  0.00     0.016 A 
ATOM     32  C   UNL A   1      40.561  24.324  26.842  1.00  0.00     0.010 A 
ATOM     33  C   UNL A   1      41.916  23.502  28.675  1.00  0.00     0.010 A 
ATOM     34  C   UNL A   1      41.442  24.576  27.904  1.00  0.00    -0.014 A 
BRANCH  34  35
ATOM     35  C   UNL A   1      42.006  25.937  28.092  1.00  0.00     0.031 A 
ATOM     36  C   UNL A   1      41.138  27.004  28.710  1.00  0.00     0.074 A 
ATOM     37  C   UNL A   1      43.272  26.220  27.735  1.00  0.00     0.049 A 
ATOM     38  N   UNL A   1      41.409  28.260  28.950  1.00  0.00    -0.248 NA
ATOM     39  C   UNL A   1      39.771  26.606  29.097  1.00  0.00     0.031 C 
ATOM     40  C   UNL A   1      44.203  25.287  27.099  1.00  0.00     0.029 A 
ATOM     41  N   UNL A   1      43.989  27.387  27.838  1.00  0.00    -0.354 N 
ATOM     42  C   UNL A   1      40.246  28.805  29.483  1.00  0.00     0.074 A 
ATOM     43  C   UNL A   1      39.252  27.756  29.496  1.00  0.00     0.031 C 
ATOM     44  C   UNL A   1      45.361  25.922  26.853  1.00  0.00     0.029 A 
ATOM     45  C   UNL A   1      45.250  27.311  27.293  1.00  0.00     0.049 A 
ATOM     46  H   UNL A   1      43.634  28.201  28.262  1.00  0.00     0.167 HD
ATOM     47  C   UNL A   1      40.031  30.055  29.956  1.00  0.00     0.034 A 
ATOM     48  C   UNL A   1      46.198  28.259  27.151  1.00  0.00     0.034 A 
ATOM     49  C   UNL A   1      41.031  31.085  29.983  1.00  0.00     0.049 A 
ATOM     50  C   UNL A   1      45.940  29.639  27.700  1.00  0.00     0.074 A 
ATOM     51  C   UNL A   1      40.930  32.371  30.483  1.00  0.00     0.029 A 
ATOM     52  N   UNL A   1      42.319  30.945  29.492  1.00  0.00    -0.354 N 
ATOM     53  N   UNL A   1      44.874  30.102  28.309  1.00  0.00    -0.248 NA
ATOM     54  C   UNL A   1      47.030  30.620  27.576  1.00  0.00     0.031 C 
ATOM     55  C   UNL A   1      42.154  33.015  30.278  1.00  0.00     0.029 A 
ATOM     56  C   UNL A   1      43.025  32.121  29.677  1.00  0.00     0.049 A 
ATOM     57  H   UNL A   1      42.679  30.130  29.073  1.00  0.00     0.167 HD
ATOM     58  C   UNL A   1      45.176  31.409  28.671  1.00  0.00     0.074 A 
ATOM     59  C   UNL A   1      46.535  31.659  28.235  1.00  0.00     0.031 C 
ATOM     60  C   UNL A   1      44.396  32.330  29.290  1.00  0.00     0.034 A 
BRANCH  47  61
ATOM     61  C   UNL A   1      38.672  30.359  30.534  1.00  0.00     0.023 A 
ATOM     62  C   UNL A   1      38.375  29.958  31.853  1.00  0.00     0.012 A 
ATOM     63  C   UNL A   1      37.712  31.080  29.798  1.00  0.00     0.148 A 
ATOM     64  C   UNL A   1      37.132  30.239  32.419  1.00  0.00     0.002 A 
ATOM     65  C   UNL A   1      36.491  31.396  30.386  1.00  0.00     0.091 A 
ATOM     66  F   UNL A   1      38.004  31.434  28.540  1.00  0.00    -0.205 F 
ATOM     67  C   UNL A   1      36.196  30.966  31.690  1.00  0.00     0.022 A 
BRANCH  65  68
ATOM     68  S   UNL A   1      35.247  32.397  29.563  1.00  0.00     0.127 S 
ATOM     69  O   UNL A   1      36.030  33.562  29.154  1.00  0.00    -0.237 OA
ATOM     70  O   UNL A   1      34.832  31.526  28.463  1.00  0.00    -0.237 OA
ATOM     71  O   UNL A   1      34.216  32.658  30.557  1.00  0.00    -0.744 OA
ENDBRANCH  65  68
ENDBRANCH  47  61
BRANCH  48  72
ATOM     72  C   UNL A   1      47.494  27.928  26.491  1.00  0.00     0.023 A 
ATOM     73  C   UNL A   1      48.636  27.676  27.276  1.00  0.00     0.012 A 
ATOM     74  C   UNL A   1      47.599  27.857  25.089  1.00  0.00     0.148 A 
ATOM     75  C   UNL A   1      49.865  27.397  26.676  1.00  0.00     0.002 A 
ATOM     76  C   UNL A   1      48.812  27.522  24.499  1.00  0.00     0.091 A 
ATOM     77  F   UNL A   1      46.507  28.119  24.355  1.00  0.00    -0.205 F 
ATOM     78  C   UNL A   1      49.952  27.310  25.289  1.00  0.00     0.022 A 
BRANCH  76  79
ATOM     79  S   UNL A   1      48.978  27.258  22.728  1.00  0.00     0.127 S 
ATOM     80  O   UNL A   1      48.302  28.434  22.186  1.00  0.00    -0.237 OA
ATOM     81  O   UNL A   1      50.431  27.250  22.558  1.00  0.00    -0.237 OA
ATOM     82  O   UNL A   1      48.338  25.977  22.461  1.00  0.00    -0.744 OA
ENDBRANCH  76  79
ENDBRANCH  48  72
BRANCH  60  83
ATOM     83  C   UNL A   1      44.999  33.681  29.579  1.00  0.00     0.023 A 
ATOM     84  C   UNL A   1      45.790  33.865  30.729  1.00  0.00     0.012 A 
ATOM     85  C   UNL A   1      44.846  34.742  28.664  1.00  0.00     0.148 A 
ATOM     86  C   UNL A   1      46.395  35.095  30.982  1.00  0.00     0.002 A 
ATOM     87  C   UNL A   1      45.491  35.950  28.898  1.00  0.00     0.091 A 
ATOM     88  F   UNL A   1      44.076  34.551  27.584  1.00  0.00    -0.205 F 
ATOM     89  C   UNL A   1      46.256  36.133  30.063  1.00  0.00     0.022 A 
BRANCH  87  90
ATOM     90  S   UNL A   1      45.450  37.308  27.724  1.00  0.00     0.127 S 
ATOM     91  O   UNL A   1      46.719  37.130  27.018  1.00  0.00    -0.237 OA
ATOM     92  O   UNL A   1      44.262  36.996  26.929  1.00  0.00    -0.237 OA
ATOM     93  O   UNL A   1      45.344  38.524  28.519  1.00  0.00    -0.744 OA
ENDBRANCH  87  90
ENDBRANCH  60  83
ENDBRANCH  34  35
ENDBRANCH  27  29
ENDBRANCH  26  27
ENDBRANCH  25  26
ENDBRANCH  24  25
ENDBRANCH   1  24
TORSDOF 20
ENDMDL
