MODEL 1
REMARK VINA RESULT:     -10.4      0.000      0.000
REMARK SMILES CC(C)CCNC(=O)[C@@H](C)Oc1ccc(N)cc1C(=O)OCCOCCOC(=O)c1ccc(-c2c3nc(c(-c4cccc(S(=O)(=O)[O-])c4F)c4ccc([nH]4)c(-c4cccc(S(=O)(=O)[O-])c4F)c4nc(c(-c5cccc(S(=O)(=O)[O-])c5F)c5ccc2[nH]5)C=C4)C=C3)cc1
REMARK SMILES IDX 22 1 21 2 19 3 20 4 18 5 12 6 13 7 14 8 17 9 15 10 11 11
REMARK SMILES IDX 9 12 10 13 7 14 6 15 8 17 5 18 4 19 2 20 1 21 3 22 16 23
REMARK SMILES IDX 23 26 24 27 25 28 26 29 27 30 28 31 29 32 30 33 31 34 92 35
REMARK SMILES IDX 32 36 91 37 33 38 34 39 35 40 85 41 36 42 90 43 84 44 86 45
REMARK SMILES IDX 37 46 89 47 83 48 82 49 38 51 70 52 50 53 69 54 51 55 54 56
REMARK SMILES IDX 68 57 87 58 52 59 53 60 67 62 88 63 55 64 39 65 40 66 48 67
REMARK SMILES IDX 41 68 43 69 49 70 42 71 44 72 45 73 46 74 47 75 71 76 72 77
REMARK SMILES IDX 80 78 73 79 75 80 81 81 74 82 76 83 77 84 78 85 79 86 56 87
REMARK SMILES IDX 57 88 65 89 58 90 60 91 66 92 59 93 61 94 62 95 63 96 64 97
REMARK H PARENT 6 16 16 24 16 25 86 50 54 61
REMARK Flexibility Score: inf
ROOT
ATOM      1  C   UNL A   1      30.302  25.531  26.116  1.00  0.00     0.261 C 
ENDROOT
BRANCH   1   2
ATOM      2  O   UNL A   1      30.949  24.400  26.715  1.00  0.00    -0.460 OA
BRANCH   2   3
ATOM      3  C   UNL A   1      32.118  24.069  26.124  1.00  0.00     0.342 C 
ATOM      4  O   UNL A   1      33.189  24.642  26.286  1.00  0.00    -0.246 OA
BRANCH   3   5
ATOM      5  C   UNL A   1      32.047  22.818  25.334  1.00  0.00     0.104 A 
ATOM      6  C   UNL A   1      31.767  22.731  23.969  1.00  0.00     0.135 A 
ATOM      7  C   UNL A   1      32.257  21.617  23.297  1.00  0.00     0.049 A 
ATOM      8  C   UNL A   1      32.696  20.489  24.004  1.00  0.00     0.029 A 
ATOM      9  C   UNL A   1      32.425  21.661  26.044  1.00  0.00     0.045 A 
ATOM     10  C   UNL A   1      32.641  20.457  25.391  1.00  0.00     0.032 A 
BRANCH   6  11
ATOM     11  O   UNL A   1      31.150  23.740  23.298  1.00  0.00    -0.480 OA
BRANCH  11  12
ATOM     12  C   UNL A   1      31.931  24.880  22.903  1.00  0.00     0.258 C 
ATOM     13  C   UNL A   1      31.045  26.107  22.642  1.00  0.00     0.064 C 
BRANCH  12  14
ATOM     14  C   UNL A   1      33.183  24.847  21.959  1.00  0.00     0.260 C 
ATOM     15  N   UNL A   1      34.380  24.274  22.290  1.00  0.00    -0.353 N 
ATOM     16  H   UNL A   1      34.951  24.030  21.526  1.00  0.00     0.163 HD
ATOM     17  O   UNL A   1      33.140  25.369  20.839  1.00  0.00    -0.271 OA
BRANCH  15  18
ATOM     18  C   UNL A   1      34.933  23.969  23.590  1.00  0.00     0.116 C 
BRANCH  18  19
ATOM     19  C   UNL A   1      35.728  22.671  23.650  1.00  0.00     0.024 C 
BRANCH  19  20
ATOM     20  C   UNL A   1      36.129  22.211  25.069  1.00  0.00    -0.016 C 
ATOM     21  C   UNL A   1      37.383  21.329  25.095  1.00  0.00     0.007 C 
ATOM     22  C   UNL A   1      36.365  23.446  25.944  1.00  0.00     0.007 C 
ENDBRANCH  19  20
ENDBRANCH  18  19
ENDBRANCH  15  18
ENDBRANCH  12  14
ENDBRANCH  11  12
ENDBRANCH   6  11
BRANCH  10  23
ATOM     23  N   UNL A   1      32.961  19.313  26.101  1.00  0.00    -0.399 N 
ATOM     24  H   UNL A   1      33.890  18.987  26.117  1.00  0.00     0.156 HD
ATOM     25  H   UNL A   1      32.260  18.825  26.590  1.00  0.00     0.156 HD
ENDBRANCH  10  23
ENDBRANCH   3   5
ENDBRANCH   2   3
ENDBRANCH   1   2
BRANCH   1  26
ATOM     26  C   UNL A   1      31.024  26.835  26.460  1.00  0.00     0.202 C 
BRANCH  26  27
ATOM     27  O   UNL A   1      31.618  27.558  25.383  1.00  0.00    -0.374 OA
BRANCH  27  28
ATOM     28  C   UNL A   1      31.365  28.963  25.319  1.00  0.00     0.202 C 
BRANCH  28  29
ATOM     29  C   UNL A   1      31.845  29.816  26.498  1.00  0.00     0.261 C 
BRANCH  29  30
ATOM     30  O   UNL A   1      33.065  30.516  26.202  1.00  0.00    -0.460 OA
BRANCH  30  31
ATOM     31  C   UNL A   1      33.413  31.472  27.096  1.00  0.00     0.338 C 
ATOM     32  O   UNL A   1      32.695  32.351  27.555  1.00  0.00    -0.246 OA
BRANCH  31  33
ATOM     33  C   UNL A   1      34.760  31.182  27.615  1.00  0.00     0.060 A 
ATOM     34  C   UNL A   1      35.088  29.850  27.906  1.00  0.00     0.016 A 
ATOM     35  C   UNL A   1      35.673  32.209  27.852  1.00  0.00     0.016 A 
ATOM     36  C   UNL A   1      36.323  29.541  28.471  1.00  0.00     0.010 A 
ATOM     37  C   UNL A   1      36.905  31.899  28.427  1.00  0.00     0.010 A 
ATOM     38  C   UNL A   1      37.222  30.572  28.770  1.00  0.00    -0.014 A 
BRANCH  38  39
ATOM     39  C   UNL A   1      38.437  30.305  29.573  1.00  0.00     0.031 A 
ATOM     40  C   UNL A   1      39.454  29.340  29.036  1.00  0.00     0.074 A 
ATOM     41  C   UNL A   1      38.592  30.853  30.789  1.00  0.00     0.049 A 
ATOM     42  N   UNL A   1      40.499  28.825  29.625  1.00  0.00    -0.248 NA
ATOM     43  C   UNL A   1      39.249  28.878  27.653  1.00  0.00     0.031 C 
ATOM     44  C   UNL A   1      37.672  31.804  31.409  1.00  0.00     0.029 A 
ATOM     45  N   UNL A   1      39.556  30.639  31.742  1.00  0.00    -0.354 N 
ATOM     46  C   UNL A   1      41.045  27.933  28.710  1.00  0.00     0.074 A 
ATOM     47  C   UNL A   1      40.218  27.983  27.524  1.00  0.00     0.031 C 
ATOM     48  C   UNL A   1      38.086  32.052  32.663  1.00  0.00     0.029 A 
ATOM     49  C   UNL A   1      39.273  31.245  32.942  1.00  0.00     0.049 A 
ATOM     50  H   UNL A   1      40.368  30.106  31.582  1.00  0.00     0.167 HD
ATOM     51  C   UNL A   1      42.137  27.144  28.848  1.00  0.00     0.034 A 
ATOM     52  C   UNL A   1      39.874  31.124  34.144  1.00  0.00     0.034 A 
ATOM     53  C   UNL A   1      42.961  27.117  30.024  1.00  0.00     0.049 A 
ATOM     54  C   UNL A   1      41.081  30.236  34.280  1.00  0.00     0.074 A 
ATOM     55  C   UNL A   1      44.133  26.413  30.236  1.00  0.00     0.029 A 
ATOM     56  N   UNL A   1      42.689  27.805  31.197  1.00  0.00    -0.354 N 
ATOM     57  N   UNL A   1      41.659  29.487  33.372  1.00  0.00    -0.248 NA
ATOM     58  C   UNL A   1      41.737  30.198  35.594  1.00  0.00     0.031 C 
ATOM     59  C   UNL A   1      44.543  26.638  31.553  1.00  0.00     0.029 A 
ATOM     60  C   UNL A   1      43.657  27.524  32.146  1.00  0.00     0.049 A 
ATOM     61  H   UNL A   1      41.920  28.404  31.334  1.00  0.00     0.167 HD
ATOM     62  C   UNL A   1      42.768  28.920  33.993  1.00  0.00     0.074 A 
ATOM     63  C   UNL A   1      42.783  29.418  35.354  1.00  0.00     0.031 C 
ATOM     64  C   UNL A   1      43.688  28.064  33.482  1.00  0.00     0.034 A 
BRANCH  51  65
ATOM     65  C   UNL A   1      42.490  26.236  27.699  1.00  0.00     0.023 A 
ATOM     66  C   UNL A   1      43.337  26.692  26.669  1.00  0.00     0.012 A 
ATOM     67  C   UNL A   1      41.999  24.917  27.656  1.00  0.00     0.148 A 
ATOM     68  C   UNL A   1      43.654  25.864  25.591  1.00  0.00     0.002 A 
ATOM     69  C   UNL A   1      42.359  24.081  26.606  1.00  0.00     0.091 A 
ATOM     70  F   UNL A   1      41.173  24.508  28.630  1.00  0.00    -0.205 F 
ATOM     71  C   UNL A   1      43.173  24.557  25.566  1.00  0.00     0.022 A 
BRANCH  69  72
ATOM     72  S   UNL A   1      41.859  22.358  26.531  1.00  0.00     0.127 S 
ATOM     73  O   UNL A   1      42.517  21.913  25.304  1.00  0.00    -0.237 OA
ATOM     74  O   UNL A   1      42.435  21.816  27.762  1.00  0.00    -0.237 OA
ATOM     75  O   UNL A   1      40.404  22.365  26.495  1.00  0.00    -0.744 OA
ENDBRANCH  69  72
ENDBRANCH  51  65
BRANCH  52  76
ATOM     76  C   UNL A   1      39.333  31.877  35.308  1.00  0.00     0.023 A 
ATOM     77  C   UNL A   1      38.410  31.259  36.171  1.00  0.00     0.012 A 
ATOM     78  C   UNL A   1      39.778  33.183  35.593  1.00  0.00     0.148 A 
ATOM     79  C   UNL A   1      37.924  31.936  37.292  1.00  0.00     0.002 A 
ATOM     80  C   UNL A   1      39.333  33.830  36.739  1.00  0.00     0.091 A 
ATOM     81  F   UNL A   1      40.652  33.751  34.751  1.00  0.00    -0.205 F 
ATOM     82  C   UNL A   1      38.394  33.214  37.582  1.00  0.00     0.022 A 
BRANCH  80  83
ATOM     83  S   UNL A   1      39.975  35.423  37.264  1.00  0.00     0.127 S 
ATOM     84  O   UNL A   1      39.486  36.305  36.205  1.00  0.00    -0.237 OA
ATOM     85  O   UNL A   1      39.318  35.592  38.560  1.00  0.00    -0.237 OA
ATOM     86  O   UNL A   1      41.420  35.264  37.328  1.00  0.00    -0.744 OA
ENDBRANCH  80  83
ENDBRANCH  52  76
BRANCH  64  87
ATOM     87  C   UNL A   1      44.836  27.646  34.365  1.00  0.00     0.023 A 
ATOM     88  C   UNL A   1      46.033  28.387  34.374  1.00  0.00     0.012 A 
ATOM     89  C   UNL A   1      44.678  26.574  35.267  1.00  0.00     0.148 A 
ATOM     90  C   UNL A   1      47.066  28.052  35.250  1.00  0.00     0.002 A 
ATOM     91  C   UNL A   1      45.689  26.281  36.174  1.00  0.00     0.091 A 
ATOM     92  F   UNL A   1      43.537  25.871  35.230  1.00  0.00    -0.205 F 
ATOM     93  C   UNL A   1      46.887  27.010  36.160  1.00  0.00     0.022 A 
BRANCH  91  94
ATOM     94  S   UNL A   1      45.507  25.027  37.448  1.00  0.00     0.127 S 
ATOM     95  O   UNL A   1      46.589  25.377  38.367  1.00  0.00    -0.237 OA
ATOM     96  O   UNL A   1      44.162  25.297  37.956  1.00  0.00    -0.237 OA
ATOM     97  O   UNL A   1      45.654  23.743  36.776  1.00  0.00    -0.744 OA
ENDBRANCH  91  94
ENDBRANCH  64  87
ENDBRANCH  38  39
ENDBRANCH  31  33
ENDBRANCH  30  31
ENDBRANCH  29  30
ENDBRANCH  28  29
ENDBRANCH  27  28
ENDBRANCH  26  27
ENDBRANCH   1  26
TORSDOF 24
ENDMDL
MODEL 2
REMARK VINA RESULT:     -10.2      1.778      7.950
REMARK SMILES CC(C)CCNC(=O)[C@@H](C)Oc1ccc(N)cc1C(=O)OCCOCCOC(=O)c1ccc(-c2c3nc(c(-c4cccc(S(=O)(=O)[O-])c4F)c4ccc([nH]4)c(-c4cccc(S(=O)(=O)[O-])c4F)c4nc(c(-c5cccc(S(=O)(=O)[O-])c5F)c5ccc2[nH]5)C=C4)C=C3)cc1
REMARK SMILES IDX 22 1 21 2 19 3 20 4 18 5 12 6 13 7 14 8 17 9 15 10 11 11
REMARK SMILES IDX 9 12 10 13 7 14 6 15 8 17 5 18 4 19 2 20 1 21 3 22 16 23
REMARK SMILES IDX 23 26 24 27 25 28 26 29 27 30 28 31 29 32 30 33 31 34 92 35
REMARK SMILES IDX 32 36 91 37 33 38 34 39 35 40 85 41 36 42 90 43 84 44 86 45
REMARK SMILES IDX 37 46 89 47 83 48 82 49 38 51 70 52 50 53 69 54 51 55 54 56
REMARK SMILES IDX 68 57 87 58 52 59 53 60 67 62 88 63 55 64 39 65 40 66 48 67
REMARK SMILES IDX 41 68 43 69 49 70 42 71 44 72 45 73 46 74 47 75 71 76 72 77
REMARK SMILES IDX 80 78 73 79 75 80 81 81 74 82 76 83 77 84 78 85 79 86 56 87
REMARK SMILES IDX 57 88 65 89 58 90 60 91 66 92 59 93 61 94 62 95 63 96 64 97
REMARK H PARENT 6 16 16 24 16 25 86 50 54 61
REMARK Flexibility Score: inf
ROOT
ATOM      1  C   UNL A   1      33.817  28.932  27.091  1.00  0.00     0.261 C 
ENDROOT
BRANCH   1   2
ATOM      2  O   UNL A   1      33.959  28.436  25.753  1.00  0.00    -0.460 OA
BRANCH   2   3
ATOM      3  C   UNL A   1      33.172  27.372  25.483  1.00  0.00     0.342 C 
ATOM      4  O   UNL A   1      32.995  26.409  26.219  1.00  0.00    -0.246 OA
BRANCH   3   5
ATOM      5  C   UNL A   1      32.387  27.519  24.236  1.00  0.00     0.104 A 
ATOM      6  C   UNL A   1      32.510  26.721  23.097  1.00  0.00     0.135 A 
ATOM      7  C   UNL A   1      31.393  26.627  22.273  1.00  0.00     0.049 A 
ATOM      8  C   UNL A   1      30.340  27.544  22.386  1.00  0.00     0.029 A 
ATOM      9  C   UNL A   1      31.361  28.481  24.306  1.00  0.00     0.045 A 
ATOM     10  C   UNL A   1      30.393  28.572  23.317  1.00  0.00     0.032 A 
BRANCH   6  11
ATOM     11  O   UNL A   1      33.621  25.974  22.862  1.00  0.00    -0.480 OA
BRANCH  11  12
ATOM     12  C   UNL A   1      33.518  24.543  22.953  1.00  0.00     0.258 C 
ATOM     13  C   UNL A   1      33.139  23.917  21.603  1.00  0.00     0.064 C 
BRANCH  12  14
ATOM     14  C   UNL A   1      32.915  23.745  24.161  1.00  0.00     0.260 C 
ATOM     15  N   UNL A   1      33.552  23.563  25.357  1.00  0.00    -0.353 N 
ATOM     16  H   UNL A   1      32.962  23.347  26.115  1.00  0.00     0.163 HD
ATOM     17  O   UNL A   1      31.799  23.219  24.072  1.00  0.00    -0.271 OA
BRANCH  15  18
ATOM     18  C   UNL A   1      34.959  23.641  25.678  1.00  0.00     0.116 C 
BRANCH  18  19
ATOM     19  C   UNL A   1      35.674  22.297  25.713  1.00  0.00     0.024 C 
BRANCH  19  20
ATOM     20  C   UNL A   1      36.983  22.228  24.895  1.00  0.00    -0.016 C 
ATOM     21  C   UNL A   1      37.626  20.836  24.885  1.00  0.00     0.007 C 
ATOM     22  C   UNL A   1      36.691  22.656  23.454  1.00  0.00     0.007 C 
ENDBRANCH  19  20
ENDBRANCH  18  19
ENDBRANCH  15  18
ENDBRANCH  12  14
ENDBRANCH  11  12
ENDBRANCH   6  11
BRANCH  10  23
ATOM     23  N   UNL A   1      29.418  29.554  23.366  1.00  0.00    -0.399 N 
ATOM     24  H   UNL A   1      28.523  29.378  22.995  1.00  0.00     0.156 HD
ATOM     25  H   UNL A   1      29.619  30.427  23.772  1.00  0.00     0.156 HD
ENDBRANCH  10  23
ENDBRANCH   3   5
ENDBRANCH   2   3
ENDBRANCH   1   2
BRANCH   1  26
ATOM     26  C   UNL A   1      32.565  29.799  27.237  1.00  0.00     0.202 C 
BRANCH  26  27
ATOM     27  O   UNL A   1      32.501  30.994  26.460  1.00  0.00    -0.374 OA
BRANCH  27  28
ATOM     28  C   UNL A   1      31.500  31.951  26.811  1.00  0.00     0.202 C 
BRANCH  28  29
ATOM     29  C   UNL A   1      31.979  33.337  27.253  1.00  0.00     0.261 C 
BRANCH  29  30
ATOM     30  O   UNL A   1      33.384  33.529  27.014  1.00  0.00    -0.460 OA
BRANCH  30  31
ATOM     31  C   UNL A   1      34.072  34.089  28.037  1.00  0.00     0.338 C 
ATOM     32  O   UNL A   1      33.789  35.114  28.644  1.00  0.00    -0.246 OA
BRANCH  31  33
ATOM     33  C   UNL A   1      35.131  33.164  28.473  1.00  0.00     0.060 A 
ATOM     34  C   UNL A   1      34.751  31.939  29.043  1.00  0.00     0.016 A 
ATOM     35  C   UNL A   1      36.477  33.510  28.360  1.00  0.00     0.016 A 
ATOM     36  C   UNL A   1      35.719  31.069  29.539  1.00  0.00     0.010 A 
ATOM     37  C   UNL A   1      37.444  32.641  28.866  1.00  0.00     0.010 A 
ATOM     38  C   UNL A   1      37.068  31.436  29.487  1.00  0.00    -0.014 A 
BRANCH  38  39
ATOM     39  C   UNL A   1      38.094  30.645  30.204  1.00  0.00     0.031 A 
ATOM     40  C   UNL A   1      38.409  31.001  31.628  1.00  0.00     0.074 A 
ATOM     41  C   UNL A   1      38.786  29.681  29.573  1.00  0.00     0.049 A 
ATOM     42  N   UNL A   1      39.373  30.570  32.396  1.00  0.00    -0.248 NA
ATOM     43  C   UNL A   1      37.526  31.994  32.263  1.00  0.00     0.031 C 
ATOM     44  C   UNL A   1      38.565  29.249  28.195  1.00  0.00     0.029 A 
ATOM     45  N   UNL A   1      39.854  28.933  29.999  1.00  0.00    -0.354 N 
ATOM     46  C   UNL A   1      39.253  31.281  33.584  1.00  0.00     0.074 A 
ATOM     47  C   UNL A   1      38.117  32.166  33.436  1.00  0.00     0.031 C 
ATOM     48  C   UNL A   1      39.506  28.349  27.867  1.00  0.00     0.029 A 
ATOM     49  C   UNL A   1      40.415  28.175  28.999  1.00  0.00     0.049 A 
ATOM     50  H   UNL A   1      40.184  28.937  30.926  1.00  0.00     0.167 HD
ATOM     51  C   UNL A   1      40.020  31.202  34.697  1.00  0.00     0.034 A 
ATOM     52  C   UNL A   1      41.560  27.463  28.983  1.00  0.00     0.034 A 
ATOM     53  C   UNL A   1      41.135  30.306  34.839  1.00  0.00     0.049 A 
ATOM     54  C   UNL A   1      42.405  27.394  30.226  1.00  0.00     0.074 A 
ATOM     55  C   UNL A   1      41.929  30.092  35.951  1.00  0.00     0.029 A 
ATOM     56  N   UNL A   1      41.629  29.494  33.830  1.00  0.00    -0.354 N 
ATOM     57  N   UNL A   1      42.216  27.978  31.385  1.00  0.00    -0.248 NA
ATOM     58  C   UNL A   1      43.604  26.545  30.173  1.00  0.00     0.031 C 
ATOM     59  C   UNL A   1      42.933  29.186  35.599  1.00  0.00     0.029 A 
ATOM     60  C   UNL A   1      42.733  28.793  34.285  1.00  0.00     0.049 A 
ATOM     61  H   UNL A   1      41.251  29.426  32.924  1.00  0.00     0.167 HD
ATOM     62  C   UNL A   1      43.247  27.538  32.209  1.00  0.00     0.074 A 
ATOM     63  C   UNL A   1      44.055  26.632  31.417  1.00  0.00     0.031 C 
ATOM     64  C   UNL A   1      43.500  27.857  33.503  1.00  0.00     0.034 A 
BRANCH  51  65
ATOM     65  C   UNL A   1      39.686  32.123  35.841  1.00  0.00     0.023 A 
ATOM     66  C   UNL A   1      40.315  33.381  35.947  1.00  0.00     0.012 A 
ATOM     67  C   UNL A   1      38.725  31.749  36.800  1.00  0.00     0.148 A 
ATOM     68  C   UNL A   1      40.025  34.232  37.014  1.00  0.00     0.002 A 
ATOM     69  C   UNL A   1      38.405  32.623  37.832  1.00  0.00     0.091 A 
ATOM     70  F   UNL A   1      38.156  30.540  36.699  1.00  0.00    -0.205 F 
ATOM     71  C   UNL A   1      39.065  33.856  37.949  1.00  0.00     0.022 A 
BRANCH  69  72
ATOM     72  S   UNL A   1      37.120  32.263  39.034  1.00  0.00     0.127 S 
ATOM     73  O   UNL A   1      37.250  30.814  39.179  1.00  0.00    -0.237 OA
ATOM     74  O   UNL A   1      37.562  33.033  40.198  1.00  0.00    -0.237 OA
ATOM     75  O   UNL A   1      35.875  32.725  38.440  1.00  0.00    -0.744 OA
ENDBRANCH  69  72
ENDBRANCH  51  65
BRANCH  52  76
ATOM     76  C   UNL A   1      41.960  26.754  27.737  1.00  0.00     0.023 A 
ATOM     77  C   UNL A   1      42.650  27.451  26.728  1.00  0.00     0.012 A 
ATOM     78  C   UNL A   1      41.709  25.376  27.577  1.00  0.00     0.148 A 
ATOM     79  C   UNL A   1      43.069  26.792  25.570  1.00  0.00     0.002 A 
ATOM     80  C   UNL A   1      42.175  24.715  26.448  1.00  0.00     0.091 A 
ATOM     81  F   UNL A   1      41.042  24.738  28.549  1.00  0.00    -0.205 F 
ATOM     82  C   UNL A   1      42.843  25.424  25.436  1.00  0.00     0.022 A 
BRANCH  80  83
ATOM     83  S   UNL A   1      42.046  22.936  26.244  1.00  0.00     0.127 S 
ATOM     84  O   UNL A   1      42.714  22.734  24.959  1.00  0.00    -0.237 OA
ATOM     85  O   UNL A   1      42.788  22.451  27.408  1.00  0.00    -0.237 OA
ATOM     86  O   UNL A   1      40.622  22.640  26.262  1.00  0.00    -0.744 OA
ENDBRANCH  80  83
ENDBRANCH  52  76
BRANCH  64  87
ATOM     87  C   UNL A   1      44.664  27.184  34.184  1.00  0.00     0.023 A 
ATOM     88  C   UNL A   1      45.957  27.735  34.096  1.00  0.00     0.012 A 
ATOM     89  C   UNL A   1      44.446  26.058  35.004  1.00  0.00     0.148 A 
ATOM     90  C   UNL A   1      47.020  27.162  34.794  1.00  0.00     0.002 A 
ATOM     91  C   UNL A   1      45.499  25.525  35.738  1.00  0.00     0.091 A 
ATOM     92  F   UNL A   1      43.212  25.538  35.061  1.00  0.00    -0.205 F 
ATOM     93  C   UNL A   1      46.788  26.068  35.626  1.00  0.00     0.022 A 
BRANCH  91  94
ATOM     94  S   UNL A   1      45.273  24.184  36.913  1.00  0.00     0.127 S 
ATOM     95  O   UNL A   1      46.645  23.945  37.360  1.00  0.00    -0.237 OA
ATOM     96  O   UNL A   1      44.402  24.797  37.916  1.00  0.00    -0.237 OA
ATOM     97  O   UNL A   1      44.663  23.091  36.167  1.00  0.00    -0.744 OA
ENDBRANCH  91  94
ENDBRANCH  64  87
ENDBRANCH  38  39
ENDBRANCH  31  33
ENDBRANCH  30  31
ENDBRANCH  29  30
ENDBRANCH  28  29
ENDBRANCH  27  28
ENDBRANCH  26  27
ENDBRANCH   1  26
TORSDOF 24
ENDMDL
MODEL 3
REMARK VINA RESULT:     -10.2      1.801      3.177
REMARK SMILES CC(C)CCNC(=O)[C@@H](C)Oc1ccc(N)cc1C(=O)OCCOCCOC(=O)c1ccc(-c2c3nc(c(-c4cccc(S(=O)(=O)[O-])c4F)c4ccc([nH]4)c(-c4cccc(S(=O)(=O)[O-])c4F)c4nc(c(-c5cccc(S(=O)(=O)[O-])c5F)c5ccc2[nH]5)C=C4)C=C3)cc1
REMARK SMILES IDX 22 1 21 2 19 3 20 4 18 5 12 6 13 7 14 8 17 9 15 10 11 11
REMARK SMILES IDX 9 12 10 13 7 14 6 15 8 17 5 18 4 19 2 20 1 21 3 22 16 23
REMARK SMILES IDX 23 26 24 27 25 28 26 29 27 30 28 31 29 32 30 33 31 34 92 35
REMARK SMILES IDX 32 36 91 37 33 38 34 39 35 40 85 41 36 42 90 43 84 44 86 45
REMARK SMILES IDX 37 46 89 47 83 48 82 49 38 51 70 52 50 53 69 54 51 55 54 56
REMARK SMILES IDX 68 57 87 58 52 59 53 60 67 62 88 63 55 64 39 65 40 66 48 67
REMARK SMILES IDX 41 68 43 69 49 70 42 71 44 72 45 73 46 74 47 75 71 76 72 77
REMARK SMILES IDX 80 78 73 79 75 80 81 81 74 82 76 83 77 84 78 85 79 86 56 87
REMARK SMILES IDX 57 88 65 89 58 90 60 91 66 92 59 93 61 94 62 95 63 96 64 97
REMARK H PARENT 6 16 16 24 16 25 86 50 54 61
REMARK Flexibility Score: inf
ROOT
ATOM      1  C   UNL A   1      32.040  26.957  26.319  1.00  0.00     0.261 C 
ENDROOT
BRANCH   1   2
ATOM      2  O   UNL A   1      33.194  26.107  26.277  1.00  0.00    -0.460 OA
BRANCH   2   3
ATOM      3  C   UNL A   1      32.896  24.795  26.151  1.00  0.00     0.342 C 
ATOM      4  O   UNL A   1      31.967  24.217  26.703  1.00  0.00    -0.246 OA
BRANCH   3   5
ATOM      5  C   UNL A   1      33.723  24.095  25.142  1.00  0.00     0.104 A 
ATOM      6  C   UNL A   1      33.374  23.882  23.807  1.00  0.00     0.135 A 
ATOM      7  C   UNL A   1      34.417  23.721  22.902  1.00  0.00     0.049 A 
ATOM      8  C   UNL A   1      35.716  23.439  23.349  1.00  0.00     0.029 A 
ATOM      9  C   UNL A   1      35.013  23.746  25.590  1.00  0.00     0.045 A 
ATOM     10  C   UNL A   1      35.985  23.305  24.704  1.00  0.00     0.032 A 
BRANCH   6  11
ATOM     11  O   UNL A   1      32.083  23.948  23.385  1.00  0.00    -0.480 OA
BRANCH  11  12
ATOM     12  C   UNL A   1      31.496  25.243  23.169  1.00  0.00     0.258 C 
ATOM     13  C   UNL A   1      30.008  25.257  23.546  1.00  0.00     0.064 C 
BRANCH  12  14
ATOM     14  C   UNL A   1      31.807  26.197  21.964  1.00  0.00     0.260 C 
ATOM     15  N   UNL A   1      31.756  27.561  22.031  1.00  0.00    -0.353 N 
ATOM     16  H   UNL A   1      32.275  28.033  21.340  1.00  0.00     0.163 HD
ATOM     17  O   UNL A   1      32.112  25.734  20.859  1.00  0.00    -0.271 OA
BRANCH  15  18
ATOM     18  C   UNL A   1      31.058  28.418  22.962  1.00  0.00     0.116 C 
BRANCH  18  19
ATOM     19  C   UNL A   1      30.328  29.589  22.318  1.00  0.00     0.024 C 
BRANCH  19  20
ATOM     20  C   UNL A   1      28.970  29.950  22.959  1.00  0.00    -0.016 C 
ATOM     21  C   UNL A   1      28.351  31.237  22.400  1.00  0.00     0.007 C 
ATOM     22  C   UNL A   1      27.994  28.789  22.744  1.00  0.00     0.007 C 
ENDBRANCH  19  20
ENDBRANCH  18  19
ENDBRANCH  15  18
ENDBRANCH  12  14
ENDBRANCH  11  12
ENDBRANCH   6  11
BRANCH  10  23
ATOM     23  N   UNL A   1      37.233  22.914  25.158  1.00  0.00    -0.399 N 
ATOM     24  H   UNL A   1      37.950  23.581  25.260  1.00  0.00     0.156 HD
ATOM     25  H   UNL A   1      37.403  21.971  25.379  1.00  0.00     0.156 HD
ENDBRANCH  10  23
ENDBRANCH   3   5
ENDBRANCH   2   3
ENDBRANCH   1   2
BRANCH   1  26
ATOM     26  C   UNL A   1      32.343  28.277  27.031  1.00  0.00     0.202 C 
BRANCH  26  27
ATOM     27  O   UNL A   1      31.443  29.362  26.812  1.00  0.00    -0.374 OA
BRANCH  27  28
ATOM     28  C   UNL A   1      31.871  30.399  25.927  1.00  0.00     0.202 C 
BRANCH  28  29
ATOM     29  C   UNL A   1      31.831  31.835  26.460  1.00  0.00     0.261 C 
BRANCH  29  30
ATOM     30  O   UNL A   1      32.543  31.975  27.701  1.00  0.00    -0.460 OA
BRANCH  30  31
ATOM     31  C   UNL A   1      33.438  32.990  27.742  1.00  0.00     0.338 C 
ATOM     32  O   UNL A   1      33.206  34.185  27.609  1.00  0.00    -0.246 OA
BRANCH  31  33
ATOM     33  C   UNL A   1      34.742  32.469  28.185  1.00  0.00     0.060 A 
ATOM     34  C   UNL A   1      34.805  31.149  28.656  1.00  0.00     0.016 A 
ATOM     35  C   UNL A   1      35.878  33.278  28.175  1.00  0.00     0.016 A 
ATOM     36  C   UNL A   1      36.003  30.643  29.157  1.00  0.00     0.010 A 
ATOM     37  C   UNL A   1      37.073  32.772  28.685  1.00  0.00     0.010 A 
ATOM     38  C   UNL A   1      37.132  31.467  29.208  1.00  0.00    -0.014 A 
BRANCH  38  39
ATOM     39  C   UNL A   1      38.347  31.038  29.937  1.00  0.00     0.031 A 
ATOM     40  C   UNL A   1      39.237  30.006  29.304  1.00  0.00     0.074 A 
ATOM     41  C   UNL A   1      38.610  31.500  31.170  1.00  0.00     0.049 A 
ATOM     42  N   UNL A   1      40.249  29.359  29.816  1.00  0.00    -0.248 NA
ATOM     43  C   UNL A   1      38.926  29.643  27.911  1.00  0.00     0.031 C 
ATOM     44  C   UNL A   1      37.820  32.503  31.881  1.00  0.00     0.029 A 
ATOM     45  N   UNL A   1      39.588  31.139  32.064  1.00  0.00    -0.354 N 
ATOM     46  C   UNL A   1      40.661  28.468  28.832  1.00  0.00     0.074 A 
ATOM     47  C   UNL A   1      39.792  28.664  27.691  1.00  0.00     0.031 C 
ATOM     48  C   UNL A   1      38.310  32.639  33.124  1.00  0.00     0.029 A 
ATOM     49  C   UNL A   1      39.420  31.705  33.305  1.00  0.00     0.049 A 
ATOM     50  H   UNL A   1      40.333  30.538  31.837  1.00  0.00     0.167 HD
ATOM     51  C   UNL A   1      41.671  27.568  28.877  1.00  0.00     0.034 A 
ATOM     52  C   UNL A   1      40.057  31.459  34.468  1.00  0.00     0.034 A 
ATOM     53  C   UNL A   1      42.539  27.395  30.009  1.00  0.00     0.049 A 
ATOM     54  C   UNL A   1      41.172  30.449  34.501  1.00  0.00     0.074 A 
ATOM     55  C   UNL A   1      43.641  26.567  30.128  1.00  0.00     0.029 A 
ATOM     56  N   UNL A   1      42.389  28.042  31.226  1.00  0.00    -0.354 N 
ATOM     57  N   UNL A   1      41.631  29.697  33.530  1.00  0.00    -0.248 NA
ATOM     58  C   UNL A   1      41.877  30.275  35.779  1.00  0.00     0.031 C 
ATOM     59  C   UNL A   1      44.128  26.679  31.434  1.00  0.00     0.029 A 
ATOM     60  C   UNL A   1      43.363  27.615  32.112  1.00  0.00     0.049 A 
ATOM     61  H   UNL A   1      41.692  28.706  31.431  1.00  0.00     0.167 HD
ATOM     62  C   UNL A   1      42.703  28.990  34.068  1.00  0.00     0.074 A 
ATOM     63  C   UNL A   1      42.827  29.409  35.449  1.00  0.00     0.031 C 
ATOM     64  C   UNL A   1      43.508  28.076  33.470  1.00  0.00     0.034 A 
BRANCH  51  65
ATOM     65  C   UNL A   1      41.880  26.693  27.669  1.00  0.00     0.023 A 
ATOM     66  C   UNL A   1      42.524  27.206  26.524  1.00  0.00     0.012 A 
ATOM     67  C   UNL A   1      41.458  25.350  27.679  1.00  0.00     0.148 A 
ATOM     68  C   UNL A   1      42.705  26.408  25.393  1.00  0.00     0.002 A 
ATOM     69  C   UNL A   1      41.686  24.547  26.569  1.00  0.00     0.091 A 
ATOM     70  F   UNL A   1      40.823  24.886  28.766  1.00  0.00    -0.205 F 
ATOM     71  C   UNL A   1      42.294  25.078  25.420  1.00  0.00     0.022 A 
BRANCH  69  72
ATOM     72  S   UNL A   1      41.270  22.800  26.542  1.00  0.00     0.127 S 
ATOM     73  O   UNL A   1      39.836  22.843  26.255  1.00  0.00    -0.237 OA
ATOM     74  O   UNL A   1      42.096  22.303  25.442  1.00  0.00    -0.237 OA
ATOM     75  O   UNL A   1      41.631  22.282  27.853  1.00  0.00    -0.744 OA
ENDBRANCH  69  72
ENDBRANCH  51  65
BRANCH  52  76
ATOM     76  C   UNL A   1      39.647  32.198  35.693  1.00  0.00     0.023 A 
ATOM     77  C   UNL A   1      40.099  33.514  35.898  1.00  0.00     0.012 A 
ATOM     78  C   UNL A   1      38.763  31.619  36.625  1.00  0.00     0.148 A 
ATOM     79  C   UNL A   1      39.692  34.238  37.021  1.00  0.00     0.002 A 
ATOM     80  C   UNL A   1      38.318  32.362  37.710  1.00  0.00     0.091 A 
ATOM     81  F   UNL A   1      38.353  30.361  36.409  1.00  0.00    -0.205 F 
ATOM     82  C   UNL A   1      38.794  33.667  37.919  1.00  0.00     0.022 A 
BRANCH  80  83
ATOM     83  S   UNL A   1      37.067  31.761  38.849  1.00  0.00     0.127 S 
ATOM     84  O   UNL A   1      37.702  32.002  40.144  1.00  0.00    -0.237 OA
ATOM     85  O   UNL A   1      35.940  32.643  38.540  1.00  0.00    -0.237 OA
ATOM     86  O   UNL A   1      36.859  30.363  38.505  1.00  0.00    -0.744 OA
ENDBRANCH  80  83
ENDBRANCH  52  76
BRANCH  64  87
ATOM     87  C   UNL A   1      44.644  27.498  34.274  1.00  0.00     0.023 A 
ATOM     88  C   UNL A   1      45.902  28.130  34.284  1.00  0.00     0.012 A 
ATOM     89  C   UNL A   1      44.423  26.383  35.108  1.00  0.00     0.148 A 
ATOM     90  C   UNL A   1      46.931  27.646  35.092  1.00  0.00     0.002 A 
ATOM     91  C   UNL A   1      45.435  25.939  35.950  1.00  0.00     0.091 A 
ATOM     92  F   UNL A   1      43.223  25.786  35.071  1.00  0.00    -0.205 F 
ATOM     93  C   UNL A   1      46.692  26.561  35.936  1.00  0.00     0.022 A 
BRANCH  91  94
ATOM     94  S   UNL A   1      45.186  24.618  37.143  1.00  0.00     0.127 S 
ATOM     95  O   UNL A   1      43.915  25.004  37.754  1.00  0.00    -0.237 OA
ATOM     96  O   UNL A   1      45.118  23.437  36.284  1.00  0.00    -0.237 OA
ATOM     97  O   UNL A   1      46.339  24.655  38.033  1.00  0.00    -0.744 OA
ENDBRANCH  91  94
ENDBRANCH  64  87
ENDBRANCH  38  39
ENDBRANCH  31  33
ENDBRANCH  30  31
ENDBRANCH  29  30
ENDBRANCH  28  29
ENDBRANCH  27  28
ENDBRANCH  26  27
ENDBRANCH   1  26
TORSDOF 24
ENDMDL
