MODEL 1
REMARK VINA RESULT:     -12.4      0.000      0.000
REMARK SMILES O=C(OCCOCCOC(=O)[C@@]12CN(CC3CC3)C(=O)[C@@H]1CN(c1nc3ccccc3o1)C2)c1ccc(-c2c3nc(c(-c4cccc(S(=O)(=O)[O-])c4F)c4ccc([nH]4)c(-c4cccc(S(=O)(=O)[O-])c4F)c4nc(c(-c5cccc(S(=O)(=O)[O-])c5F)c5ccc2[nH]5)C=C4)C=C3)cc1
REMARK SMILES IDX 5 1 4 2 3 3 2 4 1 5 34 6 35 7 96 8 36 9 95 10 37 11 38 12
REMARK SMILES IDX 39 13 89 14 40 15 94 16 88 17 90 18 41 19 93 20 87 21 86 22
REMARK SMILES IDX 42 24 74 25 54 26 73 27 55 28 58 29 72 30 91 31 56 32 57 33
REMARK SMILES IDX 71 35 92 36 59 37 43 38 44 39 52 40 45 41 47 42 53 43 46 44
REMARK SMILES IDX 48 45 49 46 50 47 51 48 75 49 76 50 84 51 77 52 79 53 85 54
REMARK SMILES IDX 78 55 80 56 81 57 82 58 83 59 60 60 61 61 69 62 62 63 64 64
REMARK SMILES IDX 70 65 63 66 65 67 66 68 67 69 68 70 6 71 7 72 8 73 9 74
REMARK SMILES IDX 10 75 11 76 12 77 13 78 21 79 33 80 14 81 19 82 22 83 23 84
REMARK SMILES IDX 20 85 15 86 16 87 17 88 18 89 24 90 25 91 32 92 26 93 31 94
REMARK SMILES IDX 27 95 30 96 28 97 29 98
REMARK H PARENT 90 23 58 34
REMARK Flexibility Score: inf
ROOT
ATOM      1  C   UNL A   1      31.667  31.501  26.473  1.00  0.00     0.202 C 
ENDROOT
BRANCH   1   2
ATOM      2  C   UNL A   1      31.529  32.976  26.850  1.00  0.00     0.261 C 
BRANCH   2   3
ATOM      3  O   UNL A   1      32.777  33.656  26.978  1.00  0.00    -0.460 OA
BRANCH   3   4
ATOM      4  C   UNL A   1      33.314  34.007  28.175  1.00  0.00     0.338 C 
ATOM      5  O   UNL A   1      32.821  34.923  28.822  1.00  0.00    -0.246 OA
BRANCH   4   6
ATOM      6  C   UNL A   1      34.531  33.311  28.680  1.00  0.00     0.060 A 
ATOM      7  C   UNL A   1      34.477  32.065  29.301  1.00  0.00     0.016 A 
ATOM      8  C   UNL A   1      35.784  33.890  28.477  1.00  0.00     0.016 A 
ATOM      9  C   UNL A   1      35.579  31.451  29.834  1.00  0.00     0.010 A 
ATOM     10  C   UNL A   1      36.933  33.228  28.923  1.00  0.00     0.010 A 
ATOM     11  C   UNL A   1      36.820  32.019  29.623  1.00  0.00    -0.014 A 
BRANCH  11  12
ATOM     12  C   UNL A   1      37.945  31.343  30.273  1.00  0.00     0.031 A 
ATOM     13  C   UNL A   1      38.118  31.540  31.741  1.00  0.00     0.074 A 
ATOM     14  C   UNL A   1      38.661  30.445  29.572  1.00  0.00     0.049 A 
ATOM     15  N   UNL A   1      39.039  31.069  32.528  1.00  0.00    -0.248 NA
ATOM     16  C   UNL A   1      37.105  32.371  32.419  1.00  0.00     0.031 C 
ATOM     17  C   UNL A   1      38.431  30.091  28.164  1.00  0.00     0.029 A 
ATOM     18  N   UNL A   1      39.697  29.641  29.950  1.00  0.00    -0.354 N 
ATOM     19  C   UNL A   1      38.773  31.616  33.774  1.00  0.00     0.074 A 
ATOM     20  C   UNL A   1      37.582  32.424  33.652  1.00  0.00     0.031 C 
ATOM     21  C   UNL A   1      39.296  29.130  27.806  1.00  0.00     0.029 A 
ATOM     22  C   UNL A   1      40.187  28.865  28.925  1.00  0.00     0.049 A 
ATOM     23  H   UNL A   1      40.058  29.619  30.866  1.00  0.00     0.167 HD
ATOM     24  C   UNL A   1      39.485  31.465  34.912  1.00  0.00     0.034 A 
ATOM     25  C   UNL A   1      41.268  28.066  28.900  1.00  0.00     0.034 A 
ATOM     26  C   UNL A   1      40.654  30.636  34.988  1.00  0.00     0.049 A 
ATOM     27  C   UNL A   1      42.073  27.960  30.165  1.00  0.00     0.074 A 
ATOM     28  C   UNL A   1      41.493  30.420  36.062  1.00  0.00     0.029 A 
ATOM     29  N   UNL A   1      41.151  29.888  33.927  1.00  0.00    -0.354 N 
ATOM     30  N   UNL A   1      41.835  28.498  31.339  1.00  0.00    -0.248 NA
ATOM     31  C   UNL A   1      43.284  27.135  30.112  1.00  0.00     0.031 C 
ATOM     32  C   UNL A   1      42.519  29.569  35.639  1.00  0.00     0.029 A 
ATOM     33  C   UNL A   1      42.292  29.215  34.316  1.00  0.00     0.049 A 
ATOM     34  H   UNL A   1      40.749  29.845  33.029  1.00  0.00     0.167 HD
ATOM     35  C   UNL A   1      42.843  28.046  32.178  1.00  0.00     0.074 A 
ATOM     36  C   UNL A   1      43.686  27.179  31.375  1.00  0.00     0.031 C 
ATOM     37  C   UNL A   1      43.064  28.323  33.487  1.00  0.00     0.034 A 
BRANCH  24  38
ATOM     38  C   UNL A   1      39.053  32.276  36.100  1.00  0.00     0.023 A 
ATOM     39  C   UNL A   1      39.563  33.572  36.315  1.00  0.00     0.012 A 
ATOM     40  C   UNL A   1      38.164  31.718  37.039  1.00  0.00     0.148 A 
ATOM     41  C   UNL A   1      39.234  34.280  37.472  1.00  0.00     0.002 A 
ATOM     42  C   UNL A   1      37.802  32.449  38.163  1.00  0.00     0.091 A 
ATOM     43  F   UNL A   1      37.721  30.470  36.836  1.00  0.00    -0.205 F 
ATOM     44  C   UNL A   1      38.349  33.722  38.390  1.00  0.00     0.022 A 
BRANCH  42  45
ATOM     45  S   UNL A   1      36.620  31.838  39.369  1.00  0.00     0.127 S 
ATOM     46  O   UNL A   1      35.499  32.755  39.173  1.00  0.00    -0.237 OA
ATOM     47  O   UNL A   1      36.384  30.473  38.899  1.00  0.00    -0.237 OA
ATOM     48  O   UNL A   1      37.283  31.930  40.662  1.00  0.00    -0.744 OA
ENDBRANCH  42  45
ENDBRANCH  24  38
BRANCH  25  49
ATOM     49  C   UNL A   1      41.642  27.330  27.659  1.00  0.00     0.023 A 
ATOM     50  C   UNL A   1      42.118  28.045  26.543  1.00  0.00     0.012 A 
ATOM     51  C   UNL A   1      41.551  25.925  27.584  1.00  0.00     0.148 A 
ATOM     52  C   UNL A   1      42.465  27.377  25.367  1.00  0.00     0.002 A 
ATOM     53  C   UNL A   1      41.950  25.263  26.430  1.00  0.00     0.091 A 
ATOM     54  F   UNL A   1      41.086  25.261  28.651  1.00  0.00    -0.205 F 
ATOM     55  C   UNL A   1      42.392  25.988  25.312  1.00  0.00     0.022 A 
BRANCH  53  56
ATOM     56  S   UNL A   1      42.005  23.470  26.315  1.00  0.00     0.127 S 
ATOM     57  O   UNL A   1      40.584  23.132  26.269  1.00  0.00    -0.237 OA
ATOM     58  O   UNL A   1      42.728  23.271  25.058  1.00  0.00    -0.237 OA
ATOM     59  O   UNL A   1      42.724  23.021  27.499  1.00  0.00    -0.744 OA
ENDBRANCH  53  56
ENDBRANCH  25  49
BRANCH  37  60
ATOM     60  C   UNL A   1      44.221  27.626  34.144  1.00  0.00     0.023 A 
ATOM     61  C   UNL A   1      45.484  28.246  34.203  1.00  0.00     0.012 A 
ATOM     62  C   UNL A   1      44.021  26.384  34.775  1.00  0.00     0.148 A 
ATOM     63  C   UNL A   1      46.543  27.621  34.856  1.00  0.00     0.002 A 
ATOM     64  C   UNL A   1      45.064  25.795  35.475  1.00  0.00     0.091 A 
ATOM     65  F   UNL A   1      42.816  25.805  34.681  1.00  0.00    -0.205 F 
ATOM     66  C   UNL A   1      46.329  26.404  35.504  1.00  0.00     0.022 A 
BRANCH  64  67
ATOM     67  S   UNL A   1      44.839  24.295  36.431  1.00  0.00     0.127 S 
ATOM     68  O   UNL A   1      43.873  23.563  35.615  1.00  0.00    -0.237 OA
ATOM     69  O   UNL A   1      46.188  23.727  36.437  1.00  0.00    -0.237 OA
ATOM     70  O   UNL A   1      44.361  24.721  37.738  1.00  0.00    -0.744 OA
ENDBRANCH  64  67
ENDBRANCH  37  60
ENDBRANCH  11  12
ENDBRANCH   4   6
ENDBRANCH   3   4
ENDBRANCH   2   3
ENDBRANCH   1   2
BRANCH   1  71
ATOM     71  O   UNL A   1      32.495  30.542  27.170  1.00  0.00    -0.374 OA
BRANCH  71  72
ATOM     72  C   UNL A   1      33.634  29.879  26.615  1.00  0.00     0.202 C 
BRANCH  72  73
ATOM     73  C   UNL A   1      33.954  28.618  27.451  1.00  0.00     0.261 C 
BRANCH  73  74
ATOM     74  O   UNL A   1      33.501  27.390  26.828  1.00  0.00    -0.463 OA
BRANCH  74  75
ATOM     75  C   UNL A   1      32.170  27.209  26.575  1.00  0.00     0.316 C 
ATOM     76  O   UNL A   1      31.323  27.323  27.451  1.00  0.00    -0.251 OA
BRANCH  75  77
ATOM     77  C   UNL A   1      31.861  26.793  25.140  1.00  0.00     0.116 C 
ATOM     78  C   UNL A   1      32.890  25.702  24.811  1.00  0.00     0.141 C 
ATOM     79  C   UNL A   1      30.559  26.009  24.820  1.00  0.00     0.119 C 
ATOM     80  C   UNL A   1      31.624  28.138  24.398  1.00  0.00     0.142 C 
ATOM     81  N   UNL A   1      32.344  24.819  23.853  1.00  0.00    -0.341 N 
ATOM     82  C   UNL A   1      30.975  24.905  23.846  1.00  0.00     0.228 C 
ATOM     83  C   UNL A   1      29.620  26.938  24.061  1.00  0.00     0.136 C 
ATOM     84  N   UNL A   1      30.499  27.946  23.496  1.00  0.00    -0.324 N 
ATOM     85  O   UNL A   1      30.215  24.190  23.208  1.00  0.00    -0.274 OA
BRANCH  81  86
ATOM     86  C   UNL A   1      33.189  23.830  23.202  1.00  0.00     0.123 C 
BRANCH  86  87
ATOM     87  C   UNL A   1      34.409  23.456  23.995  1.00  0.00     0.008 C 
ATOM     88  C   UNL A   1      35.057  22.087  24.020  1.00  0.00     0.006 C 
ATOM     89  C   UNL A   1      35.683  23.195  23.227  1.00  0.00     0.006 C 
ENDBRANCH  86  87
ENDBRANCH  81  86
BRANCH  84  90
ATOM     90  C   UNL A   1      29.941  29.039  22.924  1.00  0.00     0.298 A 
ATOM     91  N   UNL A   1      29.522  29.169  21.684  1.00  0.00    -0.193 NA
ATOM     92  O   UNL A   1      29.747  30.147  23.713  1.00  0.00    -0.423 OA
ATOM     93  C   UNL A   1      28.967  30.420  21.651  1.00  0.00     0.111 A 
ATOM     94  C   UNL A   1      29.139  31.045  22.874  1.00  0.00     0.156 A 
ATOM     95  C   UNL A   1      28.295  31.094  20.623  1.00  0.00     0.032 A 
ATOM     96  C   UNL A   1      28.731  32.348  23.150  1.00  0.00     0.049 A 
ATOM     97  C   UNL A   1      27.848  32.400  20.868  1.00  0.00     0.003 A 
ATOM     98  C   UNL A   1      28.076  33.018  22.104  1.00  0.00     0.004 A 
ENDBRANCH  84  90
ENDBRANCH  75  77
ENDBRANCH  74  75
ENDBRANCH  73  74
ENDBRANCH  72  73
ENDBRANCH  71  72
ENDBRANCH   1  71
TORSDOF 20
ENDMDL
MODEL 2
REMARK VINA RESULT:     -12.1      1.529      1.796
REMARK SMILES O=C(OCCOCCOC(=O)[C@@]12CN(CC3CC3)C(=O)[C@@H]1CN(c1nc3ccccc3o1)C2)c1ccc(-c2c3nc(c(-c4cccc(S(=O)(=O)[O-])c4F)c4ccc([nH]4)c(-c4cccc(S(=O)(=O)[O-])c4F)c4nc(c(-c5cccc(S(=O)(=O)[O-])c5F)c5ccc2[nH]5)C=C4)C=C3)cc1
REMARK SMILES IDX 5 1 4 2 3 3 2 4 1 5 34 6 35 7 96 8 36 9 95 10 37 11 38 12
REMARK SMILES IDX 39 13 89 14 40 15 94 16 88 17 90 18 41 19 93 20 87 21 86 22
REMARK SMILES IDX 42 24 74 25 54 26 73 27 55 28 58 29 72 30 91 31 56 32 57 33
REMARK SMILES IDX 71 35 92 36 59 37 43 38 44 39 52 40 45 41 47 42 53 43 46 44
REMARK SMILES IDX 48 45 49 46 50 47 51 48 75 49 76 50 84 51 77 52 79 53 85 54
REMARK SMILES IDX 78 55 80 56 81 57 82 58 83 59 60 60 61 61 69 62 62 63 64 64
REMARK SMILES IDX 70 65 63 66 65 67 66 68 67 69 68 70 6 71 7 72 8 73 9 74
REMARK SMILES IDX 10 75 11 76 12 77 13 78 21 79 33 80 14 81 19 82 22 83 23 84
REMARK SMILES IDX 20 85 15 86 16 87 17 88 18 89 24 90 25 91 32 92 26 93 31 94
REMARK SMILES IDX 27 95 30 96 28 97 29 98
REMARK H PARENT 90 23 58 34
REMARK Flexibility Score: inf
ROOT
ATOM      1  C   UNL A   1      31.563  31.216  26.885  1.00  0.00     0.202 C 
ENDROOT
BRANCH   1   2
ATOM      2  C   UNL A   1      31.590  32.725  26.637  1.00  0.00     0.261 C 
BRANCH   2   3
ATOM      3  O   UNL A   1      32.884  33.308  26.782  1.00  0.00    -0.460 OA
BRANCH   3   4
ATOM      4  C   UNL A   1      33.403  33.681  27.980  1.00  0.00     0.338 C 
ATOM      5  O   UNL A   1      32.883  34.592  28.615  1.00  0.00    -0.246 OA
BRANCH   4   6
ATOM      6  C   UNL A   1      34.629  33.016  28.502  1.00  0.00     0.060 A 
ATOM      7  C   UNL A   1      34.611  31.731  29.042  1.00  0.00     0.016 A 
ATOM      8  C   UNL A   1      35.858  33.668  28.399  1.00  0.00     0.016 A 
ATOM      9  C   UNL A   1      35.718  31.139  29.592  1.00  0.00     0.010 A 
ATOM     10  C   UNL A   1      37.018  33.037  28.861  1.00  0.00     0.010 A 
ATOM     11  C   UNL A   1      36.936  31.781  29.479  1.00  0.00    -0.014 A 
BRANCH  11  12
ATOM     12  C   UNL A   1      38.063  31.122  30.142  1.00  0.00     0.031 A 
ATOM     13  C   UNL A   1      38.275  31.402  31.591  1.00  0.00     0.074 A 
ATOM     14  C   UNL A   1      38.744  30.169  29.480  1.00  0.00     0.049 A 
ATOM     15  N   UNL A   1      39.206  30.960  32.384  1.00  0.00    -0.248 NA
ATOM     16  C   UNL A   1      37.295  32.293  32.242  1.00  0.00     0.031 C 
ATOM     17  C   UNL A   1      38.474  29.737  28.102  1.00  0.00     0.029 A 
ATOM     18  N   UNL A   1      39.773  29.367  29.881  1.00  0.00    -0.354 N 
ATOM     19  C   UNL A   1      38.981  31.585  33.601  1.00  0.00     0.074 A 
ATOM     20  C   UNL A   1      37.803  32.409  33.458  1.00  0.00     0.031 C 
ATOM     21  C   UNL A   1      39.311  28.738  27.782  1.00  0.00     0.029 A 
ATOM     22  C   UNL A   1      40.223  28.522  28.894  1.00  0.00     0.049 A 
ATOM     23  H   UNL A   1      40.156  29.392  30.788  1.00  0.00     0.167 HD
ATOM     24  C   UNL A   1      39.717  31.487  34.728  1.00  0.00     0.034 A 
ATOM     25  C   UNL A   1      41.288  27.700  28.892  1.00  0.00     0.034 A 
ATOM     26  C   UNL A   1      40.871  30.640  34.827  1.00  0.00     0.049 A 
ATOM     27  C   UNL A   1      42.121  27.653  30.142  1.00  0.00     0.074 A 
ATOM     28  C   UNL A   1      41.731  30.471  35.893  1.00  0.00     0.029 A 
ATOM     29  N   UNL A   1      41.328  29.820  33.802  1.00  0.00    -0.354 N 
ATOM     30  N   UNL A   1      41.921  28.264  31.286  1.00  0.00    -0.248 NA
ATOM     31  C   UNL A   1      43.314  26.802  30.110  1.00  0.00     0.031 C 
ATOM     32  C   UNL A   1      42.730  29.575  35.498  1.00  0.00     0.029 A 
ATOM     33  C   UNL A   1      42.465  29.148  34.204  1.00  0.00     0.049 A 
ATOM     34  H   UNL A   1      40.903  29.732  32.918  1.00  0.00     0.167 HD
ATOM     35  C   UNL A   1      42.941  27.842  32.128  1.00  0.00     0.074 A 
ATOM     36  C   UNL A   1      43.747  26.912  31.359  1.00  0.00     0.031 C 
ATOM     37  C   UNL A   1      43.199  28.192  33.412  1.00  0.00     0.034 A 
BRANCH  24  38
ATOM     38  C   UNL A   1      39.329  32.376  35.875  1.00  0.00     0.023 A 
ATOM     39  C   UNL A   1      38.412  31.938  36.851  1.00  0.00     0.012 A 
ATOM     40  C   UNL A   1      39.849  33.684  35.951  1.00  0.00     0.148 A 
ATOM     41  C   UNL A   1      37.980  32.804  37.857  1.00  0.00     0.002 A 
ATOM     42  C   UNL A   1      39.452  34.523  36.984  1.00  0.00     0.091 A 
ATOM     43  F   UNL A   1      40.689  34.094  34.991  1.00  0.00    -0.205 F 
ATOM     44  C   UNL A   1      38.506  34.092  37.927  1.00  0.00     0.022 A 
BRANCH  42  45
ATOM     45  S   UNL A   1      40.121  36.176  37.192  1.00  0.00     0.127 S 
ATOM     46  O   UNL A   1      41.529  35.891  37.466  1.00  0.00    -0.237 OA
ATOM     47  O   UNL A   1      39.861  36.776  35.884  1.00  0.00    -0.237 OA
ATOM     48  O   UNL A   1      39.380  36.773  38.294  1.00  0.00    -0.744 OA
ENDBRANCH  42  45
ENDBRANCH  24  38
BRANCH  25  49
ATOM     49  C   UNL A   1      41.617  26.885  27.688  1.00  0.00     0.023 A 
ATOM     50  C   UNL A   1      42.196  27.504  26.564  1.00  0.00     0.012 A 
ATOM     51  C   UNL A   1      41.382  25.495  27.659  1.00  0.00     0.148 A 
ATOM     52  C   UNL A   1      42.504  26.762  25.423  1.00  0.00     0.002 A 
ATOM     53  C   UNL A   1      41.742  24.752  26.540  1.00  0.00     0.091 A 
ATOM     54  F   UNL A   1      40.820  24.922  28.732  1.00  0.00    -0.205 F 
ATOM     55  C   UNL A   1      42.287  25.386  25.413  1.00  0.00     0.022 A 
BRANCH  53  56
ATOM     56  S   UNL A   1      41.612  22.961  26.488  1.00  0.00     0.127 S 
ATOM     57  O   UNL A   1      42.286  22.578  27.727  1.00  0.00    -0.237 OA
ATOM     58  O   UNL A   1      40.163  22.764  26.487  1.00  0.00    -0.237 OA
ATOM     59  O   UNL A   1      42.275  22.553  25.257  1.00  0.00    -0.744 OA
ENDBRANCH  53  56
ENDBRANCH  25  49
BRANCH  37  60
ATOM     60  C   UNL A   1      44.358  27.511  34.083  1.00  0.00     0.023 A 
ATOM     61  C   UNL A   1      45.649  28.067  34.007  1.00  0.00     0.012 A 
ATOM     62  C   UNL A   1      44.137  26.359  34.859  1.00  0.00     0.148 A 
ATOM     63  C   UNL A   1      46.714  27.462  34.671  1.00  0.00     0.002 A 
ATOM     64  C   UNL A   1      45.189  25.797  35.566  1.00  0.00     0.091 A 
ATOM     65  F   UNL A   1      42.902  25.837  34.894  1.00  0.00    -0.205 F 
ATOM     66  C   UNL A   1      46.481  26.337  35.461  1.00  0.00     0.022 A 
BRANCH  64  67
ATOM     67  S   UNL A   1      44.950  24.424  36.695  1.00  0.00     0.127 S 
ATOM     68  O   UNL A   1      44.449  23.384  35.799  1.00  0.00    -0.237 OA
ATOM     69  O   UNL A   1      46.305  24.197  37.198  1.00  0.00    -0.237 OA
ATOM     70  O   UNL A   1      44.007  24.893  37.701  1.00  0.00    -0.744 OA
ENDBRANCH  64  67
ENDBRANCH  37  60
ENDBRANCH  11  12
ENDBRANCH   4   6
ENDBRANCH   3   4
ENDBRANCH   2   3
ENDBRANCH   1   2
BRANCH   1  71
ATOM     71  O   UNL A   1      32.390  30.249  26.197  1.00  0.00    -0.374 OA
BRANCH  71  72
ATOM     72  C   UNL A   1      33.740  29.927  26.538  1.00  0.00     0.202 C 
BRANCH  72  73
ATOM     73  C   UNL A   1      33.786  28.531  27.202  1.00  0.00     0.261 C 
BRANCH  73  74
ATOM     74  O   UNL A   1      32.963  27.549  26.521  1.00  0.00    -0.463 OA
BRANCH  74  75
ATOM     75  C   UNL A   1      33.542  26.662  25.658  1.00  0.00     0.316 C 
ATOM     76  O   UNL A   1      34.693  26.273  25.804  1.00  0.00    -0.251 OA
BRANCH  75  77
ATOM     77  C   UNL A   1      32.651  26.265  24.484  1.00  0.00     0.116 C 
ATOM     78  C   UNL A   1      33.327  25.031  23.871  1.00  0.00     0.141 C 
ATOM     79  C   UNL A   1      31.240  25.670  24.745  1.00  0.00     0.119 C 
ATOM     80  C   UNL A   1      32.315  27.615  23.791  1.00  0.00     0.142 C 
ATOM     81  N   UNL A   1      32.346  24.216  23.263  1.00  0.00    -0.341 N 
ATOM     82  C   UNL A   1      31.104  24.499  23.771  1.00  0.00     0.228 C 
ATOM     83  C   UNL A   1      30.204  26.709  24.334  1.00  0.00     0.136 C 
ATOM     84  N   UNL A   1      30.913  27.568  23.402  1.00  0.00    -0.324 N 
ATOM     85  O   UNL A   1      30.074  23.887  23.526  1.00  0.00    -0.274 OA
BRANCH  81  86
ATOM     86  C   UNL A   1      32.742  23.103  22.414  1.00  0.00     0.123 C 
BRANCH  86  87
ATOM     87  C   UNL A   1      32.791  21.781  23.128  1.00  0.00     0.008 C 
ATOM     88  C   UNL A   1      33.905  21.314  24.041  1.00  0.00     0.006 C 
ATOM     89  C   UNL A   1      32.611  21.794  24.627  1.00  0.00     0.006 C 
ENDBRANCH  86  87
ENDBRANCH  81  86
BRANCH  84  90
ATOM     90  C   UNL A   1      30.318  28.718  23.006  1.00  0.00     0.298 A 
ATOM     91  N   UNL A   1      30.005  29.077  21.780  1.00  0.00    -0.193 NA
ATOM     92  O   UNL A   1      29.959  29.622  23.977  1.00  0.00    -0.423 OA
ATOM     93  C   UNL A   1      29.350  30.268  21.941  1.00  0.00     0.111 A 
ATOM     94  C   UNL A   1      29.356  30.634  23.277  1.00  0.00     0.156 A 
ATOM     95  C   UNL A   1      28.720  31.098  21.005  1.00  0.00     0.032 A 
ATOM     96  C   UNL A   1      28.815  31.821  23.764  1.00  0.00     0.049 A 
ATOM     97  C   UNL A   1      28.142  32.292  21.459  1.00  0.00     0.003 A 
ATOM     98  C   UNL A   1      28.203  32.652  22.811  1.00  0.00     0.004 A 
ENDBRANCH  84  90
ENDBRANCH  75  77
ENDBRANCH  74  75
ENDBRANCH  73  74
ENDBRANCH  72  73
ENDBRANCH  71  72
ENDBRANCH   1  71
TORSDOF 20
ENDMDL
MODEL 3
REMARK VINA RESULT:     -12.0      1.266      4.201
REMARK SMILES O=C(OCCOCCOC(=O)[C@@]12CN(CC3CC3)C(=O)[C@@H]1CN(c1nc3ccccc3o1)C2)c1ccc(-c2c3nc(c(-c4cccc(S(=O)(=O)[O-])c4F)c4ccc([nH]4)c(-c4cccc(S(=O)(=O)[O-])c4F)c4nc(c(-c5cccc(S(=O)(=O)[O-])c5F)c5ccc2[nH]5)C=C4)C=C3)cc1
REMARK SMILES IDX 5 1 4 2 3 3 2 4 1 5 34 6 35 7 96 8 36 9 95 10 37 11 38 12
REMARK SMILES IDX 39 13 89 14 40 15 94 16 88 17 90 18 41 19 93 20 87 21 86 22
REMARK SMILES IDX 42 24 74 25 54 26 73 27 55 28 58 29 72 30 91 31 56 32 57 33
REMARK SMILES IDX 71 35 92 36 59 37 43 38 44 39 52 40 45 41 47 42 53 43 46 44
REMARK SMILES IDX 48 45 49 46 50 47 51 48 75 49 76 50 84 51 77 52 79 53 85 54
REMARK SMILES IDX 78 55 80 56 81 57 82 58 83 59 60 60 61 61 69 62 62 63 64 64
REMARK SMILES IDX 70 65 63 66 65 67 66 68 67 69 68 70 6 71 7 72 8 73 9 74
REMARK SMILES IDX 10 75 11 76 12 77 13 78 21 79 33 80 14 81 19 82 22 83 23 84
REMARK SMILES IDX 20 85 15 86 16 87 17 88 18 89 24 90 25 91 32 92 26 93 31 94
REMARK SMILES IDX 27 95 30 96 28 97 29 98
REMARK H PARENT 90 23 58 34
REMARK Flexibility Score: inf
ROOT
ATOM      1  C   UNL A   1      31.492  31.067  26.576  1.00  0.00     0.202 C 
ENDROOT
BRANCH   1   2
ATOM      2  C   UNL A   1      31.416  32.586  26.737  1.00  0.00     0.261 C 
BRANCH   2   3
ATOM      3  O   UNL A   1      32.691  33.223  26.784  1.00  0.00    -0.460 OA
BRANCH   3   4
ATOM      4  C   UNL A   1      33.259  33.668  27.935  1.00  0.00     0.338 C 
ATOM      5  O   UNL A   1      32.776  34.629  28.523  1.00  0.00    -0.246 OA
BRANCH   4   6
ATOM      6  C   UNL A   1      34.494  33.020  28.458  1.00  0.00     0.060 A 
ATOM      7  C   UNL A   1      34.485  31.754  29.041  1.00  0.00     0.016 A 
ATOM      8  C   UNL A   1      35.721  33.668  28.312  1.00  0.00     0.016 A 
ATOM      9  C   UNL A   1      35.601  31.181  29.591  1.00  0.00     0.010 A 
ATOM     10  C   UNL A   1      36.888  33.052  28.775  1.00  0.00     0.010 A 
ATOM     11  C   UNL A   1      36.817  31.818  29.436  1.00  0.00    -0.014 A 
BRANCH  11  12
ATOM     12  C   UNL A   1      37.955  31.180  30.102  1.00  0.00     0.031 A 
ATOM     13  C   UNL A   1      38.116  31.406  31.566  1.00  0.00     0.074 A 
ATOM     14  C   UNL A   1      38.695  30.288  29.418  1.00  0.00     0.049 A 
ATOM     15  N   UNL A   1      39.046  30.970  32.365  1.00  0.00    -0.248 NA
ATOM     16  C   UNL A   1      37.081  32.223  32.227  1.00  0.00     0.031 C 
ATOM     17  C   UNL A   1      38.480  29.905  28.016  1.00  0.00     0.029 A 
ATOM     18  N   UNL A   1      39.749  29.515  29.813  1.00  0.00    -0.354 N 
ATOM     19  C   UNL A   1      38.761  31.531  33.601  1.00  0.00     0.074 A 
ATOM     20  C   UNL A   1      37.552  32.308  33.460  1.00  0.00     0.031 C 
ATOM     21  C   UNL A   1      39.369  28.959  27.677  1.00  0.00     0.029 A 
ATOM     22  C   UNL A   1      40.261  28.735  28.804  1.00  0.00     0.049 A 
ATOM     23  H   UNL A   1      40.106  29.517  30.731  1.00  0.00     0.167 HD
ATOM     24  C   UNL A   1      39.472  31.417  34.743  1.00  0.00     0.034 A 
ATOM     25  C   UNL A   1      41.362  27.961  28.797  1.00  0.00     0.034 A 
ATOM     26  C   UNL A   1      40.660  30.618  34.837  1.00  0.00     0.049 A 
ATOM     27  C   UNL A   1      42.164  27.896  30.066  1.00  0.00     0.074 A 
ATOM     28  C   UNL A   1      41.499  30.440  35.919  1.00  0.00     0.029 A 
ATOM     29  N   UNL A   1      41.180  29.864  33.792  1.00  0.00    -0.354 N 
ATOM     30  N   UNL A   1      41.907  28.447  31.230  1.00  0.00    -0.248 NA
ATOM     31  C   UNL A   1      43.394  27.100  30.031  1.00  0.00     0.031 C 
ATOM     32  C   UNL A   1      42.547  29.607  35.514  1.00  0.00     0.029 A 
ATOM     33  C   UNL A   1      42.335  29.225  34.196  1.00  0.00     0.049 A 
ATOM     34  H   UNL A   1      40.782  29.796  32.893  1.00  0.00     0.167 HD
ATOM     35  C   UNL A   1      42.923  28.034  32.081  1.00  0.00     0.074 A 
ATOM     36  C   UNL A   1      43.789  27.174  31.295  1.00  0.00     0.031 C 
ATOM     37  C   UNL A   1      43.132  28.339  33.385  1.00  0.00     0.034 A 
BRANCH  24  38
ATOM     38  C   UNL A   1      39.015  32.237  35.916  1.00  0.00     0.023 A 
ATOM     39  C   UNL A   1      39.373  33.595  36.031  1.00  0.00     0.012 A 
ATOM     40  C   UNL A   1      38.261  31.631  36.940  1.00  0.00     0.148 A 
ATOM     41  C   UNL A   1      39.029  34.324  37.171  1.00  0.00     0.002 A 
ATOM     42  C   UNL A   1      37.881  32.376  38.048  1.00  0.00     0.091 A 
ATOM     43  F   UNL A   1      37.966  30.328  36.830  1.00  0.00    -0.205 F 
ATOM     44  C   UNL A   1      38.278  33.717  38.173  1.00  0.00     0.022 A 
BRANCH  42  45
ATOM     45  S   UNL A   1      36.860  31.698  39.360  1.00  0.00     0.127 S 
ATOM     46  O   UNL A   1      35.948  32.809  39.627  1.00  0.00    -0.237 OA
ATOM     47  O   UNL A   1      36.245  30.546  38.702  1.00  0.00    -0.237 OA
ATOM     48  O   UNL A   1      37.771  31.364  40.445  1.00  0.00    -0.744 OA
ENDBRANCH  42  45
ENDBRANCH  24  38
BRANCH  25  49
ATOM     49  C   UNL A   1      41.758  27.214  27.569  1.00  0.00     0.023 A 
ATOM     50  C   UNL A   1      42.254  27.918  26.455  1.00  0.00     0.012 A 
ATOM     51  C   UNL A   1      41.670  25.809  27.507  1.00  0.00     0.148 A 
ATOM     52  C   UNL A   1      42.622  27.240  25.292  1.00  0.00     0.002 A 
ATOM     53  C   UNL A   1      42.090  25.135  26.366  1.00  0.00     0.091 A 
ATOM     54  F   UNL A   1      41.186  25.154  28.571  1.00  0.00    -0.205 F 
ATOM     55  C   UNL A   1      42.551  25.850  25.250  1.00  0.00     0.022 A 
BRANCH  53  56
ATOM     56  S   UNL A   1      42.148  23.342  26.269  1.00  0.00     0.127 S 
ATOM     57  O   UNL A   1      40.729  23.002  26.192  1.00  0.00    -0.237 OA
ATOM     58  O   UNL A   1      42.902  23.131  25.033  1.00  0.00    -0.237 OA
ATOM     59  O   UNL A   1      42.838  22.904  27.475  1.00  0.00    -0.744 OA
ENDBRANCH  53  56
ENDBRANCH  25  49
BRANCH  37  60
ATOM     60  C   UNL A   1      44.302  27.681  34.058  1.00  0.00     0.023 A 
ATOM     61  C   UNL A   1      45.573  28.286  34.026  1.00  0.00     0.012 A 
ATOM     62  C   UNL A   1      44.110  26.497  34.794  1.00  0.00     0.148 A 
ATOM     63  C   UNL A   1      46.647  27.701  34.692  1.00  0.00     0.002 A 
ATOM     64  C   UNL A   1      45.169  25.952  35.505  1.00  0.00     0.091 A 
ATOM     65  F   UNL A   1      42.895  25.929  34.787  1.00  0.00    -0.205 F 
ATOM     66  C   UNL A   1      46.441  26.543  35.443  1.00  0.00     0.022 A 
BRANCH  64  67
ATOM     67  S   UNL A   1      44.960  24.537  36.586  1.00  0.00     0.127 S 
ATOM     68  O   UNL A   1      45.064  23.424  35.645  1.00  0.00    -0.237 OA
ATOM     69  O   UNL A   1      46.096  24.673  37.498  1.00  0.00    -0.237 OA
ATOM     70  O   UNL A   1      43.659  24.705  37.218  1.00  0.00    -0.744 OA
ENDBRANCH  64  67
ENDBRANCH  37  60
ENDBRANCH  11  12
ENDBRANCH   4   6
ENDBRANCH   3   4
ENDBRANCH   2   3
ENDBRANCH   1   2
BRANCH   1  71
ATOM     71  O   UNL A   1      32.469  30.367  25.772  1.00  0.00    -0.374 OA
BRANCH  71  72
ATOM     72  C   UNL A   1      33.686  29.800  26.262  1.00  0.00     0.202 C 
BRANCH  72  73
ATOM     73  C   UNL A   1      33.363  28.597  27.178  1.00  0.00     0.261 C 
BRANCH  73  74
ATOM     74  O   UNL A   1      32.460  27.641  26.566  1.00  0.00    -0.463 OA
BRANCH  74  75
ATOM     75  C   UNL A   1      32.967  26.569  25.888  1.00  0.00     0.316 C 
ATOM     76  O   UNL A   1      34.084  26.124  26.119  1.00  0.00    -0.251 OA
BRANCH  75  77
ATOM     77  C   UNL A   1      32.048  26.035  24.792  1.00  0.00     0.116 C 
ATOM     78  C   UNL A   1      30.874  27.023  24.742  1.00  0.00     0.141 C 
ATOM     79  C   UNL A   1      32.492  26.103  23.305  1.00  0.00     0.119 C 
ATOM     80  C   UNL A   1      31.998  24.504  25.051  1.00  0.00     0.142 C 
ATOM     81  N   UNL A   1      30.341  27.047  23.434  1.00  0.00    -0.341 N 
ATOM     82  C   UNL A   1      31.259  26.573  22.532  1.00  0.00     0.228 C 
ATOM     83  C   UNL A   1      32.793  24.685  22.836  1.00  0.00     0.136 C 
ATOM     84  N   UNL A   1      32.052  23.841  23.757  1.00  0.00    -0.324 N 
ATOM     85  O   UNL A   1      31.134  26.574  21.315  1.00  0.00    -0.274 OA
BRANCH  81  86
ATOM     86  C   UNL A   1      29.082  27.727  23.168  1.00  0.00     0.123 C 
BRANCH  86  87
ATOM     87  C   UNL A   1      29.234  29.190  22.860  1.00  0.00     0.008 C 
ATOM     88  C   UNL A   1      28.522  29.935  21.751  1.00  0.00     0.006 C 
ATOM     89  C   UNL A   1      28.063  30.090  23.170  1.00  0.00     0.006 C 
ENDBRANCH  86  87
ENDBRANCH  81  86
BRANCH  84  90
ATOM     90  C   UNL A   1      32.274  22.506  23.728  1.00  0.00     0.298 A 
ATOM     91  N   UNL A   1      31.722  21.618  22.929  1.00  0.00    -0.193 NA
ATOM     92  O   UNL A   1      33.203  21.991  24.600  1.00  0.00    -0.423 OA
ATOM     93  C   UNL A   1      32.354  20.447  23.248  1.00  0.00     0.111 A 
ATOM     94  C   UNL A   1      33.230  20.654  24.301  1.00  0.00     0.156 A 
ATOM     95  C   UNL A   1      32.243  19.168  22.689  1.00  0.00     0.032 A 
ATOM     96  C   UNL A   1      33.988  19.649  24.895  1.00  0.00     0.049 A 
ATOM     97  C   UNL A   1      33.007  18.132  23.244  1.00  0.00     0.003 A 
ATOM     98  C   UNL A   1      33.852  18.367  24.336  1.00  0.00     0.004 A 
ENDBRANCH  84  90
ENDBRANCH  75  77
ENDBRANCH  74  75
ENDBRANCH  73  74
ENDBRANCH  72  73
ENDBRANCH  71  72
ENDBRANCH   1  71
TORSDOF 20
ENDMDL
