MODEL 1
REMARK VINA RESULT:     -12.1      0.000      0.000
REMARK SMILES O=C(OCCOCCOC(=O)c1ccc(-c2c3nc(c(-c4cccc(S(=O)(=O)[O-])c4F)c4ccc([nH]4)c(-c4cccc(S(=O)(=O)[O-])c4F)c4nc(c(-c5cccc(S(=O)(=O)[O-])c5F)c5ccc2[nH]5)C=C4)C=C3)cc1)C1=Cc2c(cc(Cl)c(Cl)c2Cl)O[C@H]1C(F)(F)F
REMARK SMILES IDX 7 1 6 2 5 3 4 4 3 5 2 6 1 7 75 8 76 9 87 10 77 11 86 12
REMARK SMILES IDX 78 13 84 14 79 15 82 16 85 17 80 18 83 19 81 20 88 21 89 22
REMARK SMILES IDX 90 23 91 24 8 25 9 26 10 27 11 28 12 29 13 30 74 31 14 32
REMARK SMILES IDX 73 33 15 34 16 35 17 36 67 37 18 38 72 39 66 40 68 41 19 42
REMARK SMILES IDX 71 43 65 44 64 45 20 47 52 48 32 49 51 50 33 51 36 52 50 53
REMARK SMILES IDX 69 54 34 55 35 56 49 58 70 59 37 60 21 61 22 62 30 63 23 64
REMARK SMILES IDX 25 65 31 66 24 67 26 68 27 69 28 70 29 71 53 72 54 73 62 74
REMARK SMILES IDX 55 75 57 76 63 77 56 78 58 79 59 80 60 81 61 82 38 83 39 84
REMARK SMILES IDX 47 85 40 86 42 87 48 88 41 89 43 90 44 91 45 92 46 93
REMARK H PARENT 68 46 36 57
REMARK Flexibility Score: inf
ROOT
ATOM      1  C   UNL A   1      31.410  29.705  25.533  1.00  0.00     0.202 C 
ENDROOT
BRANCH   1   2
ATOM      2  O   UNL A   1      30.906  29.866  24.213  1.00  0.00    -0.374 OA
BRANCH   2   3
ATOM      3  C   UNL A   1      31.223  28.777  23.342  1.00  0.00     0.202 C 
BRANCH   3   4
ATOM      4  C   UNL A   1      32.740  28.638  23.178  1.00  0.00     0.261 C 
BRANCH   4   5
ATOM      5  O   UNL A   1      33.211  27.299  23.456  1.00  0.00    -0.460 OA
BRANCH   5   6
ATOM      6  C   UNL A   1      33.699  26.825  24.629  1.00  0.00     0.338 C 
ATOM      7  O   UNL A   1      34.028  27.619  25.509  1.00  0.00    -0.246 OA
BRANCH   6   8
ATOM      8  C   UNL A   1      33.625  25.384  24.972  1.00  0.00     0.087 C 
ATOM      9  C   UNL A   1      34.521  24.674  25.658  1.00  0.00     0.029 C 
ATOM     10  C   UNL A   1      32.257  24.734  24.816  1.00  0.00     0.316 C 
ATOM     11  C   UNL A   1      34.618  23.260  25.373  1.00  0.00     0.038 A 
ATOM     12  O   UNL A   1      32.228  23.280  25.053  1.00  0.00    -0.475 OA
ATOM     13  C   UNL A   1      33.420  22.614  25.113  1.00  0.00     0.131 A 
ATOM     14  C   UNL A   1      35.848  22.569  25.265  1.00  0.00     0.072 A 
ATOM     15  C   UNL A   1      33.420  21.241  24.901  1.00  0.00     0.069 A 
ATOM     16  C   UNL A   1      35.856  21.194  25.006  1.00  0.00     0.079 A 
ATOM     17  Cl  UNL A   1      37.348  23.449  25.333  1.00  0.00    -0.082 Cl
ATOM     18  C   UNL A   1      34.630  20.532  24.855  1.00  0.00     0.064 A 
ATOM     19  Cl  UNL A   1      37.355  20.327  24.861  1.00  0.00    -0.081 Cl
ATOM     20  Cl  UNL A   1      34.532  18.829  24.575  1.00  0.00    -0.083 Cl
BRANCH  10  21
ATOM     21  C   UNL A   1      31.239  25.414  25.791  1.00  0.00     0.430 C 
ATOM     22  F   UNL A   1      31.826  25.980  26.874  1.00  0.00    -0.167 F 
ATOM     23  F   UNL A   1      30.515  26.376  25.168  1.00  0.00    -0.167 F 
ATOM     24  F   UNL A   1      30.339  24.523  26.283  1.00  0.00    -0.167 F 
ENDBRANCH  10  21
ENDBRANCH   6   8
ENDBRANCH   5   6
ENDBRANCH   4   5
ENDBRANCH   3   4
ENDBRANCH   2   3
ENDBRANCH   1   2
BRANCH   1  25
ATOM     25  C   UNL A   1      31.752  31.033  26.211  1.00  0.00     0.261 C 
BRANCH  25  26
ATOM     26  O   UNL A   1      32.630  30.855  27.338  1.00  0.00    -0.460 OA
BRANCH  26  27
ATOM     27  C   UNL A   1      33.463  31.902  27.602  1.00  0.00     0.338 C 
ATOM     28  O   UNL A   1      33.154  33.076  27.618  1.00  0.00    -0.246 OA
BRANCH  27  29
ATOM     29  C   UNL A   1      34.835  31.422  27.943  1.00  0.00     0.060 A 
ATOM     30  C   UNL A   1      35.034  30.038  28.067  1.00  0.00     0.016 A 
ATOM     31  C   UNL A   1      35.915  32.289  28.146  1.00  0.00     0.016 A 
ATOM     32  C   UNL A   1      36.283  29.528  28.437  1.00  0.00     0.010 A 
ATOM     33  C   UNL A   1      37.169  31.778  28.509  1.00  0.00     0.010 A 
ATOM     34  C   UNL A   1      37.349  30.396  28.700  1.00  0.00    -0.014 A 
BRANCH  34  35
ATOM     35  C   UNL A   1      38.556  29.888  29.405  1.00  0.00     0.031 A 
ATOM     36  C   UNL A   1      38.839  30.418  30.788  1.00  0.00     0.074 A 
ATOM     37  C   UNL A   1      39.386  28.980  28.860  1.00  0.00     0.049 A 
ATOM     38  N   UNL A   1      39.779  30.083  31.633  1.00  0.00    -0.248 NA
ATOM     39  C   UNL A   1      37.937  31.472  31.283  1.00  0.00     0.031 C 
ATOM     40  C   UNL A   1      39.248  28.392  27.530  1.00  0.00     0.029 A 
ATOM     41  N   UNL A   1      40.525  28.400  29.367  1.00  0.00    -0.354 N 
ATOM     42  C   UNL A   1      39.593  30.892  32.746  1.00  0.00     0.074 A 
ATOM     43  C   UNL A   1      38.467  31.752  32.462  1.00  0.00     0.031 C 
ATOM     44  C   UNL A   1      40.270  27.540  27.321  1.00  0.00     0.029 A 
ATOM     45  C   UNL A   1      41.140  27.528  28.498  1.00  0.00     0.049 A 
ATOM     46  H   UNL A   1      40.870  28.592  30.269  1.00  0.00     0.167 HD
ATOM     47  C   UNL A   1      40.283  30.914  33.911  1.00  0.00     0.034 A 
ATOM     48  C   UNL A   1      42.272  26.805  28.639  1.00  0.00     0.034 A 
ATOM     49  C   UNL A   1      41.414  30.077  34.199  1.00  0.00     0.049 A 
ATOM     50  C   UNL A   1      43.039  26.866  29.941  1.00  0.00     0.074 A 
ATOM     51  C   UNL A   1      42.156  30.007  35.364  1.00  0.00     0.029 A 
ATOM     52  N   UNL A   1      41.985  29.187  33.306  1.00  0.00    -0.354 N 
ATOM     53  N   UNL A   1      42.765  27.532  31.037  1.00  0.00    -0.248 NA
ATOM     54  C   UNL A   1      44.254  26.039  30.036  1.00  0.00     0.031 C 
ATOM     55  C   UNL A   1      43.206  29.107  35.158  1.00  0.00     0.029 A 
ATOM     56  C   UNL A   1      43.083  28.574  33.886  1.00  0.00     0.049 A 
ATOM     57  H   UNL A   1      41.661  29.016  32.392  1.00  0.00     0.167 HD
ATOM     58  C   UNL A   1      43.738  27.162  31.964  1.00  0.00     0.074 A 
ATOM     59  C   UNL A   1      44.601  26.206  31.305  1.00  0.00     0.031 C 
ATOM     60  C   UNL A   1      43.902  27.579  33.245  1.00  0.00     0.034 A 
BRANCH  47  61
ATOM     61  C   UNL A   1      39.826  31.891  34.963  1.00  0.00     0.023 A 
ATOM     62  C   UNL A   1      40.200  33.247  34.874  1.00  0.00     0.012 A 
ATOM     63  C   UNL A   1      39.009  31.465  36.027  1.00  0.00     0.148 A 
ATOM     64  C   UNL A   1      39.806  34.157  35.854  1.00  0.00     0.002 A 
ATOM     65  C   UNL A   1      38.580  32.388  36.973  1.00  0.00     0.091 A 
ATOM     66  F   UNL A   1      38.684  30.167  36.105  1.00  0.00    -0.205 F 
ATOM     67  C   UNL A   1      38.990  33.729  36.897  1.00  0.00     0.022 A 
BRANCH  65  68
ATOM     68  S   UNL A   1      37.465  31.953  38.311  1.00  0.00     0.127 S 
ATOM     69  O   UNL A   1      38.294  32.223  39.484  1.00  0.00    -0.237 OA
ATOM     70  O   UNL A   1      36.365  32.896  38.110  1.00  0.00    -0.237 OA
ATOM     71  O   UNL A   1      37.114  30.555  38.106  1.00  0.00    -0.744 OA
ENDBRANCH  65  68
ENDBRANCH  47  61
BRANCH  48  72
ATOM     72  C   UNL A   1      42.743  25.908  27.541  1.00  0.00     0.023 A 
ATOM     73  C   UNL A   1      43.655  26.399  26.583  1.00  0.00     0.012 A 
ATOM     74  C   UNL A   1      42.266  24.589  27.417  1.00  0.00     0.148 A 
ATOM     75  C   UNL A   1      44.044  25.612  25.498  1.00  0.00     0.002 A 
ATOM     76  C   UNL A   1      42.702  23.791  26.365  1.00  0.00     0.091 A 
ATOM     77  F   UNL A   1      41.388  24.144  28.326  1.00  0.00    -0.205 F 
ATOM     78  C   UNL A   1      43.574  24.307  25.392  1.00  0.00     0.022 A 
BRANCH  76  79
ATOM     79  S   UNL A   1      42.238  22.063  26.204  1.00  0.00     0.127 S 
ATOM     80  O   UNL A   1      40.797  22.158  25.986  1.00  0.00    -0.237 OA
ATOM     81  O   UNL A   1      43.014  21.654  25.033  1.00  0.00    -0.237 OA
ATOM     82  O   UNL A   1      42.645  21.427  27.450  1.00  0.00    -0.744 OA
ENDBRANCH  76  79
ENDBRANCH  48  72
BRANCH  60  83
ATOM     83  C   UNL A   1      45.011  26.958  34.060  1.00  0.00     0.023 A 
ATOM     84  C   UNL A   1      46.310  27.504  34.039  1.00  0.00     0.012 A 
ATOM     85  C   UNL A   1      44.738  25.865  34.910  1.00  0.00     0.148 A 
ATOM     86  C   UNL A   1      47.327  26.946  34.815  1.00  0.00     0.002 A 
ATOM     87  C   UNL A   1      45.742  25.352  35.722  1.00  0.00     0.091 A 
ATOM     88  F   UNL A   1      43.502  25.347  34.908  1.00  0.00    -0.205 F 
ATOM     89  C   UNL A   1      47.041  25.879  35.664  1.00  0.00     0.022 A 
BRANCH  87  90
ATOM     90  S   UNL A   1      45.433  24.051  36.924  1.00  0.00     0.127 S 
ATOM     91  O   UNL A   1      44.425  24.671  37.782  1.00  0.00    -0.237 OA
ATOM     92  O   UNL A   1      44.933  22.964  36.082  1.00  0.00    -0.237 OA
ATOM     93  O   UNL A   1      46.716  23.781  37.559  1.00  0.00    -0.744 OA
ENDBRANCH  87  90
ENDBRANCH  60  83
ENDBRANCH  34  35
ENDBRANCH  27  29
ENDBRANCH  26  27
ENDBRANCH  25  26
ENDBRANCH   1  25
TORSDOF 18
ENDMDL
MODEL 2
REMARK VINA RESULT:     -11.9      5.213     10.225
REMARK SMILES O=C(OCCOCCOC(=O)c1ccc(-c2c3nc(c(-c4cccc(S(=O)(=O)[O-])c4F)c4ccc([nH]4)c(-c4cccc(S(=O)(=O)[O-])c4F)c4nc(c(-c5cccc(S(=O)(=O)[O-])c5F)c5ccc2[nH]5)C=C4)C=C3)cc1)C1=Cc2c(cc(Cl)c(Cl)c2Cl)O[C@H]1C(F)(F)F
REMARK SMILES IDX 7 1 6 2 5 3 4 4 3 5 2 6 1 7 75 8 76 9 87 10 77 11 86 12
REMARK SMILES IDX 78 13 84 14 79 15 82 16 85 17 80 18 83 19 81 20 88 21 89 22
REMARK SMILES IDX 90 23 91 24 8 25 9 26 10 27 11 28 12 29 13 30 74 31 14 32
REMARK SMILES IDX 73 33 15 34 16 35 17 36 67 37 18 38 72 39 66 40 68 41 19 42
REMARK SMILES IDX 71 43 65 44 64 45 20 47 52 48 32 49 51 50 33 51 36 52 50 53
REMARK SMILES IDX 69 54 34 55 35 56 49 58 70 59 37 60 21 61 22 62 30 63 23 64
REMARK SMILES IDX 25 65 31 66 24 67 26 68 27 69 28 70 29 71 53 72 54 73 62 74
REMARK SMILES IDX 55 75 57 76 63 77 56 78 58 79 59 80 60 81 61 82 38 83 39 84
REMARK SMILES IDX 47 85 40 86 42 87 48 88 41 89 43 90 44 91 45 92 46 93
REMARK H PARENT 68 46 36 57
REMARK Flexibility Score: inf
ROOT
ATOM      1  C   UNL A   1      35.963  20.155  24.973  1.00  0.00     0.202 C 
ENDROOT
BRANCH   1   2
ATOM      2  O   UNL A   1      35.538  21.152  25.894  1.00  0.00    -0.374 OA
BRANCH   2   3
ATOM      3  C   UNL A   1      34.116  21.248  26.019  1.00  0.00     0.202 C 
BRANCH   3   4
ATOM      4  C   UNL A   1      33.733  22.327  27.036  1.00  0.00     0.261 C 
BRANCH   4   5
ATOM      5  O   UNL A   1      33.250  23.538  26.411  1.00  0.00    -0.460 OA
BRANCH   5   6
ATOM      6  C   UNL A   1      33.990  24.532  25.859  1.00  0.00     0.338 C 
ATOM      7  O   UNL A   1      35.211  24.404  25.784  1.00  0.00    -0.246 OA
BRANCH   6   8
ATOM      8  C   UNL A   1      33.354  25.658  25.132  1.00  0.00     0.087 C 
ATOM      9  C   UNL A   1      33.715  26.941  25.163  1.00  0.00     0.029 C 
ATOM     10  C   UNL A   1      32.420  25.268  23.994  1.00  0.00     0.316 C 
ATOM     11  C   UNL A   1      32.687  27.932  24.939  1.00  0.00     0.038 A 
ATOM     12  O   UNL A   1      31.712  26.393  23.358  1.00  0.00    -0.475 OA
ATOM     13  C   UNL A   1      31.732  27.606  23.989  1.00  0.00     0.131 A 
ATOM     14  C   UNL A   1      32.579  29.127  25.688  1.00  0.00     0.072 A 
ATOM     15  C   UNL A   1      30.752  28.535  23.664  1.00  0.00     0.069 A 
ATOM     16  C   UNL A   1      31.566  30.047  25.395  1.00  0.00     0.079 A 
ATOM     17  Cl  UNL A   1      33.628  29.395  27.050  1.00  0.00    -0.082 Cl
ATOM     18  C   UNL A   1      30.672  29.753  24.356  1.00  0.00     0.064 A 
ATOM     19  Cl  UNL A   1      31.410  31.517  26.309  1.00  0.00    -0.081 Cl
ATOM     20  Cl  UNL A   1      29.414  30.841  23.889  1.00  0.00    -0.083 Cl
BRANCH  10  21
ATOM     21  C   UNL A   1      33.225  24.503  22.891  1.00  0.00     0.430 C 
ATOM     22  F   UNL A   1      32.621  24.517  21.678  1.00  0.00    -0.167 F 
ATOM     23  F   UNL A   1      34.470  25.014  22.735  1.00  0.00    -0.167 F 
ATOM     24  F   UNL A   1      33.390  23.192  23.206  1.00  0.00    -0.167 F 
ENDBRANCH  10  21
ENDBRANCH   6   8
ENDBRANCH   5   6
ENDBRANCH   4   5
ENDBRANCH   3   4
ENDBRANCH   2   3
ENDBRANCH   1   2
BRANCH   1  25
ATOM     25  C   UNL A   1      37.458  20.226  24.658  1.00  0.00     0.261 C 
BRANCH  25  26
ATOM     26  O   UNL A   1      38.070  21.409  25.206  1.00  0.00    -0.460 OA
BRANCH  26  27
ATOM     27  C   UNL A   1      39.194  21.195  25.948  1.00  0.00     0.338 C 
ATOM     28  O   UNL A   1      39.822  20.157  26.016  1.00  0.00    -0.246 OA
BRANCH  27  29
ATOM     29  C   UNL A   1      39.621  22.444  26.647  1.00  0.00     0.060 A 
ATOM     30  C   UNL A   1      38.940  23.632  26.340  1.00  0.00     0.016 A 
ATOM     31  C   UNL A   1      40.664  22.475  27.580  1.00  0.00     0.016 A 
ATOM     32  C   UNL A   1      39.326  24.845  26.920  1.00  0.00     0.010 A 
ATOM     33  C   UNL A   1      41.046  23.689  28.167  1.00  0.00     0.010 A 
ATOM     34  C   UNL A   1      40.408  24.889  27.807  1.00  0.00    -0.014 A 
BRANCH  34  35
ATOM     35  C   UNL A   1      41.021  26.198  28.157  1.00  0.00     0.031 A 
ATOM     36  C   UNL A   1      42.422  26.471  27.671  1.00  0.00     0.074 A 
ATOM     37  C   UNL A   1      40.373  27.135  28.874  1.00  0.00     0.049 A 
ATOM     38  N   UNL A   1      43.146  27.555  27.781  1.00  0.00    -0.248 NA
ATOM     39  C   UNL A   1      43.099  25.367  26.969  1.00  0.00     0.031 C 
ATOM     40  C   UNL A   1      39.025  27.005  29.421  1.00  0.00     0.029 A 
ATOM     41  N   UNL A   1      40.779  28.386  29.273  1.00  0.00    -0.354 N 
ATOM     42  C   UNL A   1      44.362  27.260  27.179  1.00  0.00     0.074 A 
ATOM     43  C   UNL A   1      44.291  25.888  26.727  1.00  0.00     0.031 C 
ATOM     44  C   UNL A   1      38.717  28.130  30.094  1.00  0.00     0.029 A 
ATOM     45  C   UNL A   1      39.848  29.057  30.034  1.00  0.00     0.049 A 
ATOM     46  H   UNL A   1      41.656  28.768  29.037  1.00  0.00     0.167 HD
ATOM     47  C   UNL A   1      45.442  28.056  26.999  1.00  0.00     0.034 A 
ATOM     48  C   UNL A   1      39.906  30.276  30.611  1.00  0.00     0.034 A 
ATOM     49  C   UNL A   1      45.533  29.414  27.458  1.00  0.00     0.049 A 
ATOM     50  C   UNL A   1      41.133  31.138  30.418  1.00  0.00     0.074 A 
ATOM     51  C   UNL A   1      46.575  30.308  27.293  1.00  0.00     0.029 A 
ATOM     52  N   UNL A   1      44.559  30.065  28.196  1.00  0.00    -0.354 N 
ATOM     53  N   UNL A   1      42.218  30.894  29.722  1.00  0.00    -0.248 NA
ATOM     54  C   UNL A   1      41.124  32.464  31.058  1.00  0.00     0.031 C 
ATOM     55  C   UNL A   1      46.250  31.487  27.973  1.00  0.00     0.029 A 
ATOM     56  C   UNL A   1      44.981  31.345  28.511  1.00  0.00     0.049 A 
ATOM     57  H   UNL A   1      43.694  29.675  28.459  1.00  0.00     0.167 HD
ATOM     58  C   UNL A   1      42.990  32.052  29.797  1.00  0.00     0.074 A 
ATOM     59  C   UNL A   1      42.244  33.001  30.596  1.00  0.00     0.031 C 
ATOM     60  C   UNL A   1      44.208  32.305  29.255  1.00  0.00     0.034 A 
BRANCH  47  61
ATOM     61  C   UNL A   1      46.622  27.463  26.274  1.00  0.00     0.023 A 
ATOM     62  C   UNL A   1      46.705  27.560  24.870  1.00  0.00     0.012 A 
ATOM     63  C   UNL A   1      47.655  26.827  26.987  1.00  0.00     0.148 A 
ATOM     64  C   UNL A   1      47.777  26.994  24.183  1.00  0.00     0.002 A 
ATOM     65  C   UNL A   1      48.745  26.309  26.299  1.00  0.00     0.091 A 
ATOM     66  F   UNL A   1      47.545  26.726  28.319  1.00  0.00    -0.205 F 
ATOM     67  C   UNL A   1      48.800  26.377  24.897  1.00  0.00     0.022 A 
BRANCH  65  68
ATOM     68  S   UNL A   1      50.148  25.563  27.133  1.00  0.00     0.127 S 
ATOM     69  O   UNL A   1      49.561  24.328  27.650  1.00  0.00    -0.237 OA
ATOM     70  O   UNL A   1      51.093  25.376  26.032  1.00  0.00    -0.237 OA
ATOM     71  O   UNL A   1      50.573  26.520  28.144  1.00  0.00    -0.744 OA
ENDBRANCH  65  68
ENDBRANCH  47  61
BRANCH  48  72
ATOM     72  C   UNL A   1      38.747  30.800  31.396  1.00  0.00     0.023 A 
ATOM     73  C   UNL A   1      38.730  30.649  32.798  1.00  0.00     0.012 A 
ATOM     74  C   UNL A   1      37.649  31.411  30.761  1.00  0.00     0.148 A 
ATOM     75  C   UNL A   1      37.622  31.051  33.546  1.00  0.00     0.002 A 
ATOM     76  C   UNL A   1      36.573  31.861  31.519  1.00  0.00     0.091 A 
ATOM     77  F   UNL A   1      37.675  31.533  29.427  1.00  0.00    -0.205 F 
ATOM     78  C   UNL A   1      36.547  31.663  32.909  1.00  0.00     0.022 A 
BRANCH  76  79
ATOM     79  S   UNL A   1      35.192  32.759  30.801  1.00  0.00     0.127 S 
ATOM     80  O   UNL A   1      34.249  32.801  31.916  1.00  0.00    -0.237 OA
ATOM     81  O   UNL A   1      35.811  34.042  30.469  1.00  0.00    -0.237 OA
ATOM     82  O   UNL A   1      34.768  31.977  29.648  1.00  0.00    -0.744 OA
ENDBRANCH  76  79
ENDBRANCH  48  72
BRANCH  60  83
ATOM     83  C   UNL A   1      44.795  33.684  29.435  1.00  0.00     0.023 A 
ATOM     84  C   UNL A   1      45.599  33.984  30.553  1.00  0.00     0.012 A 
ATOM     85  C   UNL A   1      44.604  34.670  28.443  1.00  0.00     0.148 A 
ATOM     86  C   UNL A   1      46.164  35.250  30.703  1.00  0.00     0.002 A 
ATOM     87  C   UNL A   1      45.217  35.910  28.571  1.00  0.00     0.091 A 
ATOM     88  F   UNL A   1      43.824  34.376  27.392  1.00  0.00    -0.205 F 
ATOM     89  C   UNL A   1      45.983  36.209  29.708  1.00  0.00     0.022 A 
BRANCH  87  90
ATOM     90  S   UNL A   1      45.127  37.163  27.286  1.00  0.00     0.127 S 
ATOM     91  O   UNL A   1      45.914  36.551  26.217  1.00  0.00    -0.237 OA
ATOM     92  O   UNL A   1      43.689  37.234  27.022  1.00  0.00    -0.237 OA
ATOM     93  O   UNL A   1      45.693  38.374  27.866  1.00  0.00    -0.744 OA
ENDBRANCH  87  90
ENDBRANCH  60  83
ENDBRANCH  34  35
ENDBRANCH  27  29
ENDBRANCH  26  27
ENDBRANCH  25  26
ENDBRANCH   1  25
TORSDOF 18
ENDMDL
MODEL 3
REMARK VINA RESULT:     -11.2      5.332     10.394
REMARK SMILES O=C(OCCOCCOC(=O)c1ccc(-c2c3nc(c(-c4cccc(S(=O)(=O)[O-])c4F)c4ccc([nH]4)c(-c4cccc(S(=O)(=O)[O-])c4F)c4nc(c(-c5cccc(S(=O)(=O)[O-])c5F)c5ccc2[nH]5)C=C4)C=C3)cc1)C1=Cc2c(cc(Cl)c(Cl)c2Cl)O[C@H]1C(F)(F)F
REMARK SMILES IDX 7 1 6 2 5 3 4 4 3 5 2 6 1 7 75 8 76 9 87 10 77 11 86 12
REMARK SMILES IDX 78 13 84 14 79 15 82 16 85 17 80 18 83 19 81 20 88 21 89 22
REMARK SMILES IDX 90 23 91 24 8 25 9 26 10 27 11 28 12 29 13 30 74 31 14 32
REMARK SMILES IDX 73 33 15 34 16 35 17 36 67 37 18 38 72 39 66 40 68 41 19 42
REMARK SMILES IDX 71 43 65 44 64 45 20 47 52 48 32 49 51 50 33 51 36 52 50 53
REMARK SMILES IDX 69 54 34 55 35 56 49 58 70 59 37 60 21 61 22 62 30 63 23 64
REMARK SMILES IDX 25 65 31 66 24 67 26 68 27 69 28 70 29 71 53 72 54 73 62 74
REMARK SMILES IDX 55 75 57 76 63 77 56 78 58 79 59 80 60 81 61 82 38 83 39 84
REMARK SMILES IDX 47 85 40 86 42 87 48 88 41 89 43 90 44 91 45 92 46 93
REMARK H PARENT 68 46 36 57
REMARK Flexibility Score: inf
ROOT
ATOM      1  C   UNL A   1      37.012  22.418  24.425  1.00  0.00     0.202 C 
ENDROOT
BRANCH   1   2
ATOM      2  O   UNL A   1      35.833  23.175  24.669  1.00  0.00    -0.374 OA
BRANCH   2   3
ATOM      3  C   UNL A   1      35.516  23.311  26.057  1.00  0.00     0.202 C 
BRANCH   3   4
ATOM      4  C   UNL A   1      34.298  22.456  26.421  1.00  0.00     0.261 C 
BRANCH   4   5
ATOM      5  O   UNL A   1      33.354  23.158  27.262  1.00  0.00    -0.460 OA
BRANCH   5   6
ATOM      6  C   UNL A   1      32.099  23.555  26.938  1.00  0.00     0.338 C 
ATOM      7  O   UNL A   1      31.146  23.133  27.592  1.00  0.00    -0.246 OA
BRANCH   6   8
ATOM      8  C   UNL A   1      31.860  24.660  25.978  1.00  0.00     0.087 C 
ATOM      9  C   UNL A   1      32.579  25.775  25.840  1.00  0.00     0.029 C 
ATOM     10  C   UNL A   1      30.914  24.346  24.827  1.00  0.00     0.316 C 
ATOM     11  C   UNL A   1      31.900  26.955  25.355  1.00  0.00     0.038 A 
ATOM     12  O   UNL A   1      30.601  25.487  23.949  1.00  0.00    -0.475 OA
ATOM     13  C   UNL A   1      30.943  26.741  24.376  1.00  0.00     0.131 A 
ATOM     14  C   UNL A   1      32.108  28.249  25.888  1.00  0.00     0.072 A 
ATOM     15  C   UNL A   1      30.297  27.830  23.807  1.00  0.00     0.069 A 
ATOM     16  C   UNL A   1      31.426  29.345  25.348  1.00  0.00     0.079 A 
ATOM     17  Cl  UNL A   1      33.117  28.458  27.291  1.00  0.00    -0.082 Cl
ATOM     18  C   UNL A   1      30.542  29.127  24.283  1.00  0.00     0.064 A 
ATOM     19  Cl  UNL A   1      31.661  30.942  25.993  1.00  0.00    -0.081 Cl
ATOM     20  Cl  UNL A   1      29.685  30.419  23.520  1.00  0.00    -0.083 Cl
BRANCH  10  21
ATOM     21  C   UNL A   1      31.516  23.198  23.950  1.00  0.00     0.430 C 
ATOM     22  F   UNL A   1      32.826  23.380  23.650  1.00  0.00    -0.167 F 
ATOM     23  F   UNL A   1      31.399  21.991  24.555  1.00  0.00    -0.167 F 
ATOM     24  F   UNL A   1      30.877  23.087  22.756  1.00  0.00    -0.167 F 
ENDBRANCH  10  21
ENDBRANCH   6   8
ENDBRANCH   5   6
ENDBRANCH   4   5
ENDBRANCH   3   4
ENDBRANCH   2   3
ENDBRANCH   1   2
BRANCH   1  25
ATOM     25  C   UNL A   1      37.697  21.945  25.708  1.00  0.00     0.261 C 
BRANCH  25  26
ATOM     26  O   UNL A   1      39.129  22.069  25.634  1.00  0.00    -0.460 OA
BRANCH  26  27
ATOM     27  C   UNL A   1      39.761  22.281  26.824  1.00  0.00     0.338 C 
ATOM     28  O   UNL A   1      40.289  21.434  27.516  1.00  0.00    -0.246 OA
BRANCH  27  29
ATOM     29  C   UNL A   1      39.785  23.735  27.166  1.00  0.00     0.060 A 
ATOM     30  C   UNL A   1      40.213  24.634  26.178  1.00  0.00     0.016 A 
ATOM     31  C   UNL A   1      39.408  24.226  28.421  1.00  0.00     0.016 A 
ATOM     32  C   UNL A   1      40.309  26.003  26.452  1.00  0.00     0.010 A 
ATOM     33  C   UNL A   1      39.496  25.598  28.695  1.00  0.00     0.010 A 
ATOM     34  C   UNL A   1      39.990  26.489  27.725  1.00  0.00    -0.014 A 
BRANCH  34  35
ATOM     35  C   UNL A   1      40.404  27.865  28.113  1.00  0.00     0.031 A 
ATOM     36  C   UNL A   1      41.859  28.231  27.959  1.00  0.00     0.074 A 
ATOM     37  C   UNL A   1      39.535  28.780  28.580  1.00  0.00     0.049 A 
ATOM     38  N   UNL A   1      42.454  29.378  28.158  1.00  0.00    -0.248 NA
ATOM     39  C   UNL A   1      42.763  27.153  27.525  1.00  0.00     0.031 C 
ATOM     40  C   UNL A   1      38.106  28.564  28.795  1.00  0.00     0.029 A 
ATOM     41  N   UNL A   1      39.740  30.082  28.970  1.00  0.00    -0.354 N 
ATOM     42  C   UNL A   1      43.799  29.157  27.889  1.00  0.00     0.074 A 
ATOM     43  C   UNL A   1      43.938  27.761  27.538  1.00  0.00     0.031 C 
ATOM     44  C   UNL A   1      37.564  29.694  29.288  1.00  0.00     0.029 A 
ATOM     45  C   UNL A   1      38.606  30.711  29.432  1.00  0.00     0.049 A 
ATOM     46  H   UNL A   1      40.619  30.525  28.923  1.00  0.00     0.167 HD
ATOM     47  C   UNL A   1      44.831  30.033  27.916  1.00  0.00     0.034 A 
ATOM     48  C   UNL A   1      38.434  31.960  29.913  1.00  0.00     0.034 A 
ATOM     49  C   UNL A   1      44.710  31.417  28.279  1.00  0.00     0.049 A 
ATOM     50  C   UNL A   1      39.607  32.913  29.956  1.00  0.00     0.074 A 
ATOM     51  C   UNL A   1      45.694  32.388  28.303  1.00  0.00     0.029 A 
ATOM     52  N   UNL A   1      43.541  32.021  28.710  1.00  0.00    -0.354 N 
ATOM     53  N   UNL A   1      40.844  32.727  29.562  1.00  0.00    -0.248 NA
ATOM     54  C   UNL A   1      39.347  34.267  30.474  1.00  0.00     0.031 C 
ATOM     55  C   UNL A   1      45.129  33.569  28.794  1.00  0.00     0.029 A 
ATOM     56  C   UNL A   1      43.781  33.348  29.020  1.00  0.00     0.049 A 
ATOM     57  H   UNL A   1      42.667  31.572  28.786  1.00  0.00     0.167 HD
ATOM     58  C   UNL A   1      41.490  33.949  29.733  1.00  0.00     0.074 A 
ATOM     59  C   UNL A   1      40.506  34.873  30.255  1.00  0.00     0.031 C 
ATOM     60  C   UNL A   1      42.783  34.277  29.483  1.00  0.00     0.034 A 
BRANCH  47  61
ATOM     61  C   UNL A   1      46.191  29.505  27.542  1.00  0.00     0.023 A 
ATOM     62  C   UNL A   1      47.246  29.554  28.476  1.00  0.00     0.012 A 
ATOM     63  C   UNL A   1      46.417  28.944  26.271  1.00  0.00     0.148 A 
ATOM     64  C   UNL A   1      48.517  29.093  28.136  1.00  0.00     0.002 A 
ATOM     65  C   UNL A   1      47.674  28.442  25.956  1.00  0.00     0.091 A 
ATOM     66  F   UNL A   1      45.407  28.929  25.390  1.00  0.00    -0.205 F 
ATOM     67  C   UNL A   1      48.728  28.530  26.881  1.00  0.00     0.022 A 
BRANCH  65  68
ATOM     68  S   UNL A   1      48.026  27.629  24.395  1.00  0.00     0.127 S 
ATOM     69  O   UNL A   1      47.386  28.534  23.441  1.00  0.00    -0.237 OA
ATOM     70  O   UNL A   1      49.489  27.647  24.366  1.00  0.00    -0.237 OA
ATOM     71  O   UNL A   1      47.435  26.302  24.488  1.00  0.00    -0.744 OA
ENDBRANCH  65  68
ENDBRANCH  47  61
BRANCH  48  72
ATOM     72  C   UNL A   1      37.084  32.425  30.355  1.00  0.00     0.023 A 
ATOM     73  C   UNL A   1      36.662  32.182  31.679  1.00  0.00     0.012 A 
ATOM     74  C   UNL A   1      36.204  33.069  29.464  1.00  0.00     0.148 A 
ATOM     75  C   UNL A   1      35.374  32.527  32.092  1.00  0.00     0.002 A 
ATOM     76  C   UNL A   1      34.942  33.461  29.900  1.00  0.00     0.091 A 
ATOM     77  F   UNL A   1      36.614  33.277  28.206  1.00  0.00    -0.205 F 
ATOM     78  C   UNL A   1      34.517  33.172  31.206  1.00  0.00     0.022 A 
BRANCH  76  79
ATOM     79  S   UNL A   1      33.809  34.394  28.865  1.00  0.00     0.127 S 
ATOM     80  O   UNL A   1      33.455  33.412  27.844  1.00  0.00    -0.237 OA
ATOM     81  O   UNL A   1      32.738  34.714  29.810  1.00  0.00    -0.237 OA
ATOM     82  O   UNL A   1      34.562  35.548  28.393  1.00  0.00    -0.744 OA
ENDBRANCH  76  79
ENDBRANCH  48  72
BRANCH  60  83
ATOM     83  C   UNL A   1      43.208  35.710  29.694  1.00  0.00     0.023 A 
ATOM     84  C   UNL A   1      43.821  36.108  30.899  1.00  0.00     0.012 A 
ATOM     85  C   UNL A   1      43.063  36.653  28.653  1.00  0.00     0.148 A 
ATOM     86  C   UNL A   1      44.239  37.427  31.081  1.00  0.00     0.002 A 
ATOM     87  C   UNL A   1      43.535  37.948  28.821  1.00  0.00     0.091 A 
ATOM     88  F   UNL A   1      42.465  36.264  27.518  1.00  0.00    -0.205 F 
ATOM     89  C   UNL A   1      44.107  38.343  30.040  1.00  0.00     0.022 A 
BRANCH  87  90
ATOM     90  S   UNL A   1      43.504  39.161  27.495  1.00  0.00     0.127 S 
ATOM     91  O   UNL A   1      44.586  38.688  26.634  1.00  0.00    -0.237 OA
ATOM     92  O   UNL A   1      42.161  38.982  26.942  1.00  0.00    -0.237 OA
ATOM     93  O   UNL A   1      43.727  40.454  28.129  1.00  0.00    -0.744 OA
ENDBRANCH  87  90
ENDBRANCH  60  83
ENDBRANCH  34  35
ENDBRANCH  27  29
ENDBRANCH  26  27
ENDBRANCH  25  26
ENDBRANCH   1  25
TORSDOF 18
ENDMDL
