MODEL 1
REMARK VINA RESULT:     -10.6      0.000      0.000
REMARK SMILES COc1ccc([C@H]([NH3+])C(F)(F)F)c(C(=O)OCCOCCOC(=O)c2ccc(-c3c4nc(c(-c5cccc(S(=O)(=O)[O-])c5F)c5ccc([nH]5)c(-c5cccc(S(=O)(=O)[O-])c5F)c5nc(c(-c6cccc(S(=O)(=O)[O-])c6F)c6ccc3[nH]6)C=C5)C=C4)cc2)c1
REMARK SMILES IDX 20 1 19 2 18 3 17 4 16 5 14 6 15 7 13 8 3 9 4 10 88 11 5 12
REMARK SMILES IDX 6 13 2 14 1 15 7 16 9 17 10 18 11 19 12 20 8 21 21 25 22 26
REMARK SMILES IDX 23 27 24 28 25 29 26 30 87 31 27 32 86 33 28 34 29 35 30 36
REMARK SMILES IDX 80 37 31 38 85 39 79 40 81 41 32 42 84 43 78 44 77 45 33 47
REMARK SMILES IDX 65 48 45 49 64 50 46 51 49 52 63 53 82 54 47 55 48 56 62 58
REMARK SMILES IDX 83 59 50 60 34 61 35 62 43 63 36 64 38 65 44 66 37 67 39 68
REMARK SMILES IDX 40 69 41 70 42 71 66 72 67 73 75 74 68 75 70 76 76 77 69 78
REMARK SMILES IDX 71 79 72 80 73 81 74 82 51 83 52 84 60 85 53 86 55 87 61 88
REMARK SMILES IDX 54 89 56 90 57 91 58 92 59 93
REMARK H PARENT 8 22 8 23 8 24 81 46 49 57
REMARK Flexibility Score: inf
ROOT
ATOM      1  C   UNL A   1      36.176  20.428  24.891  1.00  0.00     0.202 C 
ENDROOT
BRANCH   1   2
ATOM      2  O   UNL A   1      35.762  21.602  25.591  1.00  0.00    -0.374 OA
BRANCH   2   3
ATOM      3  C   UNL A   1      34.746  21.452  26.584  1.00  0.00     0.202 C 
BRANCH   3   4
ATOM      4  C   UNL A   1      34.192  22.726  27.232  1.00  0.00     0.261 C 
BRANCH   4   5
ATOM      5  O   UNL A   1      32.756  22.716  27.268  1.00  0.00    -0.460 OA
BRANCH   5   6
ATOM      6  C   UNL A   1      32.140  23.145  26.140  1.00  0.00     0.338 C 
ATOM      7  O   UNL A   1      31.145  22.659  25.627  1.00  0.00    -0.246 OA
BRANCH   6   8
ATOM      8  C   UNL A   1      32.738  24.432  25.699  1.00  0.00     0.073 A 
ATOM      9  C   UNL A   1      33.065  26.805  26.138  1.00  0.00     0.119 A 
ATOM     10  C   UNL A   1      33.816  26.901  24.971  1.00  0.00     0.047 A 
ATOM     11  C   UNL A   1      32.515  25.576  26.497  1.00  0.00     0.062 A 
ATOM     12  C   UNL A   1      34.033  25.780  24.168  1.00  0.00     0.015 A 
ATOM     13  C   UNL A   1      33.494  24.521  24.504  1.00  0.00     0.033 A 
BRANCH   9  14
ATOM     14  O   UNL A   1      32.921  27.982  26.820  1.00  0.00    -0.497 OA
ATOM     15  C   UNL A   1      31.770  28.761  26.509  1.00  0.00     0.278 C 
ENDBRANCH   9  14
BRANCH  13  16
ATOM     16  C   UNL A   1      33.786  23.370  23.537  1.00  0.00     0.319 C 
BRANCH  16  17
ATOM     17  C   UNL A   1      32.693  23.212  22.438  1.00  0.00     0.445 C 
ATOM     18  F   UNL A   1      33.274  23.231  21.208  1.00  0.00    -0.165 F 
ATOM     19  F   UNL A   1      32.066  22.016  22.548  1.00  0.00    -0.165 F 
ATOM     20  F   UNL A   1      31.753  24.174  22.456  1.00  0.00    -0.165 F 
ENDBRANCH  16  17
BRANCH  16  21
ATOM     21  N   UNL A   1      35.201  23.312  23.087  1.00  0.00    -0.344 N 
ATOM     22  H   UNL A   1      35.818  23.342  23.899  1.00  0.00     0.345 HD
ATOM     23  H   UNL A   1      35.398  24.107  22.481  1.00  0.00     0.345 HD
ATOM     24  H   UNL A   1      35.359  22.445  22.573  1.00  0.00     0.345 HD
ENDBRANCH  16  21
ENDBRANCH  13  16
ENDBRANCH   6   8
ENDBRANCH   5   6
ENDBRANCH   4   5
ENDBRANCH   3   4
ENDBRANCH   2   3
ENDBRANCH   1   2
BRANCH   1  25
ATOM     25  C   UNL A   1      37.622  19.948  25.054  1.00  0.00     0.261 C 
BRANCH  25  26
ATOM     26  O   UNL A   1      38.561  21.020  25.168  1.00  0.00    -0.460 OA
BRANCH  26  27
ATOM     27  C   UNL A   1      39.505  20.825  26.116  1.00  0.00     0.338 C 
ATOM     28  O   UNL A   1      40.066  19.777  26.404  1.00  0.00    -0.246 OA
BRANCH  27  29
ATOM     29  C   UNL A   1      39.922  22.128  26.656  1.00  0.00     0.060 A 
ATOM     30  C   UNL A   1      39.258  23.265  26.181  1.00  0.00     0.016 A 
ATOM     31  C   UNL A   1      40.960  22.235  27.583  1.00  0.00     0.016 A 
ATOM     32  C   UNL A   1      39.667  24.527  26.594  1.00  0.00     0.010 A 
ATOM     33  C   UNL A   1      41.374  23.503  27.993  1.00  0.00     0.010 A 
ATOM     34  C   UNL A   1      40.753  24.652  27.470  1.00  0.00    -0.014 A 
BRANCH  34  35
ATOM     35  C   UNL A   1      41.324  25.991  27.729  1.00  0.00     0.031 A 
ATOM     36  C   UNL A   1      42.710  26.298  27.240  1.00  0.00     0.074 A 
ATOM     37  C   UNL A   1      40.605  26.918  28.386  1.00  0.00     0.049 A 
ATOM     38  N   UNL A   1      43.409  27.393  27.371  1.00  0.00    -0.248 NA
ATOM     39  C   UNL A   1      43.406  25.224  26.508  1.00  0.00     0.031 C 
ATOM     40  C   UNL A   1      39.250  26.724  28.902  1.00  0.00     0.029 A 
ATOM     41  N   UNL A   1      40.926  28.199  28.748  1.00  0.00    -0.354 N 
ATOM     42  C   UNL A   1      44.634  27.134  26.768  1.00  0.00     0.074 A 
ATOM     43  C   UNL A   1      44.590  25.773  26.284  1.00  0.00     0.031 C 
ATOM     44  C   UNL A   1      38.864  27.842  29.539  1.00  0.00     0.029 A 
ATOM     45  C   UNL A   1      39.953  28.815  29.499  1.00  0.00     0.049 A 
ATOM     46  H   UNL A   1      41.771  28.637  28.495  1.00  0.00     0.167 HD
ATOM     47  C   UNL A   1      45.695  27.964  26.622  1.00  0.00     0.034 A 
ATOM     48  C   UNL A   1      39.956  30.017  30.106  1.00  0.00     0.034 A 
ATOM     49  C   UNL A   1      45.722  29.320  27.097  1.00  0.00     0.049 A 
ATOM     50  C   UNL A   1      41.159  30.910  29.947  1.00  0.00     0.074 A 
ATOM     51  C   UNL A   1      46.726  30.260  26.956  1.00  0.00     0.029 A 
ATOM     52  N   UNL A   1      44.706  29.924  27.823  1.00  0.00    -0.354 N 
ATOM     53  N   UNL A   1      42.264  30.696  29.275  1.00  0.00    -0.248 NA
ATOM     54  C   UNL A   1      41.100  32.224  30.604  1.00  0.00     0.031 C 
ATOM     55  C   UNL A   1      46.334  31.421  27.632  1.00  0.00     0.029 A 
ATOM     56  C   UNL A   1      45.066  31.219  28.155  1.00  0.00     0.049 A 
ATOM     57  H   UNL A   1      43.855  29.495  28.067  1.00  0.00     0.167 HD
ATOM     58  C   UNL A   1      43.017  31.859  29.397  1.00  0.00     0.074 A 
ATOM     59  C   UNL A   1      42.229  32.782  30.189  1.00  0.00     0.031 C 
ATOM     60  C   UNL A   1      44.252  32.137  28.910  1.00  0.00     0.034 A 
BRANCH  47  61
ATOM     61  C   UNL A   1      46.910  27.428  25.910  1.00  0.00     0.023 A 
ATOM     62  C   UNL A   1      47.793  26.559  26.582  1.00  0.00     0.012 A 
ATOM     63  C   UNL A   1      47.147  27.744  24.558  1.00  0.00     0.148 A 
ATOM     64  C   UNL A   1      48.911  26.039  25.930  1.00  0.00     0.002 A 
ATOM     65  C   UNL A   1      48.236  27.185  23.901  1.00  0.00     0.091 A 
ATOM     66  F   UNL A   1      46.309  28.592  23.943  1.00  0.00    -0.205 F 
ATOM     67  C   UNL A   1      49.125  26.343  24.588  1.00  0.00     0.022 A 
BRANCH  65  68
ATOM     68  S   UNL A   1      48.554  27.449  22.154  1.00  0.00     0.127 S 
ATOM     69  O   UNL A   1      49.819  28.182  22.191  1.00  0.00    -0.237 OA
ATOM     70  O   UNL A   1      48.658  26.079  21.651  1.00  0.00    -0.237 OA
ATOM     71  O   UNL A   1      47.415  28.200  21.645  1.00  0.00    -0.744 OA
ENDBRANCH  65  68
ENDBRANCH  47  61
BRANCH  48  72
ATOM     72  C   UNL A   1      38.774  30.454  30.900  1.00  0.00     0.023 A 
ATOM     73  C   UNL A   1      38.722  30.186  32.281  1.00  0.00     0.012 A 
ATOM     74  C   UNL A   1      37.709  31.147  30.293  1.00  0.00     0.148 A 
ATOM     75  C   UNL A   1      37.615  30.571  33.037  1.00  0.00     0.002 A 
ATOM     76  C   UNL A   1      36.636  31.579  31.063  1.00  0.00     0.091 A 
ATOM     77  F   UNL A   1      37.772  31.381  28.975  1.00  0.00    -0.205 F 
ATOM     78  C   UNL A   1      36.577  31.275  32.431  1.00  0.00     0.022 A 
BRANCH  76  79
ATOM     79  S   UNL A   1      35.323  32.606  30.394  1.00  0.00     0.127 S 
ATOM     80  O   UNL A   1      34.847  31.793  29.278  1.00  0.00    -0.237 OA
ATOM     81  O   UNL A   1      34.404  32.697  31.529  1.00  0.00    -0.237 OA
ATOM     82  O   UNL A   1      35.955  33.868  30.031  1.00  0.00    -0.744 OA
ENDBRANCH  76  79
ENDBRANCH  48  72
BRANCH  60  83
ATOM     83  C   UNL A   1      44.816  33.508  29.183  1.00  0.00     0.023 A 
ATOM     84  C   UNL A   1      45.507  33.761  30.385  1.00  0.00     0.012 A 
ATOM     85  C   UNL A   1      44.710  34.531  28.219  1.00  0.00     0.148 A 
ATOM     86  C   UNL A   1      46.047  35.020  30.641  1.00  0.00     0.002 A 
ATOM     87  C   UNL A   1      45.299  35.765  28.457  1.00  0.00     0.091 A 
ATOM     88  F   UNL A   1      44.036  34.276  27.088  1.00  0.00    -0.205 F 
ATOM     89  C   UNL A   1      45.954  36.018  29.673  1.00  0.00     0.022 A 
BRANCH  87  90
ATOM     90  S   UNL A   1      45.316  37.078  27.231  1.00  0.00     0.127 S 
ATOM     91  O   UNL A   1      46.052  36.452  26.135  1.00  0.00    -0.237 OA
ATOM     92  O   UNL A   1      43.890  37.279  26.974  1.00  0.00    -0.237 OA
ATOM     93  O   UNL A   1      45.982  38.210  27.863  1.00  0.00    -0.744 OA
ENDBRANCH  87  90
ENDBRANCH  60  83
ENDBRANCH  34  35
ENDBRANCH  27  29
ENDBRANCH  26  27
ENDBRANCH  25  26
ENDBRANCH   1  25
TORSDOF 21
ENDMDL
MODEL 2
REMARK VINA RESULT:     -10.5      5.596      8.528
REMARK SMILES COc1ccc([C@H]([NH3+])C(F)(F)F)c(C(=O)OCCOCCOC(=O)c2ccc(-c3c4nc(c(-c5cccc(S(=O)(=O)[O-])c5F)c5ccc([nH]5)c(-c5cccc(S(=O)(=O)[O-])c5F)c5nc(c(-c6cccc(S(=O)(=O)[O-])c6F)c6ccc3[nH]6)C=C5)C=C4)cc2)c1
REMARK SMILES IDX 20 1 19 2 18 3 17 4 16 5 14 6 15 7 13 8 3 9 4 10 88 11 5 12
REMARK SMILES IDX 6 13 2 14 1 15 7 16 9 17 10 18 11 19 12 20 8 21 21 25 22 26
REMARK SMILES IDX 23 27 24 28 25 29 26 30 87 31 27 32 86 33 28 34 29 35 30 36
REMARK SMILES IDX 80 37 31 38 85 39 79 40 81 41 32 42 84 43 78 44 77 45 33 47
REMARK SMILES IDX 65 48 45 49 64 50 46 51 49 52 63 53 82 54 47 55 48 56 62 58
REMARK SMILES IDX 83 59 50 60 34 61 35 62 43 63 36 64 38 65 44 66 37 67 39 68
REMARK SMILES IDX 40 69 41 70 42 71 66 72 67 73 75 74 68 75 70 76 76 77 69 78
REMARK SMILES IDX 71 79 72 80 73 81 74 82 51 83 52 84 60 85 53 86 55 87 61 88
REMARK SMILES IDX 54 89 56 90 57 91 58 92 59 93
REMARK H PARENT 8 22 8 23 8 24 81 46 49 57
REMARK Flexibility Score: inf
ROOT
ATOM      1  C   UNL A   1      30.970  31.721  25.808  1.00  0.00     0.202 C 
ENDROOT
BRANCH   1   2
ATOM      2  O   UNL A   1      31.227  30.387  25.370  1.00  0.00    -0.374 OA
BRANCH   2   3
ATOM      3  C   UNL A   1      32.501  29.824  25.687  1.00  0.00     0.202 C 
BRANCH   3   4
ATOM      4  C   UNL A   1      33.135  28.877  24.661  1.00  0.00     0.261 C 
BRANCH   4   5
ATOM      5  O   UNL A   1      32.612  29.103  23.342  1.00  0.00    -0.460 OA
BRANCH   5   6
ATOM      6  C   UNL A   1      32.046  28.026  22.746  1.00  0.00     0.338 C 
ATOM      7  O   UNL A   1      32.635  27.079  22.248  1.00  0.00    -0.246 OA
BRANCH   6   8
ATOM      8  C   UNL A   1      30.574  28.054  22.948  1.00  0.00     0.073 A 
ATOM      9  C   UNL A   1      28.469  29.222  22.577  1.00  0.00     0.119 A 
ATOM     10  C   UNL A   1      27.806  28.211  23.264  1.00  0.00     0.047 A 
ATOM     11  C   UNL A   1      29.853  29.152  22.429  1.00  0.00     0.062 A 
ATOM     12  C   UNL A   1      28.509  27.127  23.792  1.00  0.00     0.015 A 
ATOM     13  C   UNL A   1      29.908  27.024  23.658  1.00  0.00     0.033 A 
BRANCH   9  14
ATOM     14  O   UNL A   1      27.661  30.228  22.125  1.00  0.00    -0.497 OA
ATOM     15  C   UNL A   1      28.057  30.868  20.917  1.00  0.00     0.278 C 
ENDBRANCH   9  14
BRANCH  13  16
ATOM     16  C   UNL A   1      30.571  25.798  24.294  1.00  0.00     0.319 C 
BRANCH  16  17
ATOM     17  C   UNL A   1      30.503  25.815  25.851  1.00  0.00     0.445 C 
ATOM     18  F   UNL A   1      31.514  25.060  26.361  1.00  0.00    -0.165 F 
ATOM     19  F   UNL A   1      30.682  27.071  26.328  1.00  0.00    -0.165 F 
ATOM     20  F   UNL A   1      29.351  25.342  26.355  1.00  0.00    -0.165 F 
ENDBRANCH  16  17
BRANCH  16  21
ATOM     21  N   UNL A   1      30.227  24.518  23.623  1.00  0.00    -0.344 N 
ATOM     22  H   UNL A   1      30.944  24.291  22.934  1.00  0.00     0.345 HD
ATOM     23  H   UNL A   1      29.325  24.610  23.157  1.00  0.00     0.345 HD
ATOM     24  H   UNL A   1      30.177  23.772  24.317  1.00  0.00     0.345 HD
ENDBRANCH  16  21
ENDBRANCH  13  16
ENDBRANCH   6   8
ENDBRANCH   5   6
ENDBRANCH   4   5
ENDBRANCH   3   4
ENDBRANCH   2   3
ENDBRANCH   1   2
BRANCH   1  25
ATOM     25  C   UNL A   1      31.664  32.224  27.078  1.00  0.00     0.261 C 
BRANCH  25  26
ATOM     26  O   UNL A   1      32.816  33.028  26.808  1.00  0.00    -0.460 OA
BRANCH  26  27
ATOM     27  C   UNL A   1      33.286  33.695  27.886  1.00  0.00     0.338 C 
ATOM     28  O   UNL A   1      32.734  34.595  28.503  1.00  0.00    -0.246 OA
BRANCH  27  29
ATOM     29  C   UNL A   1      34.520  33.047  28.352  1.00  0.00     0.060 A 
ATOM     30  C   UNL A   1      34.415  31.744  28.854  1.00  0.00     0.016 A 
ATOM     31  C   UNL A   1      35.748  33.712  28.328  1.00  0.00     0.016 A 
ATOM     32  C   UNL A   1      35.535  31.116  29.385  1.00  0.00     0.010 A 
ATOM     33  C   UNL A   1      36.870  33.082  28.867  1.00  0.00     0.010 A 
ATOM     34  C   UNL A   1      36.757  31.798  29.430  1.00  0.00    -0.014 A 
BRANCH  34  35
ATOM     35  C   UNL A   1      37.884  31.217  30.192  1.00  0.00     0.031 A 
ATOM     36  C   UNL A   1      38.769  30.205  29.523  1.00  0.00     0.074 A 
ATOM     37  C   UNL A   1      38.112  31.599  31.461  1.00  0.00     0.049 A 
ATOM     38  N   UNL A   1      39.796  29.559  30.005  1.00  0.00    -0.248 NA
ATOM     39  C   UNL A   1      38.452  29.872  28.123  1.00  0.00     0.031 C 
ATOM     40  C   UNL A   1      37.314  32.575  32.204  1.00  0.00     0.029 A 
ATOM     41  N   UNL A   1      39.069  31.194  32.353  1.00  0.00    -0.354 N 
ATOM     42  C   UNL A   1      40.230  28.722  28.984  1.00  0.00     0.074 A 
ATOM     43  C   UNL A   1      39.346  28.931  27.859  1.00  0.00     0.031 C 
ATOM     44  C   UNL A   1      37.802  32.674  33.451  1.00  0.00     0.029 A 
ATOM     45  C   UNL A   1      38.924  31.751  33.601  1.00  0.00     0.049 A 
ATOM     46  H   UNL A   1      39.792  30.565  32.122  1.00  0.00     0.167 HD
ATOM     47  C   UNL A   1      41.279  27.867  28.982  1.00  0.00     0.034 A 
ATOM     48  C   UNL A   1      39.604  31.518  34.740  1.00  0.00     0.034 A 
ATOM     49  C   UNL A   1      42.159  27.676  30.103  1.00  0.00     0.049 A 
ATOM     50  C   UNL A   1      40.752  30.543  34.716  1.00  0.00     0.074 A 
ATOM     51  C   UNL A   1      43.282  26.873  30.188  1.00  0.00     0.029 A 
ATOM     52  N   UNL A   1      42.004  28.282  31.341  1.00  0.00    -0.354 N 
ATOM     53  N   UNL A   1      41.224  29.847  33.710  1.00  0.00    -0.248 NA
ATOM     54  C   UNL A   1      41.482  30.347  35.976  1.00  0.00     0.031 C 
ATOM     55  C   UNL A   1      43.783  26.962  31.491  1.00  0.00     0.029 A 
ATOM     56  C   UNL A   1      43.000  27.856  32.204  1.00  0.00     0.049 A 
ATOM     57  H   UNL A   1      41.293  28.921  31.572  1.00  0.00     0.167 HD
ATOM     58  C   UNL A   1      42.327  29.158  34.205  1.00  0.00     0.074 A 
ATOM     59  C   UNL A   1      42.464  29.542  35.596  1.00  0.00     0.031 C 
ATOM     60  C   UNL A   1      43.144  28.279  33.574  1.00  0.00     0.034 A 
BRANCH  47  61
ATOM     61  C   UNL A   1      41.539  27.079  27.725  1.00  0.00     0.023 A 
ATOM     62  C   UNL A   1      42.000  27.735  26.565  1.00  0.00     0.012 A 
ATOM     63  C   UNL A   1      41.376  25.680  27.708  1.00  0.00     0.148 A 
ATOM     64  C   UNL A   1      42.264  27.016  25.400  1.00  0.00     0.002 A 
ATOM     65  C   UNL A   1      41.686  24.964  26.558  1.00  0.00     0.091 A 
ATOM     66  F   UNL A   1      40.913  25.077  28.812  1.00  0.00    -0.205 F 
ATOM     67  C   UNL A   1      42.118  25.631  25.400  1.00  0.00     0.022 A 
BRANCH  65  68
ATOM     68  S   UNL A   1      41.609  23.172  26.481  1.00  0.00     0.127 S 
ATOM     69  O   UNL A   1      40.165  22.937  26.498  1.00  0.00    -0.237 OA
ATOM     70  O   UNL A   1      42.256  22.893  25.198  1.00  0.00    -0.237 OA
ATOM     71  O   UNL A   1      42.333  22.686  27.647  1.00  0.00    -0.744 OA
ENDBRANCH  65  68
ENDBRANCH  47  61
BRANCH  48  72
ATOM     72  C   UNL A   1      39.233  32.237  35.990  1.00  0.00     0.023 A 
ATOM     73  C   UNL A   1      39.770  33.512  36.249  1.00  0.00     0.012 A 
ATOM     74  C   UNL A   1      38.336  31.667  36.915  1.00  0.00     0.148 A 
ATOM     75  C   UNL A   1      39.448  34.193  37.424  1.00  0.00     0.002 A 
ATOM     76  C   UNL A   1      37.975  32.375  38.055  1.00  0.00     0.091 A 
ATOM     77  F   UNL A   1      37.847  30.447  36.656  1.00  0.00    -0.205 F 
ATOM     78  C   UNL A   1      38.545  33.629  38.321  1.00  0.00     0.022 A 
BRANCH  76  79
ATOM     79  S   UNL A   1      36.718  31.787  39.194  1.00  0.00     0.127 S 
ATOM     80  O   UNL A   1      36.585  30.388  38.797  1.00  0.00    -0.237 OA
ATOM     81  O   UNL A   1      37.363  32.002  40.490  1.00  0.00    -0.237 OA
ATOM     82  O   UNL A   1      35.548  32.623  38.960  1.00  0.00    -0.744 OA
ENDBRANCH  76  79
ENDBRANCH  48  72
BRANCH  60  83
ATOM     83  C   UNL A   1      44.288  27.700  34.367  1.00  0.00     0.023 A 
ATOM     84  C   UNL A   1      45.510  28.395  34.455  1.00  0.00     0.012 A 
ATOM     85  C   UNL A   1      44.128  26.493  35.076  1.00  0.00     0.148 A 
ATOM     86  C   UNL A   1      46.569  27.877  35.199  1.00  0.00     0.002 A 
ATOM     87  C   UNL A   1      45.167  26.011  35.861  1.00  0.00     0.091 A 
ATOM     88  F   UNL A   1      42.963  25.838  34.970  1.00  0.00    -0.205 F 
ATOM     89  C   UNL A   1      46.394  26.693  35.911  1.00  0.00     0.022 A 
BRANCH  87  90
ATOM     90  S   UNL A   1      45.002  24.548  36.890  1.00  0.00     0.127 S 
ATOM     91  O   UNL A   1      44.722  23.515  35.896  1.00  0.00    -0.237 OA
ATOM     92  O   UNL A   1      46.324  24.457  37.512  1.00  0.00    -0.237 OA
ATOM     93  O   UNL A   1      43.915  24.831  37.818  1.00  0.00    -0.744 OA
ENDBRANCH  87  90
ENDBRANCH  60  83
ENDBRANCH  34  35
ENDBRANCH  27  29
ENDBRANCH  26  27
ENDBRANCH  25  26
ENDBRANCH   1  25
TORSDOF 21
ENDMDL
MODEL 3
REMARK VINA RESULT:     -10.5      5.107      7.660
REMARK SMILES COc1ccc([C@H]([NH3+])C(F)(F)F)c(C(=O)OCCOCCOC(=O)c2ccc(-c3c4nc(c(-c5cccc(S(=O)(=O)[O-])c5F)c5ccc([nH]5)c(-c5cccc(S(=O)(=O)[O-])c5F)c5nc(c(-c6cccc(S(=O)(=O)[O-])c6F)c6ccc3[nH]6)C=C5)C=C4)cc2)c1
REMARK SMILES IDX 20 1 19 2 18 3 17 4 16 5 14 6 15 7 13 8 3 9 4 10 88 11 5 12
REMARK SMILES IDX 6 13 2 14 1 15 7 16 9 17 10 18 11 19 12 20 8 21 21 25 22 26
REMARK SMILES IDX 23 27 24 28 25 29 26 30 87 31 27 32 86 33 28 34 29 35 30 36
REMARK SMILES IDX 80 37 31 38 85 39 79 40 81 41 32 42 84 43 78 44 77 45 33 47
REMARK SMILES IDX 65 48 45 49 64 50 46 51 49 52 63 53 82 54 47 55 48 56 62 58
REMARK SMILES IDX 83 59 50 60 34 61 35 62 43 63 36 64 38 65 44 66 37 67 39 68
REMARK SMILES IDX 40 69 41 70 42 71 66 72 67 73 75 74 68 75 70 76 76 77 69 78
REMARK SMILES IDX 71 79 72 80 73 81 74 82 51 83 52 84 60 85 53 86 55 87 61 88
REMARK SMILES IDX 54 89 56 90 57 91 58 92 59 93
REMARK H PARENT 8 22 8 23 8 24 81 46 49 57
REMARK Flexibility Score: inf
ROOT
ATOM      1  C   UNL A   1      31.421  29.120  24.565  1.00  0.00     0.202 C 
ENDROOT
BRANCH   1   2
ATOM      2  O   UNL A   1      31.434  27.704  24.751  1.00  0.00    -0.374 OA
BRANCH   2   3
ATOM      3  C   UNL A   1      30.224  26.994  24.484  1.00  0.00     0.202 C 
BRANCH   3   4
ATOM      4  C   UNL A   1      29.837  25.863  25.443  1.00  0.00     0.261 C 
BRANCH   4   5
ATOM      5  O   UNL A   1      30.469  24.625  25.080  1.00  0.00    -0.460 OA
BRANCH   5   6
ATOM      6  C   UNL A   1      31.116  23.983  26.083  1.00  0.00     0.338 C 
ATOM      7  O   UNL A   1      30.895  24.097  27.278  1.00  0.00    -0.246 OA
BRANCH   6   8
ATOM      8  C   UNL A   1      32.026  22.953  25.517  1.00  0.00     0.073 A 
ATOM      9  C   UNL A   1      32.422  20.598  25.038  1.00  0.00     0.119 A 
ATOM     10  C   UNL A   1      33.651  20.936  24.481  1.00  0.00     0.047 A 
ATOM     11  C   UNL A   1      31.614  21.603  25.567  1.00  0.00     0.062 A 
ATOM     12  C   UNL A   1      34.073  22.265  24.436  1.00  0.00     0.015 A 
ATOM     13  C   UNL A   1      33.280  23.306  24.959  1.00  0.00     0.033 A 
BRANCH   9  14
ATOM     14  O   UNL A   1      32.140  19.260  25.027  1.00  0.00    -0.497 OA
ATOM     15  C   UNL A   1      32.500  18.544  23.851  1.00  0.00     0.278 C 
ENDBRANCH   9  14
BRANCH  13  16
ATOM     16  C   UNL A   1      33.857  24.722  24.868  1.00  0.00     0.319 C 
BRANCH  16  17
ATOM     17  C   UNL A   1      33.751  25.326  23.436  1.00  0.00     0.445 C 
ATOM     18  F   UNL A   1      32.484  25.170  22.966  1.00  0.00    -0.165 F 
ATOM     19  F   UNL A   1      33.993  26.660  23.455  1.00  0.00    -0.165 F 
ATOM     20  F   UNL A   1      34.585  24.769  22.541  1.00  0.00    -0.165 F 
ENDBRANCH  16  17
BRANCH  16  21
ATOM     21  N   UNL A   1      33.460  25.602  25.997  1.00  0.00    -0.344 N 
ATOM     22  H   UNL A   1      33.101  26.484  25.631  1.00  0.00     0.345 HD
ATOM     23  H   UNL A   1      34.270  25.783  26.588  1.00  0.00     0.345 HD
ATOM     24  H   UNL A   1      32.733  25.143  26.547  1.00  0.00     0.345 HD
ENDBRANCH  16  21
ENDBRANCH  13  16
ENDBRANCH   6   8
ENDBRANCH   5   6
ENDBRANCH   4   5
ENDBRANCH   3   4
ENDBRANCH   2   3
ENDBRANCH   1   2
BRANCH   1  25
ATOM     25  C   UNL A   1      31.714  30.022  25.769  1.00  0.00     0.261 C 
BRANCH  25  26
ATOM     26  O   UNL A   1      33.112  30.215  25.999  1.00  0.00    -0.460 OA
BRANCH  26  27
ATOM     27  C   UNL A   1      33.390  31.138  26.948  1.00  0.00     0.338 C 
ATOM     28  O   UNL A   1      32.635  31.982  27.409  1.00  0.00    -0.246 OA
BRANCH  27  29
ATOM     29  C   UNL A   1      34.721  30.864  27.509  1.00  0.00     0.060 A 
ATOM     30  C   UNL A   1      35.067  29.525  27.727  1.00  0.00     0.016 A 
ATOM     31  C   UNL A   1      35.599  31.897  27.842  1.00  0.00     0.016 A 
ATOM     32  C   UNL A   1      36.278  29.214  28.333  1.00  0.00     0.010 A 
ATOM     33  C   UNL A   1      36.812  31.584  28.456  1.00  0.00     0.010 A 
ATOM     34  C   UNL A   1      37.136  30.244  28.736  1.00  0.00    -0.014 A 
BRANCH  34  35
ATOM     35  C   UNL A   1      38.311  29.921  29.575  1.00  0.00     0.031 A 
ATOM     36  C   UNL A   1      39.343  28.968  29.044  1.00  0.00     0.074 A 
ATOM     37  C   UNL A   1      38.452  30.484  30.788  1.00  0.00     0.049 A 
ATOM     38  N   UNL A   1      40.435  28.533  29.612  1.00  0.00    -0.248 NA
ATOM     39  C   UNL A   1      39.111  28.426  27.694  1.00  0.00     0.031 C 
ATOM     40  C   UNL A   1      37.511  31.423  31.396  1.00  0.00     0.029 A 
ATOM     41  N   UNL A   1      39.433  30.327  31.732  1.00  0.00    -0.354 N 
ATOM     42  C   UNL A   1      41.006  27.646  28.707  1.00  0.00     0.074 A 
ATOM     43  C   UNL A   1      40.131  27.593  27.557  1.00  0.00     0.031 C 
ATOM     44  C   UNL A   1      37.948  31.740  32.626  1.00  0.00     0.029 A 
ATOM     45  C   UNL A   1      39.180  31.006  32.900  1.00  0.00     0.049 A 
ATOM     46  H   UNL A   1      40.239  29.780  31.588  1.00  0.00     0.167 HD
ATOM     47  C   UNL A   1      42.161  26.950  28.821  1.00  0.00     0.034 A 
ATOM     48  C   UNL A   1      39.857  31.010  34.065  1.00  0.00     0.034 A 
ATOM     49  C   UNL A   1      43.030  27.021  29.964  1.00  0.00     0.049 A 
ATOM     50  C   UNL A   1      41.127  30.208  34.172  1.00  0.00     0.074 A 
ATOM     51  C   UNL A   1      44.248  26.397  30.159  1.00  0.00     0.029 A 
ATOM     52  N   UNL A   1      42.762  27.747  31.116  1.00  0.00    -0.354 N 
ATOM     53  N   UNL A   1      41.715  29.466  33.265  1.00  0.00    -0.248 NA
ATOM     54  C   UNL A   1      41.844  30.270  35.453  1.00  0.00     0.031 C 
ATOM     55  C   UNL A   1      44.699  26.713  31.445  1.00  0.00     0.029 A 
ATOM     56  C   UNL A   1      43.783  27.571  32.034  1.00  0.00     0.049 A 
ATOM     57  H   UNL A   1      41.964  28.304  31.259  1.00  0.00     0.167 HD
ATOM     58  C   UNL A   1      42.888  29.002  33.852  1.00  0.00     0.074 A 
ATOM     59  C   UNL A   1      42.935  29.567  35.185  1.00  0.00     0.031 C 
ATOM     60  C   UNL A   1      43.833  28.174  33.342  1.00  0.00     0.034 A 
BRANCH  47  61
ATOM     61  C   UNL A   1      42.558  26.058  27.673  1.00  0.00     0.023 A 
ATOM     62  C   UNL A   1      43.430  26.540  26.676  1.00  0.00     0.012 A 
ATOM     63  C   UNL A   1      42.108  24.725  27.612  1.00  0.00     0.148 A 
ATOM     64  C   UNL A   1      43.822  25.720  25.618  1.00  0.00     0.002 A 
ATOM     65  C   UNL A   1      42.541  23.899  26.582  1.00  0.00     0.091 A 
ATOM     66  F   UNL A   1      41.261  24.292  28.557  1.00  0.00    -0.205 F 
ATOM     67  C   UNL A   1      43.387  24.397  25.578  1.00  0.00     0.022 A 
BRANCH  65  68
ATOM     68  S   UNL A   1      42.103  22.161  26.484  1.00  0.00     0.127 S 
ATOM     69  O   UNL A   1      42.580  21.662  27.774  1.00  0.00    -0.237 OA
ATOM     70  O   UNL A   1      40.647  22.218  26.354  1.00  0.00    -0.237 OA
ATOM     71  O   UNL A   1      42.798  21.634  25.318  1.00  0.00    -0.744 OA
ENDBRANCH  65  68
ENDBRANCH  47  61
BRANCH  48  72
ATOM     72  C   UNL A   1      39.358  31.818  35.212  1.00  0.00     0.023 A 
ATOM     73  C   UNL A   1      38.474  31.239  36.143  1.00  0.00     0.012 A 
ATOM     74  C   UNL A   1      39.770  33.153  35.393  1.00  0.00     0.148 A 
ATOM     75  C   UNL A   1      37.983  31.985  37.213  1.00  0.00     0.002 A 
ATOM     76  C   UNL A   1      39.322  33.872  36.494  1.00  0.00     0.091 A 
ATOM     77  F   UNL A   1      40.601  33.689  34.488  1.00  0.00    -0.205 F 
ATOM     78  C   UNL A   1      38.413  33.297  37.394  1.00  0.00     0.022 A 
BRANCH  76  79
ATOM     79  S   UNL A   1      39.927  35.518  36.878  1.00  0.00     0.127 S 
ATOM     80  O   UNL A   1      39.236  35.806  38.132  1.00  0.00    -0.237 OA
ATOM     81  O   UNL A   1      41.367  35.287  37.006  1.00  0.00    -0.237 OA
ATOM     82  O   UNL A   1      39.552  36.353  35.744  1.00  0.00    -0.744 OA
ENDBRANCH  76  79
ENDBRANCH  48  72
BRANCH  60  83
ATOM     83  C   UNL A   1      45.024  27.859  34.211  1.00  0.00     0.023 A 
ATOM     84  C   UNL A   1      46.175  28.670  34.153  1.00  0.00     0.012 A 
ATOM     85  C   UNL A   1      44.977  26.792  35.131  1.00  0.00     0.148 A 
ATOM     86  C   UNL A   1      47.275  28.398  34.964  1.00  0.00     0.002 A 
ATOM     87  C   UNL A   1      46.055  26.562  35.975  1.00  0.00     0.091 A 
ATOM     88  F   UNL A   1      43.879  26.023  35.163  1.00  0.00    -0.205 F 
ATOM     89  C   UNL A   1      47.211  27.354  35.883  1.00  0.00     0.022 A 
BRANCH  87  90
ATOM     90  S   UNL A   1      46.025  25.304  37.257  1.00  0.00     0.127 S 
ATOM     91  O   UNL A   1      47.402  25.344  37.746  1.00  0.00    -0.237 OA
ATOM     92  O   UNL A   1      45.030  25.835  38.189  1.00  0.00    -0.237 OA
ATOM     93  O   UNL A   1      45.635  24.066  36.595  1.00  0.00    -0.744 OA
ENDBRANCH  87  90
ENDBRANCH  60  83
ENDBRANCH  34  35
ENDBRANCH  27  29
ENDBRANCH  26  27
ENDBRANCH  25  26
ENDBRANCH   1  25
TORSDOF 21
ENDMDL
