MODEL 1
REMARK VINA RESULT:      -9.7      0.000      0.000
REMARK SMILES O=C(C[C@H]1C[C@H]2CC[C@@H](C1)N2C(=O)NCCC1CC1)OCCOCCOC(=O)c1ccc(-c2c3nc(c(-c4cccc(S(=O)(=O)[O-])c4F)c4ccc([nH]4)c(-c4cccc(S(=O)(=O)[O-])c4F)c4nc(c(-c5cccc(S(=O)(=O)[O-])c5F)c5ccc2[nH]5)C=C4)C=C3)cc1
REMARK SMILES IDX 22 1 21 2 20 3 2 4 1 5 3 6 4 7 5 8 10 9 6 10 9 11 7 12 11 13
REMARK SMILES IDX 8 14 12 15 13 16 14 17 15 19 16 20 17 21 18 22 19 23 23 24
REMARK SMILES IDX 24 25 25 26 26 27 27 28 28 29 29 30 30 31 91 32 31 33 90 34
REMARK SMILES IDX 32 35 33 36 34 37 84 38 35 39 89 40 83 41 85 42 36 43 88 44
REMARK SMILES IDX 82 45 81 46 37 48 69 49 49 50 68 51 50 52 53 53 67 54 86 55
REMARK SMILES IDX 51 56 52 57 66 59 87 60 54 61 38 62 39 63 47 64 40 65 42 66
REMARK SMILES IDX 48 67 41 68 43 69 44 70 45 71 46 72 70 73 71 74 79 75 72 76
REMARK SMILES IDX 74 77 80 78 73 79 75 80 76 81 77 82 78 83 55 84 56 85 64 86
REMARK SMILES IDX 57 87 59 88 65 89 58 90 60 91 61 92 62 93 63 94
REMARK H PARENT 14 18 85 47 53 58
REMARK Flexibility Score: inf
ROOT
ATOM      1  C   UNL A   1      31.952  33.415  26.724  1.00  0.00     0.202 C 
ENDROOT
BRANCH   1   2
ATOM      2  C   UNL A   1      31.108  32.169  26.457  1.00  0.00     0.261 C 
BRANCH   2   3
ATOM      3  O   UNL A   1      31.782  31.026  25.868  1.00  0.00    -0.463 OA
BRANCH   3   4
ATOM      4  C   UNL A   1      31.525  29.718  25.714  1.00  0.00     0.306 C 
ATOM      5  O   UNL A   1      31.606  28.980  26.696  1.00  0.00    -0.252 OA
BRANCH   4   6
ATOM      6  C   UNL A   1      31.201  29.129  24.370  1.00  0.00     0.126 C 
BRANCH   6   7
ATOM      7  C   UNL A   1      32.163  28.146  23.682  1.00  0.00     0.004 C 
ATOM      8  C   UNL A   1      33.452  27.670  24.422  1.00  0.00     0.029 C 
ATOM      9  C   UNL A   1      31.432  26.981  23.036  1.00  0.00     0.029 C 
ATOM     10  C   UNL A   1      33.489  26.157  24.818  1.00  0.00     0.087 C 
ATOM     11  C   UNL A   1      31.443  25.691  23.889  1.00  0.00     0.087 C 
ATOM     12  C   UNL A   1      32.581  25.981  26.033  1.00  0.00     0.027 C 
ATOM     13  N   UNL A   1      32.826  25.337  23.791  1.00  0.00    -0.319 N 
ATOM     14  C   UNL A   1      31.229  25.670  25.407  1.00  0.00     0.027 C 
BRANCH  13  15
ATOM     15  C   UNL A   1      33.459  24.683  22.779  1.00  0.00     0.317 C 
ATOM     16  O   UNL A   1      33.839  25.289  21.773  1.00  0.00    -0.249 OA
ATOM     17  N   UNL A   1      33.659  23.335  22.798  1.00  0.00    -0.338 N 
ATOM     18  H   UNL A   1      34.091  23.029  21.969  1.00  0.00     0.165 HD
BRANCH  17  19
ATOM     19  C   UNL A   1      33.407  22.211  23.711  1.00  0.00     0.118 C 
BRANCH  19  20
ATOM     20  C   UNL A   1      34.666  21.594  24.318  1.00  0.00     0.025 C 
BRANCH  20  21
ATOM     21  C   UNL A   1      35.790  22.568  24.489  1.00  0.00    -0.009 C 
ATOM     22  C   UNL A   1      37.204  22.040  24.444  1.00  0.00     0.004 C 
ATOM     23  C   UNL A   1      36.689  22.906  23.331  1.00  0.00     0.004 C 
ENDBRANCH  20  21
ENDBRANCH  19  20
ENDBRANCH  17  19
ENDBRANCH  13  15
ENDBRANCH   6   7
ENDBRANCH   4   6
ENDBRANCH   3   4
ENDBRANCH   2   3
ENDBRANCH   1   2
BRANCH   1  24
ATOM     24  O   UNL A   1      32.190  33.821  28.068  1.00  0.00    -0.374 OA
BRANCH  24  25
ATOM     25  C   UNL A   1      33.440  34.402  28.410  1.00  0.00     0.202 C 
BRANCH  25  26
ATOM     26  C   UNL A   1      34.700  33.626  27.995  1.00  0.00     0.261 C 
BRANCH  26  27
ATOM     27  O   UNL A   1      35.139  32.618  28.926  1.00  0.00    -0.460 OA
BRANCH  27  28
ATOM     28  C   UNL A   1      34.792  31.346  28.610  1.00  0.00     0.338 C 
ATOM     29  O   UNL A   1      33.697  30.973  28.225  1.00  0.00    -0.246 OA
BRANCH  28  30
ATOM     30  C   UNL A   1      35.966  30.436  28.656  1.00  0.00     0.060 A 
ATOM     31  C   UNL A   1      36.166  29.702  29.833  1.00  0.00     0.016 A 
ATOM     32  C   UNL A   1      36.917  30.383  27.632  1.00  0.00     0.016 A 
ATOM     33  C   UNL A   1      37.353  28.992  30.029  1.00  0.00     0.010 A 
ATOM     34  C   UNL A   1      38.113  29.675  27.834  1.00  0.00     0.010 A 
ATOM     35  C   UNL A   1      38.361  29.024  29.057  1.00  0.00    -0.014 A 
BRANCH  35  36
ATOM     36  C   UNL A   1      39.731  28.570  29.421  1.00  0.00     0.031 A 
ATOM     37  C   UNL A   1      40.497  29.345  30.467  1.00  0.00     0.074 A 
ATOM     38  C   UNL A   1      40.281  27.468  28.877  1.00  0.00     0.049 A 
ATOM     39  N   UNL A   1      41.684  29.116  30.969  1.00  0.00    -0.248 NA
ATOM     40  C   UNL A   1      39.833  30.537  31.021  1.00  0.00     0.031 C 
ATOM     41  C   UNL A   1      39.661  26.629  27.854  1.00  0.00     0.029 A 
ATOM     42  N   UNL A   1      41.502  26.880  29.101  1.00  0.00    -0.354 N 
ATOM     43  C   UNL A   1      41.912  30.135  31.887  1.00  0.00     0.074 A 
ATOM     44  C   UNL A   1      40.753  30.999  31.855  1.00  0.00     0.031 C 
ATOM     45  C   UNL A   1      40.521  25.653  27.512  1.00  0.00     0.029 A 
ATOM     46  C   UNL A   1      41.754  25.800  28.288  1.00  0.00     0.049 A 
ATOM     47  H   UNL A   1      42.139  27.201  29.781  1.00  0.00     0.167 HD
ATOM     48  C   UNL A   1      42.975  30.326  32.706  1.00  0.00     0.034 A 
ATOM     49  C   UNL A   1      42.854  25.029  28.171  1.00  0.00     0.034 A 
ATOM     50  C   UNL A   1      44.129  29.470  32.753  1.00  0.00     0.049 A 
ATOM     51  C   UNL A   1      44.033  25.269  29.082  1.00  0.00     0.074 A 
ATOM     52  C   UNL A   1      45.246  29.574  33.563  1.00  0.00     0.029 A 
ATOM     53  N   UNL A   1      44.319  28.355  31.953  1.00  0.00    -0.354 N 
ATOM     54  N   UNL A   1      44.177  26.165  30.029  1.00  0.00    -0.248 NA
ATOM     55  C   UNL A   1      45.183  24.363  28.937  1.00  0.00     0.031 C 
ATOM     56  C   UNL A   1      46.119  28.528  33.244  1.00  0.00     0.029 A 
ATOM     57  C   UNL A   1      45.534  27.761  32.250  1.00  0.00     0.049 A 
ATOM     58  H   UNL A   1      43.684  28.032  31.274  1.00  0.00     0.167 HD
ATOM     59  C   UNL A   1      45.417  25.910  30.610  1.00  0.00     0.074 A 
ATOM     60  C   UNL A   1      45.969  24.758  29.929  1.00  0.00     0.031 C 
ATOM     61  C   UNL A   1      46.050  26.581  31.604  1.00  0.00     0.034 A 
BRANCH  48  62
ATOM     62  C   UNL A   1      42.914  31.490  33.661  1.00  0.00     0.023 A 
ATOM     63  C   UNL A   1      43.395  32.748  33.244  1.00  0.00     0.012 A 
ATOM     64  C   UNL A   1      42.339  31.359  34.940  1.00  0.00     0.148 A 
ATOM     65  C   UNL A   1      43.334  33.851  34.094  1.00  0.00     0.002 A 
ATOM     66  C   UNL A   1      42.245  32.473  35.768  1.00  0.00     0.091 A 
ATOM     67  F   UNL A   1      41.908  30.151  35.326  1.00  0.00    -0.205 F 
ATOM     68  C   UNL A   1      42.750  33.715  35.351  1.00  0.00     0.022 A 
BRANCH  66  69
ATOM     69  S   UNL A   1      41.450  32.420  37.377  1.00  0.00     0.127 S 
ATOM     70  O   UNL A   1      41.602  33.804  37.826  1.00  0.00    -0.237 OA
ATOM     71  O   UNL A   1      40.080  32.039  37.032  1.00  0.00    -0.237 OA
ATOM     72  O   UNL A   1      42.180  31.428  38.154  1.00  0.00    -0.744 OA
ENDBRANCH  66  69
ENDBRANCH  48  62
BRANCH  49  73
ATOM     73  C   UNL A   1      42.890  23.928  27.166  1.00  0.00     0.023 A 
ATOM     74  C   UNL A   1      43.517  24.133  25.922  1.00  0.00     0.012 A 
ATOM     75  C   UNL A   1      42.303  22.678  27.440  1.00  0.00     0.148 A 
ATOM     76  C   UNL A   1      43.531  23.123  24.957  1.00  0.00     0.002 A 
ATOM     77  C   UNL A   1      42.369  21.659  26.498  1.00  0.00     0.091 A 
ATOM     78  F   UNL A   1      41.688  22.510  28.619  1.00  0.00    -0.205 F 
ATOM     79  C   UNL A   1      42.968  21.883  25.249  1.00  0.00     0.022 A 
BRANCH  77  80
ATOM     80  S   UNL A   1      41.782  19.997  26.847  1.00  0.00     0.127 S 
ATOM     81  O   UNL A   1      41.371  19.541  25.523  1.00  0.00    -0.237 OA
ATOM     82  O   UNL A   1      42.985  19.355  27.377  1.00  0.00    -0.237 OA
ATOM     83  O   UNL A   1      40.715  20.165  27.826  1.00  0.00    -0.744 OA
ENDBRANCH  77  80
ENDBRANCH  49  73
BRANCH  61  84
ATOM     84  C   UNL A   1      47.402  26.075  32.042  1.00  0.00     0.023 A 
ATOM     85  C   UNL A   1      47.499  25.206  33.146  1.00  0.00     0.012 A 
ATOM     86  C   UNL A   1      48.568  26.411  31.325  1.00  0.00     0.148 A 
ATOM     87  C   UNL A   1      48.737  24.711  33.556  1.00  0.00     0.002 A 
ATOM     88  C   UNL A   1      49.793  25.878  31.711  1.00  0.00     0.091 A 
ATOM     89  F   UNL A   1      48.463  27.255  30.288  1.00  0.00    -0.205 F 
ATOM     90  C   UNL A   1      49.882  25.038  32.833  1.00  0.00     0.022 A 
BRANCH  88  91
ATOM     91  S   UNL A   1      51.301  26.176  30.780  1.00  0.00     0.127 S 
ATOM     92  O   UNL A   1      51.491  27.613  30.970  1.00  0.00    -0.237 OA
ATOM     93  O   UNL A   1      52.274  25.335  31.478  1.00  0.00    -0.237 OA
ATOM     94  O   UNL A   1      51.013  25.753  29.416  1.00  0.00    -0.744 OA
ENDBRANCH  88  91
ENDBRANCH  61  84
ENDBRANCH  35  36
ENDBRANCH  28  30
ENDBRANCH  27  28
ENDBRANCH  26  27
ENDBRANCH  25  26
ENDBRANCH  24  25
ENDBRANCH   1  24
TORSDOF 22
ENDMDL
MODEL 2
REMARK VINA RESULT:      -9.4      4.921      9.378
REMARK SMILES O=C(C[C@H]1C[C@H]2CC[C@@H](C1)N2C(=O)NCCC1CC1)OCCOCCOC(=O)c1ccc(-c2c3nc(c(-c4cccc(S(=O)(=O)[O-])c4F)c4ccc([nH]4)c(-c4cccc(S(=O)(=O)[O-])c4F)c4nc(c(-c5cccc(S(=O)(=O)[O-])c5F)c5ccc2[nH]5)C=C4)C=C3)cc1
REMARK SMILES IDX 22 1 21 2 20 3 2 4 1 5 3 6 4 7 5 8 10 9 6 10 9 11 7 12 11 13
REMARK SMILES IDX 8 14 12 15 13 16 14 17 15 19 16 20 17 21 18 22 19 23 23 24
REMARK SMILES IDX 24 25 25 26 26 27 27 28 28 29 29 30 30 31 91 32 31 33 90 34
REMARK SMILES IDX 32 35 33 36 34 37 84 38 35 39 89 40 83 41 85 42 36 43 88 44
REMARK SMILES IDX 82 45 81 46 37 48 69 49 49 50 68 51 50 52 53 53 67 54 86 55
REMARK SMILES IDX 51 56 52 57 66 59 87 60 54 61 38 62 39 63 47 64 40 65 42 66
REMARK SMILES IDX 48 67 41 68 43 69 44 70 45 71 46 72 70 73 71 74 79 75 72 76
REMARK SMILES IDX 74 77 80 78 73 79 75 80 76 81 77 82 78 83 55 84 56 85 64 86
REMARK SMILES IDX 57 87 59 88 65 89 58 90 60 91 61 92 62 93 63 94
REMARK H PARENT 14 18 85 47 53 58
REMARK Flexibility Score: inf
ROOT
ATOM      1  C   UNL A   1      40.828  20.839  27.126  1.00  0.00     0.202 C 
ENDROOT
BRANCH   1   2
ATOM      2  C   UNL A   1      40.291  21.873  26.137  1.00  0.00     0.261 C 
BRANCH   2   3
ATOM      3  O   UNL A   1      38.882  22.210  26.231  1.00  0.00    -0.463 OA
BRANCH   3   4
ATOM      4  C   UNL A   1      38.136  23.317  26.099  1.00  0.00     0.306 C 
ATOM      5  O   UNL A   1      38.509  24.351  26.653  1.00  0.00    -0.252 OA
BRANCH   4   6
ATOM      6  C   UNL A   1      36.836  23.308  25.346  1.00  0.00     0.126 C 
BRANCH   6   7
ATOM      7  C   UNL A   1      35.537  23.809  26.000  1.00  0.00     0.004 C 
ATOM      8  C   UNL A   1      34.681  24.905  25.293  1.00  0.00     0.029 C 
ATOM      9  C   UNL A   1      34.669  22.668  26.505  1.00  0.00     0.029 C 
ATOM     10  C   UNL A   1      33.279  24.445  24.773  1.00  0.00     0.087 C 
ATOM     11  C   UNL A   1      33.512  22.297  25.548  1.00  0.00     0.087 C 
ATOM     12  C   UNL A   1      33.508  23.634  23.501  1.00  0.00     0.027 C 
ATOM     13  N   UNL A   1      32.686  23.458  25.690  1.00  0.00    -0.319 N 
ATOM     14  C   UNL A   1      33.658  22.212  24.024  1.00  0.00     0.027 C 
BRANCH  13  15
ATOM     15  C   UNL A   1      31.791  23.740  26.676  1.00  0.00     0.317 C 
ATOM     16  O   UNL A   1      31.845  23.161  27.765  1.00  0.00    -0.249 OA
ATOM     17  N   UNL A   1      30.772  24.626  26.500  1.00  0.00    -0.338 N 
ATOM     18  H   UNL A   1      30.200  24.673  27.300  1.00  0.00     0.165 HD
BRANCH  17  19
ATOM     19  C   UNL A   1      30.286  25.530  25.448  1.00  0.00     0.118 C 
BRANCH  19  20
ATOM     20  C   UNL A   1      30.809  26.962  25.554  1.00  0.00     0.025 C 
BRANCH  20  21
ATOM     21  C   UNL A   1      31.500  27.256  26.848  1.00  0.00    -0.009 C 
ATOM     22  C   UNL A   1      32.887  27.849  26.797  1.00  0.00     0.004 C 
ATOM     23  C   UNL A   1      31.734  28.677  27.283  1.00  0.00     0.004 C 
ENDBRANCH  20  21
ENDBRANCH  19  20
ENDBRANCH  17  19
ENDBRANCH  13  15
ENDBRANCH   6   7
ENDBRANCH   4   6
ENDBRANCH   3   4
ENDBRANCH   2   3
ENDBRANCH   1   2
BRANCH   1  24
ATOM     24  O   UNL A   1      40.965  19.483  26.713  1.00  0.00    -0.374 OA
BRANCH  24  25
ATOM     25  C   UNL A   1      41.935  19.146  25.733  1.00  0.00     0.202 C 
BRANCH  25  26
ATOM     26  C   UNL A   1      43.388  19.006  26.218  1.00  0.00     0.261 C 
BRANCH  26  27
ATOM     27  O   UNL A   1      44.371  18.836  25.179  1.00  0.00    -0.460 OA
BRANCH  27  28
ATOM     28  C   UNL A   1      44.483  19.871  24.311  1.00  0.00     0.338 C 
ATOM     29  O   UNL A   1      44.522  19.791  23.095  1.00  0.00    -0.246 OA
BRANCH  28  30
ATOM     30  C   UNL A   1      44.419  21.178  25.015  1.00  0.00     0.060 A 
ATOM     31  C   UNL A   1      43.821  22.248  24.335  1.00  0.00     0.016 A 
ATOM     32  C   UNL A   1      45.030  21.396  26.254  1.00  0.00     0.016 A 
ATOM     33  C   UNL A   1      43.910  23.546  24.841  1.00  0.00     0.010 A 
ATOM     34  C   UNL A   1      45.126  22.703  26.758  1.00  0.00     0.010 A 
ATOM     35  C   UNL A   1      44.618  23.792  26.025  1.00  0.00    -0.014 A 
BRANCH  35  36
ATOM     36  C   UNL A   1      45.004  25.190  26.360  1.00  0.00     0.031 A 
ATOM     37  C   UNL A   1      43.940  26.135  26.864  1.00  0.00     0.074 A 
ATOM     38  C   UNL A   1      46.279  25.615  26.267  1.00  0.00     0.049 A 
ATOM     39  N   UNL A   1      44.049  27.380  27.253  1.00  0.00    -0.248 NA
ATOM     40  C   UNL A   1      42.570  25.601  26.943  1.00  0.00     0.031 C 
ATOM     41  C   UNL A   1      47.405  24.816  25.790  1.00  0.00     0.029 A 
ATOM     42  N   UNL A   1      46.831  26.840  26.554  1.00  0.00    -0.354 N 
ATOM     43  C   UNL A   1      42.767  27.781  27.611  1.00  0.00     0.074 A 
ATOM     44  C   UNL A   1      41.890  26.656  27.371  1.00  0.00     0.031 C 
ATOM     45  C   UNL A   1      48.510  25.583  25.784  1.00  0.00     0.029 A 
ATOM     46  C   UNL A   1      48.170  26.928  26.251  1.00  0.00     0.049 A 
ATOM     47  H   UNL A   1      46.317  27.586  26.941  1.00  0.00     0.167 HD
ATOM     48  C   UNL A   1      42.352  28.966  28.122  1.00  0.00     0.034 A 
ATOM     49  C   UNL A   1      49.018  27.973  26.326  1.00  0.00     0.034 A 
ATOM     50  C   UNL A   1      43.214  30.089  28.373  1.00  0.00     0.049 A 
ATOM     51  C   UNL A   1      48.532  29.289  26.882  1.00  0.00     0.074 A 
ATOM     52  C   UNL A   1      42.887  31.324  28.904  1.00  0.00     0.029 A 
ATOM     53  N   UNL A   1      44.573  30.117  28.104  1.00  0.00    -0.354 N 
ATOM     54  N   UNL A   1      47.341  29.608  27.330  1.00  0.00    -0.248 NA
ATOM     55  C   UNL A   1      49.518  30.376  26.983  1.00  0.00     0.031 C 
ATOM     56  C   UNL A   1      44.047  32.105  28.946  1.00  0.00     0.029 A 
ATOM     57  C   UNL A   1      45.100  31.348  28.459  1.00  0.00     0.049 A 
ATOM     58  H   UNL A   1      45.088  29.373  27.718  1.00  0.00     0.167 HD
ATOM     59  C   UNL A   1      47.445  30.918  27.792  1.00  0.00     0.074 A 
ATOM     60  C   UNL A   1      48.821  31.321  27.598  1.00  0.00     0.031 C 
ATOM     61  C   UNL A   1      46.484  31.721  28.313  1.00  0.00     0.034 A 
BRANCH  48  62
ATOM     62  C   UNL A   1      40.896  29.091  28.490  1.00  0.00     0.023 A 
ATOM     63  C   UNL A   1      39.941  29.270  27.469  1.00  0.00     0.012 A 
ATOM     64  C   UNL A   1      40.467  28.981  29.827  1.00  0.00     0.148 A 
ATOM     65  C   UNL A   1      38.584  29.368  27.774  1.00  0.00     0.002 A 
ATOM     66  C   UNL A   1      39.109  29.039  30.119  1.00  0.00     0.091 A 
ATOM     67  F   UNL A   1      41.393  28.833  30.785  1.00  0.00    -0.205 F 
ATOM     68  C   UNL A   1      38.168  29.242  29.096  1.00  0.00     0.022 A 
BRANCH  66  69
ATOM     69  S   UNL A   1      38.464  28.820  31.781  1.00  0.00     0.127 S 
ATOM     70  O   UNL A   1      39.137  29.900  32.503  1.00  0.00    -0.237 OA
ATOM     71  O   UNL A   1      37.028  29.021  31.584  1.00  0.00    -0.237 OA
ATOM     72  O   UNL A   1      38.840  27.471  32.183  1.00  0.00    -0.744 OA
ENDBRANCH  66  69
ENDBRANCH  48  62
BRANCH  49  73
ATOM     73  C   UNL A   1      50.435  27.818  25.889  1.00  0.00     0.023 A 
ATOM     74  C   UNL A   1      51.460  27.717  26.849  1.00  0.00     0.012 A 
ATOM     75  C   UNL A   1      50.769  27.772  24.522  1.00  0.00     0.148 A 
ATOM     76  C   UNL A   1      52.795  27.604  26.456  1.00  0.00     0.002 A 
ATOM     77  C   UNL A   1      52.094  27.603  24.137  1.00  0.00     0.091 A 
ATOM     78  F   UNL A   1      49.784  27.896  23.622  1.00  0.00    -0.205 F 
ATOM     79  C   UNL A   1      53.111  27.536  25.101  1.00  0.00     0.022 A 
BRANCH  77  80
ATOM     80  S   UNL A   1      52.567  27.378  22.418  1.00  0.00     0.127 S 
ATOM     81  O   UNL A   1      53.280  28.620  22.139  1.00  0.00    -0.237 OA
ATOM     82  O   UNL A   1      53.409  26.183  22.489  1.00  0.00    -0.237 OA
ATOM     83  O   UNL A   1      51.315  27.183  21.698  1.00  0.00    -0.744 OA
ENDBRANCH  77  80
ENDBRANCH  49  73
BRANCH  61  84
ATOM     84  C   UNL A   1      46.886  33.110  28.739  1.00  0.00     0.023 A 
ATOM     85  C   UNL A   1      47.419  33.321  30.025  1.00  0.00     0.012 A 
ATOM     86  C   UNL A   1      46.790  34.197  27.847  1.00  0.00     0.148 A 
ATOM     87  C   UNL A   1      47.815  34.595  30.432  1.00  0.00     0.002 A 
ATOM     88  C   UNL A   1      47.229  35.457  28.242  1.00  0.00     0.091 A 
ATOM     89  F   UNL A   1      46.262  33.987  26.632  1.00  0.00    -0.205 F 
ATOM     90  C   UNL A   1      47.729  35.660  29.539  1.00  0.00     0.022 A 
BRANCH  88  91
ATOM     91  S   UNL A   1      47.238  36.861  27.123  1.00  0.00     0.127 S 
ATOM     92  O   UNL A   1      45.809  37.085  26.910  1.00  0.00    -0.237 OA
ATOM     93  O   UNL A   1      47.904  37.894  27.918  1.00  0.00    -0.237 OA
ATOM     94  O   UNL A   1      47.990  36.429  25.952  1.00  0.00    -0.744 OA
ENDBRANCH  88  91
ENDBRANCH  61  84
ENDBRANCH  35  36
ENDBRANCH  28  30
ENDBRANCH  27  28
ENDBRANCH  26  27
ENDBRANCH  25  26
ENDBRANCH  24  25
ENDBRANCH   1  24
TORSDOF 22
ENDMDL
MODEL 3
REMARK VINA RESULT:      -9.3      3.526      8.541
REMARK SMILES O=C(C[C@H]1C[C@H]2CC[C@@H](C1)N2C(=O)NCCC1CC1)OCCOCCOC(=O)c1ccc(-c2c3nc(c(-c4cccc(S(=O)(=O)[O-])c4F)c4ccc([nH]4)c(-c4cccc(S(=O)(=O)[O-])c4F)c4nc(c(-c5cccc(S(=O)(=O)[O-])c5F)c5ccc2[nH]5)C=C4)C=C3)cc1
REMARK SMILES IDX 22 1 21 2 20 3 2 4 1 5 3 6 4 7 5 8 10 9 6 10 9 11 7 12 11 13
REMARK SMILES IDX 8 14 12 15 13 16 14 17 15 19 16 20 17 21 18 22 19 23 23 24
REMARK SMILES IDX 24 25 25 26 26 27 27 28 28 29 29 30 30 31 91 32 31 33 90 34
REMARK SMILES IDX 32 35 33 36 34 37 84 38 35 39 89 40 83 41 85 42 36 43 88 44
REMARK SMILES IDX 82 45 81 46 37 48 69 49 49 50 68 51 50 52 53 53 67 54 86 55
REMARK SMILES IDX 51 56 52 57 66 59 87 60 54 61 38 62 39 63 47 64 40 65 42 66
REMARK SMILES IDX 48 67 41 68 43 69 44 70 45 71 46 72 70 73 71 74 79 75 72 76
REMARK SMILES IDX 74 77 80 78 73 79 75 80 76 81 77 82 78 83 55 84 56 85 64 86
REMARK SMILES IDX 57 87 59 88 65 89 58 90 60 91 61 92 62 93 63 94
REMARK H PARENT 14 18 85 47 53 58
REMARK Flexibility Score: inf
ROOT
ATOM      1  C   UNL A   1      34.427  33.602  30.242  1.00  0.00     0.202 C 
ENDROOT
BRANCH   1   2
ATOM      2  C   UNL A   1      34.739  32.983  28.879  1.00  0.00     0.261 C 
BRANCH   2   3
ATOM      3  O   UNL A   1      34.695  31.535  28.784  1.00  0.00    -0.463 OA
BRANCH   3   4
ATOM      4  C   UNL A   1      34.677  30.626  27.798  1.00  0.00     0.306 C 
ATOM      5  O   UNL A   1      35.742  30.303  27.271  1.00  0.00    -0.252 OA
BRANCH   4   6
ATOM      6  C   UNL A   1      33.390  30.042  27.286  1.00  0.00     0.126 C 
BRANCH   6   7
ATOM      7  C   UNL A   1      33.250  29.593  25.822  1.00  0.00     0.004 C 
ATOM      8  C   UNL A   1      33.990  28.312  25.324  1.00  0.00     0.029 C 
ATOM      9  C   UNL A   1      31.807  29.620  25.346  1.00  0.00     0.029 C 
ATOM     10  C   UNL A   1      33.074  27.108  24.927  1.00  0.00     0.087 C 
ATOM     11  C   UNL A   1      31.121  28.234  25.364  1.00  0.00     0.087 C 
ATOM     12  C   UNL A   1      32.578  26.466  26.220  1.00  0.00     0.027 C 
ATOM     13  N   UNL A   1      31.831  27.589  24.301  1.00  0.00    -0.319 N 
ATOM     14  C   UNL A   1      31.283  27.216  26.500  1.00  0.00     0.027 C 
BRANCH  13  15
ATOM     15  C   UNL A   1      31.614  27.688  22.961  1.00  0.00     0.317 C 
ATOM     16  O   UNL A   1      32.552  27.631  22.162  1.00  0.00    -0.249 OA
ATOM     17  N   UNL A   1      30.374  27.903  22.441  1.00  0.00    -0.338 N 
ATOM     18  H   UNL A   1      30.410  27.991  21.461  1.00  0.00     0.165 HD
BRANCH  17  19
ATOM     19  C   UNL A   1      28.996  28.043  22.934  1.00  0.00     0.118 C 
BRANCH  19  20
ATOM     20  C   UNL A   1      28.298  29.332  22.504  1.00  0.00     0.025 C 
BRANCH  20  21
ATOM     21  C   UNL A   1      28.646  30.516  23.351  1.00  0.00    -0.009 C 
ATOM     22  C   UNL A   1      28.744  31.866  22.684  1.00  0.00     0.004 C 
ATOM     23  C   UNL A   1      27.619  31.578  23.635  1.00  0.00     0.004 C 
ENDBRANCH  20  21
ENDBRANCH  19  20
ENDBRANCH  17  19
ENDBRANCH  13  15
ENDBRANCH   6   7
ENDBRANCH   4   6
ENDBRANCH   3   4
ENDBRANCH   2   3
ENDBRANCH   1   2
BRANCH   1  24
ATOM     24  O   UNL A   1      34.407  32.770  31.398  1.00  0.00    -0.374 OA
BRANCH  24  25
ATOM     25  C   UNL A   1      35.399  32.942  32.399  1.00  0.00     0.202 C 
BRANCH  25  26
ATOM     26  C   UNL A   1      36.195  31.691  32.805  1.00  0.00     0.261 C 
BRANCH  26  27
ATOM     27  O   UNL A   1      36.279  30.660  31.803  1.00  0.00    -0.460 OA
BRANCH  27  28
ATOM     28  C   UNL A   1      37.411  30.668  31.056  1.00  0.00     0.338 C 
ATOM     29  O   UNL A   1      37.555  31.208  29.973  1.00  0.00    -0.246 OA
BRANCH  28  30
ATOM     30  C   UNL A   1      38.544  30.038  31.782  1.00  0.00     0.060 A 
ATOM     31  C   UNL A   1      39.637  30.854  32.105  1.00  0.00     0.016 A 
ATOM     32  C   UNL A   1      38.602  28.664  32.039  1.00  0.00     0.016 A 
ATOM     33  C   UNL A   1      40.818  30.294  32.595  1.00  0.00     0.010 A 
ATOM     34  C   UNL A   1      39.793  28.101  32.524  1.00  0.00     0.010 A 
ATOM     35  C   UNL A   1      40.926  28.906  32.749  1.00  0.00    -0.014 A 
BRANCH  35  36
ATOM     36  C   UNL A   1      42.275  28.300  32.927  1.00  0.00     0.031 A 
ATOM     37  C   UNL A   1      43.035  27.854  31.702  1.00  0.00     0.074 A 
ATOM     38  C   UNL A   1      42.846  28.185  34.141  1.00  0.00     0.049 A 
ATOM     39  N   UNL A   1      44.234  27.338  31.609  1.00  0.00    -0.248 NA
ATOM     40  C   UNL A   1      42.350  28.013  30.407  1.00  0.00     0.031 C 
ATOM     41  C   UNL A   1      42.227  28.567  35.408  1.00  0.00     0.029 A 
ATOM     42  N   UNL A   1      44.075  27.689  34.503  1.00  0.00    -0.354 N 
ATOM     43  C   UNL A   1      44.444  27.103  30.255  1.00  0.00     0.074 A 
ATOM     44  C   UNL A   1      43.240  27.508  29.564  1.00  0.00     0.031 C 
ATOM     45  C   UNL A   1      43.067  28.259  36.413  1.00  0.00     0.029 A 
ATOM     46  C   UNL A   1      44.280  27.653  35.861  1.00  0.00     0.049 A 
ATOM     47  H   UNL A   1      44.748  27.387  33.849  1.00  0.00     0.167 HD
ATOM     48  C   UNL A   1      45.546  26.620  29.631  1.00  0.00     0.034 A 
ATOM     49  C   UNL A   1      45.316  27.174  36.579  1.00  0.00     0.034 A 
ATOM     50  C   UNL A   1      46.752  26.221  30.304  1.00  0.00     0.049 A 
ATOM     51  C   UNL A   1      46.527  26.626  35.865  1.00  0.00     0.074 A 
ATOM     52  C   UNL A   1      47.926  25.737  29.754  1.00  0.00     0.029 A 
ATOM     53  N   UNL A   1      46.938  26.253  31.677  1.00  0.00    -0.354 N 
ATOM     54  N   UNL A   1      46.753  26.527  34.577  1.00  0.00    -0.248 NA
ATOM     55  C   UNL A   1      47.644  26.164  36.704  1.00  0.00     0.031 C 
ATOM     56  C   UNL A   1      48.819  25.464  30.796  1.00  0.00     0.029 A 
ATOM     57  C   UNL A   1      48.207  25.799  31.992  1.00  0.00     0.049 A 
ATOM     58  H   UNL A   1      46.267  26.555  32.330  1.00  0.00     0.167 HD
ATOM     59  C   UNL A   1      48.045  26.021  34.453  1.00  0.00     0.074 A 
ATOM     60  C   UNL A   1      48.562  25.864  35.795  1.00  0.00     0.031 C 
ATOM     61  C   UNL A   1      48.734  25.698  33.330  1.00  0.00     0.034 A 
BRANCH  48  62
ATOM     62  C   UNL A   1      45.513  26.542  28.126  1.00  0.00     0.023 A 
ATOM     63  C   UNL A   1      45.890  27.671  27.370  1.00  0.00     0.012 A 
ATOM     64  C   UNL A   1      45.163  25.351  27.462  1.00  0.00     0.148 A 
ATOM     65  C   UNL A   1      45.891  27.626  25.977  1.00  0.00     0.002 A 
ATOM     66  C   UNL A   1      45.205  25.301  26.072  1.00  0.00     0.091 A 
ATOM     67  F   UNL A   1      44.787  24.296  28.198  1.00  0.00    -0.205 F 
ATOM     68  C   UNL A   1      45.559  26.439  25.330  1.00  0.00     0.022 A 
BRANCH  66  69
ATOM     69  S   UNL A   1      44.863  23.802  25.145  1.00  0.00     0.127 S 
ATOM     70  O   UNL A   1      43.426  23.929  24.900  1.00  0.00    -0.237 OA
ATOM     71  O   UNL A   1      45.701  23.974  23.959  1.00  0.00    -0.237 OA
ATOM     72  O   UNL A   1      45.252  22.697  26.010  1.00  0.00    -0.744 OA
ENDBRANCH  66  69
ENDBRANCH  48  62
BRANCH  49  73
ATOM     73  C   UNL A   1      45.275  27.215  38.069  1.00  0.00     0.023 A 
ATOM     74  C   UNL A   1      44.745  26.126  38.787  1.00  0.00     0.012 A 
ATOM     75  C   UNL A   1      45.758  28.332  38.776  1.00  0.00     0.148 A 
ATOM     76  C   UNL A   1      44.668  26.162  40.181  1.00  0.00     0.002 A 
ATOM     77  C   UNL A   1      45.731  28.339  40.166  1.00  0.00     0.091 A 
ATOM     78  F   UNL A   1      46.234  29.371  38.075  1.00  0.00    -0.205 F 
ATOM     79  C   UNL A   1      45.172  27.263  40.870  1.00  0.00     0.022 A 
BRANCH  77  80
ATOM     80  S   UNL A   1      46.475  29.661  41.128  1.00  0.00     0.127 S 
ATOM     81  O   UNL A   1      45.664  30.809  40.736  1.00  0.00    -0.237 OA
ATOM     82  O   UNL A   1      46.266  29.194  42.499  1.00  0.00    -0.237 OA
ATOM     83  O   UNL A   1      47.873  29.695  40.717  1.00  0.00    -0.744 OA
ENDBRANCH  77  80
ENDBRANCH  49  73
BRANCH  61  84
ATOM     84  C   UNL A   1      50.136  25.168  33.495  1.00  0.00     0.023 A 
ATOM     85  C   UNL A   1      51.219  26.065  33.564  1.00  0.00     0.012 A 
ATOM     86  C   UNL A   1      50.375  23.787  33.642  1.00  0.00     0.148 A 
ATOM     87  C   UNL A   1      52.522  25.596  33.736  1.00  0.00     0.002 A 
ATOM     88  C   UNL A   1      51.670  23.329  33.859  1.00  0.00     0.091 A 
ATOM     89  F   UNL A   1      49.336  22.942  33.555  1.00  0.00    -0.205 F 
ATOM     90  C   UNL A   1      52.746  24.231  33.894  1.00  0.00     0.022 A 
BRANCH  88  91
ATOM     91  S   UNL A   1      52.033  21.596  34.163  1.00  0.00     0.127 S 
ATOM     92  O   UNL A   1      51.468  21.400  35.497  1.00  0.00    -0.237 OA
ATOM     93  O   UNL A   1      51.301  20.927  33.086  1.00  0.00    -0.237 OA
ATOM     94  O   UNL A   1      53.482  21.473  34.067  1.00  0.00    -0.744 OA
ENDBRANCH  88  91
ENDBRANCH  61  84
ENDBRANCH  35  36
ENDBRANCH  28  30
ENDBRANCH  27  28
ENDBRANCH  26  27
ENDBRANCH  25  26
ENDBRANCH  24  25
ENDBRANCH   1  24
TORSDOF 22
ENDMDL
