MODEL 1
REMARK VINA RESULT:     -10.1      0.000      0.000
REMARK SMILES CC(C)n1cncc1[C@@H](NC(=O)OC(C)(C)C)C(=O)OCCOCCOC(=O)c1ccc(-c2c3nc(c(-c4cccc(S(=O)(=O)[O-])c4F)c4ccc([nH]4)c(-c4cccc(S(=O)(=O)[O-])c4F)c4nc(c(-c5cccc(S(=O)(=O)[O-])c5F)c5ccc2[nH]5)C=C4)C=C3)cc1
REMARK SMILES IDX 23 1 22 2 21 3 20 4 18 5 19 6 9 7 8 8 4 9 5 10 6 11 7 12
REMARK SMILES IDX 2 13 1 14 3 15 10 16 11 17 12 19 13 20 14 21 15 22 16 23
REMARK SMILES IDX 17 24 24 25 25 26 26 27 27 28 28 29 29 30 30 31 91 32 31 33
REMARK SMILES IDX 90 34 32 35 33 36 34 37 84 38 35 39 89 40 83 41 85 42 36 43
REMARK SMILES IDX 88 44 82 45 81 46 37 48 69 49 49 50 68 51 50 52 53 53 67 54
REMARK SMILES IDX 86 55 51 56 52 57 66 59 87 60 54 61 38 62 39 63 47 64 40 65
REMARK SMILES IDX 42 66 48 67 41 68 43 69 44 70 45 71 46 72 70 73 71 74 79 75
REMARK SMILES IDX 72 76 74 77 80 78 73 79 75 80 76 81 77 82 78 83 55 84 56 85
REMARK SMILES IDX 64 86 57 87 59 88 65 89 58 90 60 91 61 92 62 93 63 94
REMARK H PARENT 10 18 85 47 53 58
REMARK Flexibility Score: inf
ROOT
ATOM      1  O   UNL A   1      37.932  21.871  26.102  1.00  0.00    -0.374 OA
ENDROOT
BRANCH   1   2
ATOM      2  C   UNL A   1      37.621  23.190  25.673  1.00  0.00     0.202 C 
BRANCH   2   3
ATOM      3  C   UNL A   1      36.189  23.690  25.814  1.00  0.00     0.261 C 
BRANCH   3   4
ATOM      4  O   UNL A   1      35.685  24.497  24.748  1.00  0.00    -0.461 OA
BRANCH   4   5
ATOM      5  C   UNL A   1      34.612  23.979  24.081  1.00  0.00     0.335 C 
ATOM      6  O   UNL A   1      34.642  22.960  23.392  1.00  0.00    -0.249 OA
BRANCH   5   7
ATOM      7  C   UNL A   1      33.377  24.885  24.147  1.00  0.00     0.244 C 
BRANCH   7   8
ATOM      8  C   UNL A   1      33.625  26.300  23.715  1.00  0.00     0.072 A 
ATOM      9  N   UNL A   1      33.820  27.425  24.519  1.00  0.00    -0.330 N 
ATOM     10  C   UNL A   1      33.966  28.489  23.657  1.00  0.00     0.199 A 
ATOM     11  N   UNL A   1      33.912  28.125  22.402  1.00  0.00    -0.245 NA
ATOM     12  C   UNL A   1      33.714  26.783  22.421  1.00  0.00     0.137 A 
BRANCH   9  13
ATOM     13  C   UNL A   1      33.734  27.563  25.980  1.00  0.00     0.082 C 
ATOM     14  C   UNL A   1      34.117  28.947  26.516  1.00  0.00     0.031 C 
ATOM     15  C   UNL A   1      32.339  27.247  26.564  1.00  0.00     0.031 C 
ENDBRANCH   9  13
ENDBRANCH   7   8
BRANCH   7  16
ATOM     16  N   UNL A   1      32.195  24.355  23.473  1.00  0.00    -0.302 N 
ATOM     17  C   UNL A   1      30.952  24.077  23.952  1.00  0.00     0.408 C 
ATOM     18  H   UNL A   1      32.317  24.170  22.514  1.00  0.00     0.168 HD
ATOM     19  O   UNL A   1      30.071  23.726  23.159  1.00  0.00    -0.225 OA
BRANCH  17  20
ATOM     20  O   UNL A   1      30.771  24.222  25.288  1.00  0.00    -0.444 OA
BRANCH  20  21
ATOM     21  C   UNL A   1      31.020  23.103  26.191  1.00  0.00     0.106 C 
ATOM     22  C   UNL A   1      32.165  23.427  27.156  1.00  0.00     0.056 C 
ATOM     23  C   UNL A   1      29.729  22.680  26.901  1.00  0.00     0.056 C 
ATOM     24  C   UNL A   1      31.484  21.898  25.351  1.00  0.00     0.056 C 
ENDBRANCH  20  21
ENDBRANCH  17  20
ENDBRANCH   7  16
ENDBRANCH   5   7
ENDBRANCH   4   5
ENDBRANCH   3   4
ENDBRANCH   2   3
ENDBRANCH   1   2
BRANCH   1  25
ATOM     25  C   UNL A   1      38.002  20.832  25.135  1.00  0.00     0.202 C 
BRANCH  25  26
ATOM     26  C   UNL A   1      39.022  19.717  25.322  1.00  0.00     0.261 C 
BRANCH  26  27
ATOM     27  O   UNL A   1      39.909  19.936  26.405  1.00  0.00    -0.460 OA
BRANCH  27  28
ATOM     28  C   UNL A   1      41.204  19.806  26.049  1.00  0.00     0.338 C 
ATOM     29  O   UNL A   1      41.713  18.848  25.479  1.00  0.00    -0.246 OA
BRANCH  28  30
ATOM     30  C   UNL A   1      41.989  20.889  26.630  1.00  0.00     0.060 A 
ATOM     31  C   UNL A   1      42.006  20.929  28.024  1.00  0.00     0.016 A 
ATOM     32  C   UNL A   1      42.330  21.995  25.841  1.00  0.00     0.016 A 
ATOM     33  C   UNL A   1      42.126  22.155  28.625  1.00  0.00     0.010 A 
ATOM     34  C   UNL A   1      42.450  23.223  26.442  1.00  0.00     0.010 A 
ATOM     35  C   UNL A   1      42.256  23.292  27.817  1.00  0.00    -0.014 A 
BRANCH  35  36
ATOM     36  C   UNL A   1      42.350  24.561  28.496  1.00  0.00     0.031 A 
ATOM     37  C   UNL A   1      41.190  25.417  28.182  1.00  0.00     0.074 A 
ATOM     38  C   UNL A   1      43.357  24.875  29.331  1.00  0.00     0.049 A 
ATOM     39  N   UNL A   1      41.194  26.478  27.449  1.00  0.00    -0.248 NA
ATOM     40  C   UNL A   1      39.848  24.908  28.506  1.00  0.00     0.031 C 
ATOM     41  C   UNL A   1      44.391  23.990  29.868  1.00  0.00     0.029 A 
ATOM     42  N   UNL A   1      43.572  26.041  29.998  1.00  0.00    -0.354 N 
ATOM     43  C   UNL A   1      39.880  26.926  27.473  1.00  0.00     0.074 A 
ATOM     44  C   UNL A   1      39.076  25.815  27.906  1.00  0.00     0.031 C 
ATOM     45  C   UNL A   1      44.929  24.567  30.967  1.00  0.00     0.029 A 
ATOM     46  C   UNL A   1      44.350  25.890  31.141  1.00  0.00     0.049 A 
ATOM     47  H   UNL A   1      43.211  26.908  29.701  1.00  0.00     0.167 HD
ATOM     48  C   UNL A   1      39.619  28.258  27.474  1.00  0.00     0.034 A 
ATOM     49  C   UNL A   1      44.397  26.742  32.197  1.00  0.00     0.034 A 
ATOM     50  C   UNL A   1      40.740  29.018  26.976  1.00  0.00     0.049 A 
ATOM     51  C   UNL A   1      43.899  28.060  31.723  1.00  0.00     0.074 A 
ATOM     52  C   UNL A   1      41.518  28.955  25.834  1.00  0.00     0.029 A 
ATOM     53  N   UNL A   1      41.473  29.737  27.890  1.00  0.00    -0.354 N 
ATOM     54  N   UNL A   1      44.541  28.800  30.863  1.00  0.00    -0.248 NA
ATOM     55  C   UNL A   1      42.473  28.330  31.841  1.00  0.00     0.031 C 
ATOM     56  C   UNL A   1      42.849  29.196  26.285  1.00  0.00     0.029 A 
ATOM     57  C   UNL A   1      42.796  29.482  27.650  1.00  0.00     0.049 A 
ATOM     58  H   UNL A   1      41.111  30.329  28.591  1.00  0.00     0.167 HD
ATOM     59  C   UNL A   1      43.550  29.257  30.003  1.00  0.00     0.074 A 
ATOM     60  C   UNL A   1      42.292  29.023  30.713  1.00  0.00     0.031 C 
ATOM     61  C   UNL A   1      43.808  29.488  28.682  1.00  0.00     0.034 A 
BRANCH  48  62
ATOM     62  C   UNL A   1      38.545  28.883  28.332  1.00  0.00     0.023 A 
ATOM     63  C   UNL A   1      37.658  29.777  27.699  1.00  0.00     0.012 A 
ATOM     64  C   UNL A   1      38.540  28.869  29.749  1.00  0.00     0.148 A 
ATOM     65  C   UNL A   1      36.857  30.653  28.437  1.00  0.00     0.002 A 
ATOM     66  C   UNL A   1      37.675  29.673  30.475  1.00  0.00     0.091 A 
ATOM     67  F   UNL A   1      39.470  28.189  30.423  1.00  0.00    -0.205 F 
ATOM     68  C   UNL A   1      36.857  30.595  29.825  1.00  0.00     0.022 A 
BRANCH  66  69
ATOM     69  S   UNL A   1      37.604  29.590  32.269  1.00  0.00     0.127 S 
ATOM     70  O   UNL A   1      36.435  30.416  32.554  1.00  0.00    -0.237 OA
ATOM     71  O   UNL A   1      37.422  28.155  32.491  1.00  0.00    -0.237 OA
ATOM     72  O   UNL A   1      38.884  30.105  32.738  1.00  0.00    -0.744 OA
ENDBRANCH  66  69
ENDBRANCH  48  62
BRANCH  49  73
ATOM     73  C   UNL A   1      44.548  26.436  33.645  1.00  0.00     0.023 A 
ATOM     74  C   UNL A   1      45.815  26.561  34.254  1.00  0.00     0.012 A 
ATOM     75  C   UNL A   1      43.427  26.283  34.492  1.00  0.00     0.148 A 
ATOM     76  C   UNL A   1      45.953  26.568  35.650  1.00  0.00     0.002 A 
ATOM     77  C   UNL A   1      43.570  26.271  35.877  1.00  0.00     0.091 A 
ATOM     78  F   UNL A   1      42.202  26.249  33.955  1.00  0.00    -0.205 F 
ATOM     79  C   UNL A   1      44.831  26.427  36.461  1.00  0.00     0.022 A 
BRANCH  77  80
ATOM     80  S   UNL A   1      42.154  26.098  36.972  1.00  0.00     0.127 S 
ATOM     81  O   UNL A   1      42.770  26.224  38.294  1.00  0.00    -0.237 OA
ATOM     82  O   UNL A   1      41.320  27.228  36.574  1.00  0.00    -0.237 OA
ATOM     83  O   UNL A   1      41.603  24.775  36.700  1.00  0.00    -0.744 OA
ENDBRANCH  77  80
ENDBRANCH  49  73
BRANCH  61  84
ATOM     84  C   UNL A   1      45.240  29.505  28.210  1.00  0.00     0.023 A 
ATOM     85  C   UNL A   1      46.061  30.649  28.297  1.00  0.00     0.012 A 
ATOM     86  C   UNL A   1      45.822  28.282  27.834  1.00  0.00     0.148 A 
ATOM     87  C   UNL A   1      47.423  30.577  27.988  1.00  0.00     0.002 A 
ATOM     88  C   UNL A   1      47.184  28.204  27.576  1.00  0.00     0.091 A 
ATOM     89  F   UNL A   1      45.030  27.201  27.756  1.00  0.00    -0.205 F 
ATOM     90  C   UNL A   1      47.988  29.352  27.642  1.00  0.00     0.022 A 
BRANCH  88  91
ATOM     91  S   UNL A   1      47.980  26.630  27.250  1.00  0.00     0.127 S 
ATOM     92  O   UNL A   1      47.249  26.157  26.076  1.00  0.00    -0.237 OA
ATOM     93  O   UNL A   1      49.366  27.023  26.989  1.00  0.00    -0.237 OA
ATOM     94  O   UNL A   1      47.808  25.835  28.460  1.00  0.00    -0.744 OA
ENDBRANCH  88  91
ENDBRANCH  61  84
ENDBRANCH  35  36
ENDBRANCH  28  30
ENDBRANCH  27  28
ENDBRANCH  26  27
ENDBRANCH  25  26
ENDBRANCH   1  25
TORSDOF 22
ENDMDL
MODEL 2
REMARK VINA RESULT:      -9.9      1.861      2.921
REMARK SMILES CC(C)n1cncc1[C@@H](NC(=O)OC(C)(C)C)C(=O)OCCOCCOC(=O)c1ccc(-c2c3nc(c(-c4cccc(S(=O)(=O)[O-])c4F)c4ccc([nH]4)c(-c4cccc(S(=O)(=O)[O-])c4F)c4nc(c(-c5cccc(S(=O)(=O)[O-])c5F)c5ccc2[nH]5)C=C4)C=C3)cc1
REMARK SMILES IDX 23 1 22 2 21 3 20 4 18 5 19 6 9 7 8 8 4 9 5 10 6 11 7 12
REMARK SMILES IDX 2 13 1 14 3 15 10 16 11 17 12 19 13 20 14 21 15 22 16 23
REMARK SMILES IDX 17 24 24 25 25 26 26 27 27 28 28 29 29 30 30 31 91 32 31 33
REMARK SMILES IDX 90 34 32 35 33 36 34 37 84 38 35 39 89 40 83 41 85 42 36 43
REMARK SMILES IDX 88 44 82 45 81 46 37 48 69 49 49 50 68 51 50 52 53 53 67 54
REMARK SMILES IDX 86 55 51 56 52 57 66 59 87 60 54 61 38 62 39 63 47 64 40 65
REMARK SMILES IDX 42 66 48 67 41 68 43 69 44 70 45 71 46 72 70 73 71 74 79 75
REMARK SMILES IDX 72 76 74 77 80 78 73 79 75 80 76 81 77 82 78 83 55 84 56 85
REMARK SMILES IDX 64 86 57 87 59 88 65 89 58 90 60 91 61 92 62 93 63 94
REMARK H PARENT 10 18 85 47 53 58
REMARK Flexibility Score: inf
ROOT
ATOM      1  O   UNL A   1      37.806  21.275  24.604  1.00  0.00    -0.374 OA
ENDROOT
BRANCH   1   2
ATOM      2  C   UNL A   1      37.104  22.511  24.587  1.00  0.00     0.202 C 
BRANCH   2   3
ATOM      3  C   UNL A   1      36.359  22.916  23.322  1.00  0.00     0.261 C 
BRANCH   3   4
ATOM      4  O   UNL A   1      35.546  24.088  23.405  1.00  0.00    -0.461 OA
BRANCH   4   5
ATOM      5  C   UNL A   1      34.235  23.914  23.065  1.00  0.00     0.335 C 
ATOM      6  O   UNL A   1      33.844  23.256  22.103  1.00  0.00    -0.249 OA
BRANCH   5   7
ATOM      7  C   UNL A   1      33.282  24.757  23.921  1.00  0.00     0.244 C 
BRANCH   7   8
ATOM      8  C   UNL A   1      32.298  23.957  24.721  1.00  0.00     0.072 A 
ATOM      9  N   UNL A   1      32.559  22.938  25.639  1.00  0.00    -0.330 N 
ATOM     10  C   UNL A   1      31.331  22.492  26.074  1.00  0.00     0.199 A 
ATOM     11  N   UNL A   1      30.340  23.158  25.538  1.00  0.00    -0.245 NA
ATOM     12  C   UNL A   1      30.918  24.068  24.713  1.00  0.00     0.137 A 
BRANCH   9  13
ATOM     13  C   UNL A   1      33.833  22.299  25.998  1.00  0.00     0.082 C 
ATOM     14  C   UNL A   1      34.499  22.861  27.260  1.00  0.00     0.031 C 
ATOM     15  C   UNL A   1      33.738  20.771  26.206  1.00  0.00     0.031 C 
ENDBRANCH   9  13
ENDBRANCH   7   8
BRANCH   7  16
ATOM     16  N   UNL A   1      33.938  25.743  24.775  1.00  0.00    -0.302 N 
ATOM     17  C   UNL A   1      33.655  27.057  24.990  1.00  0.00     0.408 C 
ATOM     18  H   UNL A   1      34.712  25.402  25.278  1.00  0.00     0.168 HD
ATOM     19  O   UNL A   1      34.299  27.673  25.847  1.00  0.00    -0.225 OA
BRANCH  17  20
ATOM     20  O   UNL A   1      32.660  27.593  24.241  1.00  0.00    -0.444 OA
BRANCH  20  21
ATOM     21  C   UNL A   1      31.424  28.043  24.873  1.00  0.00     0.106 C 
ATOM     22  C   UNL A   1      31.199  27.317  26.204  1.00  0.00     0.056 C 
ATOM     23  C   UNL A   1      31.404  29.570  25.004  1.00  0.00     0.056 C 
ATOM     24  C   UNL A   1      30.245  27.657  23.960  1.00  0.00     0.056 C 
ENDBRANCH  20  21
ENDBRANCH  17  20
ENDBRANCH   7  16
ENDBRANCH   5   7
ENDBRANCH   4   5
ENDBRANCH   3   4
ENDBRANCH   2   3
ENDBRANCH   1   2
BRANCH   1  25
ATOM     25  C   UNL A   1      38.793  21.059  25.603  1.00  0.00     0.202 C 
BRANCH  25  26
ATOM     26  C   UNL A   1      39.489  19.707  25.671  1.00  0.00     0.261 C 
BRANCH  26  27
ATOM     27  O   UNL A   1      40.584  19.679  26.571  1.00  0.00    -0.460 OA
BRANCH  27  28
ATOM     28  C   UNL A   1      41.758  19.962  25.968  1.00  0.00     0.338 C 
ATOM     29  O   UNL A   1      42.276  19.339  25.049  1.00  0.00    -0.246 OA
BRANCH  28  30
ATOM     30  C   UNL A   1      42.456  21.008  26.707  1.00  0.00     0.060 A 
ATOM     31  C   UNL A   1      42.155  21.076  28.067  1.00  0.00     0.016 A 
ATOM     32  C   UNL A   1      43.038  22.075  26.010  1.00  0.00     0.016 A 
ATOM     33  C   UNL A   1      42.211  22.304  28.671  1.00  0.00     0.010 A 
ATOM     34  C   UNL A   1      43.095  23.305  26.615  1.00  0.00     0.010 A 
ATOM     35  C   UNL A   1      42.595  23.415  27.907  1.00  0.00    -0.014 A 
BRANCH  35  36
ATOM     36  C   UNL A   1      42.611  24.690  28.581  1.00  0.00     0.031 A 
ATOM     37  C   UNL A   1      41.395  25.466  28.273  1.00  0.00     0.074 A 
ATOM     38  C   UNL A   1      43.601  25.073  29.407  1.00  0.00     0.049 A 
ATOM     39  N   UNL A   1      41.323  26.523  27.537  1.00  0.00    -0.248 NA
ATOM     40  C   UNL A   1      40.091  24.872  28.610  1.00  0.00     0.031 C 
ATOM     41  C   UNL A   1      44.695  24.259  29.939  1.00  0.00     0.029 A 
ATOM     42  N   UNL A   1      43.744  26.252  30.068  1.00  0.00    -0.354 N 
ATOM     43  C   UNL A   1      39.983  26.883  27.570  1.00  0.00     0.074 A 
ATOM     44  C   UNL A   1      39.257  25.724  28.013  1.00  0.00     0.031 C 
ATOM     45  C   UNL A   1      45.203  24.875  31.031  1.00  0.00     0.029 A 
ATOM     46  C   UNL A   1      44.540  26.157  31.205  1.00  0.00     0.049 A 
ATOM     47  H   UNL A   1      43.325  27.093  29.771  1.00  0.00     0.167 HD
ATOM     48  C   UNL A   1      39.635  28.196  27.569  1.00  0.00     0.034 A 
ATOM     49  C   UNL A   1      44.539  27.015  32.258  1.00  0.00     0.034 A 
ATOM     50  C   UNL A   1      40.700  29.026  27.060  1.00  0.00     0.049 A 
ATOM     51  C   UNL A   1      43.952  28.295  31.784  1.00  0.00     0.074 A 
ATOM     52  C   UNL A   1      41.472  29.010  25.912  1.00  0.00     0.029 A 
ATOM     53  N   UNL A   1      41.391  29.795  27.965  1.00  0.00    -0.354 N 
ATOM     54  N   UNL A   1      44.538  29.072  30.916  1.00  0.00    -0.248 NA
ATOM     55  C   UNL A   1      42.512  28.471  31.912  1.00  0.00     0.031 C 
ATOM     56  C   UNL A   1      42.787  29.339  26.351  1.00  0.00     0.029 A 
ATOM     57  C   UNL A   1      42.726  29.626  27.715  1.00  0.00     0.049 A 
ATOM     58  H   UNL A   1      40.997  30.364  28.666  1.00  0.00     0.167 HD
ATOM     59  C   UNL A   1      43.512  29.460  30.063  1.00  0.00     0.074 A 
ATOM     60  C   UNL A   1      42.277  29.147  30.783  1.00  0.00     0.031 C 
ATOM     61  C   UNL A   1      43.744  29.702  28.739  1.00  0.00     0.034 A 
BRANCH  48  62
ATOM     62  C   UNL A   1      38.529  28.752  28.433  1.00  0.00     0.023 A 
ATOM     63  C   UNL A   1      37.553  29.543  27.795  1.00  0.00     0.012 A 
ATOM     64  C   UNL A   1      38.557  28.784  29.849  1.00  0.00     0.148 A 
ATOM     65  C   UNL A   1      36.694  30.370  28.525  1.00  0.00     0.002 A 
ATOM     66  C   UNL A   1      37.640  29.533  30.572  1.00  0.00     0.091 A 
ATOM     67  F   UNL A   1      39.557  28.212  30.522  1.00  0.00    -0.205 F 
ATOM     68  C   UNL A   1      36.730  30.359  29.914  1.00  0.00     0.022 A 
BRANCH  66  69
ATOM     69  S   UNL A   1      37.616  29.504  32.369  1.00  0.00     0.127 S 
ATOM     70  O   UNL A   1      37.521  28.072  32.637  1.00  0.00    -0.237 OA
ATOM     71  O   UNL A   1      38.907  30.113  32.690  1.00  0.00    -0.237 OA
ATOM     72  O   UNL A   1      36.466  30.308  32.761  1.00  0.00    -0.744 OA
ENDBRANCH  66  69
ENDBRANCH  48  62
BRANCH  49  73
ATOM     73  C   UNL A   1      44.721  26.724  33.706  1.00  0.00     0.023 A 
ATOM     74  C   UNL A   1      45.976  26.957  34.310  1.00  0.00     0.012 A 
ATOM     75  C   UNL A   1      43.620  26.479  34.558  1.00  0.00     0.148 A 
ATOM     76  C   UNL A   1      46.118  26.978  35.705  1.00  0.00     0.002 A 
ATOM     77  C   UNL A   1      43.769  26.481  35.942  1.00  0.00     0.091 A 
ATOM     78  F   UNL A   1      42.400  26.340  34.026  1.00  0.00    -0.205 F 
ATOM     79  C   UNL A   1      45.015  26.744  36.521  1.00  0.00     0.022 A 
BRANCH  77  80
ATOM     80  S   UNL A   1      42.377  26.190  37.043  1.00  0.00     0.127 S 
ATOM     81  O   UNL A   1      41.451  27.256  36.657  1.00  0.00    -0.237 OA
ATOM     82  O   UNL A   1      41.959  24.846  36.657  1.00  0.00    -0.237 OA
ATOM     83  O   UNL A   1      42.906  26.328  38.395  1.00  0.00    -0.744 OA
ENDBRANCH  77  80
ENDBRANCH  49  73
BRANCH  61  84
ATOM     84  C   UNL A   1      45.168  29.811  28.256  1.00  0.00     0.023 A 
ATOM     85  C   UNL A   1      45.943  28.688  27.897  1.00  0.00     0.012 A 
ATOM     86  C   UNL A   1      45.674  31.095  27.988  1.00  0.00     0.148 A 
ATOM     87  C   UNL A   1      47.203  28.845  27.312  1.00  0.00     0.002 A 
ATOM     88  C   UNL A   1      46.904  31.247  27.362  1.00  0.00     0.091 A 
ATOM     89  F   UNL A   1      44.927  32.155  28.333  1.00  0.00    -0.205 F 
ATOM     90  C   UNL A   1      47.678  30.124  27.031  1.00  0.00     0.022 A 
BRANCH  88  91
ATOM     91  S   UNL A   1      47.502  32.863  26.866  1.00  0.00     0.127 S 
ATOM     92  O   UNL A   1      48.816  32.544  26.310  1.00  0.00    -0.237 OA
ATOM     93  O   UNL A   1      46.506  33.282  25.879  1.00  0.00    -0.237 OA
ATOM     94  O   UNL A   1      47.513  33.675  28.077  1.00  0.00    -0.744 OA
ENDBRANCH  88  91
ENDBRANCH  61  84
ENDBRANCH  35  36
ENDBRANCH  28  30
ENDBRANCH  27  28
ENDBRANCH  26  27
ENDBRANCH  25  26
ENDBRANCH   1  25
TORSDOF 22
ENDMDL
MODEL 3
REMARK VINA RESULT:      -9.4      2.938      6.941
REMARK SMILES CC(C)n1cncc1[C@@H](NC(=O)OC(C)(C)C)C(=O)OCCOCCOC(=O)c1ccc(-c2c3nc(c(-c4cccc(S(=O)(=O)[O-])c4F)c4ccc([nH]4)c(-c4cccc(S(=O)(=O)[O-])c4F)c4nc(c(-c5cccc(S(=O)(=O)[O-])c5F)c5ccc2[nH]5)C=C4)C=C3)cc1
REMARK SMILES IDX 23 1 22 2 21 3 20 4 18 5 19 6 9 7 8 8 4 9 5 10 6 11 7 12
REMARK SMILES IDX 2 13 1 14 3 15 10 16 11 17 12 19 13 20 14 21 15 22 16 23
REMARK SMILES IDX 17 24 24 25 25 26 26 27 27 28 28 29 29 30 30 31 91 32 31 33
REMARK SMILES IDX 90 34 32 35 33 36 34 37 84 38 35 39 89 40 83 41 85 42 36 43
REMARK SMILES IDX 88 44 82 45 81 46 37 48 69 49 49 50 68 51 50 52 53 53 67 54
REMARK SMILES IDX 86 55 51 56 52 57 66 59 87 60 54 61 38 62 39 63 47 64 40 65
REMARK SMILES IDX 42 66 48 67 41 68 43 69 44 70 45 71 46 72 70 73 71 74 79 75
REMARK SMILES IDX 72 76 74 77 80 78 73 79 75 80 76 81 77 82 78 83 55 84 56 85
REMARK SMILES IDX 64 86 57 87 59 88 65 89 58 90 60 91 61 92 62 93 63 94
REMARK H PARENT 10 18 85 47 53 58
REMARK Flexibility Score: inf
ROOT
ATOM      1  O   UNL A   1      38.371  21.691  25.938  1.00  0.00    -0.374 OA
ENDROOT
BRANCH   1   2
ATOM      2  C   UNL A   1      37.736  22.882  25.492  1.00  0.00     0.202 C 
BRANCH   2   3
ATOM      3  C   UNL A   1      36.871  22.829  24.240  1.00  0.00     0.261 C 
BRANCH   3   4
ATOM      4  O   UNL A   1      35.603  23.486  24.310  1.00  0.00    -0.461 OA
BRANCH   4   5
ATOM      5  C   UNL A   1      34.595  22.880  23.617  1.00  0.00     0.335 C 
ATOM      6  O   UNL A   1      34.252  23.181  22.474  1.00  0.00    -0.249 OA
BRANCH   5   7
ATOM      7  C   UNL A   1      33.810  21.874  24.467  1.00  0.00     0.244 C 
BRANCH   7   8
ATOM      8  C   UNL A   1      33.038  22.488  25.597  1.00  0.00     0.072 A 
ATOM      9  N   UNL A   1      32.105  23.524  25.541  1.00  0.00    -0.330 N 
ATOM     10  C   UNL A   1      31.709  23.753  26.840  1.00  0.00     0.199 A 
ATOM     11  N   UNL A   1      32.284  22.937  27.687  1.00  0.00    -0.245 NA
ATOM     12  C   UNL A   1      33.094  22.148  26.938  1.00  0.00     0.137 A 
BRANCH   9  13
ATOM     13  C   UNL A   1      31.697  24.363  24.404  1.00  0.00     0.082 C 
ATOM     14  C   UNL A   1      30.696  23.705  23.449  1.00  0.00     0.031 C 
ATOM     15  C   UNL A   1      31.078  25.719  24.809  1.00  0.00     0.031 C 
ENDBRANCH   9  13
ENDBRANCH   7   8
BRANCH   7  16
ATOM     16  N   UNL A   1      32.950  20.971  23.706  1.00  0.00    -0.302 N 
ATOM     17  C   UNL A   1      32.937  19.612  23.632  1.00  0.00     0.408 C 
ATOM     18  H   UNL A   1      32.268  21.419  23.156  1.00  0.00     0.168 HD
ATOM     19  O   UNL A   1      32.039  19.058  22.990  1.00  0.00    -0.225 OA
BRANCH  17  20
ATOM     20  O   UNL A   1      33.925  18.960  24.295  1.00  0.00    -0.444 OA
BRANCH  20  21
ATOM     21  C   UNL A   1      33.874  17.509  24.450  1.00  0.00     0.106 C 
ATOM     22  C   UNL A   1      32.765  17.106  25.428  1.00  0.00     0.056 C 
ATOM     23  C   UNL A   1      33.760  16.821  23.086  1.00  0.00     0.056 C 
ATOM     24  C   UNL A   1      35.201  17.043  25.078  1.00  0.00     0.056 C 
ENDBRANCH  20  21
ENDBRANCH  17  20
ENDBRANCH   7  16
ENDBRANCH   5   7
ENDBRANCH   4   5
ENDBRANCH   3   4
ENDBRANCH   2   3
ENDBRANCH   1   2
BRANCH   1  25
ATOM     25  C   UNL A   1      39.693  21.767  26.450  1.00  0.00     0.202 C 
BRANCH  25  26
ATOM     26  C   UNL A   1      40.653  20.614  26.190  1.00  0.00     0.261 C 
BRANCH  26  27
ATOM     27  O   UNL A   1      41.936  20.805  26.761  1.00  0.00    -0.460 OA
BRANCH  27  28
ATOM     28  C   UNL A   1      42.881  21.078  25.836  1.00  0.00     0.338 C 
ATOM     29  O   UNL A   1      43.414  20.277  25.078  1.00  0.00    -0.246 OA
BRANCH  28  30
ATOM     30  C   UNL A   1      43.353  22.448  26.000  1.00  0.00     0.060 A 
ATOM     31  C   UNL A   1      44.102  22.685  27.152  1.00  0.00     0.016 A 
ATOM     32  C   UNL A   1      42.745  23.479  25.272  1.00  0.00     0.016 A 
ATOM     33  C   UNL A   1      44.034  23.933  27.711  1.00  0.00     0.010 A 
ATOM     34  C   UNL A   1      42.677  24.731  25.832  1.00  0.00     0.010 A 
ATOM     35  C   UNL A   1      43.248  24.911  27.086  1.00  0.00    -0.014 A 
BRANCH  35  36
ATOM     36  C   UNL A   1      43.187  26.200  27.729  1.00  0.00     0.031 A 
ATOM     37  C   UNL A   1      44.389  27.000  27.426  1.00  0.00     0.074 A 
ATOM     38  C   UNL A   1      42.138  26.605  28.467  1.00  0.00     0.049 A 
ATOM     39  N   UNL A   1      45.342  27.296  28.244  1.00  0.00    -0.248 NA
ATOM     40  C   UNL A   1      44.690  27.289  26.014  1.00  0.00     0.031 C 
ATOM     41  C   UNL A   1      40.829  25.965  28.599  1.00  0.00     0.029 A 
ATOM     42  N   UNL A   1      41.980  27.774  29.144  1.00  0.00    -0.354 N 
ATOM     43  C   UNL A   1      46.220  28.068  27.495  1.00  0.00     0.074 A 
ATOM     44  C   UNL A   1      45.910  27.818  26.114  1.00  0.00     0.031 C 
ATOM     45  C   UNL A   1      39.944  26.877  29.065  1.00  0.00     0.029 A 
ATOM     46  C   UNL A   1      40.648  28.116  29.354  1.00  0.00     0.049 A 
ATOM     47  H   UNL A   1      42.734  28.325  29.456  1.00  0.00     0.167 HD
ATOM     48  C   UNL A   1      46.880  29.101  28.079  1.00  0.00     0.034 A 
ATOM     49  C   UNL A   1      40.172  29.361  29.617  1.00  0.00     0.034 A 
ATOM     50  C   UNL A   1      46.927  28.956  29.514  1.00  0.00     0.049 A 
ATOM     51  C   UNL A   1      41.308  30.167  30.135  1.00  0.00     0.074 A 
ATOM     52  C   UNL A   1      47.320  27.942  30.370  1.00  0.00     0.029 A 
ATOM     53  N   UNL A   1      46.128  29.788  30.261  1.00  0.00    -0.354 N 
ATOM     54  N   UNL A   1      41.878  29.943  31.285  1.00  0.00    -0.248 NA
ATOM     55  C   UNL A   1      42.109  30.908  29.171  1.00  0.00     0.031 C 
ATOM     56  C   UNL A   1      46.349  27.948  31.413  1.00  0.00     0.029 A 
ATOM     57  C   UNL A   1      45.479  29.016  31.186  1.00  0.00     0.049 A 
ATOM     58  H   UNL A   1      46.038  30.763  30.150  1.00  0.00     0.167 HD
ATOM     59  C   UNL A   1      43.236  30.065  31.019  1.00  0.00     0.074 A 
ATOM     60  C   UNL A   1      43.313  30.760  29.734  1.00  0.00     0.031 C 
ATOM     61  C   UNL A   1      44.162  29.322  31.696  1.00  0.00     0.034 A 
BRANCH  48  62
ATOM     62  C   UNL A   1      47.079  30.435  27.401  1.00  0.00     0.023 A 
ATOM     63  C   UNL A   1      48.353  31.026  27.509  1.00  0.00     0.012 A 
ATOM     64  C   UNL A   1      46.028  31.258  26.927  1.00  0.00     0.148 A 
ATOM     65  C   UNL A   1      48.557  32.378  27.221  1.00  0.00     0.002 A 
ATOM     66  C   UNL A   1      46.255  32.574  26.552  1.00  0.00     0.091 A 
ATOM     67  F   UNL A   1      44.763  30.834  26.967  1.00  0.00    -0.205 F 
ATOM     68  C   UNL A   1      47.510  33.152  26.733  1.00  0.00     0.022 A 
BRANCH  66  69
ATOM     69  S   UNL A   1      44.942  33.592  25.865  1.00  0.00     0.127 S 
ATOM     70  O   UNL A   1      44.503  32.779  24.736  1.00  0.00    -0.237 OA
ATOM     71  O   UNL A   1      44.004  33.659  26.987  1.00  0.00    -0.237 OA
ATOM     72  O   UNL A   1      45.564  34.868  25.535  1.00  0.00    -0.744 OA
ENDBRANCH  66  69
ENDBRANCH  48  62
BRANCH  49  73
ATOM     73  C   UNL A   1      38.899  29.992  29.176  1.00  0.00     0.023 A 
ATOM     74  C   UNL A   1      38.285  29.559  27.981  1.00  0.00     0.012 A 
ATOM     75  C   UNL A   1      38.142  30.818  30.039  1.00  0.00     0.148 A 
ATOM     76  C   UNL A   1      36.961  29.908  27.677  1.00  0.00     0.002 A 
ATOM     77  C   UNL A   1      36.835  31.177  29.724  1.00  0.00     0.091 A 
ATOM     78  F   UNL A   1      38.659  31.176  31.220  1.00  0.00    -0.205 F 
ATOM     79  C   UNL A   1      36.234  30.713  28.549  1.00  0.00     0.022 A 
BRANCH  77  80
ATOM     80  S   UNL A   1      35.850  32.211  30.817  1.00  0.00     0.127 S 
ATOM     81  O   UNL A   1      35.780  31.396  32.031  1.00  0.00    -0.237 OA
ATOM     82  O   UNL A   1      36.677  33.410  30.931  1.00  0.00    -0.237 OA
ATOM     83  O   UNL A   1      34.566  32.385  30.147  1.00  0.00    -0.744 OA
ENDBRANCH  77  80
ENDBRANCH  49  73
BRANCH  61  84
ATOM     84  C   UNL A   1      43.730  28.563  32.925  1.00  0.00     0.023 A 
ATOM     85  C   UNL A   1      43.231  27.244  32.874  1.00  0.00     0.012 A 
ATOM     86  C   UNL A   1      44.004  29.133  34.180  1.00  0.00     0.148 A 
ATOM     87  C   UNL A   1      42.986  26.526  34.048  1.00  0.00     0.002 A 
ATOM     88  C   UNL A   1      43.807  28.399  35.342  1.00  0.00     0.091 A 
ATOM     89  F   UNL A   1      44.480  30.388  34.215  1.00  0.00    -0.205 F 
ATOM     90  C   UNL A   1      43.287  27.097  35.282  1.00  0.00     0.022 A 
BRANCH  88  91
ATOM     91  S   UNL A   1      44.296  29.043  36.943  1.00  0.00     0.127 S 
ATOM     92  O   UNL A   1      44.085  27.887  37.812  1.00  0.00    -0.237 OA
ATOM     93  O   UNL A   1      45.700  29.398  36.727  1.00  0.00    -0.237 OA
ATOM     94  O   UNL A   1      43.429  30.187  37.197  1.00  0.00    -0.744 OA
ENDBRANCH  88  91
ENDBRANCH  61  84
ENDBRANCH  35  36
ENDBRANCH  28  30
ENDBRANCH  27  28
ENDBRANCH  26  27
ENDBRANCH  25  26
ENDBRANCH   1  25
TORSDOF 22
ENDMDL
