MODEL 1
REMARK VINA RESULT:     -11.2      0.000      0.000
REMARK SMILES CCc1cc(OC(F)(F)F)cc2c1O[C@@H](C(F)(F)F)C(C(=O)OCCOCCOC(=O)c1ccc(-c3c4nc(c(-c5cccc(S(=O)(=O)[O-])c5F)c5ccc([nH]5)c(-c5cccc(S(=O)(=O)[O-])c5F)c5nc(c(-c6cccc(S(=O)(=O)[O-])c6F)c6ccc3[nH]6)C=C5)C=C4)cc1)=C2
REMARK SMILES IDX 27 1 26 2 25 3 24 4 23 5 21 6 22 7 20 8 3 9 4 10 13 11 5 12
REMARK SMILES IDX 12 13 14 14 11 15 95 16 15 17 2 18 1 19 6 20 7 21 8 22 9 23
REMARK SMILES IDX 10 24 16 25 17 26 18 27 19 28 28 29 29 30 30 31 31 32 32 33
REMARK SMILES IDX 33 34 94 35 34 36 93 37 35 38 36 39 37 40 87 41 38 42 92 43
REMARK SMILES IDX 86 44 88 45 39 46 91 47 85 48 84 49 40 51 72 52 52 53 71 54
REMARK SMILES IDX 53 55 56 56 70 57 89 58 54 59 55 60 69 62 90 63 57 64 41 65
REMARK SMILES IDX 42 66 50 67 43 68 45 69 51 70 44 71 46 72 47 73 48 74 49 75
REMARK SMILES IDX 73 76 74 77 82 78 75 79 77 80 83 81 76 82 78 83 79 84 80 85
REMARK SMILES IDX 81 86 58 87 59 88 67 89 60 90 62 91 68 92 61 93 63 94 64 95
REMARK SMILES IDX 65 96 66 97
REMARK H PARENT 88 50 56 61
REMARK Flexibility Score: inf
ROOT
ATOM      1  C   UNL A   1      31.209  32.527  26.522  1.00  0.00     0.202 C 
ENDROOT
BRANCH   1   2
ATOM      2  O   UNL A   1      31.051  31.400  25.659  1.00  0.00    -0.374 OA
BRANCH   2   3
ATOM      3  C   UNL A   1      31.799  30.225  25.969  1.00  0.00     0.202 C 
BRANCH   3   4
ATOM      4  C   UNL A   1      31.486  28.974  25.143  1.00  0.00     0.261 C 
BRANCH   4   5
ATOM      5  O   UNL A   1      32.431  27.923  25.398  1.00  0.00    -0.460 OA
BRANCH   5   6
ATOM      6  C   UNL A   1      31.922  26.840  26.033  1.00  0.00     0.338 C 
ATOM      7  O   UNL A   1      31.040  26.836  26.875  1.00  0.00    -0.246 OA
BRANCH   6   8
ATOM      8  C   UNL A   1      32.483  25.600  25.471  1.00  0.00     0.087 C 
ATOM      9  C   UNL A   1      33.323  21.678  24.312  1.00  0.00    -0.002 A 
ATOM     10  C   UNL A   1      34.542  21.097  24.698  1.00  0.00     0.054 A 
ATOM     11  C   UNL A   1      33.052  22.993  24.709  1.00  0.00     0.131 A 
ATOM     12  C   UNL A   1      35.463  21.805  25.475  1.00  0.00     0.130 A 
ATOM     13  C   UNL A   1      33.963  23.717  25.495  1.00  0.00     0.021 A 
ATOM     14  O   UNL A   1      31.832  23.521  24.364  1.00  0.00    -0.475 OA
ATOM     15  C   UNL A   1      35.172  23.120  25.860  1.00  0.00     0.058 A 
ATOM     16  C   UNL A   1      33.569  25.027  26.018  1.00  0.00     0.027 C 
ATOM     17  C   UNL A   1      31.811  24.969  24.275  1.00  0.00     0.316 C 
BRANCH   9  18
ATOM     18  C   UNL A   1      32.324  20.859  23.528  1.00  0.00     0.036 C 
ATOM     19  C   UNL A   1      32.466  19.371  23.814  1.00  0.00     0.009 C 
ENDBRANCH   9  18
BRANCH  12  20
ATOM     20  O   UNL A   1      36.663  21.329  25.925  1.00  0.00    -0.406 OA
BRANCH  20  21
ATOM     21  C   UNL A   1      37.725  21.246  24.987  1.00  0.00     0.573 C 
ATOM     22  F   UNL A   1      38.828  21.886  25.430  1.00  0.00    -0.132 F 
ATOM     23  F   UNL A   1      38.035  19.956  24.725  1.00  0.00    -0.132 F 
ATOM     24  F   UNL A   1      37.339  21.822  23.829  1.00  0.00    -0.132 F 
ENDBRANCH  20  21
ENDBRANCH  12  20
BRANCH  17  25
ATOM     25  C   UNL A   1      30.386  25.408  23.900  1.00  0.00     0.430 C 
ATOM     26  F   UNL A   1      30.391  26.580  23.224  1.00  0.00    -0.167 F 
ATOM     27  F   UNL A   1      29.833  24.498  23.049  1.00  0.00    -0.167 F 
ATOM     28  F   UNL A   1      29.556  25.507  24.955  1.00  0.00    -0.167 F 
ENDBRANCH  17  25
ENDBRANCH   6   8
ENDBRANCH   5   6
ENDBRANCH   4   5
ENDBRANCH   3   4
ENDBRANCH   2   3
ENDBRANCH   1   2
BRANCH   1  29
ATOM     29  C   UNL A   1      32.360  32.473  27.534  1.00  0.00     0.261 C 
BRANCH  29  30
ATOM     30  O   UNL A   1      33.245  33.600  27.413  1.00  0.00    -0.460 OA
BRANCH  30  31
ATOM     31  C   UNL A   1      33.323  34.387  28.516  1.00  0.00     0.338 C 
ATOM     32  O   UNL A   1      32.521  35.231  28.876  1.00  0.00    -0.246 OA
BRANCH  31  33
ATOM     33  C   UNL A   1      34.451  33.947  29.359  1.00  0.00     0.060 A 
ATOM     34  C   UNL A   1      35.744  34.300  28.949  1.00  0.00     0.016 A 
ATOM     35  C   UNL A   1      34.255  33.170  30.501  1.00  0.00     0.016 A 
ATOM     36  C   UNL A   1      36.850  33.854  29.669  1.00  0.00     0.010 A 
ATOM     37  C   UNL A   1      35.368  32.713  31.215  1.00  0.00     0.010 A 
ATOM     38  C   UNL A   1      36.670  33.034  30.791  1.00  0.00    -0.014 A 
BRANCH  38  39
ATOM     39  C   UNL A   1      37.847  32.450  31.477  1.00  0.00     0.031 A 
ATOM     40  C   UNL A   1      38.568  31.290  30.851  1.00  0.00     0.074 A 
ATOM     41  C   UNL A   1      38.254  32.942  32.660  1.00  0.00     0.049 A 
ATOM     42  N   UNL A   1      39.594  30.617  31.301  1.00  0.00    -0.248 NA
ATOM     43  C   UNL A   1      38.068  30.827  29.546  1.00  0.00     0.031 C 
ATOM     44  C   UNL A   1      37.632  34.061  33.368  1.00  0.00     0.029 A 
ATOM     45  N   UNL A   1      39.272  32.542  33.490  1.00  0.00    -0.354 N 
ATOM     46  C   UNL A   1      39.851  29.636  30.350  1.00  0.00     0.074 A 
ATOM     47  C   UNL A   1      38.865  29.797  29.302  1.00  0.00     0.031 C 
ATOM     48  C   UNL A   1      38.260  34.237  34.541  1.00  0.00     0.029 A 
ATOM     49  C   UNL A   1      39.312  33.232  34.679  1.00  0.00     0.049 A 
ATOM     50  H   UNL A   1      39.911  31.831  33.256  1.00  0.00     0.167 HD
ATOM     51  C   UNL A   1      40.828  28.698  30.343  1.00  0.00     0.034 A 
ATOM     52  C   UNL A   1      40.092  33.055  35.764  1.00  0.00     0.034 A 
ATOM     53  C   UNL A   1      41.814  28.550  31.379  1.00  0.00     0.049 A 
ATOM     54  C   UNL A   1      41.150  31.984  35.744  1.00  0.00     0.074 A 
ATOM     55  C   UNL A   1      42.879  27.667  31.433  1.00  0.00     0.029 A 
ATOM     56  N   UNL A   1      41.850  29.290  32.551  1.00  0.00    -0.354 N 
ATOM     57  N   UNL A   1      41.468  31.155  34.778  1.00  0.00    -0.248 NA
ATOM     58  C   UNL A   1      41.978  31.843  36.951  1.00  0.00     0.031 C 
ATOM     59  C   UNL A   1      43.542  27.856  32.651  1.00  0.00     0.029 A 
ATOM     60  C   UNL A   1      42.905  28.872  33.345  1.00  0.00     0.049 A 
ATOM     61  H   UNL A   1      41.217  30.007  32.785  1.00  0.00     0.167 HD
ATOM     62  C   UNL A   1      42.547  30.415  35.250  1.00  0.00     0.074 A 
ATOM     63  C   UNL A   1      42.845  30.912  36.577  1.00  0.00     0.031 C 
ATOM     64  C   UNL A   1      43.220  29.404  34.645  1.00  0.00     0.034 A 
BRANCH  51  65
ATOM     65  C   UNL A   1      40.897  27.771  29.158  1.00  0.00     0.023 A 
ATOM     66  C   UNL A   1      40.051  26.645  29.108  1.00  0.00     0.012 A 
ATOM     67  C   UNL A   1      41.750  28.046  28.072  1.00  0.00     0.148 A 
ATOM     68  C   UNL A   1      40.071  25.791  28.006  1.00  0.00     0.002 A 
ATOM     69  C   UNL A   1      41.738  27.212  26.960  1.00  0.00     0.091 A 
ATOM     70  F   UNL A   1      42.565  29.108  28.152  1.00  0.00    -0.205 F 
ATOM     71  C   UNL A   1      40.906  26.081  26.928  1.00  0.00     0.022 A 
BRANCH  69  72
ATOM     72  S   UNL A   1      42.724  27.540  25.495  1.00  0.00     0.127 S 
ATOM     73  O   UNL A   1      42.446  26.357  24.683  1.00  0.00    -0.237 OA
ATOM     74  O   UNL A   1      42.128  28.778  24.992  1.00  0.00    -0.237 OA
ATOM     75  O   UNL A   1      44.098  27.673  25.959  1.00  0.00    -0.744 OA
ENDBRANCH  69  72
ENDBRANCH  51  65
BRANCH  52  76
ATOM     76  C   UNL A   1      39.919  33.937  36.953  1.00  0.00     0.023 A 
ATOM     77  C   UNL A   1      40.401  35.258  36.914  1.00  0.00     0.012 A 
ATOM     78  C   UNL A   1      39.258  33.478  38.109  1.00  0.00     0.148 A 
ATOM     79  C   UNL A   1      40.251  36.101  38.017  1.00  0.00     0.002 A 
ATOM     80  C   UNL A   1      39.061  34.340  39.182  1.00  0.00     0.091 A 
ATOM     81  F   UNL A   1      38.824  32.210  38.133  1.00  0.00    -0.205 F 
ATOM     82  C   UNL A   1      39.571  35.647  39.144  1.00  0.00     0.022 A 
BRANCH  80  83
ATOM     83  S   UNL A   1      38.080  33.880  40.614  1.00  0.00     0.127 S 
ATOM     84  O   UNL A   1      36.894  33.300  39.991  1.00  0.00    -0.237 OA
ATOM     85  O   UNL A   1      38.957  32.919  41.285  1.00  0.00    -0.237 OA
ATOM     86  O   UNL A   1      37.869  35.115  41.357  1.00  0.00    -0.744 OA
ENDBRANCH  80  83
ENDBRANCH  52  76
BRANCH  64  87
ATOM     87  C   UNL A   1      44.359  28.771  35.403  1.00  0.00     0.023 A 
ATOM     88  C   UNL A   1      45.670  29.255  35.221  1.00  0.00     0.012 A 
ATOM     89  C   UNL A   1      44.124  27.750  36.344  1.00  0.00     0.148 A 
ATOM     90  C   UNL A   1      46.733  28.712  35.942  1.00  0.00     0.002 A 
ATOM     91  C   UNL A   1      45.181  27.246  37.093  1.00  0.00     0.091 A 
ATOM     92  F   UNL A   1      42.872  27.290  36.490  1.00  0.00    -0.205 F 
ATOM     93  C   UNL A   1      46.488  27.717  36.885  1.00  0.00     0.022 A 
BRANCH  91  94
ATOM     94  S   UNL A   1      44.945  26.029  38.394  1.00  0.00     0.127 S 
ATOM     95  O   UNL A   1      46.215  26.109  39.112  1.00  0.00    -0.237 OA
ATOM     96  O   UNL A   1      43.797  26.570  39.122  1.00  0.00    -0.237 OA
ATOM     97  O   UNL A   1      44.687  24.765  37.717  1.00  0.00    -0.744 OA
ENDBRANCH  91  94
ENDBRANCH  64  87
ENDBRANCH  38  39
ENDBRANCH  31  33
ENDBRANCH  30  31
ENDBRANCH  29  30
ENDBRANCH   1  29
TORSDOF 21
ENDMDL
MODEL 2
REMARK VINA RESULT:     -10.8      6.121     11.399
REMARK SMILES CCc1cc(OC(F)(F)F)cc2c1O[C@@H](C(F)(F)F)C(C(=O)OCCOCCOC(=O)c1ccc(-c3c4nc(c(-c5cccc(S(=O)(=O)[O-])c5F)c5ccc([nH]5)c(-c5cccc(S(=O)(=O)[O-])c5F)c5nc(c(-c6cccc(S(=O)(=O)[O-])c6F)c6ccc3[nH]6)C=C5)C=C4)cc1)=C2
REMARK SMILES IDX 27 1 26 2 25 3 24 4 23 5 21 6 22 7 20 8 3 9 4 10 13 11 5 12
REMARK SMILES IDX 12 13 14 14 11 15 95 16 15 17 2 18 1 19 6 20 7 21 8 22 9 23
REMARK SMILES IDX 10 24 16 25 17 26 18 27 19 28 28 29 29 30 30 31 31 32 32 33
REMARK SMILES IDX 33 34 94 35 34 36 93 37 35 38 36 39 37 40 87 41 38 42 92 43
REMARK SMILES IDX 86 44 88 45 39 46 91 47 85 48 84 49 40 51 72 52 52 53 71 54
REMARK SMILES IDX 53 55 56 56 70 57 89 58 54 59 55 60 69 62 90 63 57 64 41 65
REMARK SMILES IDX 42 66 50 67 43 68 45 69 51 70 44 71 46 72 47 73 48 74 49 75
REMARK SMILES IDX 73 76 74 77 82 78 75 79 77 80 83 81 76 82 78 83 79 84 80 85
REMARK SMILES IDX 81 86 58 87 59 88 67 89 60 90 62 91 68 92 61 93 63 94 64 95
REMARK SMILES IDX 65 96 66 97
REMARK H PARENT 88 50 56 61
REMARK Flexibility Score: inf
ROOT
ATOM      1  C   UNL A   1      38.896  20.864  25.538  1.00  0.00     0.202 C 
ENDROOT
BRANCH   1   2
ATOM      2  O   UNL A   1      37.822  20.631  24.626  1.00  0.00    -0.374 OA
BRANCH   2   3
ATOM      3  C   UNL A   1      36.915  21.709  24.389  1.00  0.00     0.202 C 
BRANCH   3   4
ATOM      4  C   UNL A   1      35.473  21.508  24.865  1.00  0.00     0.261 C 
BRANCH   4   5
ATOM      5  O   UNL A   1      34.898  22.737  25.336  1.00  0.00    -0.460 OA
BRANCH   5   6
ATOM      6  C   UNL A   1      33.702  22.607  25.956  1.00  0.00     0.338 C 
ATOM      7  O   UNL A   1      33.364  21.706  26.705  1.00  0.00    -0.246 OA
BRANCH   6   8
ATOM      8  C   UNL A   1      32.864  23.794  25.722  1.00  0.00     0.087 C 
ATOM      9  C   UNL A   1      31.022  27.247  24.269  1.00  0.00    -0.002 A 
ATOM     10  C   UNL A   1      31.040  28.414  25.051  1.00  0.00     0.054 A 
ATOM     11  C   UNL A   1      31.645  26.097  24.766  1.00  0.00     0.131 A 
ATOM     12  C   UNL A   1      31.679  28.437  26.294  1.00  0.00     0.130 A 
ATOM     13  C   UNL A   1      32.298  26.104  26.009  1.00  0.00     0.021 A 
ATOM     14  O   UNL A   1      31.658  24.984  23.960  1.00  0.00    -0.475 OA
ATOM     15  C   UNL A   1      32.296  27.274  26.773  1.00  0.00     0.058 A 
ATOM     16  C   UNL A   1      33.070  24.927  26.416  1.00  0.00     0.027 C 
ATOM     17  C   UNL A   1      31.775  23.729  24.678  1.00  0.00     0.316 C 
BRANCH   9  18
ATOM     18  C   UNL A   1      30.377  27.279  22.903  1.00  0.00     0.036 C 
ATOM     19  C   UNL A   1      30.374  28.681  22.312  1.00  0.00     0.009 C 
ENDBRANCH   9  18
BRANCH  12  20
ATOM     20  O   UNL A   1      31.778  29.520  27.121  1.00  0.00    -0.406 OA
BRANCH  20  21
ATOM     21  C   UNL A   1      32.235  30.737  26.552  1.00  0.00     0.573 C 
ATOM     22  F   UNL A   1      31.251  31.368  25.875  1.00  0.00    -0.132 F 
ATOM     23  F   UNL A   1      32.718  31.564  27.506  1.00  0.00    -0.132 F 
ATOM     24  F   UNL A   1      33.238  30.472  25.688  1.00  0.00    -0.132 F 
ENDBRANCH  20  21
ENDBRANCH  12  20
BRANCH  17  25
ATOM     25  C   UNL A   1      31.794  22.586  23.650  1.00  0.00     0.430 C 
ATOM     26  F   UNL A   1      31.597  21.385  24.241  1.00  0.00    -0.167 F 
ATOM     27  F   UNL A   1      30.759  22.737  22.775  1.00  0.00    -0.167 F 
ATOM     28  F   UNL A   1      32.920  22.539  22.914  1.00  0.00    -0.167 F 
ENDBRANCH  17  25
ENDBRANCH   6   8
ENDBRANCH   5   6
ENDBRANCH   4   5
ENDBRANCH   3   4
ENDBRANCH   2   3
ENDBRANCH   1   2
BRANCH   1  29
ATOM     29  C   UNL A   1      39.574  19.629  26.145  1.00  0.00     0.261 C 
BRANCH  29  30
ATOM     30  O   UNL A   1      40.758  19.249  25.423  1.00  0.00    -0.460 OA
BRANCH  30  31
ATOM     31  C   UNL A   1      41.914  19.349  26.127  1.00  0.00     0.338 C 
ATOM     32  O   UNL A   1      42.744  18.476  26.310  1.00  0.00    -0.246 OA
BRANCH  31  33
ATOM     33  C   UNL A   1      42.142  20.757  26.505  1.00  0.00     0.060 A 
ATOM     34  C   UNL A   1      42.366  21.678  25.473  1.00  0.00     0.016 A 
ATOM     35  C   UNL A   1      42.182  21.162  27.840  1.00  0.00     0.016 A 
ATOM     36  C   UNL A   1      42.655  23.008  25.775  1.00  0.00     0.010 A 
ATOM     37  C   UNL A   1      42.485  22.495  28.140  1.00  0.00     0.010 A 
ATOM     38  C   UNL A   1      42.743  23.417  27.112  1.00  0.00    -0.014 A 
BRANCH  38  39
ATOM     39  C   UNL A   1      43.183  24.796  27.435  1.00  0.00     0.031 A 
ATOM     40  C   UNL A   1      42.201  25.766  28.029  1.00  0.00     0.074 A 
ATOM     41  C   UNL A   1      44.446  25.181  27.181  1.00  0.00     0.049 A 
ATOM     42  N   UNL A   1      42.374  27.021  28.353  1.00  0.00    -0.248 NA
ATOM     43  C   UNL A   1      40.845  25.256  28.292  1.00  0.00     0.031 C 
ATOM     44  C   UNL A   1      45.486  24.331  26.602  1.00  0.00     0.029 A 
ATOM     45  N   UNL A   1      45.059  26.397  27.350  1.00  0.00    -0.354 N 
ATOM     46  C   UNL A   1      41.147  27.460  28.837  1.00  0.00     0.074 A 
ATOM     47  C   UNL A   1      40.235  26.338  28.753  1.00  0.00     0.031 C 
ATOM     48  C   UNL A   1      46.601  25.061  26.434  1.00  0.00     0.029 A 
ATOM     49  C   UNL A   1      46.347  26.433  26.870  1.00  0.00     0.049 A 
ATOM     50  H   UNL A   1      44.620  27.169  27.775  1.00  0.00     0.167 HD
ATOM     51  C   UNL A   1      40.815  28.681  29.319  1.00  0.00     0.034 A 
ATOM     52  C   UNL A   1      47.213  27.462  26.770  1.00  0.00     0.034 A 
ATOM     53  C   UNL A   1      41.728  29.789  29.413  1.00  0.00     0.049 A 
ATOM     54  C   UNL A   1      46.808  28.817  27.285  1.00  0.00     0.074 A 
ATOM     55  C   UNL A   1      41.500  31.048  29.942  1.00  0.00     0.029 A 
ATOM     56  N   UNL A   1      43.035  29.780  28.953  1.00  0.00    -0.354 N 
ATOM     57  N   UNL A   1      45.689  29.180  27.866  1.00  0.00    -0.248 NA
ATOM     58  C   UNL A   1      47.796  29.899  27.160  1.00  0.00     0.031 C 
ATOM     59  C   UNL A   1      42.663  31.808  29.777  1.00  0.00     0.029 A 
ATOM     60  C   UNL A   1      43.622  31.016  29.166  1.00  0.00     0.049 A 
ATOM     61  H   UNL A   1      43.481  29.008  28.535  1.00  0.00     0.167 HD
ATOM     62  C   UNL A   1      45.849  30.521  28.198  1.00  0.00     0.074 A 
ATOM     63  C   UNL A   1      47.182  30.899  27.778  1.00  0.00     0.031 C 
ATOM     64  C   UNL A   1      44.966  31.368  28.785  1.00  0.00     0.034 A 
BRANCH  51  65
ATOM     65  C   UNL A   1      39.407  28.876  29.815  1.00  0.00     0.023 A 
ATOM     66  C   UNL A   1      39.082  28.524  31.140  1.00  0.00     0.012 A 
ATOM     67  C   UNL A   1      38.425  29.463  28.994  1.00  0.00     0.148 A 
ATOM     68  C   UNL A   1      37.794  28.727  31.633  1.00  0.00     0.002 A 
ATOM     69  C   UNL A   1      37.153  29.698  29.504  1.00  0.00     0.091 A 
ATOM     70  F   UNL A   1      38.747  29.768  27.728  1.00  0.00    -0.205 F 
ATOM     71  C   UNL A   1      36.834  29.324  30.819  1.00  0.00     0.022 A 
BRANCH  69  72
ATOM     72  S   UNL A   1      35.869  30.525  28.557  1.00  0.00     0.127 S 
ATOM     73  O   UNL A   1      36.662  31.340  27.637  1.00  0.00    -0.237 OA
ATOM     74  O   UNL A   1      35.175  29.399  27.931  1.00  0.00    -0.237 OA
ATOM     75  O   UNL A   1      35.073  31.266  29.524  1.00  0.00    -0.744 OA
ENDBRANCH  69  72
ENDBRANCH  51  65
BRANCH  52  76
ATOM     76  C   UNL A   1      48.563  27.239  26.181  1.00  0.00     0.023 A 
ATOM     77  C   UNL A   1      49.601  26.743  26.991  1.00  0.00     0.012 A 
ATOM     78  C   UNL A   1      48.815  27.494  24.819  1.00  0.00     0.148 A 
ATOM     79  C   UNL A   1      50.875  26.528  26.461  1.00  0.00     0.002 A 
ATOM     80  C   UNL A   1      50.069  27.224  24.284  1.00  0.00     0.091 A 
ATOM     81  F   UNL A   1      47.818  27.986  24.069  1.00  0.00    -0.205 F 
ATOM     82  C   UNL A   1      51.105  26.757  25.107  1.00  0.00     0.022 A 
BRANCH  80  83
ATOM     83  S   UNL A   1      50.411  27.362  22.527  1.00  0.00     0.127 S 
ATOM     84  O   UNL A   1      51.762  26.815  22.440  1.00  0.00    -0.237 OA
ATOM     85  O   UNL A   1      49.365  26.519  21.947  1.00  0.00    -0.237 OA
ATOM     86  O   UNL A   1      50.279  28.778  22.212  1.00  0.00    -0.744 OA
ENDBRANCH  80  83
ENDBRANCH  52  76
BRANCH  64  87
ATOM     87  C   UNL A   1      45.411  32.788  29.024  1.00  0.00     0.023 A 
ATOM     88  C   UNL A   1      46.134  33.103  30.191  1.00  0.00     0.012 A 
ATOM     89  C   UNL A   1      45.178  33.791  28.062  1.00  0.00     0.148 A 
ATOM     90  C   UNL A   1      46.592  34.402  30.413  1.00  0.00     0.002 A 
ATOM     91  C   UNL A   1      45.678  35.072  28.268  1.00  0.00     0.091 A 
ATOM     92  F   UNL A   1      44.473  33.476  26.967  1.00  0.00    -0.205 F 
ATOM     93  C   UNL A   1      46.374  35.382  29.448  1.00  0.00     0.022 A 
BRANCH  91  94
ATOM     94  S   UNL A   1      45.526  36.373  27.039  1.00  0.00     0.127 S 
ATOM     95  O   UNL A   1      46.084  37.522  27.750  1.00  0.00    -0.237 OA
ATOM     96  O   UNL A   1      46.358  35.869  25.946  1.00  0.00    -0.237 OA
ATOM     97  O   UNL A   1      44.106  36.462  26.724  1.00  0.00    -0.744 OA
ENDBRANCH  91  94
ENDBRANCH  64  87
ENDBRANCH  38  39
ENDBRANCH  31  33
ENDBRANCH  30  31
ENDBRANCH  29  30
ENDBRANCH   1  29
TORSDOF 21
ENDMDL
MODEL 3
REMARK VINA RESULT:     -10.7      5.704      9.688
REMARK SMILES CCc1cc(OC(F)(F)F)cc2c1O[C@@H](C(F)(F)F)C(C(=O)OCCOCCOC(=O)c1ccc(-c3c4nc(c(-c5cccc(S(=O)(=O)[O-])c5F)c5ccc([nH]5)c(-c5cccc(S(=O)(=O)[O-])c5F)c5nc(c(-c6cccc(S(=O)(=O)[O-])c6F)c6ccc3[nH]6)C=C5)C=C4)cc1)=C2
REMARK SMILES IDX 27 1 26 2 25 3 24 4 23 5 21 6 22 7 20 8 3 9 4 10 13 11 5 12
REMARK SMILES IDX 12 13 14 14 11 15 95 16 15 17 2 18 1 19 6 20 7 21 8 22 9 23
REMARK SMILES IDX 10 24 16 25 17 26 18 27 19 28 28 29 29 30 30 31 31 32 32 33
REMARK SMILES IDX 33 34 94 35 34 36 93 37 35 38 36 39 37 40 87 41 38 42 92 43
REMARK SMILES IDX 86 44 88 45 39 46 91 47 85 48 84 49 40 51 72 52 52 53 71 54
REMARK SMILES IDX 53 55 56 56 70 57 89 58 54 59 55 60 69 62 90 63 57 64 41 65
REMARK SMILES IDX 42 66 50 67 43 68 45 69 51 70 44 71 46 72 47 73 48 74 49 75
REMARK SMILES IDX 73 76 74 77 82 78 75 79 77 80 83 81 76 82 78 83 79 84 80 85
REMARK SMILES IDX 81 86 58 87 59 88 67 89 60 90 62 91 68 92 61 93 63 94 64 95
REMARK SMILES IDX 65 96 66 97
REMARK H PARENT 88 50 56 61
REMARK Flexibility Score: inf
ROOT
ATOM      1  C   UNL A   1      38.484  19.597  25.263  1.00  0.00     0.202 C 
ENDROOT
BRANCH   1   2
ATOM      2  O   UNL A   1      37.387  20.455  24.950  1.00  0.00    -0.374 OA
BRANCH   2   3
ATOM      3  C   UNL A   1      37.671  21.841  24.756  1.00  0.00     0.202 C 
BRANCH   3   4
ATOM      4  C   UNL A   1      36.736  22.836  25.451  1.00  0.00     0.261 C 
BRANCH   4   5
ATOM      5  O   UNL A   1      35.509  23.004  24.723  1.00  0.00    -0.460 OA
BRANCH   5   6
ATOM      6  C   UNL A   1      34.388  22.973  25.481  1.00  0.00     0.338 C 
ATOM      7  O   UNL A   1      34.103  22.143  26.328  1.00  0.00    -0.246 OA
BRANCH   6   8
ATOM      8  C   UNL A   1      33.576  24.180  25.254  1.00  0.00     0.087 C 
ATOM      9  C   UNL A   1      31.568  27.497  23.708  1.00  0.00    -0.002 A 
ATOM     10  C   UNL A   1      31.860  28.773  24.218  1.00  0.00     0.054 A 
ATOM     11  C   UNL A   1      32.250  26.393  24.233  1.00  0.00     0.131 A 
ATOM     12  C   UNL A   1      32.823  28.946  25.217  1.00  0.00     0.130 A 
ATOM     13  C   UNL A   1      33.224  26.549  25.232  1.00  0.00     0.021 A 
ATOM     14  O   UNL A   1      31.984  25.163  23.683  1.00  0.00    -0.475 OA
ATOM     15  C   UNL A   1      33.493  27.827  25.729  1.00  0.00     0.058 A 
ATOM     16  C   UNL A   1      34.022  25.389  25.637  1.00  0.00     0.027 C 
ATOM     17  C   UNL A   1      32.237  24.045  24.571  1.00  0.00     0.316 C 
BRANCH   9  18
ATOM     18  C   UNL A   1      30.569  27.357  22.584  1.00  0.00     0.036 C 
ATOM     19  C   UNL A   1      29.406  28.326  22.738  1.00  0.00     0.009 C 
ENDBRANCH   9  18
BRANCH  12  20
ATOM     20  O   UNL A   1      33.201  30.140  25.764  1.00  0.00    -0.406 OA
BRANCH  20  21
ATOM     21  C   UNL A   1      32.586  30.523  26.983  1.00  0.00     0.573 C 
ATOM     22  F   UNL A   1      32.471  31.866  27.080  1.00  0.00    -0.132 F 
ATOM     23  F   UNL A   1      31.361  29.963  27.102  1.00  0.00    -0.132 F 
ATOM     24  F   UNL A   1      33.341  30.090  28.015  1.00  0.00    -0.132 F 
ENDBRANCH  20  21
ENDBRANCH  12  20
BRANCH  17  25
ATOM     25  C   UNL A   1      31.912  22.746  23.814  1.00  0.00     0.430 C 
ATOM     26  F   UNL A   1      31.469  21.781  24.654  1.00  0.00    -0.167 F 
ATOM     27  F   UNL A   1      30.890  22.966  22.940  1.00  0.00    -0.167 F 
ATOM     28  F   UNL A   1      32.943  22.268  23.093  1.00  0.00    -0.167 F 
ENDBRANCH  17  25
ENDBRANCH   6   8
ENDBRANCH   5   6
ENDBRANCH   4   5
ENDBRANCH   3   4
ENDBRANCH   2   3
ENDBRANCH   1   2
BRANCH   1  29
ATOM     29  C   UNL A   1      39.640  20.209  26.065  1.00  0.00     0.261 C 
BRANCH  29  30
ATOM     30  O   UNL A   1      40.680  19.253  26.336  1.00  0.00    -0.460 OA
BRANCH  30  31
ATOM     31  C   UNL A   1      41.935  19.675  26.040  1.00  0.00     0.338 C 
ATOM     32  O   UNL A   1      42.792  19.065  25.425  1.00  0.00    -0.246 OA
BRANCH  31  33
ATOM     33  C   UNL A   1      42.080  21.096  26.409  1.00  0.00     0.060 A 
ATOM     34  C   UNL A   1      42.048  22.042  25.374  1.00  0.00     0.016 A 
ATOM     35  C   UNL A   1      42.287  21.495  27.729  1.00  0.00     0.016 A 
ATOM     36  C   UNL A   1      42.247  23.392  25.657  1.00  0.00     0.010 A 
ATOM     37  C   UNL A   1      42.500  22.850  28.009  1.00  0.00     0.010 A 
ATOM     38  C   UNL A   1      42.502  23.800  26.972  1.00  0.00    -0.014 A 
BRANCH  38  39
ATOM     39  C   UNL A   1      42.849  25.215  27.254  1.00  0.00     0.031 A 
ATOM     40  C   UNL A   1      44.187  25.748  26.828  1.00  0.00     0.074 A 
ATOM     41  C   UNL A   1      41.978  26.008  27.902  1.00  0.00     0.049 A 
ATOM     42  N   UNL A   1      44.694  26.939  27.006  1.00  0.00    -0.248 NA
ATOM     43  C   UNL A   1      45.070  24.817  26.107  1.00  0.00     0.031 C 
ATOM     44  C   UNL A   1      40.652  25.602  28.369  1.00  0.00     0.029 A 
ATOM     45  N   UNL A   1      42.092  27.314  28.307  1.00  0.00    -0.354 N 
ATOM     46  C   UNL A   1      45.964  26.899  26.442  1.00  0.00     0.074 A 
ATOM     47  C   UNL A   1      46.153  25.560  25.924  1.00  0.00     0.031 C 
ATOM     48  C   UNL A   1      40.089  26.629  29.026  1.00  0.00     0.029 A 
ATOM     49  C   UNL A   1      41.020  27.755  29.046  1.00  0.00     0.049 A 
ATOM     50  H   UNL A   1      42.867  27.881  28.089  1.00  0.00     0.167 HD
ATOM     51  C   UNL A   1      46.882  27.891  26.350  1.00  0.00     0.034 A 
ATOM     52  C   UNL A   1      40.823  28.924  29.688  1.00  0.00     0.034 A 
ATOM     53  C   UNL A   1      46.686  29.223  26.853  1.00  0.00     0.049 A 
ATOM     54  C   UNL A   1      41.874  29.999  29.597  1.00  0.00     0.074 A 
ATOM     55  C   UNL A   1      47.534  30.313  26.757  1.00  0.00     0.029 A 
ATOM     56  N   UNL A   1      45.573  29.647  27.563  1.00  0.00    -0.354 N 
ATOM     57  N   UNL A   1      43.010  29.991  28.942  1.00  0.00    -0.248 NA
ATOM     58  C   UNL A   1      41.602  31.257  30.308  1.00  0.00     0.031 C 
ATOM     59  C   UNL A   1      46.945  31.387  27.431  1.00  0.00     0.029 A 
ATOM     60  C   UNL A   1      45.719  30.974  27.929  1.00  0.00     0.049 A 
ATOM     61  H   UNL A   1      44.792  29.085  27.777  1.00  0.00     0.167 HD
ATOM     62  C   UNL A   1      43.574  31.246  29.140  1.00  0.00     0.074 A 
ATOM     63  C   UNL A   1      42.643  31.999  29.953  1.00  0.00     0.031 C 
ATOM     64  C   UNL A   1      44.764  31.728  28.700  1.00  0.00     0.034 A 
BRANCH  51  65
ATOM     65  C   UNL A   1      48.178  27.579  25.650  1.00  0.00     0.023 A 
ATOM     66  C   UNL A   1      49.271  27.094  26.397  1.00  0.00     0.012 A 
ATOM     67  C   UNL A   1      48.296  27.705  24.253  1.00  0.00     0.148 A 
ATOM     68  C   UNL A   1      50.471  26.765  25.767  1.00  0.00     0.002 A 
ATOM     69  C   UNL A   1      49.482  27.339  23.627  1.00  0.00     0.091 A 
ATOM     70  F   UNL A   1      47.253  28.192  23.564  1.00  0.00    -0.205 F 
ATOM     71  C   UNL A   1      50.572  26.877  24.382  1.00  0.00     0.022 A 
BRANCH  69  72
ATOM     72  S   UNL A   1      49.686  27.381  21.842  1.00  0.00     0.127 S 
ATOM     73  O   UNL A   1      51.002  26.765  21.683  1.00  0.00    -0.237 OA
ATOM     74  O   UNL A   1      48.568  26.557  21.385  1.00  0.00    -0.237 OA
ATOM     75  O   UNL A   1      49.601  28.784  21.463  1.00  0.00    -0.744 OA
ENDBRANCH  69  72
ENDBRANCH  51  65
BRANCH  52  76
ATOM     76  C   UNL A   1      39.564  29.148  30.451  1.00  0.00     0.023 A 
ATOM     77  C   UNL A   1      39.337  28.435  31.642  1.00  0.00     0.012 A 
ATOM     78  C   UNL A   1      38.603  30.081  30.013  1.00  0.00     0.148 A 
ATOM     79  C   UNL A   1      38.162  28.628  32.373  1.00  0.00     0.002 A 
ATOM     80  C   UNL A   1      37.462  30.310  30.774  1.00  0.00     0.091 A 
ATOM     81  F   UNL A   1      38.828  30.734  28.864  1.00  0.00    -0.205 F 
ATOM     82  C   UNL A   1      37.233  29.573  31.946  1.00  0.00     0.022 A 
BRANCH  80  83
ATOM     83  S   UNL A   1      36.283  31.601  30.369  1.00  0.00     0.127 S 
ATOM     84  O   UNL A   1      35.709  31.103  29.122  1.00  0.00    -0.237 OA
ATOM     85  O   UNL A   1      35.383  31.563  31.522  1.00  0.00    -0.237 OA
ATOM     86  O   UNL A   1      37.065  32.826  30.263  1.00  0.00    -0.744 OA
ENDBRANCH  80  83
ENDBRANCH  52  76
BRANCH  64  87
ATOM     87  C   UNL A   1      45.127  33.142  29.074  1.00  0.00     0.023 A 
ATOM     88  C   UNL A   1      45.784  33.392  30.295  1.00  0.00     0.012 A 
ATOM     89  C   UNL A   1      44.885  34.210  28.188  1.00  0.00     0.148 A 
ATOM     90  C   UNL A   1      46.166  34.688  30.643  1.00  0.00     0.002 A 
ATOM     91  C   UNL A   1      45.310  35.491  28.520  1.00  0.00     0.091 A 
ATOM     92  F   UNL A   1      44.243  33.954  27.039  1.00  0.00    -0.205 F 
ATOM     93  C   UNL A   1      45.939  35.735  29.752  1.00  0.00     0.022 A 
BRANCH  91  94
ATOM     94  S   UNL A   1      45.143  36.882  27.395  1.00  0.00     0.127 S 
ATOM     95  O   UNL A   1      45.628  37.990  28.216  1.00  0.00    -0.237 OA
ATOM     96  O   UNL A   1      46.032  36.503  26.297  1.00  0.00    -0.237 OA
ATOM     97  O   UNL A   1      43.733  36.940  27.036  1.00  0.00    -0.744 OA
ENDBRANCH  91  94
ENDBRANCH  64  87
ENDBRANCH  38  39
ENDBRANCH  31  33
ENDBRANCH  30  31
ENDBRANCH  29  30
ENDBRANCH   1  29
TORSDOF 21
ENDMDL
