MODEL 1
REMARK VINA RESULT:     -11.0      0.000      0.000
REMARK SMILES N#Cc1ccccc1S(=O)(=O)N1CCC(C(=O)OCCOCCOC(=O)c2ccc(-c3c4nc(c(-c5cccc(S(=O)(=O)[O-])c5F)c5ccc([nH]5)c(-c5cccc(S(=O)(=O)[O-])c5F)c5nc(c(-c6cccc(S(=O)(=O)[O-])c6F)c6ccc3[nH]6)C=C5)C=C4)cc2)CC1
REMARK SMILES IDX 21 1 20 2 19 3 18 4 16 5 17 6 15 7 12 8 13 9 91 10 14 11
REMARK SMILES IDX 90 12 9 13 10 14 11 15 8 16 3 17 4 18 5 19 7 20 6 21 2 22
REMARK SMILES IDX 1 23 22 24 23 25 24 26 25 27 26 28 27 29 28 30 89 31 29 32
REMARK SMILES IDX 88 33 30 34 31 35 32 36 82 37 33 38 87 39 81 40 83 41 34 42
REMARK SMILES IDX 86 43 80 44 79 45 35 47 67 48 47 49 66 50 48 51 51 52 65 53
REMARK SMILES IDX 84 54 49 55 50 56 64 58 85 59 52 60 36 61 37 62 45 63 38 64
REMARK SMILES IDX 40 65 46 66 39 67 41 68 42 69 43 70 44 71 68 72 69 73 77 74
REMARK SMILES IDX 70 75 72 76 78 77 71 78 73 79 74 80 75 81 76 82 53 83 54 84
REMARK SMILES IDX 62 85 55 86 57 87 63 88 56 89 58 90 59 91 60 92 61 93
REMARK H PARENT 83 46 51 57
REMARK Flexibility Score: inf
ROOT
ATOM      1  O   UNL A   1      32.379  30.557  26.435  1.00  0.00    -0.374 OA
ENDROOT
BRANCH   1   2
ATOM      2  C   UNL A   1      32.171  29.444  25.572  1.00  0.00     0.202 C 
BRANCH   2   3
ATOM      3  C   UNL A   1      33.126  29.230  24.396  1.00  0.00     0.261 C 
BRANCH   3   4
ATOM      4  O   UNL A   1      32.480  28.593  23.288  1.00  0.00    -0.463 OA
BRANCH   4   5
ATOM      5  C   UNL A   1      33.109  27.485  22.823  1.00  0.00     0.309 C 
ATOM      6  O   UNL A   1      33.872  27.452  21.865  1.00  0.00    -0.252 OA
BRANCH   5   7
ATOM      7  C   UNL A   1      32.778  26.251  23.624  1.00  0.00     0.102 C 
ATOM      8  N   UNL A   1      32.789  23.742  24.987  1.00  0.00    -0.198 NA
ATOM      9  C   UNL A   1      32.039  23.814  23.717  1.00  0.00     0.103 C 
ATOM     10  C   UNL A   1      33.544  24.882  25.533  1.00  0.00     0.103 C 
ATOM     11  C   UNL A   1      32.337  25.021  22.840  1.00  0.00     0.032 C 
ATOM     12  C   UNL A   1      33.971  25.879  24.478  1.00  0.00     0.032 C 
BRANCH   8  13
ATOM     13  S   UNL A   1      32.474  22.436  26.002  1.00  0.00     0.244 S 
ATOM     14  O   UNL A   1      31.070  22.113  25.842  1.00  0.00    -0.207 OA
ATOM     15  O   UNL A   1      33.036  22.719  27.304  1.00  0.00    -0.207 OA
BRANCH  13  16
ATOM     16  C   UNL A   1      33.337  20.981  25.431  1.00  0.00     0.100 A 
ATOM     17  C   UNL A   1      34.713  20.809  25.270  1.00  0.00     0.072 A 
ATOM     18  C   UNL A   1      35.194  19.585  24.757  1.00  0.00     0.021 A 
ATOM     19  C   UNL A   1      34.332  18.536  24.451  1.00  0.00     0.001 A 
ATOM     20  C   UNL A   1      32.476  19.906  25.123  1.00  0.00     0.023 A 
ATOM     21  C   UNL A   1      32.970  18.692  24.648  1.00  0.00     0.001 A 
BRANCH  17  22
ATOM     22  C   UNL A   1      35.737  21.731  25.633  1.00  0.00     0.101 C 
ATOM     23  N   UNL A   1      36.463  22.579  25.956  1.00  0.00    -0.192 NA
ENDBRANCH  17  22
ENDBRANCH  13  16
ENDBRANCH   8  13
ENDBRANCH   5   7
ENDBRANCH   4   5
ENDBRANCH   3   4
ENDBRANCH   2   3
ENDBRANCH   1   2
BRANCH   1  24
ATOM     24  C   UNL A   1      31.392  31.586  26.476  1.00  0.00     0.202 C 
BRANCH  24  25
ATOM     25  C   UNL A   1      31.836  33.045  26.678  1.00  0.00     0.261 C 
BRANCH  25  26
ATOM     26  O   UNL A   1      32.392  33.310  27.978  1.00  0.00    -0.460 OA
BRANCH  26  27
ATOM     27  C   UNL A   1      33.523  34.063  27.959  1.00  0.00     0.338 C 
ATOM     28  O   UNL A   1      33.594  35.278  27.874  1.00  0.00    -0.246 OA
BRANCH  27  29
ATOM     29  C   UNL A   1      34.700  33.233  28.276  1.00  0.00     0.060 A 
ATOM     30  C   UNL A   1      34.471  31.992  28.885  1.00  0.00     0.016 A 
ATOM     31  C   UNL A   1      35.999  33.704  28.088  1.00  0.00     0.016 A 
ATOM     32  C   UNL A   1      35.540  31.237  29.356  1.00  0.00     0.010 A 
ATOM     33  C   UNL A   1      37.071  32.947  28.571  1.00  0.00     0.010 A 
ATOM     34  C   UNL A   1      36.845  31.731  29.242  1.00  0.00    -0.014 A 
BRANCH  34  35
ATOM     35  C   UNL A   1      37.949  31.035  29.947  1.00  0.00     0.031 A 
ATOM     36  C   UNL A   1      38.249  31.392  31.377  1.00  0.00     0.074 A 
ATOM     37  C   UNL A   1      38.662  30.079  29.324  1.00  0.00     0.049 A 
ATOM     38  N   UNL A   1      39.188  30.933  32.165  1.00  0.00    -0.248 NA
ATOM     39  C   UNL A   1      37.380  32.401  32.004  1.00  0.00     0.031 C 
ATOM     40  C   UNL A   1      38.451  29.631  27.949  1.00  0.00     0.029 A 
ATOM     41  N   UNL A   1      39.723  29.330  29.765  1.00  0.00    -0.354 N 
ATOM     42  C   UNL A   1      39.049  31.623  33.363  1.00  0.00     0.074 A 
ATOM     43  C   UNL A   1      37.940  32.539  33.197  1.00  0.00     0.031 C 
ATOM     44  C   UNL A   1      39.372  28.701  27.647  1.00  0.00     0.029 A 
ATOM     45  C   UNL A   1      40.259  28.518  28.794  1.00  0.00     0.049 A 
ATOM     46  H   UNL A   1      40.067  29.369  30.687  1.00  0.00     0.167 HD
ATOM     47  C   UNL A   1      39.773  31.500  34.501  1.00  0.00     0.034 A 
ATOM     48  C   UNL A   1      41.360  27.742  28.816  1.00  0.00     0.034 A 
ATOM     49  C   UNL A   1      40.867  30.581  34.664  1.00  0.00     0.049 A 
ATOM     50  C   UNL A   1      42.174  27.656  30.080  1.00  0.00     0.074 A 
ATOM     51  C   UNL A   1      41.632  30.347  35.793  1.00  0.00     0.029 A 
ATOM     52  N   UNL A   1      41.370  29.761  33.665  1.00  0.00    -0.354 N 
ATOM     53  N   UNL A   1      41.971  28.239  31.236  1.00  0.00    -0.248 NA
ATOM     54  C   UNL A   1      43.356  26.780  30.050  1.00  0.00     0.031 C 
ATOM     55  C   UNL A   1      42.631  29.428  35.461  1.00  0.00     0.029 A 
ATOM     56  C   UNL A   1      42.450  29.040  34.143  1.00  0.00     0.049 A 
ATOM     57  H   UNL A   1      41.012  29.702  32.750  1.00  0.00     0.167 HD
ATOM     58  C   UNL A   1      42.972  27.771  32.082  1.00  0.00     0.074 A 
ATOM     59  C   UNL A   1      43.768  26.841  31.309  1.00  0.00     0.031 C 
ATOM     60  C   UNL A   1      43.213  28.087  33.379  1.00  0.00     0.034 A 
BRANCH  47  61
ATOM     61  C   UNL A   1      39.410  32.388  35.665  1.00  0.00     0.023 A 
ATOM     62  C   UNL A   1      38.600  31.893  36.708  1.00  0.00     0.012 A 
ATOM     63  C   UNL A   1      39.922  33.698  35.751  1.00  0.00     0.148 A 
ATOM     64  C   UNL A   1      38.274  32.701  37.798  1.00  0.00     0.002 A 
ATOM     65  C   UNL A   1      39.635  34.479  36.863  1.00  0.00     0.091 A 
ATOM     66  F   UNL A   1      40.675  34.156  34.742  1.00  0.00    -0.205 F 
ATOM     67  C   UNL A   1      38.800  33.988  37.880  1.00  0.00     0.022 A 
BRANCH  65  68
ATOM     68  S   UNL A   1      40.330  36.117  37.104  1.00  0.00     0.127 S 
ATOM     69  O   UNL A   1      41.763  35.830  37.124  1.00  0.00    -0.237 OA
ATOM     70  O   UNL A   1      39.867  36.823  35.908  1.00  0.00    -0.237 OA
ATOM     71  O   UNL A   1      39.776  36.611  38.356  1.00  0.00    -0.744 OA
ENDBRANCH  65  68
ENDBRANCH  47  61
BRANCH  48  72
ATOM     72  C   UNL A   1      41.759  26.977  27.601  1.00  0.00     0.023 A 
ATOM     73  C   UNL A   1      42.319  27.654  26.500  1.00  0.00     0.012 A 
ATOM     74  C   UNL A   1      41.587  25.581  27.535  1.00  0.00     0.148 A 
ATOM     75  C   UNL A   1      42.665  26.959  25.340  1.00  0.00     0.002 A 
ATOM     76  C   UNL A   1      41.990  24.886  26.401  1.00  0.00     0.091 A 
ATOM     77  F   UNL A   1      41.043  24.958  28.590  1.00  0.00    -0.205 F 
ATOM     78  C   UNL A   1      42.509  25.575  25.295  1.00  0.00     0.022 A 
BRANCH  76  79
ATOM     79  S   UNL A   1      41.943  23.095  26.300  1.00  0.00     0.127 S 
ATOM     80  O   UNL A   1      40.506  22.832  26.306  1.00  0.00    -0.237 OA
ATOM     81  O   UNL A   1      42.610  22.852  25.020  1.00  0.00    -0.237 OA
ATOM     82  O   UNL A   1      42.675  22.612  27.463  1.00  0.00    -0.744 OA
ENDBRANCH  76  79
ENDBRANCH  48  72
BRANCH  60  83
ATOM     83  C   UNL A   1      44.353  27.383  34.071  1.00  0.00     0.023 A 
ATOM     84  C   UNL A   1      45.653  27.926  34.036  1.00  0.00     0.012 A 
ATOM     85  C   UNL A   1      44.116  26.209  34.815  1.00  0.00     0.148 A 
ATOM     86  C   UNL A   1      46.705  27.289  34.695  1.00  0.00     0.002 A 
ATOM     87  C   UNL A   1      45.157  25.612  35.516  1.00  0.00     0.091 A 
ATOM     88  F   UNL A   1      42.876  25.700  34.827  1.00  0.00    -0.205 F 
ATOM     89  C   UNL A   1      46.455  26.141  35.443  1.00  0.00     0.022 A 
BRANCH  87  90
ATOM     90  S   UNL A   1      44.912  24.190  36.585  1.00  0.00     0.127 S 
ATOM     91  O   UNL A   1      44.189  23.275  35.701  1.00  0.00    -0.237 OA
ATOM     92  O   UNL A   1      46.286  23.789  36.884  1.00  0.00    -0.237 OA
ATOM     93  O   UNL A   1      44.155  24.671  37.732  1.00  0.00    -0.744 OA
ENDBRANCH  87  90
ENDBRANCH  60  83
ENDBRANCH  34  35
ENDBRANCH  27  29
ENDBRANCH  26  27
ENDBRANCH  25  26
ENDBRANCH  24  25
ENDBRANCH   1  24
TORSDOF 20
ENDMDL
MODEL 2
REMARK VINA RESULT:     -10.6      4.366      8.416
REMARK SMILES N#Cc1ccccc1S(=O)(=O)N1CCC(C(=O)OCCOCCOC(=O)c2ccc(-c3c4nc(c(-c5cccc(S(=O)(=O)[O-])c5F)c5ccc([nH]5)c(-c5cccc(S(=O)(=O)[O-])c5F)c5nc(c(-c6cccc(S(=O)(=O)[O-])c6F)c6ccc3[nH]6)C=C5)C=C4)cc2)CC1
REMARK SMILES IDX 21 1 20 2 19 3 18 4 16 5 17 6 15 7 12 8 13 9 91 10 14 11
REMARK SMILES IDX 90 12 9 13 10 14 11 15 8 16 3 17 4 18 5 19 7 20 6 21 2 22
REMARK SMILES IDX 1 23 22 24 23 25 24 26 25 27 26 28 27 29 28 30 89 31 29 32
REMARK SMILES IDX 88 33 30 34 31 35 32 36 82 37 33 38 87 39 81 40 83 41 34 42
REMARK SMILES IDX 86 43 80 44 79 45 35 47 67 48 47 49 66 50 48 51 51 52 65 53
REMARK SMILES IDX 84 54 49 55 50 56 64 58 85 59 52 60 36 61 37 62 45 63 38 64
REMARK SMILES IDX 40 65 46 66 39 67 41 68 42 69 43 70 44 71 68 72 69 73 77 74
REMARK SMILES IDX 70 75 72 76 78 77 71 78 73 79 74 80 75 81 76 82 53 83 54 84
REMARK SMILES IDX 62 85 55 86 57 87 63 88 56 89 58 90 59 91 60 92 61 93
REMARK H PARENT 83 46 51 57
REMARK Flexibility Score: inf
ROOT
ATOM      1  O   UNL A   1      32.605  35.009  29.593  1.00  0.00    -0.374 OA
ENDROOT
BRANCH   1   2
ATOM      2  C   UNL A   1      32.836  35.891  30.686  1.00  0.00     0.202 C 
BRANCH   2   3
ATOM      3  C   UNL A   1      33.069  35.302  32.078  1.00  0.00     0.261 C 
BRANCH   3   4
ATOM      4  O   UNL A   1      34.398  34.790  32.229  1.00  0.00    -0.463 OA
BRANCH   4   5
ATOM      5  C   UNL A   1      34.473  33.449  32.418  1.00  0.00     0.309 C 
ATOM      6  O   UNL A   1      33.959  32.601  31.698  1.00  0.00    -0.252 OA
BRANCH   5   7
ATOM      7  C   UNL A   1      35.280  33.079  33.637  1.00  0.00     0.102 C 
ATOM      8  N   UNL A   1      37.157  32.933  35.784  1.00  0.00    -0.198 NA
ATOM      9  C   UNL A   1      37.326  31.972  34.676  1.00  0.00     0.103 C 
ATOM     10  C   UNL A   1      36.103  33.961  35.793  1.00  0.00     0.103 C 
ATOM     11  C   UNL A   1      36.562  32.292  33.400  1.00  0.00     0.032 C 
ATOM     12  C   UNL A   1      35.619  34.336  34.409  1.00  0.00     0.032 C 
BRANCH   8  13
ATOM     13  S   UNL A   1      37.965  32.607  37.225  1.00  0.00     0.244 S 
ATOM     14  O   UNL A   1      38.948  31.585  36.929  1.00  0.00    -0.207 OA
ATOM     15  O   UNL A   1      36.983  32.424  38.272  1.00  0.00    -0.207 OA
BRANCH  13  16
ATOM     16  C   UNL A   1      38.926  34.023  37.734  1.00  0.00     0.100 A 
ATOM     17  C   UNL A   1      39.708  34.859  36.936  1.00  0.00     0.072 A 
ATOM     18  C   UNL A   1      40.433  35.905  37.547  1.00  0.00     0.021 A 
ATOM     19  C   UNL A   1      40.352  36.145  38.915  1.00  0.00     0.001 A 
ATOM     20  C   UNL A   1      38.847  34.282  39.119  1.00  0.00     0.023 A 
ATOM     21  C   UNL A   1      39.544  35.339  39.702  1.00  0.00     0.001 A 
BRANCH  17  22
ATOM     22  C   UNL A   1      39.820  34.825  35.516  1.00  0.00     0.101 C 
ATOM     23  N   UNL A   1      39.922  34.650  34.371  1.00  0.00    -0.192 NA
ENDBRANCH  17  22
ENDBRANCH  13  16
ENDBRANCH   8  13
ENDBRANCH   5   7
ENDBRANCH   4   5
ENDBRANCH   3   4
ENDBRANCH   2   3
ENDBRANCH   1   2
BRANCH   1  24
ATOM     24  C   UNL A   1      33.671  34.756  28.679  1.00  0.00     0.202 C 
BRANCH  24  25
ATOM     25  C   UNL A   1      33.764  33.381  27.996  1.00  0.00     0.261 C 
BRANCH  25  26
ATOM     26  O   UNL A   1      34.219  32.328  28.865  1.00  0.00    -0.460 OA
BRANCH  26  27
ATOM     27  C   UNL A   1      34.856  31.312  28.227  1.00  0.00     0.338 C 
ATOM     28  O   UNL A   1      34.612  30.879  27.112  1.00  0.00    -0.246 OA
BRANCH  27  29
ATOM     29  C   UNL A   1      36.062  30.910  28.973  1.00  0.00     0.060 A 
ATOM     30  C   UNL A   1      37.277  31.509  28.611  1.00  0.00     0.016 A 
ATOM     31  C   UNL A   1      36.027  29.890  29.924  1.00  0.00     0.016 A 
ATOM     32  C   UNL A   1      38.471  31.056  29.163  1.00  0.00     0.010 A 
ATOM     33  C   UNL A   1      37.231  29.431  30.470  1.00  0.00     0.010 A 
ATOM     34  C   UNL A   1      38.459  29.983  30.062  1.00  0.00    -0.014 A 
BRANCH  34  35
ATOM     35  C   UNL A   1      39.744  29.360  30.464  1.00  0.00     0.031 A 
ATOM     36  C   UNL A   1      40.455  29.863  31.690  1.00  0.00     0.074 A 
ATOM     37  C   UNL A   1      40.259  28.340  29.754  1.00  0.00     0.049 A 
ATOM     38  N   UNL A   1      41.600  29.485  32.197  1.00  0.00    -0.248 NA
ATOM     39  C   UNL A   1      39.790  30.938  32.446  1.00  0.00     0.031 C 
ATOM     40  C   UNL A   1      39.654  27.750  28.561  1.00  0.00     0.029 A 
ATOM     41  N   UNL A   1      41.424  27.635  29.925  1.00  0.00    -0.354 N 
ATOM     42  C   UNL A   1      41.812  30.298  33.304  1.00  0.00     0.074 A 
ATOM     43  C   UNL A   1      40.681  31.197  33.391  1.00  0.00     0.031 C 
ATOM     44  C   UNL A   1      40.464  26.789  28.090  1.00  0.00     0.029 A 
ATOM     45  C   UNL A   1      41.662  26.722  28.924  1.00  0.00     0.049 A 
ATOM     46  H   UNL A   1      42.030  27.770  30.689  1.00  0.00     0.167 HD
ATOM     47  C   UNL A   1      42.851  30.291  34.174  1.00  0.00     0.034 A 
ATOM     48  C   UNL A   1      42.738  25.947  28.689  1.00  0.00     0.034 A 
ATOM     49  C   UNL A   1      43.967  29.389  34.088  1.00  0.00     0.049 A 
ATOM     50  C   UNL A   1      43.900  25.990  29.647  1.00  0.00     0.074 A 
ATOM     51  C   UNL A   1      45.045  29.271  34.948  1.00  0.00     0.029 A 
ATOM     52  N   UNL A   1      44.165  28.466  33.073  1.00  0.00    -0.354 N 
ATOM     53  N   UNL A   1      44.041  26.693  30.744  1.00  0.00    -0.248 NA
ATOM     54  C   UNL A   1      45.039  25.110  29.348  1.00  0.00     0.031 C 
ATOM     55  C   UNL A   1      45.920  28.317  34.423  1.00  0.00     0.029 A 
ATOM     56  C   UNL A   1      45.358  27.793  33.270  1.00  0.00     0.049 A 
ATOM     57  H   UNL A   1      43.548  28.312  32.321  1.00  0.00     0.167 HD
ATOM     58  C   UNL A   1      45.264  26.311  31.288  1.00  0.00     0.074 A 
ATOM     59  C   UNL A   1      45.813  25.301  30.408  1.00  0.00     0.031 C 
ATOM     60  C   UNL A   1      45.879  26.760  32.411  1.00  0.00     0.034 A 
BRANCH  47  61
ATOM     61  C   UNL A   1      42.834  31.299  35.296  1.00  0.00     0.023 A 
ATOM     62  C   UNL A   1      42.367  30.929  36.574  1.00  0.00     0.012 A 
ATOM     63  C   UNL A   1      43.337  32.600  35.095  1.00  0.00     0.148 A 
ATOM     64  C   UNL A   1      42.365  31.848  37.623  1.00  0.00     0.002 A 
ATOM     65  C   UNL A   1      43.380  33.494  36.157  1.00  0.00     0.091 A 
ATOM     66  F   UNL A   1      43.760  32.939  33.869  1.00  0.00    -0.205 F 
ATOM     67  C   UNL A   1      42.881  33.126  37.417  1.00  0.00     0.022 A 
BRANCH  65  68
ATOM     68  S   UNL A   1      44.100  35.133  36.017  1.00  0.00     0.127 S 
ATOM     69  O   UNL A   1      43.192  35.774  35.067  1.00  0.00    -0.237 OA
ATOM     70  O   UNL A   1      43.996  35.630  37.389  1.00  0.00    -0.237 OA
ATOM     71  O   UNL A   1      45.462  34.938  35.540  1.00  0.00    -0.744 OA
ENDBRANCH  65  68
ENDBRANCH  47  61
BRANCH  48  72
ATOM     72  C   UNL A   1      42.770  25.056  27.495  1.00  0.00     0.023 A 
ATOM     73  C   UNL A   1      43.339  25.518  26.292  1.00  0.00     0.012 A 
ATOM     74  C   UNL A   1      42.240  23.753  27.549  1.00  0.00     0.148 A 
ATOM     75  C   UNL A   1      43.345  24.710  25.154  1.00  0.00     0.002 A 
ATOM     76  C   UNL A   1      42.303  22.932  26.431  1.00  0.00     0.091 A 
ATOM     77  F   UNL A   1      41.694  23.338  28.701  1.00  0.00    -0.205 F 
ATOM     78  C   UNL A   1      42.836  23.415  25.226  1.00  0.00     0.022 A 
BRANCH  76  79
ATOM     79  S   UNL A   1      41.788  21.213  26.465  1.00  0.00     0.127 S 
ATOM     80  O   UNL A   1      42.198  20.805  27.807  1.00  0.00    -0.237 OA
ATOM     81  O   UNL A   1      40.342  21.333  26.271  1.00  0.00    -0.237 OA
ATOM     82  O   UNL A   1      42.492  20.565  25.368  1.00  0.00    -0.744 OA
ENDBRANCH  76  79
ENDBRANCH  48  72
BRANCH  60  83
ATOM     83  C   UNL A   1      47.194  26.128  32.791  1.00  0.00     0.023 A 
ATOM     84  C   UNL A   1      48.408  26.677  32.334  1.00  0.00     0.012 A 
ATOM     85  C   UNL A   1      47.222  25.018  33.660  1.00  0.00     0.148 A 
ATOM     86  C   UNL A   1      49.627  26.106  32.703  1.00  0.00     0.002 A 
ATOM     87  C   UNL A   1      48.441  24.491  34.069  1.00  0.00     0.091 A 
ATOM     88  F   UNL A   1      46.057  24.501  34.074  1.00  0.00    -0.205 F 
ATOM     89  C   UNL A   1      49.644  25.023  33.578  1.00  0.00     0.022 A 
BRANCH  87  90
ATOM     90  S   UNL A   1      48.565  23.161  35.270  1.00  0.00     0.127 S 
ATOM     91  O   UNL A   1      50.014  22.986  35.370  1.00  0.00    -0.237 OA
ATOM     92  O   UNL A   1      47.940  23.755  36.451  1.00  0.00    -0.237 OA
ATOM     93  O   UNL A   1      47.842  22.033  34.701  1.00  0.00    -0.744 OA
ENDBRANCH  87  90
ENDBRANCH  60  83
ENDBRANCH  34  35
ENDBRANCH  27  29
ENDBRANCH  26  27
ENDBRANCH  25  26
ENDBRANCH  24  25
ENDBRANCH   1  24
TORSDOF 20
ENDMDL
MODEL 3
REMARK VINA RESULT:     -10.6      1.607      2.300
REMARK SMILES N#Cc1ccccc1S(=O)(=O)N1CCC(C(=O)OCCOCCOC(=O)c2ccc(-c3c4nc(c(-c5cccc(S(=O)(=O)[O-])c5F)c5ccc([nH]5)c(-c5cccc(S(=O)(=O)[O-])c5F)c5nc(c(-c6cccc(S(=O)(=O)[O-])c6F)c6ccc3[nH]6)C=C5)C=C4)cc2)CC1
REMARK SMILES IDX 21 1 20 2 19 3 18 4 16 5 17 6 15 7 12 8 13 9 91 10 14 11
REMARK SMILES IDX 90 12 9 13 10 14 11 15 8 16 3 17 4 18 5 19 7 20 6 21 2 22
REMARK SMILES IDX 1 23 22 24 23 25 24 26 25 27 26 28 27 29 28 30 89 31 29 32
REMARK SMILES IDX 88 33 30 34 31 35 32 36 82 37 33 38 87 39 81 40 83 41 34 42
REMARK SMILES IDX 86 43 80 44 79 45 35 47 67 48 47 49 66 50 48 51 51 52 65 53
REMARK SMILES IDX 84 54 49 55 50 56 64 58 85 59 52 60 36 61 37 62 45 63 38 64
REMARK SMILES IDX 40 65 46 66 39 67 41 68 42 69 43 70 44 71 68 72 69 73 77 74
REMARK SMILES IDX 70 75 72 76 78 77 71 78 73 79 74 80 75 81 76 82 53 83 54 84
REMARK SMILES IDX 62 85 55 86 57 87 63 88 56 89 58 90 59 91 60 92 61 93
REMARK H PARENT 83 46 51 57
REMARK Flexibility Score: inf
ROOT
ATOM      1  O   UNL A   1      31.301  29.511  23.898  1.00  0.00    -0.374 OA
ENDROOT
BRANCH   1   2
ATOM      2  C   UNL A   1      31.134  28.196  23.377  1.00  0.00     0.202 C 
BRANCH   2   3
ATOM      3  C   UNL A   1      30.586  27.100  24.293  1.00  0.00     0.261 C 
BRANCH   3   4
ATOM      4  O   UNL A   1      31.626  26.264  24.812  1.00  0.00    -0.463 OA
BRANCH   4   5
ATOM      5  C   UNL A   1      31.231  25.398  25.778  1.00  0.00     0.309 C 
ATOM      6  O   UNL A   1      30.562  25.690  26.763  1.00  0.00    -0.252 OA
BRANCH   5   7
ATOM      7  C   UNL A   1      31.700  23.988  25.521  1.00  0.00     0.102 C 
ATOM      8  N   UNL A   1      31.960  21.237  24.802  1.00  0.00    -0.198 NA
ATOM      9  C   UNL A   1      31.857  21.549  26.242  1.00  0.00     0.103 C 
ATOM     10  C   UNL A   1      31.893  22.270  23.755  1.00  0.00     0.103 C 
ATOM     11  C   UNL A   1      31.365  22.948  26.582  1.00  0.00     0.032 C 
ATOM     12  C   UNL A   1      31.154  23.517  24.191  1.00  0.00     0.032 C 
BRANCH   8  13
ATOM     13  S   UNL A   1      32.524  19.709  24.377  1.00  0.00     0.244 S 
ATOM     14  O   UNL A   1      32.313  19.568  22.950  1.00  0.00    -0.207 OA
ATOM     15  O   UNL A   1      31.989  18.744  25.313  1.00  0.00    -0.207 OA
BRANCH  13  16
ATOM     16  C   UNL A   1      34.295  19.619  24.581  1.00  0.00     0.100 A 
ATOM     17  C   UNL A   1      35.098  18.479  24.599  1.00  0.00     0.072 A 
ATOM     18  C   UNL A   1      36.485  18.622  24.821  1.00  0.00     0.021 A 
ATOM     19  C   UNL A   1      37.071  19.875  24.979  1.00  0.00     0.001 A 
ATOM     20  C   UNL A   1      34.903  20.884  24.734  1.00  0.00     0.023 A 
ATOM     21  C   UNL A   1      36.279  21.011  24.920  1.00  0.00     0.001 A 
BRANCH  17  22
ATOM     22  C   UNL A   1      34.685  17.138  24.349  1.00  0.00     0.101 C 
ATOM     23  N   UNL A   1      34.492  16.011  24.142  1.00  0.00    -0.192 NA
ENDBRANCH  17  22
ENDBRANCH  13  16
ENDBRANCH   8  13
ENDBRANCH   5   7
ENDBRANCH   4   5
ENDBRANCH   3   4
ENDBRANCH   2   3
ENDBRANCH   1   2
BRANCH   1  24
ATOM     24  C   UNL A   1      32.172  29.701  25.011  1.00  0.00     0.202 C 
BRANCH  24  25
ATOM     25  C   UNL A   1      31.753  30.660  26.138  1.00  0.00     0.261 C 
BRANCH  25  26
ATOM     26  O   UNL A   1      32.619  30.625  27.286  1.00  0.00    -0.460 OA
BRANCH  26  27
ATOM     27  C   UNL A   1      33.403  31.725  27.428  1.00  0.00     0.338 C 
ATOM     28  O   UNL A   1      33.047  32.891  27.381  1.00  0.00    -0.246 OA
BRANCH  27  29
ATOM     29  C   UNL A   1      34.756  31.340  27.873  1.00  0.00     0.060 A 
ATOM     30  C   UNL A   1      35.069  29.974  27.881  1.00  0.00     0.016 A 
ATOM     31  C   UNL A   1      35.654  32.279  28.379  1.00  0.00     0.016 A 
ATOM     32  C   UNL A   1      36.264  29.534  28.442  1.00  0.00     0.010 A 
ATOM     33  C   UNL A   1      36.851  31.833  28.950  1.00  0.00     0.010 A 
ATOM     34  C   UNL A   1      37.142  30.458  29.020  1.00  0.00    -0.014 A 
BRANCH  34  35
ATOM     35  C   UNL A   1      38.294  29.965  29.815  1.00  0.00     0.031 A 
ATOM     36  C   UNL A   1      38.483  30.460  31.223  1.00  0.00     0.074 A 
ATOM     37  C   UNL A   1      39.150  29.068  29.292  1.00  0.00     0.049 A 
ATOM     38  N   UNL A   1      39.436  30.186  32.075  1.00  0.00    -0.248 NA
ATOM     39  C   UNL A   1      37.465  31.390  31.739  1.00  0.00     0.031 C 
ATOM     40  C   UNL A   1      39.060  28.499  27.949  1.00  0.00     0.029 A 
ATOM     41  N   UNL A   1      40.278  28.498  29.826  1.00  0.00    -0.354 N 
ATOM     42  C   UNL A   1      39.157  30.937  33.211  1.00  0.00     0.074 A 
ATOM     43  C   UNL A   1      37.949  31.685  32.936  1.00  0.00     0.031 C 
ATOM     44  C   UNL A   1      40.105  27.678  27.753  1.00  0.00     0.029 A 
ATOM     45  C   UNL A   1      40.956  27.695  28.940  1.00  0.00     0.049 A 
ATOM     46  H   UNL A   1      40.573  28.649  30.754  1.00  0.00     0.167 HD
ATOM     47  C   UNL A   1      39.840  30.992  34.380  1.00  0.00     0.034 A 
ATOM     48  C   UNL A   1      42.146  27.074  29.060  1.00  0.00     0.034 A 
ATOM     49  C   UNL A   1      41.034  30.238  34.650  1.00  0.00     0.049 A 
ATOM     50  C   UNL A   1      42.907  27.186  30.355  1.00  0.00     0.074 A 
ATOM     51  C   UNL A   1      41.772  30.189  35.821  1.00  0.00     0.029 A 
ATOM     52  N   UNL A   1      41.681  29.421  33.737  1.00  0.00    -0.354 N 
ATOM     53  N   UNL A   1      42.579  27.820  31.455  1.00  0.00    -0.248 NA
ATOM     54  C   UNL A   1      44.191  26.473  30.434  1.00  0.00     0.031 C 
ATOM     55  C   UNL A   1      42.894  29.387  35.595  1.00  0.00     0.029 A 
ATOM     56  C   UNL A   1      42.823  28.884  34.306  1.00  0.00     0.049 A 
ATOM     57  H   UNL A   1      41.375  29.250  32.817  1.00  0.00     0.167 HD
ATOM     58  C   UNL A   1      43.594  27.549  32.368  1.00  0.00     0.074 A 
ATOM     59  C   UNL A   1      44.536  26.678  31.698  1.00  0.00     0.031 C 
ATOM     60  C   UNL A   1      43.735  27.986  33.644  1.00  0.00     0.034 A 
BRANCH  47  61
ATOM     61  C   UNL A   1      39.315  31.906  35.458  1.00  0.00     0.023 A 
ATOM     62  C   UNL A   1      38.387  31.426  36.406  1.00  0.00     0.012 A 
ATOM     63  C   UNL A   1      39.787  33.229  35.565  1.00  0.00     0.148 A 
ATOM     64  C   UNL A   1      37.910  32.258  37.417  1.00  0.00     0.002 A 
ATOM     65  C   UNL A   1      39.347  34.037  36.606  1.00  0.00     0.091 A 
ATOM     66  F   UNL A   1      40.655  33.674  34.646  1.00  0.00    -0.205 F 
ATOM     67  C   UNL A   1      38.398  33.559  37.524  1.00  0.00     0.022 A 
BRANCH  65  68
ATOM     68  S   UNL A   1      39.975  35.697  36.879  1.00  0.00     0.127 S 
ATOM     69  O   UNL A   1      39.264  36.085  38.096  1.00  0.00    -0.237 OA
ATOM     70  O   UNL A   1      41.407  35.455  37.061  1.00  0.00    -0.237 OA
ATOM     71  O   UNL A   1      39.632  36.460  35.688  1.00  0.00    -0.744 OA
ENDBRANCH  65  68
ENDBRANCH  47  61
BRANCH  48  72
ATOM     72  C   UNL A   1      42.692  26.282  27.922  1.00  0.00     0.023 A 
ATOM     73  C   UNL A   1      43.493  26.913  26.951  1.00  0.00     0.012 A 
ATOM     74  C   UNL A   1      42.423  24.905  27.803  1.00  0.00     0.148 A 
ATOM     75  C   UNL A   1      43.984  26.195  25.860  1.00  0.00     0.002 A 
ATOM     76  C   UNL A   1      42.965  24.183  26.747  1.00  0.00     0.091 A 
ATOM     77  F   UNL A   1      41.651  24.326  28.733  1.00  0.00    -0.205 F 
ATOM     78  C   UNL A   1      43.728  24.829  25.763  1.00  0.00     0.022 A 
BRANCH  76  79
ATOM     79  S   UNL A   1      42.793  22.401  26.609  1.00  0.00     0.127 S 
ATOM     80  O   UNL A   1      42.598  22.011  28.003  1.00  0.00    -0.237 OA
ATOM     81  O   UNL A   1      41.604  22.283  25.763  1.00  0.00    -0.237 OA
ATOM     82  O   UNL A   1      44.023  21.930  25.989  1.00  0.00    -0.744 OA
ENDBRANCH  76  79
ENDBRANCH  48  72
BRANCH  60  83
ATOM     83  C   UNL A   1      44.923  27.490  34.428  1.00  0.00     0.023 A 
ATOM     84  C   UNL A   1      46.128  28.221  34.437  1.00  0.00     0.012 A 
ATOM     85  C   UNL A   1      44.820  26.322  35.212  1.00  0.00     0.148 A 
ATOM     86  C   UNL A   1      47.222  27.775  35.180  1.00  0.00     0.002 A 
ATOM     87  C   UNL A   1      45.894  25.917  35.994  1.00  0.00     0.091 A 
ATOM     88  F   UNL A   1      43.670  25.632  35.181  1.00  0.00    -0.205 F 
ATOM     89  C   UNL A   1      47.101  26.632  35.966  1.00  0.00     0.022 A 
BRANCH  87  90
ATOM     90  S   UNL A   1      45.800  24.515  37.113  1.00  0.00     0.127 S 
ATOM     91  O   UNL A   1      47.129  24.532  37.723  1.00  0.00    -0.237 OA
ATOM     92  O   UNL A   1      44.713  24.909  38.008  1.00  0.00    -0.237 OA
ATOM     93  O   UNL A   1      45.514  23.353  36.283  1.00  0.00    -0.744 OA
ENDBRANCH  87  90
ENDBRANCH  60  83
ENDBRANCH  34  35
ENDBRANCH  27  29
ENDBRANCH  26  27
ENDBRANCH  25  26
ENDBRANCH  24  25
ENDBRANCH   1  24
TORSDOF 20
ENDMDL
