MODEL 1
REMARK VINA RESULT:      -9.6      0.000      0.000
REMARK SMILES COCCNS(=O)(=O)c1c[nH]c(C(=O)OCCOCCOC(=O)c2ccc(-c3c4nc(c(-c5cccc(S(=O)(=O)[O-])c5F)c5ccc([nH]5)c(-c5cccc(S(=O)(=O)[O-])c5F)c5nc(c(-c6cccc(S(=O)(=O)[O-])c6F)c6ccc3[nH]6)C=C5)C=C4)cc2)c1
REMARK SMILES IDX 17 1 16 2 15 3 13 4 14 5 12 6 9 7 10 8 87 9 11 10 6 12 7 13
REMARK SMILES IDX 8 14 5 15 4 17 3 18 2 19 1 20 18 21 19 22 20 23 21 24 22 25
REMARK SMILES IDX 23 26 24 27 25 28 86 29 26 30 85 31 27 32 28 33 29 34 79 35
REMARK SMILES IDX 30 36 84 37 78 38 80 39 31 40 83 41 77 42 76 43 32 45 64 46
REMARK SMILES IDX 44 47 63 48 45 49 48 50 62 51 81 52 46 53 47 54 61 56 82 57
REMARK SMILES IDX 49 58 33 59 34 60 42 61 35 62 37 63 43 64 36 65 38 66 39 67
REMARK SMILES IDX 40 68 41 69 65 70 66 71 74 72 67 73 69 74 75 75 68 76 70 77
REMARK SMILES IDX 71 78 72 79 73 80 50 81 51 82 59 83 52 84 54 85 60 86 53 87
REMARK SMILES IDX 55 88 56 89 57 90 58 91
REMARK H PARENT 11 11 5 16 80 44 48 55
REMARK Flexibility Score: inf
ROOT
ATOM      1  C   UNL A   1      33.587  30.252  27.052  1.00  0.00     0.202 C 
ENDROOT
BRANCH   1   2
ATOM      2  C   UNL A   1      32.385  30.090  26.117  1.00  0.00     0.261 C 
BRANCH   2   3
ATOM      3  O   UNL A   1      32.755  29.478  24.874  1.00  0.00    -0.459 OA
BRANCH   3   4
ATOM      4  C   UNL A   1      31.780  28.736  24.290  1.00  0.00     0.354 C 
ATOM      5  O   UNL A   1      30.676  29.138  23.946  1.00  0.00    -0.244 OA
BRANCH   4   6
ATOM      6  C   UNL A   1      32.283  27.423  23.969  1.00  0.00     0.126 A 
ATOM      7  C   UNL A   1      33.394  25.474  23.752  1.00  0.00     0.100 A 
ATOM      8  C   UNL A   1      32.197  25.357  23.077  1.00  0.00     0.104 A 
ATOM      9  C   UNL A   1      33.488  26.801  24.244  1.00  0.00     0.057 A 
ATOM     10  N   UNL A   1      31.535  26.542  23.215  1.00  0.00    -0.354 N 
ATOM     11  H   UNL A   1      30.651  26.741  22.831  1.00  0.00     0.166 HD
BRANCH   7  12
ATOM     12  S   UNL A   1      34.485  24.184  24.088  1.00  0.00     0.242 S 
ATOM     13  O   UNL A   1      35.272  24.609  25.214  1.00  0.00    -0.207 OA
ATOM     14  O   UNL A   1      35.047  23.806  22.809  1.00  0.00    -0.207 OA
BRANCH  12  15
ATOM     15  N   UNL A   1      33.521  22.880  24.600  1.00  0.00    -0.209 NA
ATOM     16  H   UNL A   1      32.567  23.045  24.281  1.00  0.00     0.141 HD
BRANCH  15  17
ATOM     17  C   UNL A   1      33.485  22.669  26.071  1.00  0.00     0.127 C 
BRANCH  17  18
ATOM     18  C   UNL A   1      32.435  23.569  26.733  1.00  0.00     0.176 C 
BRANCH  18  19
ATOM     19  O   UNL A   1      31.169  23.568  26.069  1.00  0.00    -0.383 OA
ATOM     20  C   UNL A   1      30.096  23.076  26.856  1.00  0.00     0.194 C 
ENDBRANCH  18  19
ENDBRANCH  17  18
ENDBRANCH  15  17
ENDBRANCH  12  15
ENDBRANCH   7  12
ENDBRANCH   4   6
ENDBRANCH   3   4
ENDBRANCH   2   3
ENDBRANCH   1   2
BRANCH   1  21
ATOM     21  O   UNL A   1      33.735  31.523  27.688  1.00  0.00    -0.374 OA
BRANCH  21  22
ATOM     22  C   UNL A   1      32.671  32.462  27.587  1.00  0.00     0.202 C 
BRANCH  22  23
ATOM     23  C   UNL A   1      32.966  33.954  27.464  1.00  0.00     0.261 C 
BRANCH  23  24
ATOM     24  O   UNL A   1      32.317  34.781  28.419  1.00  0.00    -0.460 OA
BRANCH  24  25
ATOM     25  C   UNL A   1      33.186  35.653  28.983  1.00  0.00     0.338 C 
ATOM     26  O   UNL A   1      33.213  36.864  28.815  1.00  0.00    -0.246 OA
BRANCH  25  27
ATOM     27  C   UNL A   1      34.252  34.949  29.688  1.00  0.00     0.060 A 
ATOM     28  C   UNL A   1      35.484  34.868  29.031  1.00  0.00     0.016 A 
ATOM     29  C   UNL A   1      33.963  34.172  30.812  1.00  0.00     0.016 A 
ATOM     30  C   UNL A   1      36.402  33.924  29.442  1.00  0.00     0.010 A 
ATOM     31  C   UNL A   1      34.873  33.206  31.202  1.00  0.00     0.010 A 
ATOM     32  C   UNL A   1      36.083  33.076  30.511  1.00  0.00    -0.014 A 
BRANCH  32  33
ATOM     33  C   UNL A   1      37.194  32.300  31.095  1.00  0.00     0.031 A 
ATOM     34  C   UNL A   1      37.351  30.981  30.253  1.00  0.00     0.074 A 
ATOM     35  C   UNL A   1      37.775  32.829  32.230  1.00  0.00     0.049 A 
ATOM     36  N   UNL A   1      37.856  29.828  30.568  1.00  0.00    -0.248 NA
ATOM     37  C   UNL A   1      36.782  30.906  28.862  1.00  0.00     0.031 C 
ATOM     38  C   UNL A   1      37.553  34.203  32.755  1.00  0.00     0.029 A 
ATOM     39  N   UNL A   1      38.678  32.359  33.171  1.00  0.00    -0.354 N 
ATOM     40  C   UNL A   1      37.964  29.069  29.368  1.00  0.00     0.074 A 
ATOM     41  C   UNL A   1      37.141  29.707  28.401  1.00  0.00     0.031 C 
ATOM     42  C   UNL A   1      38.193  34.401  33.939  1.00  0.00     0.029 A 
ATOM     43  C   UNL A   1      38.929  33.203  34.307  1.00  0.00     0.049 A 
ATOM     44  H   UNL A   1      39.125  31.489  33.066  1.00  0.00     0.167 HD
ATOM     45  C   UNL A   1      38.889  28.077  29.209  1.00  0.00     0.034 A 
ATOM     46  C   UNL A   1      39.659  32.924  35.447  1.00  0.00     0.034 A 
ATOM     47  C   UNL A   1      39.555  27.888  30.451  1.00  0.00     0.049 A 
ATOM     48  C   UNL A   1      40.398  31.721  35.067  1.00  0.00     0.074 A 
ATOM     49  C   UNL A   1      39.138  27.317  31.621  1.00  0.00     0.029 A 
ATOM     50  N   UNL A   1      40.623  28.723  30.673  1.00  0.00    -0.354 N 
ATOM     51  N   UNL A   1      41.397  31.724  34.236  1.00  0.00    -0.248 NA
ATOM     52  C   UNL A   1      39.903  30.416  35.511  1.00  0.00     0.031 C 
ATOM     53  C   UNL A   1      39.635  28.218  32.577  1.00  0.00     0.029 A 
ATOM     54  C   UNL A   1      40.594  29.060  31.998  1.00  0.00     0.049 A 
ATOM     55  H   UNL A   1      41.283  29.023  30.007  1.00  0.00     0.167 HD
ATOM     56  C   UNL A   1      41.356  30.442  33.762  1.00  0.00     0.074 A 
ATOM     57  C   UNL A   1      40.719  29.648  34.795  1.00  0.00     0.031 C 
ATOM     58  C   UNL A   1      41.336  30.216  32.421  1.00  0.00     0.034 A 
BRANCH  45  59
ATOM     59  C   UNL A   1      39.512  27.380  28.023  1.00  0.00     0.023 A 
ATOM     60  C   UNL A   1      39.260  25.977  27.958  1.00  0.00     0.012 A 
ATOM     61  C   UNL A   1      40.559  27.882  27.237  1.00  0.00     0.148 A 
ATOM     62  C   UNL A   1      40.115  25.092  27.310  1.00  0.00     0.002 A 
ATOM     63  C   UNL A   1      41.377  26.993  26.530  1.00  0.00     0.091 A 
ATOM     64  F   UNL A   1      40.809  29.196  27.235  1.00  0.00    -0.205 F 
ATOM     65  C   UNL A   1      41.191  25.603  26.612  1.00  0.00     0.022 A 
BRANCH  63  66
ATOM     66  S   UNL A   1      42.736  27.524  25.482  1.00  0.00     0.127 S 
ATOM     67  O   UNL A   1      43.071  26.291  24.772  1.00  0.00    -0.237 OA
ATOM     68  O   UNL A   1      42.087  28.542  24.653  1.00  0.00    -0.237 OA
ATOM     69  O   UNL A   1      43.753  28.046  26.383  1.00  0.00    -0.744 OA
ENDBRANCH  63  66
ENDBRANCH  45  59
BRANCH  46  70
ATOM     70  C   UNL A   1      39.936  33.408  36.878  1.00  0.00     0.023 A 
ATOM     71  C   UNL A   1      40.852  34.405  37.237  1.00  0.00     0.012 A 
ATOM     72  C   UNL A   1      39.156  32.887  37.975  1.00  0.00     0.148 A 
ATOM     73  C   UNL A   1      40.910  34.908  38.566  1.00  0.00     0.002 A 
ATOM     74  C   UNL A   1      39.118  33.469  39.242  1.00  0.00     0.091 A 
ATOM     75  F   UNL A   1      38.454  31.761  37.819  1.00  0.00    -0.205 F 
ATOM     76  C   UNL A   1      40.012  34.483  39.550  1.00  0.00     0.022 A 
BRANCH  74  77
ATOM     77  S   UNL A   1      37.844  33.047  40.459  1.00  0.00     0.127 S 
ATOM     78  O   UNL A   1      36.632  32.982  39.643  1.00  0.00    -0.237 OA
ATOM     79  O   UNL A   1      38.323  31.753  40.946  1.00  0.00    -0.237 OA
ATOM     80  O   UNL A   1      37.854  34.110  41.456  1.00  0.00    -0.744 OA
ENDBRANCH  74  77
ENDBRANCH  46  70
BRANCH  58  81
ATOM     81  C   UNL A   1      41.902  31.344  31.547  1.00  0.00     0.023 A 
ATOM     82  C   UNL A   1      40.952  32.179  30.923  1.00  0.00     0.012 A 
ATOM     83  C   UNL A   1      43.265  31.573  31.219  1.00  0.00     0.148 A 
ATOM     84  C   UNL A   1      41.317  33.173  30.009  1.00  0.00     0.002 A 
ATOM     85  C   UNL A   1      43.629  32.553  30.278  1.00  0.00     0.091 A 
ATOM     86  F   UNL A   1      44.207  30.855  31.835  1.00  0.00    -0.205 F 
ATOM     87  C   UNL A   1      42.651  33.356  29.681  1.00  0.00     0.022 A 
BRANCH  85  88
ATOM     88  S   UNL A   1      45.312  32.836  29.684  1.00  0.00     0.127 S 
ATOM     89  O   UNL A   1      46.020  33.231  30.904  1.00  0.00    -0.237 OA
ATOM     90  O   UNL A   1      45.692  31.520  29.175  1.00  0.00    -0.237 OA
ATOM     91  O   UNL A   1      45.215  33.888  28.685  1.00  0.00    -0.744 OA
ENDBRANCH  85  88
ENDBRANCH  58  81
ENDBRANCH  32  33
ENDBRANCH  25  27
ENDBRANCH  24  25
ENDBRANCH  23  24
ENDBRANCH  22  23
ENDBRANCH  21  22
ENDBRANCH   1  21
TORSDOF 22
ENDMDL
MODEL 2
REMARK VINA RESULT:      -9.2      1.655      1.917
REMARK SMILES COCCNS(=O)(=O)c1c[nH]c(C(=O)OCCOCCOC(=O)c2ccc(-c3c4nc(c(-c5cccc(S(=O)(=O)[O-])c5F)c5ccc([nH]5)c(-c5cccc(S(=O)(=O)[O-])c5F)c5nc(c(-c6cccc(S(=O)(=O)[O-])c6F)c6ccc3[nH]6)C=C5)C=C4)cc2)c1
REMARK SMILES IDX 17 1 16 2 15 3 13 4 14 5 12 6 9 7 10 8 87 9 11 10 6 12 7 13
REMARK SMILES IDX 8 14 5 15 4 17 3 18 2 19 1 20 18 21 19 22 20 23 21 24 22 25
REMARK SMILES IDX 23 26 24 27 25 28 86 29 26 30 85 31 27 32 28 33 29 34 79 35
REMARK SMILES IDX 30 36 84 37 78 38 80 39 31 40 83 41 77 42 76 43 32 45 64 46
REMARK SMILES IDX 44 47 63 48 45 49 48 50 62 51 81 52 46 53 47 54 61 56 82 57
REMARK SMILES IDX 49 58 33 59 34 60 42 61 35 62 37 63 43 64 36 65 38 66 39 67
REMARK SMILES IDX 40 68 41 69 65 70 66 71 74 72 67 73 69 74 75 75 68 76 70 77
REMARK SMILES IDX 71 78 72 79 73 80 50 81 51 82 59 83 52 84 54 85 60 86 53 87
REMARK SMILES IDX 55 88 56 89 57 90 58 91
REMARK H PARENT 11 11 5 16 80 44 48 55
REMARK Flexibility Score: inf
ROOT
ATOM      1  C   UNL A   1      32.180  30.096  26.894  1.00  0.00     0.202 C 
ENDROOT
BRANCH   1   2
ATOM      2  C   UNL A   1      33.194  29.407  25.977  1.00  0.00     0.261 C 
BRANCH   2   3
ATOM      3  O   UNL A   1      32.891  29.619  24.592  1.00  0.00    -0.459 OA
BRANCH   3   4
ATOM      4  C   UNL A   1      31.782  28.975  24.145  1.00  0.00     0.354 C 
ATOM      5  O   UNL A   1      30.654  29.444  24.075  1.00  0.00    -0.244 OA
BRANCH   4   6
ATOM      6  C   UNL A   1      32.144  27.692  23.595  1.00  0.00     0.126 A 
ATOM      7  C   UNL A   1      32.687  25.548  23.156  1.00  0.00     0.100 A 
ATOM      8  C   UNL A   1      32.509  26.195  21.951  1.00  0.00     0.104 A 
ATOM      9  C   UNL A   1      32.540  26.508  24.191  1.00  0.00     0.057 A 
ATOM     10  N   UNL A   1      32.183  27.491  22.230  1.00  0.00    -0.354 N 
ATOM     11  H   UNL A   1      32.001  28.183  21.554  1.00  0.00     0.166 HD
BRANCH   7  12
ATOM     12  S   UNL A   1      32.871  23.848  23.363  1.00  0.00     0.242 S 
ATOM     13  O   UNL A   1      33.921  23.674  24.330  1.00  0.00    -0.207 OA
ATOM     14  O   UNL A   1      32.907  23.295  22.026  1.00  0.00    -0.207 OA
BRANCH  12  15
ATOM     15  N   UNL A   1      31.425  23.306  24.075  1.00  0.00    -0.209 NA
ATOM     16  H   UNL A   1      30.786  24.098  24.140  1.00  0.00     0.141 HD
BRANCH  15  17
ATOM     17  C   UNL A   1      31.577  22.723  25.433  1.00  0.00     0.127 C 
BRANCH  17  18
ATOM     18  C   UNL A   1      31.288  23.766  26.519  1.00  0.00     0.176 C 
BRANCH  18  19
ATOM     19  O   UNL A   1      30.425  23.299  27.558  1.00  0.00    -0.383 OA
ATOM     20  C   UNL A   1      29.309  22.552  27.100  1.00  0.00     0.194 C 
ENDBRANCH  18  19
ENDBRANCH  17  18
ENDBRANCH  15  17
ENDBRANCH  12  15
ENDBRANCH   7  12
ENDBRANCH   4   6
ENDBRANCH   3   4
ENDBRANCH   2   3
ENDBRANCH   1   2
BRANCH   1  21
ATOM     21  O   UNL A   1      32.063  31.514  26.769  1.00  0.00    -0.374 OA
BRANCH  21  22
ATOM     22  C   UNL A   1      32.788  32.337  27.675  1.00  0.00     0.202 C 
BRANCH  22  23
ATOM     23  C   UNL A   1      32.897  33.840  27.435  1.00  0.00     0.261 C 
BRANCH  23  24
ATOM     24  O   UNL A   1      32.261  34.658  28.407  1.00  0.00    -0.460 OA
BRANCH  24  25
ATOM     25  C   UNL A   1      33.119  35.573  28.914  1.00  0.00     0.338 C 
ATOM     26  O   UNL A   1      33.124  36.774  28.681  1.00  0.00    -0.246 OA
BRANCH  25  27
ATOM     27  C   UNL A   1      34.203  34.926  29.646  1.00  0.00     0.060 A 
ATOM     28  C   UNL A   1      35.390  34.712  28.938  1.00  0.00     0.016 A 
ATOM     29  C   UNL A   1      33.958  34.316  30.878  1.00  0.00     0.016 A 
ATOM     30  C   UNL A   1      36.301  33.795  29.420  1.00  0.00     0.010 A 
ATOM     31  C   UNL A   1      34.858  33.374  31.342  1.00  0.00     0.010 A 
ATOM     32  C   UNL A   1      36.020  33.107  30.609  1.00  0.00    -0.014 A 
BRANCH  32  33
ATOM     33  C   UNL A   1      37.139  32.371  31.228  1.00  0.00     0.031 A 
ATOM     34  C   UNL A   1      37.314  31.019  30.446  1.00  0.00     0.074 A 
ATOM     35  C   UNL A   1      37.712  32.957  32.339  1.00  0.00     0.049 A 
ATOM     36  N   UNL A   1      37.832  29.887  30.813  1.00  0.00    -0.248 NA
ATOM     37  C   UNL A   1      36.748  30.874  29.059  1.00  0.00     0.031 C 
ATOM     38  C   UNL A   1      37.472  34.350  32.803  1.00  0.00     0.029 A 
ATOM     39  N   UNL A   1      38.618  32.540  33.301  1.00  0.00    -0.354 N 
ATOM     40  C   UNL A   1      37.952  29.076  29.647  1.00  0.00     0.074 A 
ATOM     41  C   UNL A   1      37.123  29.661  28.652  1.00  0.00     0.031 C 
ATOM     42  C   UNL A   1      38.108  34.609  33.977  1.00  0.00     0.029 A 
ATOM     43  C   UNL A   1      38.857  33.437  34.399  1.00  0.00     0.049 A 
ATOM     44  H   UNL A   1      39.076  31.672  33.236  1.00  0.00     0.167 HD
ATOM     45  C   UNL A   1      38.888  28.089  29.534  1.00  0.00     0.034 A 
ATOM     46  C   UNL A   1      39.589  33.217  35.552  1.00  0.00     0.034 A 
ATOM     47  C   UNL A   1      39.554  27.964  30.784  1.00  0.00     0.049 A 
ATOM     48  C   UNL A   1      40.342  32.008  35.226  1.00  0.00     0.074 A 
ATOM     49  C   UNL A   1      39.142  27.440  31.978  1.00  0.00     0.029 A 
ATOM     50  N   UNL A   1      40.612  28.821  30.971  1.00  0.00    -0.354 N 
ATOM     51  N   UNL A   1      41.343  31.986  34.397  1.00  0.00    -0.248 NA
ATOM     52  C   UNL A   1      39.862  30.718  35.727  1.00  0.00     0.031 C 
ATOM     53  C   UNL A   1      39.626  28.389  32.894  1.00  0.00     0.029 A 
ATOM     54  C   UNL A   1      40.577  29.216  32.279  1.00  0.00     0.049 A 
ATOM     55  H   UNL A   1      41.270  29.098  30.292  1.00  0.00     0.167 HD
ATOM     56  C   UNL A   1      41.318  30.684  33.981  1.00  0.00     0.074 A 
ATOM     57  C   UNL A   1      40.689  29.929  35.048  1.00  0.00     0.031 C 
ATOM     58  C   UNL A   1      41.304  30.399  32.652  1.00  0.00     0.034 A 
BRANCH  45  59
ATOM     59  C   UNL A   1      39.522  27.348  28.381  1.00  0.00     0.023 A 
ATOM     60  C   UNL A   1      39.470  25.926  28.488  1.00  0.00     0.012 A 
ATOM     61  C   UNL A   1      40.431  27.891  27.460  1.00  0.00     0.148 A 
ATOM     62  C   UNL A   1      40.396  25.094  27.869  1.00  0.00     0.002 A 
ATOM     63  C   UNL A   1      41.317  27.043  26.786  1.00  0.00     0.091 A 
ATOM     64  F   UNL A   1      40.489  29.216  27.297  1.00  0.00    -0.205 F 
ATOM     65  C   UNL A   1      41.338  25.660  27.032  1.00  0.00     0.022 A 
BRANCH  63  66
ATOM     66  S   UNL A   1      42.511  27.624  25.577  1.00  0.00     0.127 S 
ATOM     67  O   UNL A   1      43.692  27.860  26.405  1.00  0.00    -0.237 OA
ATOM     68  O   UNL A   1      42.617  26.464  24.688  1.00  0.00    -0.237 OA
ATOM     69  O   UNL A   1      41.913  28.798  24.959  1.00  0.00    -0.744 OA
ENDBRANCH  63  66
ENDBRANCH  45  59
BRANCH  46  70
ATOM     70  C   UNL A   1      39.857  33.768  36.960  1.00  0.00     0.023 A 
ATOM     71  C   UNL A   1      39.212  33.354  38.132  1.00  0.00     0.012 A 
ATOM     72  C   UNL A   1      40.911  34.733  37.164  1.00  0.00     0.148 A 
ATOM     73  C   UNL A   1      39.654  33.795  39.411  1.00  0.00     0.002 A 
ATOM     74  C   UNL A   1      41.428  35.060  38.417  1.00  0.00     0.091 A 
ATOM     75  F   UNL A   1      41.412  35.403  36.122  1.00  0.00    -0.205 F 
ATOM     76  C   UNL A   1      40.788  34.599  39.557  1.00  0.00     0.022 A 
BRANCH  74  77
ATOM     77  S   UNL A   1      42.994  35.951  38.611  1.00  0.00     0.127 S 
ATOM     78  O   UNL A   1      43.210  35.906  40.056  1.00  0.00    -0.237 OA
ATOM     79  O   UNL A   1      43.905  35.112  37.832  1.00  0.00    -0.237 OA
ATOM     80  O   UNL A   1      42.784  37.285  38.064  1.00  0.00    -0.744 OA
ENDBRANCH  74  77
ENDBRANCH  46  70
BRANCH  58  81
ATOM     81  C   UNL A   1      41.858  31.493  31.729  1.00  0.00     0.023 A 
ATOM     82  C   UNL A   1      40.899  32.271  31.047  1.00  0.00     0.012 A 
ATOM     83  C   UNL A   1      43.220  31.738  31.411  1.00  0.00     0.148 A 
ATOM     84  C   UNL A   1      41.256  33.225  30.089  1.00  0.00     0.002 A 
ATOM     85  C   UNL A   1      43.577  32.677  30.426  1.00  0.00     0.091 A 
ATOM     86  F   UNL A   1      44.168  31.076  32.078  1.00  0.00    -0.205 F 
ATOM     87  C   UNL A   1      42.591  33.424  29.773  1.00  0.00     0.022 A 
BRANCH  85  88
ATOM     88  S   UNL A   1      45.263  32.970  29.845  1.00  0.00     0.127 S 
ATOM     89  O   UNL A   1      45.047  33.555  28.519  1.00  0.00    -0.237 OA
ATOM     90  O   UNL A   1      45.778  33.913  30.834  1.00  0.00    -0.237 OA
ATOM     91  O   UNL A   1      45.914  31.669  29.822  1.00  0.00    -0.744 OA
ENDBRANCH  85  88
ENDBRANCH  58  81
ENDBRANCH  32  33
ENDBRANCH  25  27
ENDBRANCH  24  25
ENDBRANCH  23  24
ENDBRANCH  22  23
ENDBRANCH  21  22
ENDBRANCH   1  21
TORSDOF 22
ENDMDL
MODEL 3
REMARK VINA RESULT:      -9.1      5.354      7.742
REMARK SMILES COCCNS(=O)(=O)c1c[nH]c(C(=O)OCCOCCOC(=O)c2ccc(-c3c4nc(c(-c5cccc(S(=O)(=O)[O-])c5F)c5ccc([nH]5)c(-c5cccc(S(=O)(=O)[O-])c5F)c5nc(c(-c6cccc(S(=O)(=O)[O-])c6F)c6ccc3[nH]6)C=C5)C=C4)cc2)c1
REMARK SMILES IDX 17 1 16 2 15 3 13 4 14 5 12 6 9 7 10 8 87 9 11 10 6 12 7 13
REMARK SMILES IDX 8 14 5 15 4 17 3 18 2 19 1 20 18 21 19 22 20 23 21 24 22 25
REMARK SMILES IDX 23 26 24 27 25 28 86 29 26 30 85 31 27 32 28 33 29 34 79 35
REMARK SMILES IDX 30 36 84 37 78 38 80 39 31 40 83 41 77 42 76 43 32 45 64 46
REMARK SMILES IDX 44 47 63 48 45 49 48 50 62 51 81 52 46 53 47 54 61 56 82 57
REMARK SMILES IDX 49 58 33 59 34 60 42 61 35 62 37 63 43 64 36 65 38 66 39 67
REMARK SMILES IDX 40 68 41 69 65 70 66 71 74 72 67 73 69 74 75 75 68 76 70 77
REMARK SMILES IDX 71 78 72 79 73 80 50 81 51 82 59 83 52 84 54 85 60 86 53 87
REMARK SMILES IDX 55 88 56 89 57 90 58 91
REMARK H PARENT 11 11 5 16 80 44 48 55
REMARK Flexibility Score: inf
ROOT
ATOM      1  C   UNL A   1      31.785  29.822  27.039  1.00  0.00     0.202 C 
ENDROOT
BRANCH   1   2
ATOM      2  C   UNL A   1      31.451  29.759  25.547  1.00  0.00     0.261 C 
BRANCH   2   3
ATOM      3  O   UNL A   1      31.097  28.432  25.134  1.00  0.00    -0.459 OA
BRANCH   3   4
ATOM      4  C   UNL A   1      30.798  28.304  23.816  1.00  0.00     0.354 C 
ATOM      5  O   UNL A   1      30.147  29.093  23.145  1.00  0.00    -0.244 OA
BRANCH   4   6
ATOM      6  C   UNL A   1      31.502  27.177  23.257  1.00  0.00     0.126 A 
ATOM      7  C   UNL A   1      32.592  25.257  22.797  1.00  0.00     0.100 A 
ATOM      8  C   UNL A   1      32.324  25.890  21.601  1.00  0.00     0.104 A 
ATOM      9  C   UNL A   1      32.150  26.105  23.845  1.00  0.00     0.057 A 
ATOM     10  N   UNL A   1      31.666  27.049  21.893  1.00  0.00    -0.354 N 
ATOM     11  H   UNL A   1      31.353  27.701  21.225  1.00  0.00     0.166 HD
BRANCH   7  12
ATOM     12  S   UNL A   1      33.187  23.651  22.970  1.00  0.00     0.242 S 
ATOM     13  O   UNL A   1      34.222  23.498  21.983  1.00  0.00    -0.207 OA
ATOM     14  O   UNL A   1      32.013  22.806  23.042  1.00  0.00    -0.207 OA
BRANCH  12  15
ATOM     15  N   UNL A   1      33.925  23.589  24.500  1.00  0.00    -0.209 NA
ATOM     16  H   UNL A   1      33.329  24.085  25.161  1.00  0.00     0.141 HD
BRANCH  15  17
ATOM     17  C   UNL A   1      35.284  24.188  24.563  1.00  0.00     0.127 C 
BRANCH  17  18
ATOM     18  C   UNL A   1      36.136  23.513  25.644  1.00  0.00     0.176 C 
BRANCH  18  19
ATOM     19  O   UNL A   1      36.183  22.088  25.540  1.00  0.00    -0.383 OA
ATOM     20  C   UNL A   1      37.440  21.573  25.129  1.00  0.00     0.194 C 
ENDBRANCH  18  19
ENDBRANCH  17  18
ENDBRANCH  15  17
ENDBRANCH  12  15
ENDBRANCH   7  12
ENDBRANCH   4   6
ENDBRANCH   3   4
ENDBRANCH   2   3
ENDBRANCH   1   2
BRANCH   1  21
ATOM     21  O   UNL A   1      33.019  30.450  27.394  1.00  0.00    -0.374 OA
BRANCH  21  22
ATOM     22  C   UNL A   1      34.178  30.149  26.626  1.00  0.00     0.202 C 
BRANCH  22  23
ATOM     23  C   UNL A   1      35.569  30.304  27.235  1.00  0.00     0.261 C 
BRANCH  23  24
ATOM     24  O   UNL A   1      35.797  29.563  28.424  1.00  0.00    -0.460 OA
BRANCH  24  25
ATOM     25  C   UNL A   1      36.762  30.135  29.181  1.00  0.00     0.338 C 
ATOM     26  O   UNL A   1      36.712  31.234  29.717  1.00  0.00    -0.246 OA
BRANCH  25  27
ATOM     27  C   UNL A   1      37.997  29.359  29.130  1.00  0.00     0.060 A 
ATOM     28  C   UNL A   1      38.483  28.882  30.351  1.00  0.00     0.016 A 
ATOM     29  C   UNL A   1      38.776  29.346  27.970  1.00  0.00     0.016 A 
ATOM     30  C   UNL A   1      39.800  28.481  30.437  1.00  0.00     0.010 A 
ATOM     31  C   UNL A   1      40.103  28.973  28.067  1.00  0.00     0.010 A 
ATOM     32  C   UNL A   1      40.616  28.552  29.299  1.00  0.00    -0.014 A 
BRANCH  32  33
ATOM     33  C   UNL A   1      41.908  27.843  29.366  1.00  0.00     0.031 A 
ATOM     34  C   UNL A   1      41.646  26.335  29.007  1.00  0.00     0.074 A 
ATOM     35  C   UNL A   1      42.993  28.592  29.774  1.00  0.00     0.049 A 
ATOM     36  N   UNL A   1      42.311  25.263  29.309  1.00  0.00    -0.248 NA
ATOM     37  C   UNL A   1      40.399  25.947  28.259  1.00  0.00     0.031 C 
ATOM     38  C   UNL A   1      43.021  30.075  29.906  1.00  0.00     0.029 A 
ATOM     39  N   UNL A   1      44.296  28.298  30.145  1.00  0.00    -0.354 N 
ATOM     40  C   UNL A   1      41.772  24.195  28.534  1.00  0.00     0.074 A 
ATOM     41  C   UNL A   1      40.510  24.635  28.050  1.00  0.00     0.031 C 
ATOM     42  C   UNL A   1      44.202  30.515  30.417  1.00  0.00     0.029 A 
ATOM     43  C   UNL A   1      45.089  29.387  30.646  1.00  0.00     0.049 A 
ATOM     44  H   UNL A   1      44.659  27.387  30.069  1.00  0.00     0.167 HD
ATOM     45  C   UNL A   1      42.507  23.098  28.187  1.00  0.00     0.034 A 
ATOM     46  C   UNL A   1      46.350  29.349  31.212  1.00  0.00     0.034 A 
ATOM     47  C   UNL A   1      43.766  23.182  28.842  1.00  0.00     0.049 A 
ATOM     48  C   UNL A   1      46.820  28.011  30.857  1.00  0.00     0.074 A 
ATOM     49  C   UNL A   1      44.116  23.006  30.152  1.00  0.00     0.029 A 
ATOM     50  N   UNL A   1      44.720  23.917  28.180  1.00  0.00    -0.354 N 
ATOM     51  N   UNL A   1      47.176  27.670  29.655  1.00  0.00    -0.248 NA
ATOM     52  C   UNL A   1      46.742  26.945  31.858  1.00  0.00     0.031 C 
ATOM     53  C   UNL A   1      45.008  24.072  30.360  1.00  0.00     0.029 A 
ATOM     54  C   UNL A   1      45.421  24.606  29.131  1.00  0.00     0.049 A 
ATOM     55  H   UNL A   1      44.871  23.943  27.207  1.00  0.00     0.167 HD
ATOM     56  C   UNL A   1      46.955  26.321  29.682  1.00  0.00     0.074 A 
ATOM     57  C   UNL A   1      47.060  25.921  31.072  1.00  0.00     0.031 C 
ATOM     58  C   UNL A   1      46.199  25.739  28.713  1.00  0.00     0.034 A 
BRANCH  45  59
ATOM     59  C   UNL A   1      42.396  22.035  27.120  1.00  0.00     0.023 A 
ATOM     60  C   UNL A   1      41.277  21.161  27.266  1.00  0.00     0.012 A 
ATOM     61  C   UNL A   1      43.432  21.618  26.271  1.00  0.00     0.148 A 
ATOM     62  C   UNL A   1      41.269  19.865  26.760  1.00  0.00     0.002 A 
ATOM     63  C   UNL A   1      43.387  20.338  25.707  1.00  0.00     0.091 A 
ATOM     64  F   UNL A   1      44.484  22.419  26.073  1.00  0.00    -0.205 F 
ATOM     65  C   UNL A   1      42.340  19.446  25.996  1.00  0.00     0.022 A 
BRANCH  63  66
ATOM     66  S   UNL A   1      44.648  19.704  24.596  1.00  0.00     0.127 S 
ATOM     67  O   UNL A   1      44.529  20.609  23.454  1.00  0.00    -0.237 OA
ATOM     68  O   UNL A   1      45.862  19.893  25.393  1.00  0.00    -0.237 OA
ATOM     69  O   UNL A   1      44.302  18.312  24.354  1.00  0.00    -0.744 OA
ENDBRANCH  63  66
ENDBRANCH  45  59
BRANCH  46  70
ATOM     70  C   UNL A   1      47.354  30.172  32.033  1.00  0.00     0.023 A 
ATOM     71  C   UNL A   1      47.270  30.420  33.409  1.00  0.00     0.012 A 
ATOM     72  C   UNL A   1      48.546  30.685  31.402  1.00  0.00     0.148 A 
ATOM     73  C   UNL A   1      48.339  31.043  34.112  1.00  0.00     0.002 A 
ATOM     74  C   UNL A   1      49.646  31.173  32.109  1.00  0.00     0.091 A 
ATOM     75  F   UNL A   1      48.619  30.756  30.070  1.00  0.00    -0.205 F 
ATOM     76  C   UNL A   1      49.542  31.367  33.477  1.00  0.00     0.022 A 
BRANCH  74  77
ATOM     77  S   UNL A   1      51.260  31.426  31.324  1.00  0.00     0.127 S 
ATOM     78  O   UNL A   1      52.116  31.770  32.459  1.00  0.00    -0.237 OA
ATOM     79  O   UNL A   1      51.514  30.107  30.745  1.00  0.00    -0.237 OA
ATOM     80  O   UNL A   1      51.083  32.492  30.347  1.00  0.00    -0.744 OA
ENDBRANCH  74  77
ENDBRANCH  46  70
BRANCH  58  81
ATOM     81  C   UNL A   1      46.104  26.510  27.389  1.00  0.00     0.023 A 
ATOM     82  C   UNL A   1      44.847  27.077  27.092  1.00  0.00     0.012 A 
ATOM     83  C   UNL A   1      47.108  26.627  26.390  1.00  0.00     0.148 A 
ATOM     84  C   UNL A   1      44.581  27.707  25.872  1.00  0.00     0.002 A 
ATOM     85  C   UNL A   1      46.830  27.234  25.153  1.00  0.00     0.091 A 
ATOM     86  F   UNL A   1      48.333  26.167  26.650  1.00  0.00    -0.205 F 
ATOM     87  C   UNL A   1      45.567  27.780  24.901  1.00  0.00     0.022 A 
BRANCH  85  88
ATOM     88  S   UNL A   1      47.984  27.314  23.763  1.00  0.00     0.127 S 
ATOM     89  O   UNL A   1      47.283  28.184  22.815  1.00  0.00    -0.237 OA
ATOM     90  O   UNL A   1      49.165  27.925  24.369  1.00  0.00    -0.237 OA
ATOM     91  O   UNL A   1      48.155  25.946  23.302  1.00  0.00    -0.744 OA
ENDBRANCH  85  88
ENDBRANCH  58  81
ENDBRANCH  32  33
ENDBRANCH  25  27
ENDBRANCH  24  25
ENDBRANCH  23  24
ENDBRANCH  22  23
ENDBRANCH  21  22
ENDBRANCH   1  21
TORSDOF 22
ENDMDL
