MODEL 1
REMARK VINA RESULT:     -11.7      0.000      0.000
REMARK SMILES Cc1cc2c(c(C)c1Br)C=C(C(=O)OCCOCCOC(=O)c1ccc(-c3c4nc(c(-c5cccc(S(=O)(=O)[O-])c5F)c5ccc([nH]5)c(-c5cccc(S(=O)(=O)[O-])c5F)c5nc(c(-c6cccc(S(=O)(=O)[O-])c6F)c6ccc3[nH]6)C=C5)C=C4)cc1)[C@@H](C(F)(F)F)O2
REMARK SMILES IDX 18 1 17 2 16 3 15 4 14 5 12 6 13 7 11 8 1 9 2 10 3 11 8 12
REMARK SMILES IDX 4 13 6 14 9 15 5 16 91 17 7 18 10 19 86 20 87 21 88 22 89 23
REMARK SMILES IDX 90 24 19 25 20 26 21 27 22 28 23 29 24 30 85 31 25 32 84 33
REMARK SMILES IDX 26 34 27 35 28 36 78 37 29 38 83 39 77 40 79 41 30 42 82 43
REMARK SMILES IDX 76 44 75 45 31 47 63 48 43 49 62 50 44 51 47 52 61 53 80 54
REMARK SMILES IDX 45 55 46 56 60 58 81 59 48 60 32 61 33 62 41 63 34 64 36 65
REMARK SMILES IDX 42 66 35 67 37 68 38 69 39 70 40 71 64 72 65 73 73 74 66 75
REMARK SMILES IDX 68 76 74 77 67 78 69 79 70 80 71 81 72 82 49 83 50 84 58 85
REMARK SMILES IDX 51 86 53 87 59 88 52 89 54 90 55 91 56 92 57 93
REMARK H PARENT 79 46 47 57
REMARK Flexibility Score: inf
ROOT
ATOM      1  C   UNL A   1      31.456  31.727  26.484  1.00  0.00     0.202 C 
ENDROOT
BRANCH   1   2
ATOM      2  O   UNL A   1      32.403  30.660  26.558  1.00  0.00    -0.374 OA
BRANCH   2   3
ATOM      3  C   UNL A   1      32.003  29.464  27.227  1.00  0.00     0.202 C 
BRANCH   3   4
ATOM      4  C   UNL A   1      31.749  28.234  26.349  1.00  0.00     0.261 C 
BRANCH   4   5
ATOM      5  O   UNL A   1      32.736  27.214  26.568  1.00  0.00    -0.460 OA
BRANCH   5   6
ATOM      6  C   UNL A   1      33.268  26.694  25.440  1.00  0.00     0.338 C 
ATOM      7  O   UNL A   1      33.822  27.306  24.538  1.00  0.00    -0.246 OA
BRANCH   6   8
ATOM      8  C   UNL A   1      33.223  25.220  25.498  1.00  0.00     0.087 C 
ATOM      9  C   UNL A   1      34.341  18.926  24.567  1.00  0.00     0.046 C 
ATOM     10  C   UNL A   1      34.435  20.387  24.916  1.00  0.00    -0.033 A 
ATOM     11  C   UNL A   1      33.243  21.097  25.119  1.00  0.00     0.051 A 
ATOM     12  C   UNL A   1      35.664  21.066  25.055  1.00  0.00     0.024 A 
ATOM     13  C   UNL A   1      33.258  22.468  25.360  1.00  0.00     0.128 A 
ATOM     14  C   UNL A   1      35.700  22.455  25.320  1.00  0.00    -0.026 A 
ATOM     15  Br  UNL A   1      37.284  20.063  24.857  1.00  0.00    -0.050 Br
ATOM     16  C   UNL A   1      34.472  23.158  25.419  1.00  0.00     0.021 A 
ATOM     17  O   UNL A   1      32.031  23.044  25.533  1.00  0.00    -0.475 OA
ATOM     18  C   UNL A   1      36.995  23.217  25.490  1.00  0.00     0.046 C 
ATOM     19  C   UNL A   1      34.416  24.613  25.513  1.00  0.00     0.027 C 
ATOM     20  C   UNL A   1      31.912  24.492  25.502  1.00  0.00     0.316 C 
BRANCH  20  21
ATOM     21  C   UNL A   1      31.013  24.880  24.318  1.00  0.00     0.430 C 
ATOM     22  F   UNL A   1      30.077  25.784  24.693  1.00  0.00    -0.167 F 
ATOM     23  F   UNL A   1      31.723  25.436  23.312  1.00  0.00    -0.167 F 
ATOM     24  F   UNL A   1      30.363  23.806  23.815  1.00  0.00    -0.167 F 
ENDBRANCH  20  21
ENDBRANCH   6   8
ENDBRANCH   5   6
ENDBRANCH   4   5
ENDBRANCH   3   4
ENDBRANCH   2   3
ENDBRANCH   1   2
BRANCH   1  25
ATOM     25  C   UNL A   1      31.967  33.148  26.755  1.00  0.00     0.261 C 
BRANCH  25  26
ATOM     26  O   UNL A   1      32.546  33.281  28.064  1.00  0.00    -0.460 OA
BRANCH  26  27
ATOM     27  C   UNL A   1      33.642  34.078  28.121  1.00  0.00     0.338 C 
ATOM     28  O   UNL A   1      33.670  35.300  28.071  1.00  0.00    -0.246 OA
BRANCH  27  29
ATOM     29  C   UNL A   1      34.832  33.274  28.450  1.00  0.00     0.060 A 
ATOM     30  C   UNL A   1      34.630  32.042  29.085  1.00  0.00     0.016 A 
ATOM     31  C   UNL A   1      36.124  33.750  28.217  1.00  0.00     0.016 A 
ATOM     32  C   UNL A   1      35.721  31.299  29.529  1.00  0.00     0.010 A 
ATOM     33  C   UNL A   1      37.217  33.008  28.675  1.00  0.00     0.010 A 
ATOM     34  C   UNL A   1      37.019  31.797  29.362  1.00  0.00    -0.014 A 
BRANCH  34  35
ATOM     35  C   UNL A   1      38.154  31.114  30.026  1.00  0.00     0.031 A 
ATOM     36  C   UNL A   1      38.512  31.493  31.437  1.00  0.00     0.074 A 
ATOM     37  C   UNL A   1      38.840  30.148  29.388  1.00  0.00     0.049 A 
ATOM     38  N   UNL A   1      39.461  31.023  32.203  1.00  0.00    -0.248 NA
ATOM     39  C   UNL A   1      37.689  32.537  32.073  1.00  0.00     0.031 C 
ATOM     40  C   UNL A   1      38.571  29.683  28.028  1.00  0.00     0.029 A 
ATOM     41  N   UNL A   1      39.910  29.393  29.797  1.00  0.00    -0.354 N 
ATOM     42  C   UNL A   1      39.359  31.717  33.402  1.00  0.00     0.074 A 
ATOM     43  C   UNL A   1      38.270  32.657  33.259  1.00  0.00     0.031 C 
ATOM     44  C   UNL A   1      39.462  28.729  27.710  1.00  0.00     0.029 A 
ATOM     45  C   UNL A   1      40.379  28.532  28.832  1.00  0.00     0.049 A 
ATOM     46  H   UNL A   1      40.305  29.462  30.696  1.00  0.00     0.167 HD
ATOM     47  C   UNL A   1      40.091  31.566  34.532  1.00  0.00     0.034 A 
ATOM     48  C   UNL A   1      41.431  27.689  28.852  1.00  0.00     0.034 A 
ATOM     49  C   UNL A   1      41.161  30.617  34.677  1.00  0.00     0.049 A 
ATOM     50  C   UNL A   1      42.261  27.578  30.105  1.00  0.00     0.074 A 
ATOM     51  C   UNL A   1      41.947  30.378  35.790  1.00  0.00     0.029 A 
ATOM     52  N   UNL A   1      41.598  29.756  33.684  1.00  0.00    -0.354 N 
ATOM     53  N   UNL A   1      42.090  28.171  31.263  1.00  0.00    -0.248 NA
ATOM     54  C   UNL A   1      43.412  26.663  30.067  1.00  0.00     0.031 C 
ATOM     55  C   UNL A   1      42.874  29.384  35.463  1.00  0.00     0.029 A 
ATOM     56  C   UNL A   1      42.649  28.988  34.154  1.00  0.00     0.049 A 
ATOM     57  H   UNL A   1      41.217  29.698  32.777  1.00  0.00     0.167 HD
ATOM     58  C   UNL A   1      43.086  27.675  32.098  1.00  0.00     0.074 A 
ATOM     59  C   UNL A   1      43.845  26.719  31.320  1.00  0.00     0.031 C 
ATOM     60  C   UNL A   1      43.358  27.996  33.387  1.00  0.00     0.034 A 
BRANCH  47  61
ATOM     61  C   UNL A   1      39.731  32.407  35.727  1.00  0.00     0.023 A 
ATOM     62  C   UNL A   1      40.255  33.711  35.834  1.00  0.00     0.012 A 
ATOM     63  C   UNL A   1      38.801  31.953  36.683  1.00  0.00     0.148 A 
ATOM     64  C   UNL A   1      39.869  34.547  36.881  1.00  0.00     0.002 A 
ATOM     65  C   UNL A   1      38.391  32.806  37.701  1.00  0.00     0.091 A 
ATOM     66  F   UNL A   1      38.332  30.702  36.573  1.00  0.00    -0.205 F 
ATOM     67  C   UNL A   1      38.929  34.100  37.805  1.00  0.00     0.022 A 
BRANCH  65  68
ATOM     68  S   UNL A   1      37.126  32.359  38.895  1.00  0.00     0.127 S 
ATOM     69  O   UNL A   1      37.308  30.909  38.987  1.00  0.00    -0.237 OA
ATOM     70  O   UNL A   1      37.549  33.101  40.083  1.00  0.00    -0.237 OA
ATOM     71  O   UNL A   1      35.859  32.789  38.323  1.00  0.00    -0.744 OA
ENDBRANCH  65  68
ENDBRANCH  47  61
BRANCH  48  72
ATOM     72  C   UNL A   1      41.726  26.839  27.662  1.00  0.00     0.023 A 
ATOM     73  C   UNL A   1      42.326  27.422  26.529  1.00  0.00     0.012 A 
ATOM     74  C   UNL A   1      41.445  25.458  27.655  1.00  0.00     0.148 A 
ATOM     75  C   UNL A   1      42.620  26.652  25.403  1.00  0.00     0.002 A 
ATOM     76  C   UNL A   1      41.792  24.687  26.552  1.00  0.00     0.091 A 
ATOM     77  F   UNL A   1      40.854  24.926  28.734  1.00  0.00    -0.205 F 
ATOM     78  C   UNL A   1      42.365  25.283  25.418  1.00  0.00     0.022 A 
BRANCH  76  79
ATOM     79  S   UNL A   1      41.624  22.898  26.537  1.00  0.00     0.127 S 
ATOM     80  O   UNL A   1      40.172  22.734  26.549  1.00  0.00    -0.237 OA
ATOM     81  O   UNL A   1      42.275  22.545  25.275  1.00  0.00    -0.237 OA
ATOM     82  O   UNL A   1      42.324  22.429  27.725  1.00  0.00    -0.744 OA
ENDBRANCH  76  79
ENDBRANCH  48  72
BRANCH  60  83
ATOM     83  C   UNL A   1      44.511  27.303  34.066  1.00  0.00     0.023 A 
ATOM     84  C   UNL A   1      45.807  27.844  33.960  1.00  0.00     0.012 A 
ATOM     85  C   UNL A   1      44.291  26.194  34.909  1.00  0.00     0.148 A 
ATOM     86  C   UNL A   1      46.869  27.282  34.668  1.00  0.00     0.002 A 
ATOM     87  C   UNL A   1      45.344  25.672  35.651  1.00  0.00     0.091 A 
ATOM     88  F   UNL A   1      43.052  25.685  34.985  1.00  0.00    -0.205 F 
ATOM     89  C   UNL A   1      46.636  26.208  35.522  1.00  0.00     0.022 A 
BRANCH  87  90
ATOM     90  S   UNL A   1      45.121  24.358  36.856  1.00  0.00     0.127 S 
ATOM     91  O   UNL A   1      44.735  23.234  36.005  1.00  0.00    -0.237 OA
ATOM     92  O   UNL A   1      46.456  24.248  37.444  1.00  0.00    -0.237 OA
ATOM     93  O   UNL A   1      44.091  24.826  37.775  1.00  0.00    -0.744 OA
ENDBRANCH  87  90
ENDBRANCH  60  83
ENDBRANCH  34  35
ENDBRANCH  27  29
ENDBRANCH  26  27
ENDBRANCH  25  26
ENDBRANCH   1  25
TORSDOF 18
ENDMDL
MODEL 2
REMARK VINA RESULT:     -11.6      1.534      7.667
REMARK SMILES Cc1cc2c(c(C)c1Br)C=C(C(=O)OCCOCCOC(=O)c1ccc(-c3c4nc(c(-c5cccc(S(=O)(=O)[O-])c5F)c5ccc([nH]5)c(-c5cccc(S(=O)(=O)[O-])c5F)c5nc(c(-c6cccc(S(=O)(=O)[O-])c6F)c6ccc3[nH]6)C=C5)C=C4)cc1)[C@@H](C(F)(F)F)O2
REMARK SMILES IDX 18 1 17 2 16 3 15 4 14 5 12 6 13 7 11 8 1 9 2 10 3 11 8 12
REMARK SMILES IDX 4 13 6 14 9 15 5 16 91 17 7 18 10 19 86 20 87 21 88 22 89 23
REMARK SMILES IDX 90 24 19 25 20 26 21 27 22 28 23 29 24 30 85 31 25 32 84 33
REMARK SMILES IDX 26 34 27 35 28 36 78 37 29 38 83 39 77 40 79 41 30 42 82 43
REMARK SMILES IDX 76 44 75 45 31 47 63 48 43 49 62 50 44 51 47 52 61 53 80 54
REMARK SMILES IDX 45 55 46 56 60 58 81 59 48 60 32 61 33 62 41 63 34 64 36 65
REMARK SMILES IDX 42 66 35 67 37 68 38 69 39 70 40 71 64 72 65 73 73 74 66 75
REMARK SMILES IDX 68 76 74 77 67 78 69 79 70 80 71 81 72 82 49 83 50 84 58 85
REMARK SMILES IDX 51 86 53 87 59 88 52 89 54 90 55 91 56 92 57 93
REMARK H PARENT 79 46 47 57
REMARK Flexibility Score: inf
ROOT
ATOM      1  C   UNL A   1      31.044  29.493  24.965  1.00  0.00     0.202 C 
ENDROOT
BRANCH   1   2
ATOM      2  O   UNL A   1      31.396  29.401  23.584  1.00  0.00    -0.374 OA
BRANCH   2   3
ATOM      3  C   UNL A   1      32.391  28.445  23.216  1.00  0.00     0.202 C 
BRANCH   3   4
ATOM      4  C   UNL A   1      33.644  28.379  24.095  1.00  0.00     0.261 C 
BRANCH   4   5
ATOM      5  O   UNL A   1      33.989  27.025  24.425  1.00  0.00    -0.460 OA
BRANCH   5   6
ATOM      6  C   UNL A   1      33.518  26.599  25.617  1.00  0.00     0.338 C 
ATOM      7  O   UNL A   1      33.077  27.291  26.523  1.00  0.00    -0.246 OA
BRANCH   6   8
ATOM      8  C   UNL A   1      33.464  25.124  25.636  1.00  0.00     0.087 C 
ATOM      9  C   UNL A   1      34.540  18.850  24.539  1.00  0.00     0.046 C 
ATOM     10  C   UNL A   1      34.644  20.301  24.925  1.00  0.00    -0.033 A 
ATOM     11  C   UNL A   1      33.457  21.012  25.150  1.00  0.00     0.051 A 
ATOM     12  C   UNL A   1      35.877  20.968  25.078  1.00  0.00     0.024 A 
ATOM     13  C   UNL A   1      33.482  22.376  25.427  1.00  0.00     0.128 A 
ATOM     14  C   UNL A   1      35.924  22.349  25.379  1.00  0.00    -0.026 A 
ATOM     15  Br  UNL A   1      37.491  19.961  24.849  1.00  0.00    -0.050 Br
ATOM     16  C   UNL A   1      34.700  23.057  25.501  1.00  0.00     0.021 A 
ATOM     17  O   UNL A   1      32.258  22.955  25.618  1.00  0.00    -0.475 OA
ATOM     18  C   UNL A   1      37.224  23.099  25.565  1.00  0.00     0.046 C 
ATOM     19  C   UNL A   1      34.653  24.510  25.632  1.00  0.00     0.027 C 
ATOM     20  C   UNL A   1      32.149  24.404  25.625  1.00  0.00     0.316 C 
BRANCH  20  21
ATOM     21  C   UNL A   1      31.248  24.829  24.455  1.00  0.00     0.430 C 
ATOM     22  F   UNL A   1      31.973  25.027  23.329  1.00  0.00    -0.167 F 
ATOM     23  F   UNL A   1      30.321  23.887  24.172  1.00  0.00    -0.167 F 
ATOM     24  F   UNL A   1      30.592  25.980  24.725  1.00  0.00    -0.167 F 
ENDBRANCH  20  21
ENDBRANCH   6   8
ENDBRANCH   5   6
ENDBRANCH   4   5
ENDBRANCH   3   4
ENDBRANCH   2   3
ENDBRANCH   1   2
BRANCH   1  25
ATOM     25  C   UNL A   1      31.459  30.762  25.719  1.00  0.00     0.261 C 
BRANCH  25  26
ATOM     26  O   UNL A   1      32.514  30.517  26.666  1.00  0.00    -0.460 OA
BRANCH  26  27
ATOM     27  C   UNL A   1      33.133  31.632  27.127  1.00  0.00     0.338 C 
ATOM     28  O   UNL A   1      32.644  32.746  27.260  1.00  0.00    -0.246 OA
BRANCH  27  29
ATOM     29  C   UNL A   1      34.469  31.289  27.644  1.00  0.00     0.060 A 
ATOM     30  C   UNL A   1      34.741  29.938  27.898  1.00  0.00     0.016 A 
ATOM     31  C   UNL A   1      35.409  32.274  27.953  1.00  0.00     0.016 A 
ATOM     32  C   UNL A   1      35.940  29.571  28.502  1.00  0.00     0.010 A 
ATOM     33  C   UNL A   1      36.607  31.903  28.570  1.00  0.00     0.010 A 
ATOM     34  C   UNL A   1      36.863  30.555  28.878  1.00  0.00    -0.014 A 
BRANCH  34  35
ATOM     35  C   UNL A   1      38.030  30.181  29.712  1.00  0.00     0.031 A 
ATOM     36  C   UNL A   1      39.041  29.212  29.163  1.00  0.00     0.074 A 
ATOM     37  C   UNL A   1      38.199  30.720  30.933  1.00  0.00     0.049 A 
ATOM     38  N   UNL A   1      40.130  28.752  29.720  1.00  0.00    -0.248 NA
ATOM     39  C   UNL A   1      38.795  28.694  27.805  1.00  0.00     0.031 C 
ATOM     40  C   UNL A   1      37.297  31.684  31.560  1.00  0.00     0.029 A 
ATOM     41  N   UNL A   1      39.185  30.523  31.867  1.00  0.00    -0.354 N 
ATOM     42  C   UNL A   1      40.695  27.886  28.791  1.00  0.00     0.074 A 
ATOM     43  C   UNL A   1      39.818  27.866  27.641  1.00  0.00     0.031 C 
ATOM     44  C   UNL A   1      37.764  31.987  32.783  1.00  0.00     0.029 A 
ATOM     45  C   UNL A   1      38.984  31.221  33.035  1.00  0.00     0.049 A 
ATOM     46  H   UNL A   1      39.961  29.938  31.716  1.00  0.00     0.167 HD
ATOM     47  C   UNL A   1      41.853  27.191  28.877  1.00  0.00     0.034 A 
ATOM     48  C   UNL A   1      39.700  31.234  34.178  1.00  0.00     0.034 A 
ATOM     49  C   UNL A   1      42.732  27.228  30.014  1.00  0.00     0.049 A 
ATOM     50  C   UNL A   1      40.959  30.410  34.266  1.00  0.00     0.074 A 
ATOM     51  C   UNL A   1      43.937  26.572  30.185  1.00  0.00     0.029 A 
ATOM     52  N   UNL A   1      42.502  27.954  31.171  1.00  0.00    -0.354 N 
ATOM     53  N   UNL A   1      41.529  29.673  33.342  1.00  0.00    -0.248 NA
ATOM     54  C   UNL A   1      41.689  30.438  35.542  1.00  0.00     0.031 C 
ATOM     55  C   UNL A   1      44.428  26.886  31.456  1.00  0.00     0.029 A 
ATOM     56  C   UNL A   1      43.538  27.757  32.065  1.00  0.00     0.049 A 
ATOM     57  H   UNL A   1      41.716  28.526  31.333  1.00  0.00     0.167 HD
ATOM     58  C   UNL A   1      42.699  29.181  33.912  1.00  0.00     0.074 A 
ATOM     59  C   UNL A   1      42.767  29.719  35.255  1.00  0.00     0.031 C 
ATOM     60  C   UNL A   1      43.624  28.346  33.377  1.00  0.00     0.034 A 
BRANCH  47  61
ATOM     61  C   UNL A   1      42.275  26.366  27.691  1.00  0.00     0.023 A 
ATOM     62  C   UNL A   1      43.132  26.934  26.727  1.00  0.00     0.012 A 
ATOM     63  C   UNL A   1      41.913  25.008  27.582  1.00  0.00     0.148 A 
ATOM     64  C   UNL A   1      43.612  26.168  25.665  1.00  0.00     0.002 A 
ATOM     65  C   UNL A   1      42.428  24.242  26.544  1.00  0.00     0.091 A 
ATOM     66  F   UNL A   1      41.081  24.495  28.499  1.00  0.00    -0.205 F 
ATOM     67  C   UNL A   1      43.271  24.821  25.581  1.00  0.00     0.022 A 
BRANCH  65  68
ATOM     68  S   UNL A   1      42.118  22.479  26.389  1.00  0.00     0.127 S 
ATOM     69  O   UNL A   1      40.658  22.445  26.290  1.00  0.00    -0.237 OA
ATOM     70  O   UNL A   1      42.820  22.151  25.149  1.00  0.00    -0.237 OA
ATOM     71  O   UNL A   1      42.671  21.864  27.587  1.00  0.00    -0.744 OA
ENDBRANCH  65  68
ENDBRANCH  47  61
BRANCH  48  72
ATOM     72  C   UNL A   1      39.273  32.100  35.314  1.00  0.00     0.023 A 
ATOM     73  C   UNL A   1      38.385  31.586  36.279  1.00  0.00     0.012 A 
ATOM     74  C   UNL A   1      39.760  33.414  35.463  1.00  0.00     0.148 A 
ATOM     75  C   UNL A   1      37.972  32.370  37.357  1.00  0.00     0.002 A 
ATOM     76  C   UNL A   1      39.389  34.170  36.569  1.00  0.00     0.091 A 
ATOM     77  F   UNL A   1      40.587  33.894  34.523  1.00  0.00    -0.205 F 
ATOM     78  C   UNL A   1      38.482  33.656  37.509  1.00  0.00     0.022 A 
BRANCH  76  79
ATOM     79  S   UNL A   1      40.100  35.783  36.916  1.00  0.00     0.127 S 
ATOM     80  O   UNL A   1      39.685  36.551  35.745  1.00  0.00    -0.237 OA
ATOM     81  O   UNL A   1      39.427  36.147  38.164  1.00  0.00    -0.237 OA
ATOM     82  O   UNL A   1      41.533  35.558  37.051  1.00  0.00    -0.744 OA
ENDBRANCH  76  79
ENDBRANCH  48  72
BRANCH  60  83
ATOM     83  C   UNL A   1      44.812  27.964  34.223  1.00  0.00     0.023 A 
ATOM     84  C   UNL A   1      45.957  28.784  34.222  1.00  0.00     0.012 A 
ATOM     85  C   UNL A   1      44.744  26.871  35.110  1.00  0.00     0.148 A 
ATOM     86  C   UNL A   1      47.024  28.511  35.076  1.00  0.00     0.002 A 
ATOM     87  C   UNL A   1      45.790  26.635  35.995  1.00  0.00     0.091 A 
ATOM     88  F   UNL A   1      43.651  26.094  35.085  1.00  0.00    -0.205 F 
ATOM     89  C   UNL A   1      46.935  27.447  35.971  1.00  0.00     0.022 A 
BRANCH  87  90
ATOM     90  S   UNL A   1      45.722  25.356  37.255  1.00  0.00     0.127 S 
ATOM     91  O   UNL A   1      44.695  25.879  38.155  1.00  0.00    -0.237 OA
ATOM     92  O   UNL A   1      45.314  24.182  36.483  1.00  0.00    -0.237 OA
ATOM     93  O   UNL A   1      47.062  25.274  37.819  1.00  0.00    -0.744 OA
ENDBRANCH  87  90
ENDBRANCH  60  83
ENDBRANCH  34  35
ENDBRANCH  27  29
ENDBRANCH  26  27
ENDBRANCH  25  26
ENDBRANCH   1  25
TORSDOF 18
ENDMDL
MODEL 3
REMARK VINA RESULT:     -11.6      5.252     10.744
REMARK SMILES Cc1cc2c(c(C)c1Br)C=C(C(=O)OCCOCCOC(=O)c1ccc(-c3c4nc(c(-c5cccc(S(=O)(=O)[O-])c5F)c5ccc([nH]5)c(-c5cccc(S(=O)(=O)[O-])c5F)c5nc(c(-c6cccc(S(=O)(=O)[O-])c6F)c6ccc3[nH]6)C=C5)C=C4)cc1)[C@@H](C(F)(F)F)O2
REMARK SMILES IDX 18 1 17 2 16 3 15 4 14 5 12 6 13 7 11 8 1 9 2 10 3 11 8 12
REMARK SMILES IDX 4 13 6 14 9 15 5 16 91 17 7 18 10 19 86 20 87 21 88 22 89 23
REMARK SMILES IDX 90 24 19 25 20 26 21 27 22 28 23 29 24 30 85 31 25 32 84 33
REMARK SMILES IDX 26 34 27 35 28 36 78 37 29 38 83 39 77 40 79 41 30 42 82 43
REMARK SMILES IDX 76 44 75 45 31 47 63 48 43 49 62 50 44 51 47 52 61 53 80 54
REMARK SMILES IDX 45 55 46 56 60 58 81 59 48 60 32 61 33 62 41 63 34 64 36 65
REMARK SMILES IDX 42 66 35 67 37 68 38 69 39 70 40 71 64 72 65 73 73 74 66 75
REMARK SMILES IDX 68 76 74 77 67 78 69 79 70 80 71 81 72 82 49 83 50 84 58 85
REMARK SMILES IDX 51 86 53 87 59 88 52 89 54 90 55 91 56 92 57 93
REMARK H PARENT 79 46 47 57
REMARK Flexibility Score: inf
ROOT
ATOM      1  C   UNL A   1      37.469  19.765  24.640  1.00  0.00     0.202 C 
ENDROOT
BRANCH   1   2
ATOM      2  O   UNL A   1      37.166  21.138  24.386  1.00  0.00    -0.374 OA
BRANCH   2   3
ATOM      3  C   UNL A   1      35.888  21.622  24.801  1.00  0.00     0.202 C 
BRANCH   3   4
ATOM      4  C   UNL A   1      34.713  20.644  24.701  1.00  0.00     0.261 C 
BRANCH   4   5
ATOM      5  O   UNL A   1      33.560  21.261  24.106  1.00  0.00    -0.460 OA
BRANCH   5   6
ATOM      6  C   UNL A   1      32.436  21.188  24.851  1.00  0.00     0.338 C 
ATOM      7  O   UNL A   1      31.838  20.174  25.182  1.00  0.00    -0.246 OA
BRANCH   6   8
ATOM      8  C   UNL A   1      32.082  22.528  25.357  1.00  0.00     0.087 C 
ATOM      9  C   UNL A   1      31.660  28.906  26.296  1.00  0.00     0.046 C 
ATOM     10  C   UNL A   1      31.611  27.507  25.740  1.00  0.00    -0.033 A 
ATOM     11  C   UNL A   1      31.615  26.436  26.644  1.00  0.00     0.051 A 
ATOM     12  C   UNL A   1      31.553  27.233  24.358  1.00  0.00     0.024 A 
ATOM     13  C   UNL A   1      31.657  25.120  26.193  1.00  0.00     0.128 A 
ATOM     14  C   UNL A   1      31.574  25.901  23.880  1.00  0.00    -0.026 A 
ATOM     15  Br  UNL A   1      31.464  28.709  23.140  1.00  0.00    -0.050 Br
ATOM     16  C   UNL A   1      31.679  24.846  24.823  1.00  0.00     0.021 A 
ATOM     17  O   UNL A   1      31.664  24.166  27.173  1.00  0.00    -0.475 OA
ATOM     18  C   UNL A   1      31.499  25.563  22.408  1.00  0.00     0.046 C 
ATOM     19  C   UNL A   1      31.886  23.460  24.415  1.00  0.00     0.027 C 
ATOM     20  C   UNL A   1      31.994  22.793  26.829  1.00  0.00     0.316 C 
BRANCH  20  21
ATOM     21  C   UNL A   1      33.275  22.399  27.582  1.00  0.00     0.430 C 
ATOM     22  F   UNL A   1      33.463  21.060  27.554  1.00  0.00    -0.167 F 
ATOM     23  F   UNL A   1      34.371  22.968  27.034  1.00  0.00    -0.167 F 
ATOM     24  F   UNL A   1      33.224  22.777  28.880  1.00  0.00    -0.167 F 
ENDBRANCH  20  21
ENDBRANCH   6   8
ENDBRANCH   5   6
ENDBRANCH   4   5
ENDBRANCH   3   4
ENDBRANCH   2   3
ENDBRANCH   1   2
BRANCH   1  25
ATOM     25  C   UNL A   1      38.699  19.459  25.503  1.00  0.00     0.261 C 
BRANCH  25  26
ATOM     26  O   UNL A   1      39.574  20.593  25.632  1.00  0.00    -0.460 OA
BRANCH  26  27
ATOM     27  C   UNL A   1      40.410  20.546  26.698  1.00  0.00     0.338 C 
ATOM     28  O   UNL A   1      41.021  19.571  27.115  1.00  0.00    -0.246 OA
BRANCH  27  29
ATOM     29  C   UNL A   1      40.653  21.907  27.208  1.00  0.00     0.060 A 
ATOM     30  C   UNL A   1      40.080  22.976  26.507  1.00  0.00     0.016 A 
ATOM     31  C   UNL A   1      41.490  22.140  28.301  1.00  0.00     0.016 A 
ATOM     32  C   UNL A   1      40.377  24.287  26.870  1.00  0.00     0.010 A 
ATOM     33  C   UNL A   1      41.796  23.458  28.657  1.00  0.00     0.010 A 
ATOM     34  C   UNL A   1      41.268  24.535  27.923  1.00  0.00    -0.014 A 
BRANCH  34  35
ATOM     35  C   UNL A   1      41.748  25.917  28.162  1.00  0.00     0.031 A 
ATOM     36  C   UNL A   1      43.126  26.303  27.700  1.00  0.00     0.074 A 
ATOM     37  C   UNL A   1      40.953  26.823  28.761  1.00  0.00     0.049 A 
ATOM     38  N   UNL A   1      43.741  27.451  27.806  1.00  0.00    -0.248 NA
ATOM     39  C   UNL A   1      43.917  25.258  27.026  1.00  0.00     0.031 C 
ATOM     40  C   UNL A   1      39.592  26.569  29.232  1.00  0.00     0.029 A 
ATOM     41  N   UNL A   1      41.182  28.137  29.082  1.00  0.00    -0.354 N 
ATOM     42  C   UNL A   1      44.989  27.268  27.224  1.00  0.00     0.074 A 
ATOM     43  C   UNL A   1      45.057  25.892  26.786  1.00  0.00     0.031 C 
ATOM     44  C   UNL A   1      39.111  27.690  29.794  1.00  0.00     0.029 A 
ATOM     45  C   UNL A   1      40.135  28.732  29.746  1.00  0.00     0.049 A 
ATOM     46  H   UNL A   1      42.017  28.608  28.860  1.00  0.00     0.167 HD
ATOM     47  C   UNL A   1      45.981  28.173  27.048  1.00  0.00     0.034 A 
ATOM     48  C   UNL A   1      40.021  29.974  30.260  1.00  0.00     0.034 A 
ATOM     49  C   UNL A   1      45.904  29.545  27.469  1.00  0.00     0.049 A 
ATOM     50  C   UNL A   1      41.161  30.946  30.095  1.00  0.00     0.074 A 
ATOM     51  C   UNL A   1      46.851  30.542  27.317  1.00  0.00     0.029 A 
ATOM     52  N   UNL A   1      44.824  30.114  28.126  1.00  0.00    -0.354 N 
ATOM     53  N   UNL A   1      42.296  30.785  29.457  1.00  0.00    -0.248 NA
ATOM     54  C   UNL A   1      40.997  32.278  30.695  1.00  0.00     0.031 C 
ATOM     55  C   UNL A   1      46.351  31.710  27.899  1.00  0.00     0.029 A 
ATOM     56  C   UNL A   1      45.084  31.446  28.393  1.00  0.00     0.049 A 
ATOM     57  H   UNL A   1      43.995  29.640  28.366  1.00  0.00     0.167 HD
ATOM     58  C   UNL A   1      42.962  32.003  29.547  1.00  0.00     0.074 A 
ATOM     59  C   UNL A   1      42.097  32.898  30.287  1.00  0.00     0.031 C 
ATOM     60  C   UNL A   1      44.188  32.343  29.078  1.00  0.00     0.034 A 
BRANCH  47  61
ATOM     61  C   UNL A   1      47.223  27.730  26.322  1.00  0.00     0.023 A 
ATOM     62  C   UNL A   1      48.215  27.018  27.026  1.00  0.00     0.012 A 
ATOM     63  C   UNL A   1      47.363  27.924  24.934  1.00  0.00     0.148 A 
ATOM     64  C   UNL A   1      49.334  26.517  26.362  1.00  0.00     0.002 A 
ATOM     65  C   UNL A   1      48.460  27.386  24.273  1.00  0.00     0.091 A 
ATOM     66  F   UNL A   1      46.417  28.621  24.288  1.00  0.00    -0.205 F 
ATOM     67  C   UNL A   1      49.450  26.688  24.986  1.00  0.00     0.022 A 
BRANCH  65  68
ATOM     68  S   UNL A   1      48.665  27.480  22.490  1.00  0.00     0.127 S 
ATOM     69  O   UNL A   1      47.480  28.243  22.098  1.00  0.00    -0.237 OA
ATOM     70  O   UNL A   1      49.927  28.209  22.364  1.00  0.00    -0.237 OA
ATOM     71  O   UNL A   1      48.702  26.105  22.014  1.00  0.00    -0.744 OA
ENDBRANCH  65  68
ENDBRANCH  47  61
BRANCH  48  72
ATOM     72  C   UNL A   1      38.756  30.388  30.932  1.00  0.00     0.023 A 
ATOM     73  C   UNL A   1      38.600  30.161  32.313  1.00  0.00     0.012 A 
ATOM     74  C   UNL A   1      37.720  31.029  30.223  1.00  0.00     0.148 A 
ATOM     75  C   UNL A   1      37.431  30.542  32.972  1.00  0.00     0.002 A 
ATOM     76  C   UNL A   1      36.582  31.457  30.896  1.00  0.00     0.091 A 
ATOM     77  F   UNL A   1      37.876  31.217  28.905  1.00  0.00    -0.205 F 
ATOM     78  C   UNL A   1      36.427  31.201  32.267  1.00  0.00     0.022 A 
BRANCH  76  79
ATOM     79  S   UNL A   1      35.299  32.430  30.097  1.00  0.00     0.127 S 
ATOM     80  O   UNL A   1      34.306  32.547  31.161  1.00  0.00    -0.237 OA
ATOM     81  O   UNL A   1      36.014  33.667  29.778  1.00  0.00    -0.237 OA
ATOM     82  O   UNL A   1      34.890  31.656  28.931  1.00  0.00    -0.744 OA
ENDBRANCH  76  79
ENDBRANCH  48  72
BRANCH  60  83
ATOM     83  C   UNL A   1      44.679  33.748  29.319  1.00  0.00     0.023 A 
ATOM     84  C   UNL A   1      45.371  34.047  30.508  1.00  0.00     0.012 A 
ATOM     85  C   UNL A   1      44.568  34.733  28.316  1.00  0.00     0.148 A 
ATOM     86  C   UNL A   1      45.928  35.310  30.705  1.00  0.00     0.002 A 
ATOM     87  C   UNL A   1      45.170  35.973  28.498  1.00  0.00     0.091 A 
ATOM     88  F   UNL A   1      43.893  34.432  27.196  1.00  0.00    -0.205 F 
ATOM     89  C   UNL A   1      45.841  36.266  29.696  1.00  0.00     0.022 A 
BRANCH  87  90
ATOM     90  S   UNL A   1      45.203  37.229  27.214  1.00  0.00     0.127 S 
ATOM     91  O   UNL A   1      45.969  36.562  26.162  1.00  0.00    -0.237 OA
ATOM     92  O   UNL A   1      43.781  37.404  26.915  1.00  0.00    -0.237 OA
ATOM     93  O   UNL A   1      45.844  38.395  27.808  1.00  0.00    -0.744 OA
ENDBRANCH  87  90
ENDBRANCH  60  83
ENDBRANCH  34  35
ENDBRANCH  27  29
ENDBRANCH  26  27
ENDBRANCH  25  26
ENDBRANCH   1  25
TORSDOF 18
ENDMDL
