MODEL 1
REMARK VINA RESULT:     -11.0      0.000      0.000
REMARK SMILES O=C(Cc1ccc(F)c(F)c1)NC1(C(=O)OCCOCCOC(=O)c2ccc(-c3c4nc(c(-c5cccc(S(=O)(=O)[O-])c5F)c5ccc([nH]5)c(-c5cccc(S(=O)(=O)[O-])c5F)c5nc(c(-c6cccc(S(=O)(=O)[O-])c6F)c6ccc3[nH]6)C=C5)C=C4)cc2)CCCC1
REMARK SMILES IDX 19 1 18 2 17 3 16 4 14 5 15 6 13 7 88 8 91 9 89 10 90 11
REMARK SMILES IDX 12 12 1 13 2 14 3 16 4 17 5 18 11 19 6 20 9 21 7 22 10 23
REMARK SMILES IDX 8 24 20 25 21 26 22 27 23 28 24 29 25 30 26 31 87 32 27 33
REMARK SMILES IDX 86 34 28 35 29 36 30 37 80 38 31 39 85 40 79 41 81 42 32 43
REMARK SMILES IDX 84 44 78 45 77 46 33 48 65 49 45 50 64 51 46 52 49 53 63 54
REMARK SMILES IDX 82 55 47 56 48 57 62 59 83 60 50 61 34 62 35 63 43 64 36 65
REMARK SMILES IDX 38 66 44 67 37 68 39 69 40 70 41 71 42 72 66 73 67 74 75 75
REMARK SMILES IDX 68 76 70 77 76 78 69 79 71 80 72 81 73 82 74 83 51 84 52 85
REMARK SMILES IDX 60 86 53 87 55 88 61 89 54 90 56 91 57 92 58 93 59 94
REMARK H PARENT 12 15 81 47 49 58
REMARK Flexibility Score: inf
ROOT
ATOM      1  O   UNL A   1      35.786  19.035  25.000  1.00  0.00    -0.374 OA
ENDROOT
BRANCH   1   2
ATOM      2  C   UNL A   1      34.422  19.240  24.633  1.00  0.00     0.202 C 
BRANCH   2   3
ATOM      3  C   UNL A   1      33.487  19.913  25.647  1.00  0.00     0.261 C 
BRANCH   3   4
ATOM      4  O   UNL A   1      33.639  21.339  25.640  1.00  0.00    -0.461 OA
BRANCH   4   5
ATOM      5  C   UNL A   1      32.985  21.984  24.632  1.00  0.00     0.331 C 
ATOM      6  O   UNL A   1      32.203  21.453  23.850  1.00  0.00    -0.249 OA
BRANCH   5   7
ATOM      7  C   UNL A   1      33.277  23.517  24.652  1.00  0.00     0.138 C 
ATOM      8  C   UNL A   1      33.879  23.877  23.279  1.00  0.00     0.040 C 
ATOM      9  C   UNL A   1      34.413  23.982  25.584  1.00  0.00     0.040 C 
ATOM     10  C   UNL A   1      35.334  23.444  23.386  1.00  0.00     0.003 C 
ATOM     11  C   UNL A   1      35.720  23.705  24.837  1.00  0.00     0.003 C 
BRANCH   7  12
ATOM     12  N   UNL A   1      32.043  24.313  24.861  1.00  0.00    -0.340 N 
ATOM     13  O   UNL A   1      31.763  23.909  27.109  1.00  0.00    -0.275 OA
ATOM     14  C   UNL A   1      31.451  24.514  26.091  1.00  0.00     0.225 C 
ATOM     15  H   UNL A   1      31.620  24.722  24.072  1.00  0.00     0.164 HD
BRANCH  14  16
ATOM     16  C   UNL A   1      30.371  25.578  26.122  1.00  0.00     0.135 C 
BRANCH  16  17
ATOM     17  C   UNL A   1      30.882  27.006  26.146  1.00  0.00    -0.036 A 
ATOM     18  C   UNL A   1      31.405  27.613  27.301  1.00  0.00     0.007 A 
ATOM     19  C   UNL A   1      30.890  27.736  24.944  1.00  0.00     0.046 A 
ATOM     20  C   UNL A   1      31.922  28.913  27.257  1.00  0.00     0.043 A 
ATOM     21  C   UNL A   1      31.410  29.028  24.907  1.00  0.00     0.159 A 
ATOM     22  C   UNL A   1      31.926  29.611  26.056  1.00  0.00     0.158 A 
ATOM     23  F   UNL A   1      31.420  29.699  23.747  1.00  0.00    -0.204 F 
ATOM     24  F   UNL A   1      32.442  30.847  26.014  1.00  0.00    -0.204 F 
ENDBRANCH  16  17
ENDBRANCH  14  16
ENDBRANCH   7  12
ENDBRANCH   5   7
ENDBRANCH   4   5
ENDBRANCH   3   4
ENDBRANCH   2   3
ENDBRANCH   1   2
BRANCH   1  25
ATOM     25  C   UNL A   1      36.727  20.038  24.627  1.00  0.00     0.202 C 
BRANCH  25  26
ATOM     26  C   UNL A   1      37.373  20.849  25.754  1.00  0.00     0.261 C 
BRANCH  26  27
ATOM     27  O   UNL A   1      38.632  21.425  25.367  1.00  0.00    -0.460 OA
BRANCH  27  28
ATOM     28  C   UNL A   1      39.638  21.205  26.241  1.00  0.00     0.338 C 
ATOM     29  O   UNL A   1      40.284  20.170  26.383  1.00  0.00    -0.246 OA
BRANCH  28  30
ATOM     30  C   UNL A   1      40.011  22.456  26.917  1.00  0.00     0.060 A 
ATOM     31  C   UNL A   1      39.373  23.632  26.499  1.00  0.00     0.016 A 
ATOM     32  C   UNL A   1      41.031  22.496  27.869  1.00  0.00     0.016 A 
ATOM     33  C   UNL A   1      39.793  24.865  26.988  1.00  0.00     0.010 A 
ATOM     34  C   UNL A   1      41.462  23.738  28.347  1.00  0.00     0.010 A 
ATOM     35  C   UNL A   1      40.875  24.926  27.873  1.00  0.00    -0.014 A 
BRANCH  35  36
ATOM     36  C   UNL A   1      41.511  26.235  28.154  1.00  0.00     0.031 A 
ATOM     37  C   UNL A   1      40.680  27.313  28.794  1.00  0.00     0.074 A 
ATOM     38  C   UNL A   1      42.803  26.456  27.856  1.00  0.00     0.049 A 
ATOM     39  N   UNL A   1      41.005  28.545  29.087  1.00  0.00    -0.248 NA
ATOM     40  C   UNL A   1      39.295  26.957  29.147  1.00  0.00     0.031 C 
ATOM     41  C   UNL A   1      43.710  25.479  27.259  1.00  0.00     0.029 A 
ATOM     42  N   UNL A   1      43.565  27.587  27.996  1.00  0.00    -0.354 N 
ATOM     43  C   UNL A   1      39.858  29.121  29.622  1.00  0.00     0.074 A 
ATOM     44  C   UNL A   1      38.828  28.108  29.609  1.00  0.00     0.031 C 
ATOM     45  C   UNL A   1      44.904  26.063  27.055  1.00  0.00     0.029 A 
ATOM     46  C   UNL A   1      44.833  27.459  27.481  1.00  0.00     0.049 A 
ATOM     47  H   UNL A   1      43.237  28.411  28.424  1.00  0.00     0.167 HD
ATOM     48  C   UNL A   1      39.684  30.379  30.091  1.00  0.00     0.034 A 
ATOM     49  C   UNL A   1      45.813  28.375  27.346  1.00  0.00     0.034 A 
ATOM     50  C   UNL A   1      40.720  31.375  30.126  1.00  0.00     0.049 A 
ATOM     51  C   UNL A   1      45.583  29.776  27.852  1.00  0.00     0.074 A 
ATOM     52  C   UNL A   1      40.658  32.663  30.626  1.00  0.00     0.029 A 
ATOM     53  N   UNL A   1      42.002  31.198  29.631  1.00  0.00    -0.354 N 
ATOM     54  N   UNL A   1      44.529  30.278  28.451  1.00  0.00    -0.248 NA
ATOM     55  C   UNL A   1      46.691  30.732  27.692  1.00  0.00     0.031 C 
ATOM     56  C   UNL A   1      41.894  33.276  30.404  1.00  0.00     0.029 A 
ATOM     57  C   UNL A   1      42.738  32.358  29.799  1.00  0.00     0.049 A 
ATOM     58  H   UNL A   1      42.340  30.370  29.219  1.00  0.00     0.167 HD
ATOM     59  C   UNL A   1      44.861  31.588  28.778  1.00  0.00     0.074 A 
ATOM     60  C   UNL A   1      46.219  31.800  28.321  1.00  0.00     0.031 C 
ATOM     61  C   UNL A   1      44.109  32.534  29.393  1.00  0.00     0.034 A 
BRANCH  48  62
ATOM     62  C   UNL A   1      38.322  30.747  30.617  1.00  0.00     0.023 A 
ATOM     63  C   UNL A   1      37.979  30.451  31.952  1.00  0.00     0.012 A 
ATOM     64  C   UNL A   1      37.400  31.431  29.801  1.00  0.00     0.148 A 
ATOM     65  C   UNL A   1      36.729  30.803  32.458  1.00  0.00     0.002 A 
ATOM     66  C   UNL A   1      36.173  31.819  30.326  1.00  0.00     0.091 A 
ATOM     67  F   UNL A   1      37.734  31.680  28.528  1.00  0.00    -0.205 F 
ATOM     68  C   UNL A   1      35.831  31.496  31.649  1.00  0.00     0.022 A 
BRANCH  66  69
ATOM     69  S   UNL A   1      34.982  32.783  29.389  1.00  0.00     0.127 S 
ATOM     70  O   UNL A   1      35.838  33.797  28.777  1.00  0.00    -0.237 OA
ATOM     71  O   UNL A   1      34.450  31.790  28.455  1.00  0.00    -0.237 OA
ATOM     72  O   UNL A   1      34.017  33.282  30.358  1.00  0.00    -0.744 OA
ENDBRANCH  66  69
ENDBRANCH  48  62
BRANCH  49  73
ATOM     73  C   UNL A   1      47.115  27.989  26.734  1.00  0.00     0.023 A 
ATOM     74  C   UNL A   1      48.226  27.742  27.563  1.00  0.00     0.012 A 
ATOM     75  C   UNL A   1      47.255  27.850  25.339  1.00  0.00     0.148 A 
ATOM     76  C   UNL A   1      49.461  27.394  27.014  1.00  0.00     0.002 A 
ATOM     77  C   UNL A   1      48.472  27.450  24.802  1.00  0.00     0.091 A 
ATOM     78  F   UNL A   1      46.189  28.105  24.567  1.00  0.00    -0.205 F 
ATOM     79  C   UNL A   1      49.581  27.239  25.635  1.00  0.00     0.022 A 
BRANCH  77  80
ATOM     80  S   UNL A   1      48.686  27.106  23.052  1.00  0.00     0.127 S 
ATOM     81  O   UNL A   1      50.136  27.205  22.903  1.00  0.00    -0.237 OA
ATOM     82  O   UNL A   1      48.147  25.750  22.943  1.00  0.00    -0.237 OA
ATOM     83  O   UNL A   1      47.908  28.119  22.352  1.00  0.00    -0.744 OA
ENDBRANCH  77  80
ENDBRANCH  49  73
BRANCH  61  84
ATOM     84  C   UNL A   1      44.743  33.873  29.665  1.00  0.00     0.023 A 
ATOM     85  C   UNL A   1      45.488  34.075  30.843  1.00  0.00     0.012 A 
ATOM     86  C   UNL A   1      44.676  34.902  28.704  1.00  0.00     0.148 A 
ATOM     87  C   UNL A   1      46.131  35.292  31.075  1.00  0.00     0.002 A 
ATOM     88  C   UNL A   1      45.360  36.093  28.917  1.00  0.00     0.091 A 
ATOM     89  F   UNL A   1      43.947  34.696  27.596  1.00  0.00    -0.205 F 
ATOM     90  C   UNL A   1      46.077  36.294  30.107  1.00  0.00     0.022 A 
BRANCH  88  91
ATOM     91  S   UNL A   1      45.432  37.396  27.685  1.00  0.00     0.127 S 
ATOM     92  O   UNL A   1      46.237  38.408  28.368  1.00  0.00    -0.237 OA
ATOM     93  O   UNL A   1      46.105  36.732  26.568  1.00  0.00    -0.237 OA
ATOM     94  O   UNL A   1      44.050  37.775  27.418  1.00  0.00    -0.744 OA
ENDBRANCH  88  91
ENDBRANCH  61  84
ENDBRANCH  35  36
ENDBRANCH  28  30
ENDBRANCH  27  28
ENDBRANCH  26  27
ENDBRANCH  25  26
ENDBRANCH   1  25
TORSDOF 20
ENDMDL
MODEL 2
REMARK VINA RESULT:     -10.8      1.812      7.801
REMARK SMILES O=C(Cc1ccc(F)c(F)c1)NC1(C(=O)OCCOCCOC(=O)c2ccc(-c3c4nc(c(-c5cccc(S(=O)(=O)[O-])c5F)c5ccc([nH]5)c(-c5cccc(S(=O)(=O)[O-])c5F)c5nc(c(-c6cccc(S(=O)(=O)[O-])c6F)c6ccc3[nH]6)C=C5)C=C4)cc2)CCCC1
REMARK SMILES IDX 19 1 18 2 17 3 16 4 14 5 15 6 13 7 88 8 91 9 89 10 90 11
REMARK SMILES IDX 12 12 1 13 2 14 3 16 4 17 5 18 11 19 6 20 9 21 7 22 10 23
REMARK SMILES IDX 8 24 20 25 21 26 22 27 23 28 24 29 25 30 26 31 87 32 27 33
REMARK SMILES IDX 86 34 28 35 29 36 30 37 80 38 31 39 85 40 79 41 81 42 32 43
REMARK SMILES IDX 84 44 78 45 77 46 33 48 65 49 45 50 64 51 46 52 49 53 63 54
REMARK SMILES IDX 82 55 47 56 48 57 62 59 83 60 50 61 34 62 35 63 43 64 36 65
REMARK SMILES IDX 38 66 44 67 37 68 39 69 40 70 41 71 42 72 66 73 67 74 75 75
REMARK SMILES IDX 68 76 70 77 76 78 69 79 71 80 72 81 73 82 74 83 51 84 52 85
REMARK SMILES IDX 60 86 53 87 55 88 61 89 54 90 56 91 57 92 58 93 59 94
REMARK H PARENT 12 15 81 47 49 58
REMARK Flexibility Score: inf
ROOT
ATOM      1  O   UNL A   1      36.324  21.021  24.533  1.00  0.00    -0.374 OA
ENDROOT
BRANCH   1   2
ATOM      2  C   UNL A   1      36.280  22.117  25.446  1.00  0.00     0.202 C 
BRANCH   2   3
ATOM      3  C   UNL A   1      34.926  22.498  26.061  1.00  0.00     0.261 C 
BRANCH   3   4
ATOM      4  O   UNL A   1      34.354  23.640  25.410  1.00  0.00    -0.461 OA
BRANCH   4   5
ATOM      5  C   UNL A   1      33.318  23.366  24.566  1.00  0.00     0.331 C 
ATOM      6  O   UNL A   1      33.317  22.473  23.723  1.00  0.00    -0.249 OA
BRANCH   5   7
ATOM      7  C   UNL A   1      32.080  24.266  24.869  1.00  0.00     0.138 C 
ATOM      8  C   UNL A   1      32.117  24.585  26.377  1.00  0.00     0.040 C 
ATOM      9  C   UNL A   1      30.701  23.586  24.762  1.00  0.00     0.040 C 
ATOM     10  C   UNL A   1      31.558  23.332  27.036  1.00  0.00     0.003 C 
ATOM     11  C   UNL A   1      30.503  22.811  26.067  1.00  0.00     0.003 C 
BRANCH   7  12
ATOM     12  N   UNL A   1      32.120  25.537  24.106  1.00  0.00    -0.340 N 
ATOM     13  O   UNL A   1      30.436  26.644  25.215  1.00  0.00    -0.275 OA
ATOM     14  C   UNL A   1      31.359  26.646  24.410  1.00  0.00     0.225 C 
ATOM     15  H   UNL A   1      32.728  25.592  23.333  1.00  0.00     0.164 HD
BRANCH  14  16
ATOM     16  C   UNL A   1      31.752  27.919  23.687  1.00  0.00     0.135 C 
BRANCH  16  17
ATOM     17  C   UNL A   1      30.645  28.948  23.556  1.00  0.00    -0.036 A 
ATOM     18  C   UNL A   1      30.569  30.097  24.362  1.00  0.00     0.007 A 
ATOM     19  C   UNL A   1      29.687  28.777  22.542  1.00  0.00     0.046 A 
ATOM     20  C   UNL A   1      29.563  31.048  24.162  1.00  0.00     0.043 A 
ATOM     21  C   UNL A   1      28.690  29.731  22.345  1.00  0.00     0.159 A 
ATOM     22  C   UNL A   1      28.631  30.862  23.148  1.00  0.00     0.158 A 
ATOM     23  F   UNL A   1      27.796  29.554  21.362  1.00  0.00    -0.204 F 
ATOM     24  F   UNL A   1      27.683  31.787  22.946  1.00  0.00    -0.204 F 
ENDBRANCH  16  17
ENDBRANCH  14  16
ENDBRANCH   7  12
ENDBRANCH   5   7
ENDBRANCH   4   5
ENDBRANCH   3   4
ENDBRANCH   2   3
ENDBRANCH   1   2
BRANCH   1  25
ATOM     25  C   UNL A   1      36.847  19.784  25.013  1.00  0.00     0.202 C 
BRANCH  25  26
ATOM     26  C   UNL A   1      38.368  19.608  24.988  1.00  0.00     0.261 C 
BRANCH  26  27
ATOM     27  O   UNL A   1      39.067  20.814  25.338  1.00  0.00    -0.460 OA
BRANCH  27  28
ATOM     28  C   UNL A   1      39.939  20.676  26.362  1.00  0.00     0.338 C 
ATOM     29  O   UNL A   1      40.552  19.661  26.683  1.00  0.00    -0.246 OA
BRANCH  28  30
ATOM     30  C   UNL A   1      40.219  21.983  26.974  1.00  0.00     0.060 A 
ATOM     31  C   UNL A   1      39.516  23.092  26.483  1.00  0.00     0.016 A 
ATOM     32  C   UNL A   1      41.217  22.140  27.938  1.00  0.00     0.016 A 
ATOM     33  C   UNL A   1      39.848  24.374  26.909  1.00  0.00     0.010 A 
ATOM     34  C   UNL A   1      41.559  23.430  28.354  1.00  0.00     0.010 A 
ATOM     35  C   UNL A   1      40.907  24.551  27.806  1.00  0.00    -0.014 A 
BRANCH  35  36
ATOM     36  C   UNL A   1      41.453  25.911  28.025  1.00  0.00     0.031 A 
ATOM     37  C   UNL A   1      42.845  26.213  27.539  1.00  0.00     0.074 A 
ATOM     38  C   UNL A   1      40.723  26.861  28.633  1.00  0.00     0.049 A 
ATOM     39  N   UNL A   1      43.545  27.310  27.661  1.00  0.00    -0.248 NA
ATOM     40  C   UNL A   1      43.543  25.131  26.824  1.00  0.00     0.031 C 
ATOM     41  C   UNL A   1      39.356  26.692  29.122  1.00  0.00     0.029 A 
ATOM     42  N   UNL A   1      41.044  28.153  28.963  1.00  0.00    -0.354 N 
ATOM     43  C   UNL A   1      44.776  27.039  27.074  1.00  0.00     0.074 A 
ATOM     44  C   UNL A   1      44.730  25.674  26.600  1.00  0.00     0.031 C 
ATOM     45  C   UNL A   1      38.964  27.831  29.718  1.00  0.00     0.029 A 
ATOM     46  C   UNL A   1      40.061  28.796  29.677  1.00  0.00     0.049 A 
ATOM     47  H   UNL A   1      41.896  28.579  28.713  1.00  0.00     0.167 HD
ATOM     48  C   UNL A   1      45.844  27.859  26.933  1.00  0.00     0.034 A 
ATOM     49  C   UNL A   1      40.061  30.015  30.253  1.00  0.00     0.034 A 
ATOM     50  C   UNL A   1      45.875  29.224  27.383  1.00  0.00     0.049 A 
ATOM     51  C   UNL A   1      41.274  30.897  30.105  1.00  0.00     0.074 A 
ATOM     52  C   UNL A   1      46.891  30.152  27.245  1.00  0.00     0.029 A 
ATOM     53  N   UNL A   1      44.847  29.853  28.068  1.00  0.00    -0.354 N 
ATOM     54  N   UNL A   1      42.391  30.667  29.458  1.00  0.00    -0.248 NA
ATOM     55  C   UNL A   1      41.215  32.222  30.742  1.00  0.00     0.031 C 
ATOM     56  C   UNL A   1      46.490  31.333  27.875  1.00  0.00     0.029 A 
ATOM     57  C   UNL A   1      45.209  31.153  28.374  1.00  0.00     0.049 A 
ATOM     58  H   UNL A   1      43.987  29.436  28.304  1.00  0.00     0.167 HD
ATOM     59  C   UNL A   1      43.146  31.829  29.570  1.00  0.00     0.074 A 
ATOM     60  C   UNL A   1      42.355  32.767  30.339  1.00  0.00     0.031 C 
ATOM     61  C   UNL A   1      44.386  32.094  29.088  1.00  0.00     0.034 A 
BRANCH  48  62
ATOM     62  C   UNL A   1      47.068  27.303  26.254  1.00  0.00     0.023 A 
ATOM     63  C   UNL A   1      47.263  27.513  24.874  1.00  0.00     0.012 A 
ATOM     64  C   UNL A   1      48.049  26.616  26.995  1.00  0.00     0.148 A 
ATOM     65  C   UNL A   1      48.401  27.021  24.236  1.00  0.00     0.002 A 
ATOM     66  C   UNL A   1      49.201  26.168  26.361  1.00  0.00     0.091 A 
ATOM     67  F   UNL A   1      47.833  26.404  28.301  1.00  0.00    -0.205 F 
ATOM     68  C   UNL A   1      49.374  26.359  24.981  1.00  0.00     0.022 A 
BRANCH  66  69
ATOM     69  S   UNL A   1      50.546  25.374  27.248  1.00  0.00     0.127 S 
ATOM     70  O   UNL A   1      51.012  26.459  28.111  1.00  0.00    -0.237 OA
ATOM     71  O   UNL A   1      49.855  24.291  27.949  1.00  0.00    -0.237 OA
ATOM     72  O   UNL A   1      51.493  24.934  26.233  1.00  0.00    -0.744 OA
ENDBRANCH  66  69
ENDBRANCH  48  62
BRANCH  49  73
ATOM     73  C   UNL A   1      38.859  30.488  30.996  1.00  0.00     0.023 A 
ATOM     74  C   UNL A   1      38.792  30.312  32.391  1.00  0.00     0.012 A 
ATOM     75  C   UNL A   1      37.792  31.122  30.331  1.00  0.00     0.148 A 
ATOM     76  C   UNL A   1      37.671  30.732  33.108  1.00  0.00     0.002 A 
ATOM     77  C   UNL A   1      36.703  31.587  31.058  1.00  0.00     0.091 A 
ATOM     78  F   UNL A   1      37.869  31.265  29.001  1.00  0.00    -0.205 F 
ATOM     79  C   UNL A   1      36.631  31.377  32.444  1.00  0.00     0.022 A 
BRANCH  77  80
ATOM     80  S   UNL A   1      35.377  32.537  30.305  1.00  0.00     0.127 S 
ATOM     81  O   UNL A   1      34.915  31.630  29.258  1.00  0.00    -0.237 OA
ATOM     82  O   UNL A   1      34.452  32.706  31.426  1.00  0.00    -0.237 OA
ATOM     83  O   UNL A   1      35.991  33.775  29.843  1.00  0.00    -0.744 OA
ENDBRANCH  77  80
ENDBRANCH  49  73
BRANCH  61  84
ATOM     84  C   UNL A   1      44.954  33.470  29.323  1.00  0.00     0.023 A 
ATOM     85  C   UNL A   1      45.702  33.734  30.487  1.00  0.00     0.012 A 
ATOM     86  C   UNL A   1      44.823  34.473  28.342  1.00  0.00     0.148 A 
ATOM     87  C   UNL A   1      46.285  34.986  30.685  1.00  0.00     0.002 A 
ATOM     88  C   UNL A   1      45.449  35.701  28.522  1.00  0.00     0.091 A 
ATOM     89  F   UNL A   1      44.093  34.207  27.249  1.00  0.00    -0.205 F 
ATOM     90  C   UNL A   1      46.169  35.963  29.698  1.00  0.00     0.022 A 
BRANCH  88  91
ATOM     91  S   UNL A   1      45.440  36.980  27.262  1.00  0.00     0.127 S 
ATOM     92  O   UNL A   1      46.015  36.275  26.118  1.00  0.00    -0.237 OA
ATOM     93  O   UNL A   1      44.014  37.284  27.137  1.00  0.00    -0.237 OA
ATOM     94  O   UNL A   1      46.246  38.073  27.791  1.00  0.00    -0.744 OA
ENDBRANCH  88  91
ENDBRANCH  61  84
ENDBRANCH  35  36
ENDBRANCH  28  30
ENDBRANCH  27  28
ENDBRANCH  26  27
ENDBRANCH  25  26
ENDBRANCH   1  25
TORSDOF 20
ENDMDL
MODEL 3
REMARK VINA RESULT:     -10.3      1.754      7.761
REMARK SMILES O=C(Cc1ccc(F)c(F)c1)NC1(C(=O)OCCOCCOC(=O)c2ccc(-c3c4nc(c(-c5cccc(S(=O)(=O)[O-])c5F)c5ccc([nH]5)c(-c5cccc(S(=O)(=O)[O-])c5F)c5nc(c(-c6cccc(S(=O)(=O)[O-])c6F)c6ccc3[nH]6)C=C5)C=C4)cc2)CCCC1
REMARK SMILES IDX 19 1 18 2 17 3 16 4 14 5 15 6 13 7 88 8 91 9 89 10 90 11
REMARK SMILES IDX 12 12 1 13 2 14 3 16 4 17 5 18 11 19 6 20 9 21 7 22 10 23
REMARK SMILES IDX 8 24 20 25 21 26 22 27 23 28 24 29 25 30 26 31 87 32 27 33
REMARK SMILES IDX 86 34 28 35 29 36 30 37 80 38 31 39 85 40 79 41 81 42 32 43
REMARK SMILES IDX 84 44 78 45 77 46 33 48 65 49 45 50 64 51 46 52 49 53 63 54
REMARK SMILES IDX 82 55 47 56 48 57 62 59 83 60 50 61 34 62 35 63 43 64 36 65
REMARK SMILES IDX 38 66 44 67 37 68 39 69 40 70 41 71 42 72 66 73 67 74 75 75
REMARK SMILES IDX 68 76 70 77 76 78 69 79 71 80 72 81 73 82 74 83 51 84 52 85
REMARK SMILES IDX 60 86 53 87 55 88 61 89 54 90 56 91 57 92 58 93 59 94
REMARK H PARENT 12 15 81 47 49 58
REMARK Flexibility Score: inf
ROOT
ATOM      1  O   UNL A   1      36.753  21.054  25.359  1.00  0.00    -0.374 OA
ENDROOT
BRANCH   1   2
ATOM      2  C   UNL A   1      35.619  21.539  24.642  1.00  0.00     0.202 C 
BRANCH   2   3
ATOM      3  C   UNL A   1      35.824  22.685  23.642  1.00  0.00     0.261 C 
BRANCH   3   4
ATOM      4  O   UNL A   1      34.789  23.672  23.751  1.00  0.00    -0.461 OA
BRANCH   4   5
ATOM      5  C   UNL A   1      34.620  24.197  24.998  1.00  0.00     0.331 C 
ATOM      6  O   UNL A   1      35.532  24.473  25.772  1.00  0.00    -0.249 OA
BRANCH   5   7
ATOM      7  C   UNL A   1      33.119  24.503  25.291  1.00  0.00     0.138 C 
ATOM      8  C   UNL A   1      32.799  23.900  26.673  1.00  0.00     0.040 C 
ATOM      9  C   UNL A   1      32.089  23.758  24.418  1.00  0.00     0.040 C 
ATOM     10  C   UNL A   1      32.601  22.417  26.394  1.00  0.00     0.003 C 
ATOM     11  C   UNL A   1      31.958  22.354  25.014  1.00  0.00     0.003 C 
BRANCH   7  12
ATOM     12  N   UNL A   1      32.847  25.961  25.326  1.00  0.00    -0.340 N 
ATOM     13  O   UNL A   1      33.286  26.435  23.118  1.00  0.00    -0.275 OA
ATOM     14  C   UNL A   1      32.863  26.778  24.215  1.00  0.00     0.225 C 
ATOM     15  H   UNL A   1      32.643  26.370  26.198  1.00  0.00     0.164 HD
BRANCH  14  16
ATOM     16  C   UNL A   1      32.289  28.165  24.425  1.00  0.00     0.135 C 
BRANCH  16  17
ATOM     17  C   UNL A   1      30.841  28.329  23.999  1.00  0.00    -0.036 A 
ATOM     18  C   UNL A   1      30.348  29.501  23.399  1.00  0.00     0.007 A 
ATOM     19  C   UNL A   1      29.969  27.238  24.153  1.00  0.00     0.046 A 
ATOM     20  C   UNL A   1      29.020  29.581  22.967  1.00  0.00     0.043 A 
ATOM     21  C   UNL A   1      28.648  27.323  23.717  1.00  0.00     0.159 A 
ATOM     22  C   UNL A   1      28.178  28.486  23.124  1.00  0.00     0.158 A 
ATOM     23  F   UNL A   1      27.839  26.264  23.861  1.00  0.00    -0.204 F 
ATOM     24  F   UNL A   1      26.913  28.560  22.688  1.00  0.00    -0.204 F 
ENDBRANCH  16  17
ENDBRANCH  14  16
ENDBRANCH   7  12
ENDBRANCH   5   7
ENDBRANCH   4   5
ENDBRANCH   3   4
ENDBRANCH   2   3
ENDBRANCH   1   2
BRANCH   1  25
ATOM     25  C   UNL A   1      37.958  21.812  25.277  1.00  0.00     0.202 C 
BRANCH  25  26
ATOM     26  C   UNL A   1      39.079  21.457  26.259  1.00  0.00     0.261 C 
BRANCH  26  27
ATOM     27  O   UNL A   1      39.821  20.297  25.849  1.00  0.00    -0.460 OA
BRANCH  27  28
ATOM     28  C   UNL A   1      40.968  20.097  26.536  1.00  0.00     0.338 C 
ATOM     29  O   UNL A   1      41.473  19.018  26.836  1.00  0.00    -0.246 OA
BRANCH  28  30
ATOM     30  C   UNL A   1      41.668  21.372  26.746  1.00  0.00     0.060 A 
ATOM     31  C   UNL A   1      41.897  21.774  28.069  1.00  0.00     0.016 A 
ATOM     32  C   UNL A   1      42.006  22.204  25.678  1.00  0.00     0.016 A 
ATOM     33  C   UNL A   1      42.411  23.039  28.335  1.00  0.00     0.010 A 
ATOM     34  C   UNL A   1      42.509  23.481  25.948  1.00  0.00     0.010 A 
ATOM     35  C   UNL A   1      42.668  23.917  27.276  1.00  0.00    -0.014 A 
BRANCH  35  36
ATOM     36  C   UNL A   1      42.924  25.348  27.565  1.00  0.00     0.031 A 
ATOM     37  C   UNL A   1      44.311  25.888  27.347  1.00  0.00     0.074 A 
ATOM     38  C   UNL A   1      41.940  26.152  28.003  1.00  0.00     0.049 A 
ATOM     39  N   UNL A   1      44.778  27.087  27.575  1.00  0.00    -0.248 NA
ATOM     40  C   UNL A   1      45.306  24.950  26.800  1.00  0.00     0.031 C 
ATOM     41  C   UNL A   1      40.554  25.746  28.227  1.00  0.00     0.029 A 
ATOM     42  N   UNL A   1      41.968  27.476  28.360  1.00  0.00    -0.354 N 
ATOM     43  C   UNL A   1      46.126  27.038  27.239  1.00  0.00     0.074 A 
ATOM     44  C   UNL A   1      46.404  25.690  26.794  1.00  0.00     0.031 C 
ATOM     45  C   UNL A   1      39.868  26.795  28.714  1.00  0.00     0.029 A 
ATOM     46  C   UNL A   1      40.773  27.933  28.861  1.00  0.00     0.049 A 
ATOM     47  H   UNL A   1      42.768  28.044  28.268  1.00  0.00     0.167 HD
ATOM     48  C   UNL A   1      47.047  28.029  27.286  1.00  0.00     0.034 A 
ATOM     49  C   UNL A   1      40.456  29.128  29.400  1.00  0.00     0.034 A 
ATOM     50  C   UNL A   1      46.759  29.374  27.704  1.00  0.00     0.049 A 
ATOM     51  C   UNL A   1      41.507  30.206  29.466  1.00  0.00     0.074 A 
ATOM     52  C   UNL A   1      47.610  30.463  27.741  1.00  0.00     0.029 A 
ATOM     53  N   UNL A   1      45.528  29.810  28.168  1.00  0.00    -0.354 N 
ATOM     54  N   UNL A   1      42.750  30.177  29.048  1.00  0.00    -0.248 NA
ATOM     55  C   UNL A   1      41.103  31.494  30.052  1.00  0.00     0.031 C 
ATOM     56  C   UNL A   1      46.902  31.552  28.259  1.00  0.00     0.029 A 
ATOM     57  C   UNL A   1      45.598  31.150  28.509  1.00  0.00     0.049 A 
ATOM     58  H   UNL A   1      44.722  29.250  28.245  1.00  0.00     0.167 HD
ATOM     59  C   UNL A   1      43.261  31.450  29.276  1.00  0.00     0.074 A 
ATOM     60  C   UNL A   1      42.190  32.230  29.861  1.00  0.00     0.031 C 
ATOM     61  C   UNL A   1      44.506  31.928  29.033  1.00  0.00     0.034 A 
BRANCH  48  62
ATOM     62  C   UNL A   1      48.453  27.698  26.863  1.00  0.00     0.023 A 
ATOM     63  C   UNL A   1      49.382  27.229  27.814  1.00  0.00     0.012 A 
ATOM     64  C   UNL A   1      48.840  27.805  25.513  1.00  0.00     0.148 A 
ATOM     65  C   UNL A   1      50.682  26.900  27.434  1.00  0.00     0.002 A 
ATOM     66  C   UNL A   1      50.123  27.431  25.134  1.00  0.00     0.091 A 
ATOM     67  F   UNL A   1      47.951  28.277  24.628  1.00  0.00    -0.205 F 
ATOM     68  C   UNL A   1      51.049  26.991  26.093  1.00  0.00     0.022 A 
BRANCH  66  69
ATOM     69  S   UNL A   1      50.666  27.439  23.421  1.00  0.00     0.127 S 
ATOM     70  O   UNL A   1      50.814  28.870  23.165  1.00  0.00    -0.237 OA
ATOM     71  O   UNL A   1      51.926  26.698  23.494  1.00  0.00    -0.237 OA
ATOM     72  O   UNL A   1      49.614  26.775  22.664  1.00  0.00    -0.744 OA
ENDBRANCH  66  69
ENDBRANCH  48  62
BRANCH  49  73
ATOM     73  C   UNL A   1      39.072  29.380  29.891  1.00  0.00     0.023 A 
ATOM     74  C   UNL A   1      38.710  28.971  31.189  1.00  0.00     0.012 A 
ATOM     75  C   UNL A   1      38.119  30.034  29.086  1.00  0.00     0.148 A 
ATOM     76  C   UNL A   1      37.416  29.181  31.666  1.00  0.00     0.002 A 
ATOM     77  C   UNL A   1      36.849  30.290  29.587  1.00  0.00     0.091 A 
ATOM     78  F   UNL A   1      38.479  30.402  27.849  1.00  0.00    -0.205 F 
ATOM     79  C   UNL A   1      36.489  29.849  30.870  1.00  0.00     0.022 A 
BRANCH  77  80
ATOM     80  S   UNL A   1      35.631  31.251  28.681  1.00  0.00     0.127 S 
ATOM     81  O   UNL A   1      35.011  30.231  27.840  1.00  0.00    -0.237 OA
ATOM     82  O   UNL A   1      34.783  31.758  29.761  1.00  0.00    -0.237 OA
ATOM     83  O   UNL A   1      36.384  32.280  27.976  1.00  0.00    -0.744 OA
ENDBRANCH  77  80
ENDBRANCH  49  73
BRANCH  61  84
ATOM     84  C   UNL A   1      44.778  33.378  29.343  1.00  0.00     0.023 A 
ATOM     85  C   UNL A   1      45.322  33.743  30.589  1.00  0.00     0.012 A 
ATOM     86  C   UNL A   1      44.579  34.366  28.358  1.00  0.00     0.148 A 
ATOM     87  C   UNL A   1      45.635  35.075  30.863  1.00  0.00     0.002 A 
ATOM     88  C   UNL A   1      44.940  35.683  28.619  1.00  0.00     0.091 A 
ATOM     89  F   UNL A   1      44.043  34.001  27.184  1.00  0.00    -0.205 F 
ATOM     90  C   UNL A   1      45.456  36.041  29.874  1.00  0.00     0.022 A 
BRANCH  88  91
ATOM     91  S   UNL A   1      44.841  36.973  27.374  1.00  0.00     0.127 S 
ATOM     92  O   UNL A   1      45.121  38.171  28.163  1.00  0.00    -0.237 OA
ATOM     93  O   UNL A   1      45.905  36.591  26.445  1.00  0.00    -0.237 OA
ATOM     94  O   UNL A   1      43.497  36.894  26.817  1.00  0.00    -0.744 OA
ENDBRANCH  88  91
ENDBRANCH  61  84
ENDBRANCH  35  36
ENDBRANCH  28  30
ENDBRANCH  27  28
ENDBRANCH  26  27
ENDBRANCH  25  26
ENDBRANCH   1  25
TORSDOF 20
ENDMDL
