MODEL 1
REMARK VINA RESULT:     -10.6      0.000      0.000
REMARK SMILES COCCCC(=O)N[C@H]1CC[C@@H](C(=O)OCCOCCOC(=O)c2ccc(-c3c4nc(c(-c5cccc(S(=O)(=O)[O-])c5F)c5ccc([nH]5)c(-c5cccc(S(=O)(=O)[O-])c5F)c5nc(c(-c6cccc(S(=O)(=O)[O-])c6F)c6ccc3[nH]6)C=C5)C=C4)cc2)CC1
REMARK SMILES IDX 17 1 16 2 15 3 13 4 14 5 12 6 9 7 10 8 88 9 11 10 87 11 8 12
REMARK SMILES IDX 6 13 7 14 5 16 4 17 3 18 2 19 1 20 18 21 19 22 20 23 21 24
REMARK SMILES IDX 22 25 23 26 24 27 25 28 86 29 26 30 85 31 27 32 28 33 29 34
REMARK SMILES IDX 79 35 30 36 84 37 78 38 80 39 31 40 83 41 77 42 76 43 32 45
REMARK SMILES IDX 64 46 44 47 63 48 45 49 48 50 62 51 81 52 46 53 47 54 61 56
REMARK SMILES IDX 82 57 49 58 33 59 34 60 42 61 35 62 37 63 43 64 36 65 38 66
REMARK SMILES IDX 39 67 40 68 41 69 65 70 66 71 74 72 67 73 69 74 75 75 68 76
REMARK SMILES IDX 70 77 71 78 72 79 73 80 50 81 51 82 59 83 52 84 54 85 60 86
REMARK SMILES IDX 53 87 55 88 56 89 57 90 58 91
REMARK H PARENT 8 15 80 44 48 55
REMARK Flexibility Score: inf
ROOT
ATOM      1  C   UNL A   1      33.005  28.445  23.732  1.00  0.00     0.202 C 
ENDROOT
BRANCH   1   2
ATOM      2  C   UNL A   1      33.929  27.234  23.899  1.00  0.00     0.261 C 
BRANCH   2   3
ATOM      3  O   UNL A   1      33.186  26.003  23.980  1.00  0.00    -0.463 OA
BRANCH   3   4
ATOM      4  C   UNL A   1      33.512  25.154  24.988  1.00  0.00     0.309 C 
ATOM      5  O   UNL A   1      32.799  24.906  25.954  1.00  0.00    -0.252 OA
BRANCH   4   6
ATOM      6  C   UNL A   1      34.904  24.535  24.827  1.00  0.00     0.099 C 
ATOM      7  C   UNL A   1      34.548  21.551  25.052  1.00  0.00     0.082 C 
ATOM      8  C   UNL A   1      34.135  22.369  23.838  1.00  0.00     0.026 C 
ATOM      9  C   UNL A   1      34.803  22.426  26.294  1.00  0.00     0.026 C 
ATOM     10  C   UNL A   1      34.932  23.640  23.594  1.00  0.00     0.017 C 
ATOM     11  C   UNL A   1      35.479  23.768  26.019  1.00  0.00     0.017 C 
BRANCH   7  12
ATOM     12  N   UNL A   1      33.606  20.492  25.449  1.00  0.00    -0.353 N 
ATOM     13  C   UNL A   1      33.373  19.202  25.075  1.00  0.00     0.220 C 
ATOM     14  O   UNL A   1      32.230  18.779  25.256  1.00  0.00    -0.275 OA
ATOM     15  H   UNL A   1      32.992  20.788  26.160  1.00  0.00     0.163 HD
BRANCH  13  16
ATOM     16  C   UNL A   1      34.453  18.303  24.507  1.00  0.00     0.102 C 
BRANCH  16  17
ATOM     17  C   UNL A   1      33.974  17.459  23.322  1.00  0.00     0.038 C 
BRANCH  17  18
ATOM     18  C   UNL A   1      33.306  16.123  23.677  1.00  0.00     0.160 C 
BRANCH  18  19
ATOM     19  O   UNL A   1      33.720  15.618  24.942  1.00  0.00    -0.385 OA
ATOM     20  C   UNL A   1      32.700  14.916  25.640  1.00  0.00     0.194 C 
ENDBRANCH  18  19
ENDBRANCH  17  18
ENDBRANCH  16  17
ENDBRANCH  13  16
ENDBRANCH   7  12
ENDBRANCH   4   6
ENDBRANCH   3   4
ENDBRANCH   2   3
ENDBRANCH   1   2
BRANCH   1  21
ATOM     21  O   UNL A   1      32.927  29.340  24.844  1.00  0.00    -0.374 OA
BRANCH  21  22
ATOM     22  C   UNL A   1      31.643  29.848  25.197  1.00  0.00     0.202 C 
BRANCH  22  23
ATOM     23  C   UNL A   1      31.604  31.014  26.193  1.00  0.00     0.261 C 
BRANCH  23  24
ATOM     24  O   UNL A   1      32.518  30.862  27.296  1.00  0.00    -0.460 OA
BRANCH  24  25
ATOM     25  C   UNL A   1      33.306  31.942  27.514  1.00  0.00     0.338 C 
ATOM     26  O   UNL A   1      32.937  33.112  27.600  1.00  0.00    -0.246 OA
BRANCH  25  27
ATOM     27  C   UNL A   1      34.703  31.566  27.783  1.00  0.00     0.060 A 
ATOM     28  C   UNL A   1      34.961  30.215  28.047  1.00  0.00     0.016 A 
ATOM     29  C   UNL A   1      35.705  32.524  27.958  1.00  0.00     0.016 A 
ATOM     30  C   UNL A   1      36.197  29.830  28.560  1.00  0.00     0.010 A 
ATOM     31  C   UNL A   1      36.950  32.131  28.471  1.00  0.00     0.010 A 
ATOM     32  C   UNL A   1      37.184  30.790  28.825  1.00  0.00    -0.014 A 
BRANCH  32  33
ATOM     33  C   UNL A   1      38.397  30.373  29.578  1.00  0.00     0.031 A 
ATOM     34  C   UNL A   1      38.602  30.843  30.996  1.00  0.00     0.074 A 
ATOM     35  C   UNL A   1      39.279  29.519  29.027  1.00  0.00     0.049 A 
ATOM     36  N   UNL A   1      39.511  30.482  31.865  1.00  0.00    -0.248 NA
ATOM     37  C   UNL A   1      37.657  31.851  31.503  1.00  0.00     0.031 C 
ATOM     38  C   UNL A   1      39.220  29.016  27.657  1.00  0.00     0.029 A 
ATOM     39  N   UNL A   1      40.398  28.927  29.558  1.00  0.00    -0.354 N 
ATOM     40  C   UNL A   1      39.263  31.226  33.013  1.00  0.00     0.074 A 
ATOM     41  C   UNL A   1      38.126  32.075  32.724  1.00  0.00     0.031 C 
ATOM     42  C   UNL A   1      40.259  28.188  27.453  1.00  0.00     0.029 A 
ATOM     43  C   UNL A   1      41.060  28.109  28.673  1.00  0.00     0.049 A 
ATOM     44  H   UNL A   1      40.698  29.074  30.484  1.00  0.00     0.167 HD
ATOM     45  C   UNL A   1      39.904  31.190  34.207  1.00  0.00     0.034 A 
ATOM     46  C   UNL A   1      42.180  27.376  28.828  1.00  0.00     0.034 A 
ATOM     47  C   UNL A   1      41.018  30.331  34.507  1.00  0.00     0.049 A 
ATOM     48  C   UNL A   1      42.858  27.335  30.173  1.00  0.00     0.074 A 
ATOM     49  C   UNL A   1      41.694  30.182  35.707  1.00  0.00     0.029 A 
ATOM     50  N   UNL A   1      41.630  29.480  33.600  1.00  0.00    -0.354 N 
ATOM     51  N   UNL A   1      42.513  27.922  31.293  1.00  0.00    -0.248 NA
ATOM     52  C   UNL A   1      44.058  26.491  30.285  1.00  0.00     0.031 C 
ATOM     53  C   UNL A   1      42.725  29.253  35.520  1.00  0.00     0.029 A 
ATOM     54  C   UNL A   1      42.681  28.810  34.208  1.00  0.00     0.049 A 
ATOM     55  H   UNL A   1      41.359  29.367  32.660  1.00  0.00     0.167 HD
ATOM     56  C   UNL A   1      43.435  27.502  32.246  1.00  0.00     0.074 A 
ATOM     57  C   UNL A   1      44.333  26.583  31.579  1.00  0.00     0.031 C 
ATOM     58  C   UNL A   1      43.542  27.861  33.550  1.00  0.00     0.034 A 
BRANCH  45  59
ATOM     59  C   UNL A   1      39.383  32.080  35.306  1.00  0.00     0.023 A 
ATOM     60  C   UNL A   1      38.429  31.574  36.212  1.00  0.00     0.012 A 
ATOM     61  C   UNL A   1      39.879  33.386  35.485  1.00  0.00     0.148 A 
ATOM     62  C   UNL A   1      37.957  32.360  37.262  1.00  0.00     0.002 A 
ATOM     63  C   UNL A   1      39.432  34.152  36.556  1.00  0.00     0.091 A 
ATOM     64  F   UNL A   1      40.769  33.861  34.600  1.00  0.00    -0.205 F 
ATOM     65  C   UNL A   1      38.466  33.645  37.440  1.00  0.00     0.022 A 
BRANCH  63  66
ATOM     66  S   UNL A   1      40.079  35.792  36.909  1.00  0.00     0.127 S 
ATOM     67  O   UNL A   1      39.724  36.518  35.691  1.00  0.00    -0.237 OA
ATOM     68  O   UNL A   1      39.314  36.180  38.095  1.00  0.00    -0.237 OA
ATOM     69  O   UNL A   1      41.506  35.614  37.143  1.00  0.00    -0.744 OA
ENDBRANCH  63  66
ENDBRANCH  45  59
BRANCH  46  70
ATOM     70  C   UNL A   1      42.694  26.562  27.691  1.00  0.00     0.023 A 
ATOM     71  C   UNL A   1      43.485  27.176  26.700  1.00  0.00     0.012 A 
ATOM     72  C   UNL A   1      42.423  25.183  27.599  1.00  0.00     0.148 A 
ATOM     73  C   UNL A   1      43.977  26.436  25.625  1.00  0.00     0.002 A 
ATOM     74  C   UNL A   1      42.961  24.441  26.553  1.00  0.00     0.091 A 
ATOM     75  F   UNL A   1      41.648  24.623  28.538  1.00  0.00    -0.205 F 
ATOM     76  C   UNL A   1      43.726  25.068  25.558  1.00  0.00     0.022 A 
BRANCH  74  77
ATOM     77  S   UNL A   1      42.791  22.656  26.451  1.00  0.00     0.127 S 
ATOM     78  O   UNL A   1      43.859  22.307  25.516  1.00  0.00    -0.237 OA
ATOM     79  O   UNL A   1      43.028  22.248  27.836  1.00  0.00    -0.237 OA
ATOM     80  O   UNL A   1      41.434  22.416  25.978  1.00  0.00    -0.744 OA
ENDBRANCH  74  77
ENDBRANCH  46  70
BRANCH  58  81
ATOM     81  C   UNL A   1      44.667  27.252  34.349  1.00  0.00     0.023 A 
ATOM     82  C   UNL A   1      45.929  27.880  34.361  1.00  0.00     0.012 A 
ATOM     83  C   UNL A   1      44.469  26.091  35.121  1.00  0.00     0.148 A 
ATOM     84  C   UNL A   1      46.987  27.337  35.092  1.00  0.00     0.002 A 
ATOM     85  C   UNL A   1      45.516  25.581  35.883  1.00  0.00     0.091 A 
ATOM     86  F   UNL A   1      43.269  25.491  35.085  1.00  0.00    -0.205 F 
ATOM     87  C   UNL A   1      46.777  26.194  35.860  1.00  0.00     0.022 A 
BRANCH  85  88
ATOM     88  S   UNL A   1      45.295  24.163  36.966  1.00  0.00     0.127 S 
ATOM     89  O   UNL A   1      46.630  24.014  37.542  1.00  0.00    -0.237 OA
ATOM     90  O   UNL A   1      44.277  24.636  37.907  1.00  0.00    -0.237 OA
ATOM     91  O   UNL A   1      44.851  23.078  36.103  1.00  0.00    -0.744 OA
ENDBRANCH  85  88
ENDBRANCH  58  81
ENDBRANCH  32  33
ENDBRANCH  25  27
ENDBRANCH  24  25
ENDBRANCH  23  24
ENDBRANCH  22  23
ENDBRANCH  21  22
ENDBRANCH   1  21
TORSDOF 22
ENDMDL
MODEL 2
REMARK VINA RESULT:     -10.2      1.739      2.400
REMARK SMILES COCCCC(=O)N[C@H]1CC[C@@H](C(=O)OCCOCCOC(=O)c2ccc(-c3c4nc(c(-c5cccc(S(=O)(=O)[O-])c5F)c5ccc([nH]5)c(-c5cccc(S(=O)(=O)[O-])c5F)c5nc(c(-c6cccc(S(=O)(=O)[O-])c6F)c6ccc3[nH]6)C=C5)C=C4)cc2)CC1
REMARK SMILES IDX 17 1 16 2 15 3 13 4 14 5 12 6 9 7 10 8 88 9 11 10 87 11 8 12
REMARK SMILES IDX 6 13 7 14 5 16 4 17 3 18 2 19 1 20 18 21 19 22 20 23 21 24
REMARK SMILES IDX 22 25 23 26 24 27 25 28 86 29 26 30 85 31 27 32 28 33 29 34
REMARK SMILES IDX 79 35 30 36 84 37 78 38 80 39 31 40 83 41 77 42 76 43 32 45
REMARK SMILES IDX 64 46 44 47 63 48 45 49 48 50 62 51 81 52 46 53 47 54 61 56
REMARK SMILES IDX 82 57 49 58 33 59 34 60 42 61 35 62 37 63 43 64 36 65 38 66
REMARK SMILES IDX 39 67 40 68 41 69 65 70 66 71 74 72 67 73 69 74 75 75 68 76
REMARK SMILES IDX 70 77 71 78 72 79 73 80 50 81 51 82 59 83 52 84 54 85 60 86
REMARK SMILES IDX 53 87 55 88 56 89 57 90 58 91
REMARK H PARENT 8 15 80 44 48 55
REMARK Flexibility Score: inf
ROOT
ATOM      1  C   UNL A   1      33.249  27.708  25.492  1.00  0.00     0.202 C 
ENDROOT
BRANCH   1   2
ATOM      2  C   UNL A   1      31.893  27.190  25.982  1.00  0.00     0.261 C 
BRANCH   2   3
ATOM      3  O   UNL A   1      31.004  26.902  24.886  1.00  0.00    -0.463 OA
BRANCH   3   4
ATOM      4  C   UNL A   1      30.412  25.681  24.879  1.00  0.00     0.309 C 
ATOM      5  O   UNL A   1      29.827  25.180  25.833  1.00  0.00    -0.252 OA
BRANCH   4   6
ATOM      6  C   UNL A   1      30.569  24.944  23.546  1.00  0.00     0.099 C 
ATOM      7  C   UNL A   1      33.416  23.961  23.439  1.00  0.00     0.082 C 
ATOM      8  C   UNL A   1      32.335  23.347  24.316  1.00  0.00     0.026 C 
ATOM      9  C   UNL A   1      33.026  25.355  22.911  1.00  0.00     0.026 C 
ATOM     10  C   UNL A   1      30.911  23.481  23.801  1.00  0.00     0.017 C 
ATOM     11  C   UNL A   1      31.556  25.521  22.530  1.00  0.00     0.017 C 
BRANCH   7  12
ATOM     12  N   UNL A   1      34.742  24.085  24.067  1.00  0.00    -0.353 N 
ATOM     13  C   UNL A   1      35.597  23.245  24.714  1.00  0.00     0.220 C 
ATOM     14  O   UNL A   1      36.374  23.768  25.515  1.00  0.00    -0.275 OA
ATOM     15  H   UNL A   1      35.098  25.001  24.003  1.00  0.00     0.163 HD
BRANCH  13  16
ATOM     16  C   UNL A   1      35.644  21.753  24.450  1.00  0.00     0.102 C 
BRANCH  16  17
ATOM     17  C   UNL A   1      34.628  20.962  25.278  1.00  0.00     0.038 C 
BRANCH  17  18
ATOM     18  C   UNL A   1      34.138  19.645  24.657  1.00  0.00     0.160 C 
BRANCH  18  19
ATOM     19  O   UNL A   1      33.270  18.918  25.519  1.00  0.00    -0.385 OA
ATOM     20  C   UNL A   1      32.441  17.983  24.842  1.00  0.00     0.194 C 
ENDBRANCH  18  19
ENDBRANCH  17  18
ENDBRANCH  16  17
ENDBRANCH  13  16
ENDBRANCH   7  12
ENDBRANCH   4   6
ENDBRANCH   3   4
ENDBRANCH   2   3
ENDBRANCH   1   2
BRANCH   1  21
ATOM     21  O   UNL A   1      33.482  29.110  25.641  1.00  0.00    -0.374 OA
BRANCH  21  22
ATOM     22  C   UNL A   1      32.372  29.988  25.479  1.00  0.00     0.202 C 
BRANCH  22  23
ATOM     23  C   UNL A   1      32.115  31.004  26.599  1.00  0.00     0.261 C 
BRANCH  23  24
ATOM     24  O   UNL A   1      33.018  30.874  27.714  1.00  0.00    -0.460 OA
BRANCH  24  25
ATOM     25  C   UNL A   1      33.873  31.915  27.856  1.00  0.00     0.338 C 
ATOM     26  O   UNL A   1      33.570  33.106  27.932  1.00  0.00    -0.246 OA
BRANCH  25  27
ATOM     27  C   UNL A   1      35.262  31.472  28.053  1.00  0.00     0.060 A 
ATOM     28  C   UNL A   1      35.473  30.102  28.249  1.00  0.00     0.016 A 
ATOM     29  C   UNL A   1      36.309  32.381  28.231  1.00  0.00     0.016 A 
ATOM     30  C   UNL A   1      36.710  29.645  28.696  1.00  0.00     0.010 A 
ATOM     31  C   UNL A   1      37.555  31.915  28.677  1.00  0.00     0.010 A 
ATOM     32  C   UNL A   1      37.746  30.551  28.963  1.00  0.00    -0.014 A 
BRANCH  32  33
ATOM     33  C   UNL A   1      38.968  30.053  29.649  1.00  0.00     0.031 A 
ATOM     34  C   UNL A   1      39.302  30.537  31.037  1.00  0.00     0.074 A 
ATOM     35  C   UNL A   1      39.739  29.115  29.068  1.00  0.00     0.049 A 
ATOM     36  N   UNL A   1      40.235  30.122  31.856  1.00  0.00    -0.248 NA
ATOM     37  C   UNL A   1      38.478  31.632  31.574  1.00  0.00     0.031 C 
ATOM     38  C   UNL A   1      39.549  28.587  27.720  1.00  0.00     0.029 A 
ATOM     39  N   UNL A   1      40.839  28.445  29.544  1.00  0.00    -0.354 N 
ATOM     40  C   UNL A   1      40.124  30.911  32.996  1.00  0.00     0.074 A 
ATOM     41  C   UNL A   1      39.043  31.845  32.755  1.00  0.00     0.031 C 
ATOM     42  C   UNL A   1      40.502  27.672  27.474  1.00  0.00     0.029 A 
ATOM     43  C   UNL A   1      41.372  27.555  28.642  1.00  0.00     0.049 A 
ATOM     44  H   UNL A   1      41.210  28.588  30.444  1.00  0.00     0.167 HD
ATOM     45  C   UNL A   1      40.837  30.850  34.147  1.00  0.00     0.034 A 
ATOM     46  C   UNL A   1      42.437  26.735  28.747  1.00  0.00     0.034 A 
ATOM     47  C   UNL A   1      41.895  29.909  34.401  1.00  0.00     0.049 A 
ATOM     48  C   UNL A   1      43.196  26.669  30.047  1.00  0.00     0.074 A 
ATOM     49  C   UNL A   1      42.634  29.733  35.559  1.00  0.00     0.029 A 
ATOM     50  N   UNL A   1      42.375  28.989  33.481  1.00  0.00    -0.354 N 
ATOM     51  N   UNL A   1      42.974  27.309  31.169  1.00  0.00    -0.248 NA
ATOM     52  C   UNL A   1      44.328  25.731  30.106  1.00  0.00     0.031 C 
ATOM     53  C   UNL A   1      43.571  28.717  35.334  1.00  0.00     0.029 A 
ATOM     54  C   UNL A   1      43.405  28.249  34.040  1.00  0.00     0.049 A 
ATOM     55  H   UNL A   1      42.034  28.877  32.564  1.00  0.00     0.167 HD
ATOM     56  C   UNL A   1      43.920  26.837  32.073  1.00  0.00     0.074 A 
ATOM     57  C   UNL A   1      44.694  25.830  31.377  1.00  0.00     0.031 C 
ATOM     58  C   UNL A   1      44.141  27.216  33.357  1.00  0.00     0.034 A 
BRANCH  45  59
ATOM     59  C   UNL A   1      40.464  31.806  35.251  1.00  0.00     0.023 A 
ATOM     60  C   UNL A   1      41.203  32.995  35.416  1.00  0.00     0.012 A 
ATOM     61  C   UNL A   1      39.350  31.566  36.079  1.00  0.00     0.148 A 
ATOM     62  C   UNL A   1      40.857  33.917  36.403  1.00  0.00     0.002 A 
ATOM     63  C   UNL A   1      38.989  32.507  37.037  1.00  0.00     0.091 A 
ATOM     64  F   UNL A   1      38.673  30.419  35.925  1.00  0.00    -0.205 F 
ATOM     65  C   UNL A   1      39.745  33.678  37.206  1.00  0.00     0.022 A 
BRANCH  63  66
ATOM     66  S   UNL A   1      37.531  32.321  38.073  1.00  0.00     0.127 S 
ATOM     67  O   UNL A   1      37.397  30.867  38.136  1.00  0.00    -0.237 OA
ATOM     68  O   UNL A   1      37.956  32.949  39.325  1.00  0.00    -0.237 OA
ATOM     69  O   UNL A   1      36.459  33.022  37.380  1.00  0.00    -0.744 OA
ENDBRANCH  63  66
ENDBRANCH  45  59
BRANCH  46  70
ATOM     70  C   UNL A   1      42.806  25.854  27.603  1.00  0.00     0.023 A 
ATOM     71  C   UNL A   1      43.728  26.315  26.643  1.00  0.00     0.012 A 
ATOM     72  C   UNL A   1      42.269  24.559  27.475  1.00  0.00     0.148 A 
ATOM     73  C   UNL A   1      44.090  25.511  25.563  1.00  0.00     0.002 A 
ATOM     74  C   UNL A   1      42.675  23.743  26.426  1.00  0.00     0.091 A 
ATOM     75  F   UNL A   1      41.375  24.149  28.386  1.00  0.00    -0.205 F 
ATOM     76  C   UNL A   1      43.574  24.222  25.460  1.00  0.00     0.022 A 
BRANCH  74  77
ATOM     77  S   UNL A   1      42.155  22.030  26.280  1.00  0.00     0.127 S 
ATOM     78  O   UNL A   1      40.717  22.171  26.063  1.00  0.00    -0.237 OA
ATOM     79  O   UNL A   1      42.913  21.580  25.111  1.00  0.00    -0.237 OA
ATOM     80  O   UNL A   1      42.545  21.391  27.530  1.00  0.00    -0.744 OA
ENDBRANCH  74  77
ENDBRANCH  46  70
BRANCH  58  81
ATOM     81  C   UNL A   1      45.263  26.535  34.100  1.00  0.00     0.023 A 
ATOM     82  C   UNL A   1      46.568  27.060  34.021  1.00  0.00     0.012 A 
ATOM     83  C   UNL A   1      45.023  25.406  34.908  1.00  0.00     0.148 A 
ATOM     84  C   UNL A   1      47.624  26.449  34.698  1.00  0.00     0.002 A 
ATOM     85  C   UNL A   1      46.073  24.829  35.617  1.00  0.00     0.091 A 
ATOM     86  F   UNL A   1      43.780  24.903  34.960  1.00  0.00    -0.205 F 
ATOM     87  C   UNL A   1      47.374  25.341  35.504  1.00  0.00     0.022 A 
BRANCH  85  88
ATOM     88  S   UNL A   1      45.811  23.454  36.744  1.00  0.00     0.127 S 
ATOM     89  O   UNL A   1      47.173  23.160  37.184  1.00  0.00    -0.237 OA
ATOM     90  O   UNL A   1      44.954  24.045  37.775  1.00  0.00    -0.237 OA
ATOM     91  O   UNL A   1      45.161  22.419  35.952  1.00  0.00    -0.744 OA
ENDBRANCH  85  88
ENDBRANCH  58  81
ENDBRANCH  32  33
ENDBRANCH  25  27
ENDBRANCH  24  25
ENDBRANCH  23  24
ENDBRANCH  22  23
ENDBRANCH  21  22
ENDBRANCH   1  21
TORSDOF 22
ENDMDL
MODEL 3
REMARK VINA RESULT:      -9.9      0.780      7.816
REMARK SMILES COCCCC(=O)N[C@H]1CC[C@@H](C(=O)OCCOCCOC(=O)c2ccc(-c3c4nc(c(-c5cccc(S(=O)(=O)[O-])c5F)c5ccc([nH]5)c(-c5cccc(S(=O)(=O)[O-])c5F)c5nc(c(-c6cccc(S(=O)(=O)[O-])c6F)c6ccc3[nH]6)C=C5)C=C4)cc2)CC1
REMARK SMILES IDX 17 1 16 2 15 3 13 4 14 5 12 6 9 7 10 8 88 9 11 10 87 11 8 12
REMARK SMILES IDX 6 13 7 14 5 16 4 17 3 18 2 19 1 20 18 21 19 22 20 23 21 24
REMARK SMILES IDX 22 25 23 26 24 27 25 28 86 29 26 30 85 31 27 32 28 33 29 34
REMARK SMILES IDX 79 35 30 36 84 37 78 38 80 39 31 40 83 41 77 42 76 43 32 45
REMARK SMILES IDX 64 46 44 47 63 48 45 49 48 50 62 51 81 52 46 53 47 54 61 56
REMARK SMILES IDX 82 57 49 58 33 59 34 60 42 61 35 62 37 63 43 64 36 65 38 66
REMARK SMILES IDX 39 67 40 68 41 69 65 70 66 71 74 72 67 73 69 74 75 75 68 76
REMARK SMILES IDX 70 77 71 78 72 79 73 80 50 81 51 82 59 83 52 84 54 85 60 86
REMARK SMILES IDX 53 87 55 88 56 89 57 90 58 91
REMARK H PARENT 8 15 80 44 48 55
REMARK Flexibility Score: inf
ROOT
ATOM      1  C   UNL A   1      33.475  27.823  25.554  1.00  0.00     0.202 C 
ENDROOT
BRANCH   1   2
ATOM      2  C   UNL A   1      33.395  27.188  24.162  1.00  0.00     0.261 C 
BRANCH   2   3
ATOM      3  O   UNL A   1      32.968  25.814  24.226  1.00  0.00    -0.463 OA
BRANCH   3   4
ATOM      4  C   UNL A   1      33.475  25.060  25.235  1.00  0.00     0.309 C 
ATOM      5  O   UNL A   1      32.932  24.885  26.321  1.00  0.00    -0.252 OA
BRANCH   4   6
ATOM      6  C   UNL A   1      34.841  24.451  24.904  1.00  0.00     0.099 C 
ATOM      7  C   UNL A   1      34.417  21.478  24.653  1.00  0.00     0.082 C 
ATOM      8  C   UNL A   1      33.969  22.493  23.612  1.00  0.00     0.026 C 
ATOM      9  C   UNL A   1      34.754  22.130  26.007  1.00  0.00     0.026 C 
ATOM     10  C   UNL A   1      34.787  23.772  23.541  1.00  0.00     0.017 C 
ATOM     11  C   UNL A   1      35.452  23.487  25.922  1.00  0.00     0.017 C 
BRANCH   7  12
ATOM     12  N   UNL A   1      33.467  20.385  24.918  1.00  0.00    -0.353 N 
ATOM     13  C   UNL A   1      33.377  19.068  24.582  1.00  0.00     0.220 C 
ATOM     14  O   UNL A   1      32.243  18.586  24.558  1.00  0.00    -0.275 OA
ATOM     15  H   UNL A   1      32.711  20.678  25.475  1.00  0.00     0.163 HD
BRANCH  13  16
ATOM     16  C   UNL A   1      34.590  18.207  24.290  1.00  0.00     0.102 C 
BRANCH  16  17
ATOM     17  C   UNL A   1      34.231  16.792  23.830  1.00  0.00     0.038 C 
BRANCH  17  18
ATOM     18  C   UNL A   1      34.015  15.759  24.945  1.00  0.00     0.160 C 
BRANCH  18  19
ATOM     19  O   UNL A   1      32.662  15.329  25.045  1.00  0.00    -0.385 OA
ATOM     20  C   UNL A   1      32.483  14.185  25.868  1.00  0.00     0.194 C 
ENDBRANCH  18  19
ENDBRANCH  17  18
ENDBRANCH  16  17
ENDBRANCH  13  16
ENDBRANCH   7  12
ENDBRANCH   4   6
ENDBRANCH   3   4
ENDBRANCH   2   3
ENDBRANCH   1   2
BRANCH   1  21
ATOM     21  O   UNL A   1      32.229  28.146  26.176  1.00  0.00    -0.374 OA
BRANCH  21  22
ATOM     22  C   UNL A   1      31.427  29.155  25.568  1.00  0.00     0.202 C 
BRANCH  22  23
ATOM     23  C   UNL A   1      31.871  30.610  25.760  1.00  0.00     0.261 C 
BRANCH  23  24
ATOM     24  O   UNL A   1      32.120  30.961  27.135  1.00  0.00    -0.460 OA
BRANCH  24  25
ATOM     25  C   UNL A   1      32.988  31.988  27.294  1.00  0.00     0.338 C 
ATOM     26  O   UNL A   1      32.716  33.188  27.263  1.00  0.00    -0.246 OA
BRANCH  25  27
ATOM     27  C   UNL A   1      34.337  31.526  27.657  1.00  0.00     0.060 A 
ATOM     28  C   UNL A   1      34.487  30.166  27.954  1.00  0.00     0.016 A 
ATOM     29  C   UNL A   1      35.387  32.419  27.886  1.00  0.00     0.016 A 
ATOM     30  C   UNL A   1      35.660  29.709  28.550  1.00  0.00     0.010 A 
ATOM     31  C   UNL A   1      36.568  31.953  28.483  1.00  0.00     0.010 A 
ATOM     32  C   UNL A   1      36.690  30.606  28.866  1.00  0.00    -0.014 A 
BRANCH  32  33
ATOM     33  C   UNL A   1      37.822  30.122  29.702  1.00  0.00     0.031 A 
ATOM     34  C   UNL A   1      38.830  29.164  29.121  1.00  0.00     0.074 A 
ATOM     35  C   UNL A   1      37.993  30.591  30.951  1.00  0.00     0.049 A 
ATOM     36  N   UNL A   1      39.958  28.738  29.632  1.00  0.00    -0.248 NA
ATOM     37  C   UNL A   1      38.532  28.613  27.789  1.00  0.00     0.031 C 
ATOM     38  C   UNL A   1      37.076  31.492  31.645  1.00  0.00     0.029 A 
ATOM     39  N   UNL A   1      39.001  30.369  31.857  1.00  0.00    -0.354 N 
ATOM     40  C   UNL A   1      40.496  27.860  28.698  1.00  0.00     0.074 A 
ATOM     41  C   UNL A   1      39.561  27.799  27.594  1.00  0.00     0.031 C 
ATOM     42  C   UNL A   1      37.563  31.748  32.871  1.00  0.00     0.029 A 
ATOM     43  C   UNL A   1      38.820  31.025  33.052  1.00  0.00     0.049 A 
ATOM     44  H   UNL A   1      39.778  29.795  31.669  1.00  0.00     0.167 HD
ATOM     45  C   UNL A   1      41.670  27.184  28.741  1.00  0.00     0.034 A 
ATOM     46  C   UNL A   1      39.582  31.044  34.163  1.00  0.00     0.034 A 
ATOM     47  C   UNL A   1      42.614  27.261  29.824  1.00  0.00     0.049 A 
ATOM     48  C   UNL A   1      40.895  30.305  34.174  1.00  0.00     0.074 A 
ATOM     49  C   UNL A   1      43.858  26.659  29.929  1.00  0.00     0.029 A 
ATOM     50  N   UNL A   1      42.419  27.974  30.997  1.00  0.00    -0.354 N 
ATOM     51  N   UNL A   1      41.463  29.610  33.218  1.00  0.00    -0.248 NA
ATOM     52  C   UNL A   1      41.695  30.392  35.406  1.00  0.00     0.031 C 
ATOM     53  C   UNL A   1      44.406  26.996  31.172  1.00  0.00     0.029 A 
ATOM     54  C   UNL A   1      43.512  27.822  31.835  1.00  0.00     0.049 A 
ATOM     55  H   UNL A   1      41.620  28.511  31.205  1.00  0.00     0.167 HD
ATOM     56  C   UNL A   1      42.691  29.197  33.723  1.00  0.00     0.074 A 
ATOM     57  C   UNL A   1      42.801  29.751  35.056  1.00  0.00     0.031 C 
ATOM     58  C   UNL A   1      43.635  28.413  33.143  1.00  0.00     0.034 A 
BRANCH  45  59
ATOM     59  C   UNL A   1      42.029  26.332  27.551  1.00  0.00     0.023 A 
ATOM     60  C   UNL A   1      42.749  26.904  26.482  1.00  0.00     0.012 A 
ATOM     61  C   UNL A   1      41.717  24.959  27.516  1.00  0.00     0.148 A 
ATOM     62  C   UNL A   1      43.129  26.131  25.386  1.00  0.00     0.002 A 
ATOM     63  C   UNL A   1      42.131  24.186  26.436  1.00  0.00     0.091 A 
ATOM     64  F   UNL A   1      41.012  24.436  28.529  1.00  0.00    -0.205 F 
ATOM     65  C   UNL A   1      42.829  24.771  25.368  1.00  0.00     0.022 A 
BRANCH  63  66
ATOM     66  S   UNL A   1      41.854  22.412  26.355  1.00  0.00     0.127 S 
ATOM     67  O   UNL A   1      40.395  22.343  26.306  1.00  0.00    -0.237 OA
ATOM     68  O   UNL A   1      42.523  22.049  25.105  1.00  0.00    -0.237 OA
ATOM     69  O   UNL A   1      42.470  21.857  27.552  1.00  0.00    -0.744 OA
ENDBRANCH  63  66
ENDBRANCH  45  59
BRANCH  46  70
ATOM     70  C   UNL A   1      39.152  31.851  35.339  1.00  0.00     0.023 A 
ATOM     71  C   UNL A   1      38.272  31.287  36.284  1.00  0.00     0.012 A 
ATOM     72  C   UNL A   1      39.628  33.162  35.539  1.00  0.00     0.148 A 
ATOM     73  C   UNL A   1      37.854  32.022  37.392  1.00  0.00     0.002 A 
ATOM     74  C   UNL A   1      39.249  33.869  36.675  1.00  0.00     0.091 A 
ATOM     75  F   UNL A   1      40.444  33.689  34.617  1.00  0.00    -0.205 F 
ATOM     76  C   UNL A   1      38.351  33.306  37.595  1.00  0.00     0.022 A 
BRANCH  74  77
ATOM     77  S   UNL A   1      39.931  35.481  37.078  1.00  0.00     0.127 S 
ATOM     78  O   UNL A   1      39.214  35.809  38.309  1.00  0.00    -0.237 OA
ATOM     79  O   UNL A   1      41.351  35.174  37.257  1.00  0.00    -0.237 OA
ATOM     80  O   UNL A   1      39.640  36.331  35.932  1.00  0.00    -0.744 OA
ENDBRANCH  74  77
ENDBRANCH  46  70
BRANCH  58  81
ATOM     81  C   UNL A   1      44.877  28.113  33.944  1.00  0.00     0.023 A 
ATOM     82  C   UNL A   1      46.000  28.957  33.828  1.00  0.00     0.012 A 
ATOM     83  C   UNL A   1      44.922  27.027  34.841  1.00  0.00     0.148 A 
ATOM     84  C   UNL A   1      47.161  28.701  34.558  1.00  0.00     0.002 A 
ATOM     85  C   UNL A   1      46.068  26.805  35.599  1.00  0.00     0.091 A 
ATOM     86  F   UNL A   1      43.855  26.218  34.927  1.00  0.00    -0.205 F 
ATOM     87  C   UNL A   1      47.191  27.632  35.450  1.00  0.00     0.022 A 
BRANCH  85  88
ATOM     88  S   UNL A   1      46.148  25.500  36.833  1.00  0.00     0.127 S 
ATOM     89  O   UNL A   1      47.335  25.880  37.596  1.00  0.00    -0.237 OA
ATOM     90  O   UNL A   1      44.884  25.665  37.554  1.00  0.00    -0.237 OA
ATOM     91  O   UNL A   1      46.247  24.257  36.080  1.00  0.00    -0.744 OA
ENDBRANCH  85  88
ENDBRANCH  58  81
ENDBRANCH  32  33
ENDBRANCH  25  27
ENDBRANCH  24  25
ENDBRANCH  23  24
ENDBRANCH  22  23
ENDBRANCH  21  22
ENDBRANCH   1  21
TORSDOF 22
ENDMDL
