MODEL 1
REMARK VINA RESULT:     -11.0      0.000      0.000
REMARK SMILES CC[C@H](C)[C@H](NC(=O)N1CCCCC1)C(=O)OCCOCCOC(=O)c1ccc(-c2c3nc(c(-c4cccc(S(=O)(=O)[O-])c4F)c4ccc([nH]4)c(-c4cccc(S(=O)(=O)[O-])c4F)c4nc(c(-c5cccc(S(=O)(=O)[O-])c5F)c5ccc2[nH]5)C=C4)C=C3)cc1
REMARK SMILES IDX 21 1 20 2 19 3 18 4 17 5 15 6 16 7 5 8 3 9 4 10 2 11 1 12
REMARK SMILES IDX 6 13 7 14 8 16 9 17 10 18 14 19 11 20 13 21 12 22 22 23
REMARK SMILES IDX 23 24 24 25 25 26 26 27 27 28 88 29 28 30 87 31 29 32 30 33
REMARK SMILES IDX 31 34 81 35 32 36 86 37 80 38 82 39 33 40 85 41 79 42 78 43
REMARK SMILES IDX 34 45 66 46 46 47 65 48 47 49 50 50 64 51 83 52 48 53 49 54
REMARK SMILES IDX 63 56 84 57 51 58 35 59 36 60 44 61 37 62 39 63 45 64 38 65
REMARK SMILES IDX 40 66 41 67 42 68 43 69 67 70 68 71 76 72 69 73 71 74 77 75
REMARK SMILES IDX 70 76 72 77 73 78 74 79 75 80 52 81 53 82 61 83 54 84 56 85
REMARK SMILES IDX 62 86 55 87 57 88 58 89 59 90 60 91
REMARK H PARENT 6 15 82 44 50 55
REMARK Flexibility Score: inf
ROOT
ATOM      1  C   UNL A   1      31.469  29.464  24.954  1.00  0.00     0.202 C 
ENDROOT
BRANCH   1   2
ATOM      2  O   UNL A   1      30.386  29.765  24.072  1.00  0.00    -0.374 OA
BRANCH   2   3
ATOM      3  C   UNL A   1      30.221  28.854  22.986  1.00  0.00     0.202 C 
BRANCH   3   4
ATOM      4  C   UNL A   1      31.526  28.136  22.611  1.00  0.00     0.261 C 
BRANCH   4   5
ATOM      5  O   UNL A   1      31.310  26.861  21.969  1.00  0.00    -0.462 OA
BRANCH   5   6
ATOM      6  C   UNL A   1      32.368  26.016  21.889  1.00  0.00     0.329 C 
ATOM      7  O   UNL A   1      33.238  26.084  21.023  1.00  0.00    -0.250 OA
BRANCH   6   8
ATOM      8  C   UNL A   1      32.447  25.003  23.063  1.00  0.00     0.196 C 
BRANCH   8   9
ATOM      9  C   UNL A   1      31.420  23.838  23.250  1.00  0.00     0.019 C 
ATOM     10  C   UNL A   1      31.848  22.442  22.774  1.00  0.00     0.010 C 
BRANCH   9  11
ATOM     11  C   UNL A   1      30.824  23.794  24.672  1.00  0.00     0.002 C 
ATOM     12  C   UNL A   1      31.289  22.598  25.493  1.00  0.00     0.004 C 
ENDBRANCH   9  11
ENDBRANCH   8   9
BRANCH   8  13
ATOM     13  N   UNL A   1      33.121  25.523  24.261  1.00  0.00    -0.324 N 
ATOM     14  C   UNL A   1      34.197  25.272  25.022  1.00  0.00     0.318 C 
ATOM     15  H   UNL A   1      32.630  26.299  24.616  1.00  0.00     0.166 HD
ATOM     16  O   UNL A   1      34.288  26.007  26.012  1.00  0.00    -0.249 OA
ATOM     17  N   UNL A   1      35.097  24.273  24.783  1.00  0.00    -0.325 N 
ATOM     18  C   UNL A   1      36.032  23.965  25.877  1.00  0.00     0.121 C 
ATOM     19  C   UNL A   1      35.050  23.286  23.719  1.00  0.00     0.121 C 
ATOM     20  C   UNL A   1      37.358  23.332  25.452  1.00  0.00     0.022 C 
ATOM     21  C   UNL A   1      36.416  22.867  23.206  1.00  0.00     0.022 C 
ATOM     22  C   UNL A   1      37.195  22.284  24.362  1.00  0.00     0.004 C 
ENDBRANCH   8  13
ENDBRANCH   6   8
ENDBRANCH   5   6
ENDBRANCH   4   5
ENDBRANCH   3   4
ENDBRANCH   2   3
ENDBRANCH   1   2
BRANCH   1  23
ATOM     23  C   UNL A   1      31.714  30.579  25.973  1.00  0.00     0.261 C 
BRANCH  23  24
ATOM     24  O   UNL A   1      33.102  30.636  26.348  1.00  0.00    -0.460 OA
BRANCH  24  25
ATOM     25  C   UNL A   1      33.463  31.616  27.214  1.00  0.00     0.338 C 
ATOM     26  O   UNL A   1      32.839  32.614  27.511  1.00  0.00    -0.246 OA
BRANCH  25  27
ATOM     27  C   UNL A   1      34.740  31.216  27.844  1.00  0.00     0.060 A 
ATOM     28  C   UNL A   1      34.934  29.878  28.201  1.00  0.00     0.016 A 
ATOM     29  C   UNL A   1      35.759  32.148  28.050  1.00  0.00     0.016 A 
ATOM     30  C   UNL A   1      36.154  29.470  28.754  1.00  0.00     0.010 A 
ATOM     31  C   UNL A   1      36.994  31.723  28.550  1.00  0.00     0.010 A 
ATOM     32  C   UNL A   1      37.205  30.386  28.934  1.00  0.00    -0.014 A 
BRANCH  32  33
ATOM     33  C   UNL A   1      38.481  29.979  29.598  1.00  0.00     0.031 A 
ATOM     34  C   UNL A   1      38.788  30.474  30.993  1.00  0.00     0.074 A 
ATOM     35  C   UNL A   1      39.395  29.209  28.968  1.00  0.00     0.049 A 
ATOM     36  N   UNL A   1      39.823  30.221  31.755  1.00  0.00    -0.248 NA
ATOM     37  C   UNL A   1      37.830  31.416  31.595  1.00  0.00     0.031 C 
ATOM     38  C   UNL A   1      39.312  28.739  27.583  1.00  0.00     0.029 A 
ATOM     39  N   UNL A   1      40.591  28.692  29.415  1.00  0.00    -0.354 N 
ATOM     40  C   UNL A   1      39.660  31.006  32.890  1.00  0.00     0.074 A 
ATOM     41  C   UNL A   1      38.470  31.798  32.688  1.00  0.00     0.031 C 
ATOM     42  C   UNL A   1      40.396  27.990  27.305  1.00  0.00     0.029 A 
ATOM     43  C   UNL A   1      41.253  27.921  28.486  1.00  0.00     0.049 A 
ATOM     44  H   UNL A   1      40.942  28.861  30.320  1.00  0.00     0.167 HD
ATOM     45  C   UNL A   1      40.386  31.030  34.033  1.00  0.00     0.034 A 
ATOM     46  C   UNL A   1      42.402  27.220  28.584  1.00  0.00     0.034 A 
ATOM     47  C   UNL A   1      41.506  30.171  34.294  1.00  0.00     0.049 A 
ATOM     48  C   UNL A   1      43.140  27.176  29.901  1.00  0.00     0.074 A 
ATOM     49  C   UNL A   1      42.221  30.023  35.469  1.00  0.00     0.029 A 
ATOM     50  N   UNL A   1      42.066  29.307  33.370  1.00  0.00    -0.354 N 
ATOM     51  N   UNL A   1      42.841  27.757  31.037  1.00  0.00    -0.248 NA
ATOM     52  C   UNL A   1      44.349  26.335  29.964  1.00  0.00     0.031 C 
ATOM     53  C   UNL A   1      43.217  29.065  35.253  1.00  0.00     0.029 A 
ATOM     54  C   UNL A   1      43.114  28.616  33.946  1.00  0.00     0.049 A 
ATOM     55  H   UNL A   1      41.762  29.200  32.439  1.00  0.00     0.167 HD
ATOM     56  C   UNL A   1      43.788  27.313  31.957  1.00  0.00     0.074 A 
ATOM     57  C   UNL A   1      44.665  26.403  31.251  1.00  0.00     0.031 C 
ATOM     58  C   UNL A   1      43.926  27.641  33.264  1.00  0.00     0.034 A 
BRANCH  45  59
ATOM     59  C   UNL A   1      39.917  31.952  35.127  1.00  0.00     0.023 A 
ATOM     60  C   UNL A   1      40.350  33.296  35.127  1.00  0.00     0.012 A 
ATOM     61  C   UNL A   1      39.047  31.507  36.139  1.00  0.00     0.148 A 
ATOM     62  C   UNL A   1      39.975  34.164  36.150  1.00  0.00     0.002 A 
ATOM     63  C   UNL A   1      38.637  32.393  37.130  1.00  0.00     0.091 A 
ATOM     64  F   UNL A   1      38.658  30.224  36.132  1.00  0.00    -0.205 F 
ATOM     65  C   UNL A   1      39.114  33.714  37.146  1.00  0.00     0.022 A 
BRANCH  63  66
ATOM     66  S   UNL A   1      37.467  31.936  38.413  1.00  0.00     0.127 S 
ATOM     67  O   UNL A   1      38.241  32.203  39.625  1.00  0.00    -0.237 OA
ATOM     68  O   UNL A   1      36.369  32.873  38.174  1.00  0.00    -0.237 OA
ATOM     69  O   UNL A   1      37.136  30.539  38.173  1.00  0.00    -0.744 OA
ENDBRANCH  63  66
ENDBRANCH  45  59
BRANCH  46  70
ATOM     70  C   UNL A   1      42.881  26.385  27.440  1.00  0.00     0.023 A 
ATOM     71  C   UNL A   1      43.741  26.964  26.486  1.00  0.00     0.012 A 
ATOM     72  C   UNL A   1      42.477  25.046  27.275  1.00  0.00     0.148 A 
ATOM     73  C   UNL A   1      44.154  26.244  25.364  1.00  0.00     0.002 A 
ATOM     74  C   UNL A   1      42.930  24.319  26.178  1.00  0.00     0.091 A 
ATOM     75  F   UNL A   1      41.652  24.514  28.187  1.00  0.00    -0.205 F 
ATOM     76  C   UNL A   1      43.753  24.922  25.213  1.00  0.00     0.022 A 
BRANCH  74  77
ATOM     77  S   UNL A   1      42.556  22.577  25.949  1.00  0.00     0.127 S 
ATOM     78  O   UNL A   1      43.154  22.311  24.644  1.00  0.00    -0.237 OA
ATOM     79  O   UNL A   1      43.252  21.966  27.083  1.00  0.00    -0.237 OA
ATOM     80  O   UNL A   1      41.104  22.476  26.013  1.00  0.00    -0.744 OA
ENDBRANCH  74  77
ENDBRANCH  46  70
BRANCH  58  81
ATOM     81  C   UNL A   1      45.024  26.985  34.059  1.00  0.00     0.023 A 
ATOM     82  C   UNL A   1      46.318  27.541  34.058  1.00  0.00     0.012 A 
ATOM     83  C   UNL A   1      44.743  25.889  34.901  1.00  0.00     0.148 A 
ATOM     84  C   UNL A   1      47.320  27.007  34.868  1.00  0.00     0.002 A 
ATOM     85  C   UNL A   1      45.733  25.392  35.740  1.00  0.00     0.091 A 
ATOM     86  F   UNL A   1      43.511  25.360  34.872  1.00  0.00    -0.205 F 
ATOM     87  C   UNL A   1      47.024  25.944  35.719  1.00  0.00     0.022 A 
BRANCH  85  88
ATOM     88  S   UNL A   1      45.409  24.095  36.943  1.00  0.00     0.127 S 
ATOM     89  O   UNL A   1      46.713  23.957  37.591  1.00  0.00    -0.237 OA
ATOM     90  O   UNL A   1      44.373  24.698  37.782  1.00  0.00    -0.237 OA
ATOM     91  O   UNL A   1      44.964  22.941  36.174  1.00  0.00    -0.744 OA
ENDBRANCH  85  88
ENDBRANCH  58  81
ENDBRANCH  32  33
ENDBRANCH  25  27
ENDBRANCH  24  25
ENDBRANCH  23  24
ENDBRANCH   1  23
TORSDOF 20
ENDMDL
MODEL 2
REMARK VINA RESULT:     -10.7      1.966      2.653
REMARK SMILES CC[C@H](C)[C@H](NC(=O)N1CCCCC1)C(=O)OCCOCCOC(=O)c1ccc(-c2c3nc(c(-c4cccc(S(=O)(=O)[O-])c4F)c4ccc([nH]4)c(-c4cccc(S(=O)(=O)[O-])c4F)c4nc(c(-c5cccc(S(=O)(=O)[O-])c5F)c5ccc2[nH]5)C=C4)C=C3)cc1
REMARK SMILES IDX 21 1 20 2 19 3 18 4 17 5 15 6 16 7 5 8 3 9 4 10 2 11 1 12
REMARK SMILES IDX 6 13 7 14 8 16 9 17 10 18 14 19 11 20 13 21 12 22 22 23
REMARK SMILES IDX 23 24 24 25 25 26 26 27 27 28 88 29 28 30 87 31 29 32 30 33
REMARK SMILES IDX 31 34 81 35 32 36 86 37 80 38 82 39 33 40 85 41 79 42 78 43
REMARK SMILES IDX 34 45 66 46 46 47 65 48 47 49 50 50 64 51 83 52 48 53 49 54
REMARK SMILES IDX 63 56 84 57 51 58 35 59 36 60 44 61 37 62 39 63 45 64 38 65
REMARK SMILES IDX 40 66 41 67 42 68 43 69 67 70 68 71 76 72 69 73 71 74 77 75
REMARK SMILES IDX 70 76 72 77 73 78 74 79 75 80 52 81 53 82 61 83 54 84 56 85
REMARK SMILES IDX 62 86 55 87 57 88 58 89 59 90 60 91
REMARK H PARENT 6 15 82 44 50 55
REMARK Flexibility Score: inf
ROOT
ATOM      1  C   UNL A   1      31.442  29.138  24.563  1.00  0.00     0.202 C 
ENDROOT
BRANCH   1   2
ATOM      2  O   UNL A   1      32.479  28.200  24.268  1.00  0.00    -0.374 OA
BRANCH   2   3
ATOM      3  C   UNL A   1      32.122  26.830  24.442  1.00  0.00     0.202 C 
BRANCH   3   4
ATOM      4  C   UNL A   1      32.825  25.902  23.440  1.00  0.00     0.261 C 
BRANCH   4   5
ATOM      5  O   UNL A   1      32.892  24.529  23.883  1.00  0.00    -0.462 OA
BRANCH   5   6
ATOM      6  C   UNL A   1      33.952  24.172  24.650  1.00  0.00     0.329 C 
ATOM      7  O   UNL A   1      34.949  24.871  24.811  1.00  0.00    -0.250 OA
BRANCH   6   8
ATOM      8  C   UNL A   1      33.752  22.830  25.404  1.00  0.00     0.196 C 
BRANCH   8   9
ATOM      9  C   UNL A   1      32.777  22.675  26.618  1.00  0.00     0.019 C 
ATOM     10  C   UNL A   1      33.377  22.178  27.941  1.00  0.00     0.010 C 
BRANCH   9  11
ATOM     11  C   UNL A   1      31.890  23.919  26.830  1.00  0.00     0.002 C 
ATOM     12  C   UNL A   1      30.417  23.678  26.527  1.00  0.00     0.004 C 
ENDBRANCH   9  11
ENDBRANCH   8   9
BRANCH   8  13
ATOM     13  N   UNL A   1      34.903  21.919  25.327  1.00  0.00    -0.324 N 
ATOM     14  C   UNL A   1      35.184  20.650  24.995  1.00  0.00     0.318 C 
ATOM     15  H   UNL A   1      35.723  22.386  25.605  1.00  0.00     0.166 HD
ATOM     16  O   UNL A   1      36.368  20.341  25.177  1.00  0.00    -0.249 OA
ATOM     17  N   UNL A   1      34.266  19.745  24.547  1.00  0.00    -0.325 N 
ATOM     18  C   UNL A   1      34.698  18.339  24.519  1.00  0.00     0.121 C 
ATOM     19  C   UNL A   1      32.837  19.952  24.386  1.00  0.00     0.121 C 
ATOM     20  C   UNL A   1      33.971  17.446  23.512  1.00  0.00     0.022 C 
ATOM     21  C   UNL A   1      32.231  19.188  23.223  1.00  0.00     0.022 C 
ATOM     22  C   UNL A   1      32.476  17.714  23.448  1.00  0.00     0.004 C 
ENDBRANCH   8  13
ENDBRANCH   6   8
ENDBRANCH   5   6
ENDBRANCH   4   5
ENDBRANCH   3   4
ENDBRANCH   2   3
ENDBRANCH   1   2
BRANCH   1  23
ATOM     23  C   UNL A   1      31.677  29.865  25.888  1.00  0.00     0.261 C 
BRANCH  23  24
ATOM     24  O   UNL A   1      33.007  30.410  25.947  1.00  0.00    -0.460 OA
BRANCH  24  25
ATOM     25  C   UNL A   1      33.245  31.346  26.901  1.00  0.00     0.338 C 
ATOM     26  O   UNL A   1      32.537  32.278  27.221  1.00  0.00    -0.246 OA
BRANCH  25  27
ATOM     27  C   UNL A   1      34.502  30.981  27.590  1.00  0.00     0.060 A 
ATOM     28  C   UNL A   1      35.403  31.991  27.941  1.00  0.00     0.016 A 
ATOM     29  C   UNL A   1      34.778  29.653  27.920  1.00  0.00     0.016 A 
ATOM     30  C   UNL A   1      36.576  31.672  28.636  1.00  0.00     0.010 A 
ATOM     31  C   UNL A   1      35.923  29.349  28.664  1.00  0.00     0.010 A 
ATOM     32  C   UNL A   1      36.853  30.346  29.012  1.00  0.00    -0.014 A 
BRANCH  32  33
ATOM     33  C   UNL A   1      38.140  29.983  29.681  1.00  0.00     0.031 A 
ATOM     34  C   UNL A   1      38.415  30.474  31.085  1.00  0.00     0.074 A 
ATOM     35  C   UNL A   1      39.089  29.259  29.049  1.00  0.00     0.049 A 
ATOM     36  N   UNL A   1      39.454  30.254  31.851  1.00  0.00    -0.248 NA
ATOM     37  C   UNL A   1      37.415  31.369  31.690  1.00  0.00     0.031 C 
ATOM     38  C   UNL A   1      39.036  28.803  27.658  1.00  0.00     0.029 A 
ATOM     39  N   UNL A   1      40.302  28.786  29.501  1.00  0.00    -0.354 N 
ATOM     40  C   UNL A   1      39.250  31.019  32.994  1.00  0.00     0.074 A 
ATOM     41  C   UNL A   1      38.030  31.764  32.792  1.00  0.00     0.031 C 
ATOM     42  C   UNL A   1      40.152  28.102  27.381  1.00  0.00     0.029 A 
ATOM     43  C   UNL A   1      41.002  28.054  28.568  1.00  0.00     0.049 A 
ATOM     44  H   UNL A   1      40.639  28.959  30.410  1.00  0.00     0.167 HD
ATOM     45  C   UNL A   1      39.966  31.059  34.143  1.00  0.00     0.034 A 
ATOM     46  C   UNL A   1      42.178  27.400  28.667  1.00  0.00     0.034 A 
ATOM     47  C   UNL A   1      41.118  30.244  34.404  1.00  0.00     0.049 A 
ATOM     48  C   UNL A   1      42.908  27.371  29.989  1.00  0.00     0.074 A 
ATOM     49  C   UNL A   1      41.829  30.110  35.582  1.00  0.00     0.029 A 
ATOM     50  N   UNL A   1      41.720  29.414  33.474  1.00  0.00    -0.354 N 
ATOM     51  N   UNL A   1      42.576  27.925  31.130  1.00  0.00    -0.248 NA
ATOM     52  C   UNL A   1      44.149  26.579  30.052  1.00  0.00     0.031 C 
ATOM     53  C   UNL A   1      42.865  29.197  35.363  1.00  0.00     0.029 A 
ATOM     54  C   UNL A   1      42.791  28.760  34.051  1.00  0.00     0.049 A 
ATOM     55  H   UNL A   1      41.428  29.306  32.539  1.00  0.00     0.167 HD
ATOM     56  C   UNL A   1      43.533  27.509  32.052  1.00  0.00     0.074 A 
ATOM     57  C   UNL A   1      44.452  26.645  31.342  1.00  0.00     0.031 C 
ATOM     58  C   UNL A   1      43.648  27.828  33.364  1.00  0.00     0.034 A 
BRANCH  45  59
ATOM     59  C   UNL A   1      39.451  31.948  35.244  1.00  0.00     0.023 A 
ATOM     60  C   UNL A   1      38.474  31.448  36.132  1.00  0.00     0.012 A 
ATOM     61  C   UNL A   1      39.932  33.259  35.414  1.00  0.00     0.148 A 
ATOM     62  C   UNL A   1      37.939  32.258  37.131  1.00  0.00     0.002 A 
ATOM     63  C   UNL A   1      39.430  34.046  36.445  1.00  0.00     0.091 A 
ATOM     64  F   UNL A   1      40.849  33.722  34.552  1.00  0.00    -0.205 F 
ATOM     65  C   UNL A   1      38.422  33.553  37.291  1.00  0.00     0.022 A 
BRANCH  63  66
ATOM     66  S   UNL A   1      40.041  35.699  36.787  1.00  0.00     0.127 S 
ATOM     67  O   UNL A   1      41.481  35.465  36.887  1.00  0.00    -0.237 OA
ATOM     68  O   UNL A   1      39.625  36.434  35.592  1.00  0.00    -0.237 OA
ATOM     69  O   UNL A   1      39.385  36.121  38.016  1.00  0.00    -0.744 OA
ENDBRANCH  63  66
ENDBRANCH  45  59
BRANCH  46  70
ATOM     70  C   UNL A   1      42.699  26.598  27.518  1.00  0.00     0.023 A 
ATOM     71  C   UNL A   1      43.521  27.231  26.563  1.00  0.00     0.012 A 
ATOM     72  C   UNL A   1      42.373  25.240  27.347  1.00  0.00     0.148 A 
ATOM     73  C   UNL A   1      43.971  26.541  25.436  1.00  0.00     0.002 A 
ATOM     74  C   UNL A   1      42.862  24.545  26.245  1.00  0.00     0.091 A 
ATOM     75  F   UNL A   1      41.583  24.657  28.260  1.00  0.00    -0.205 F 
ATOM     76  C   UNL A   1      43.646  25.198  25.280  1.00  0.00     0.022 A 
BRANCH  74  77
ATOM     77  S   UNL A   1      42.588  22.785  26.010  1.00  0.00     0.127 S 
ATOM     78  O   UNL A   1      43.281  22.217  27.163  1.00  0.00    -0.237 OA
ATOM     79  O   UNL A   1      41.128  22.696  26.062  1.00  0.00    -0.237 OA
ATOM     80  O   UNL A   1      43.160  22.470  24.708  1.00  0.00    -0.744 OA
ENDBRANCH  74  77
ENDBRANCH  46  70
BRANCH  58  81
ATOM     81  C   UNL A   1      44.766  27.207  34.160  1.00  0.00     0.023 A 
ATOM     82  C   UNL A   1      46.016  27.852  34.232  1.00  0.00     0.012 A 
ATOM     83  C   UNL A   1      44.539  26.051  34.934  1.00  0.00     0.148 A 
ATOM     84  C   UNL A   1      47.029  27.346  35.046  1.00  0.00     0.002 A 
ATOM     85  C   UNL A   1      45.536  25.579  35.779  1.00  0.00     0.091 A 
ATOM     86  F   UNL A   1      43.349  25.439  34.836  1.00  0.00    -0.205 F 
ATOM     87  C   UNL A   1      46.785  26.220  35.830  1.00  0.00     0.022 A 
BRANCH  85  88
ATOM     88  S   UNL A   1      45.271  24.199  36.901  1.00  0.00     0.127 S 
ATOM     89  O   UNL A   1      46.571  24.097  37.562  1.00  0.00    -0.237 OA
ATOM     90  O   UNL A   1      44.190  24.694  37.755  1.00  0.00    -0.237 OA
ATOM     91  O   UNL A   1      44.902  23.068  36.061  1.00  0.00    -0.744 OA
ENDBRANCH  85  88
ENDBRANCH  58  81
ENDBRANCH  32  33
ENDBRANCH  25  27
ENDBRANCH  24  25
ENDBRANCH  23  24
ENDBRANCH   1  23
TORSDOF 20
ENDMDL
MODEL 3
REMARK VINA RESULT:     -10.5      1.489      2.441
REMARK SMILES CC[C@H](C)[C@H](NC(=O)N1CCCCC1)C(=O)OCCOCCOC(=O)c1ccc(-c2c3nc(c(-c4cccc(S(=O)(=O)[O-])c4F)c4ccc([nH]4)c(-c4cccc(S(=O)(=O)[O-])c4F)c4nc(c(-c5cccc(S(=O)(=O)[O-])c5F)c5ccc2[nH]5)C=C4)C=C3)cc1
REMARK SMILES IDX 21 1 20 2 19 3 18 4 17 5 15 6 16 7 5 8 3 9 4 10 2 11 1 12
REMARK SMILES IDX 6 13 7 14 8 16 9 17 10 18 14 19 11 20 13 21 12 22 22 23
REMARK SMILES IDX 23 24 24 25 25 26 26 27 27 28 88 29 28 30 87 31 29 32 30 33
REMARK SMILES IDX 31 34 81 35 32 36 86 37 80 38 82 39 33 40 85 41 79 42 78 43
REMARK SMILES IDX 34 45 66 46 46 47 65 48 47 49 50 50 64 51 83 52 48 53 49 54
REMARK SMILES IDX 63 56 84 57 51 58 35 59 36 60 44 61 37 62 39 63 45 64 38 65
REMARK SMILES IDX 40 66 41 67 42 68 43 69 67 70 68 71 76 72 69 73 71 74 77 75
REMARK SMILES IDX 70 76 72 77 73 78 74 79 75 80 52 81 53 82 61 83 54 84 56 85
REMARK SMILES IDX 62 86 55 87 57 88 58 89 59 90 60 91
REMARK H PARENT 6 15 82 44 50 55
REMARK Flexibility Score: inf
ROOT
ATOM      1  C   UNL A   1      31.732  29.727  25.202  1.00  0.00     0.202 C 
ENDROOT
BRANCH   1   2
ATOM      2  O   UNL A   1      31.043  28.486  25.363  1.00  0.00    -0.374 OA
BRANCH   2   3
ATOM      3  C   UNL A   1      31.565  27.633  26.381  1.00  0.00     0.202 C 
BRANCH   3   4
ATOM      4  C   UNL A   1      32.805  26.851  25.922  1.00  0.00     0.261 C 
BRANCH   4   5
ATOM      5  O   UNL A   1      32.503  25.821  24.956  1.00  0.00    -0.462 OA
BRANCH   5   6
ATOM      6  C   UNL A   1      32.519  24.535  25.389  1.00  0.00     0.329 C 
ATOM      7  O   UNL A   1      31.786  24.100  26.274  1.00  0.00    -0.250 OA
BRANCH   6   8
ATOM      8  C   UNL A   1      33.484  23.619  24.589  1.00  0.00     0.196 C 
BRANCH   8   9
ATOM      9  C   UNL A   1      35.021  23.893  24.482  1.00  0.00     0.019 C 
ATOM     10  C   UNL A   1      35.841  23.804  25.777  1.00  0.00     0.010 C 
BRANCH   9  11
ATOM     11  C   UNL A   1      35.685  23.106  23.334  1.00  0.00     0.002 C 
ATOM     12  C   UNL A   1      36.789  22.163  23.798  1.00  0.00     0.004 C 
ENDBRANCH   9  11
ENDBRANCH   8   9
BRANCH   8  13
ATOM     13  N   UNL A   1      32.841  22.879  23.494  1.00  0.00    -0.324 N 
ATOM     14  C   UNL A   1      32.519  21.620  23.160  1.00  0.00     0.318 C 
ATOM     15  H   UNL A   1      32.556  23.500  22.786  1.00  0.00     0.166 HD
ATOM     16  O   UNL A   1      32.015  21.519  22.035  1.00  0.00    -0.249 OA
ATOM     17  N   UNL A   1      32.758  20.526  23.941  1.00  0.00    -0.325 N 
ATOM     18  C   UNL A   1      32.610  19.216  23.289  1.00  0.00     0.121 C 
ATOM     19  C   UNL A   1      33.428  20.499  25.230  1.00  0.00     0.121 C 
ATOM     20  C   UNL A   1      32.284  18.049  24.221  1.00  0.00     0.022 C 
ATOM     21  C   UNL A   1      32.894  19.441  26.179  1.00  0.00     0.022 C 
ATOM     22  C   UNL A   1      33.065  18.090  25.525  1.00  0.00     0.004 C 
ENDBRANCH   8  13
ENDBRANCH   6   8
ENDBRANCH   5   6
ENDBRANCH   4   5
ENDBRANCH   3   4
ENDBRANCH   2   3
ENDBRANCH   1   2
BRANCH   1  23
ATOM     23  C   UNL A   1      32.103  30.362  26.543  1.00  0.00     0.261 C 
BRANCH  23  24
ATOM     24  O   UNL A   1      33.509  30.662  26.599  1.00  0.00    -0.460 OA
BRANCH  24  25
ATOM     25  C   UNL A   1      33.900  31.609  27.489  1.00  0.00     0.338 C 
ATOM     26  O   UNL A   1      33.305  32.615  27.812  1.00  0.00    -0.246 OA
BRANCH  25  27
ATOM     27  C   UNL A   1      35.167  31.156  28.105  1.00  0.00     0.060 A 
ATOM     28  C   UNL A   1      35.266  29.842  28.571  1.00  0.00     0.016 A 
ATOM     29  C   UNL A   1      36.265  32.013  28.192  1.00  0.00     0.016 A 
ATOM     30  C   UNL A   1      36.471  29.380  29.114  1.00  0.00     0.010 A 
ATOM     31  C   UNL A   1      37.483  31.528  28.682  1.00  0.00     0.010 A 
ATOM     32  C   UNL A   1      37.600  30.216  29.175  1.00  0.00    -0.014 A 
BRANCH  32  33
ATOM     33  C   UNL A   1      38.866  29.759  29.826  1.00  0.00     0.031 A 
ATOM     34  C   UNL A   1      39.237  30.290  31.192  1.00  0.00     0.074 A 
ATOM     35  C   UNL A   1      39.718  28.911  29.207  1.00  0.00     0.049 A 
ATOM     36  N   UNL A   1      40.274  30.006  31.939  1.00  0.00    -0.248 NA
ATOM     37  C   UNL A   1      38.352  31.311  31.776  1.00  0.00     0.031 C 
ATOM     38  C   UNL A   1      39.572  28.393  27.844  1.00  0.00     0.029 A 
ATOM     39  N   UNL A   1      40.892  28.342  29.648  1.00  0.00    -0.354 N 
ATOM     40  C   UNL A   1      40.187  30.843  33.044  1.00  0.00     0.074 A 
ATOM     41  C   UNL A   1      39.040  31.697  32.837  1.00  0.00     0.031 C 
ATOM     42  C   UNL A   1      40.602  27.570  27.573  1.00  0.00     0.029 A 
ATOM     43  C   UNL A   1      41.483  27.497  28.736  1.00  0.00     0.049 A 
ATOM     44  H   UNL A   1      41.275  28.525  30.536  1.00  0.00     0.167 HD
ATOM     45  C   UNL A   1      40.941  30.869  34.169  1.00  0.00     0.034 A 
ATOM     46  C   UNL A   1      42.591  26.732  28.836  1.00  0.00     0.034 A 
ATOM     47  C   UNL A   1      42.015  29.956  34.440  1.00  0.00     0.049 A 
ATOM     48  C   UNL A   1      43.359  26.697  30.137  1.00  0.00     0.074 A 
ATOM     49  C   UNL A   1      42.749  29.812  35.602  1.00  0.00     0.029 A 
ATOM     50  N   UNL A   1      42.499  29.024  33.539  1.00  0.00    -0.354 N 
ATOM     51  N   UNL A   1      43.123  27.339  31.255  1.00  0.00    -0.248 NA
ATOM     52  C   UNL A   1      44.516  25.788  30.207  1.00  0.00     0.031 C 
ATOM     53  C   UNL A   1      43.681  28.788  35.404  1.00  0.00     0.029 A 
ATOM     54  C   UNL A   1      43.519  28.295  34.119  1.00  0.00     0.049 A 
ATOM     55  H   UNL A   1      42.166  28.899  32.620  1.00  0.00     0.167 HD
ATOM     56  C   UNL A   1      44.064  26.876  32.170  1.00  0.00     0.074 A 
ATOM     57  C   UNL A   1      44.868  25.888  31.482  1.00  0.00     0.031 C 
ATOM     58  C   UNL A   1      44.255  27.247  33.460  1.00  0.00     0.034 A 
BRANCH  45  59
ATOM     59  C   UNL A   1      40.555  31.861  35.235  1.00  0.00     0.023 A 
ATOM     60  C   UNL A   1      41.334  33.025  35.406  1.00  0.00     0.012 A 
ATOM     61  C   UNL A   1      39.427  31.657  36.051  1.00  0.00     0.148 A 
ATOM     62  C   UNL A   1      41.035  33.939  36.414  1.00  0.00     0.002 A 
ATOM     63  C   UNL A   1      39.106  32.600  37.023  1.00  0.00     0.091 A 
ATOM     64  F   UNL A   1      38.707  30.539  35.884  1.00  0.00    -0.205 F 
ATOM     65  C   UNL A   1      39.917  33.730  37.216  1.00  0.00     0.022 A 
BRANCH  63  66
ATOM     66  S   UNL A   1      37.643  32.465  38.055  1.00  0.00     0.127 S 
ATOM     67  O   UNL A   1      38.022  33.277  39.211  1.00  0.00    -0.237 OA
ATOM     68  O   UNL A   1      36.611  33.060  37.205  1.00  0.00    -0.237 OA
ATOM     69  O   UNL A   1      37.467  31.043  38.315  1.00  0.00    -0.744 OA
ENDBRANCH  63  66
ENDBRANCH  45  59
BRANCH  46  70
ATOM     70  C   UNL A   1      42.991  25.825  27.718  1.00  0.00     0.023 A 
ATOM     71  C   UNL A   1      43.940  26.278  26.780  1.00  0.00     0.012 A 
ATOM     72  C   UNL A   1      42.428  24.545  27.559  1.00  0.00     0.148 A 
ATOM     73  C   UNL A   1      44.289  25.494  25.679  1.00  0.00     0.002 A 
ATOM     74  C   UNL A   1      42.814  23.749  26.484  1.00  0.00     0.091 A 
ATOM     75  F   UNL A   1      41.520  24.134  28.455  1.00  0.00    -0.205 F 
ATOM     76  C   UNL A   1      43.730  24.228  25.534  1.00  0.00     0.022 A 
BRANCH  74  77
ATOM     77  S   UNL A   1      42.232  22.063  26.269  1.00  0.00     0.127 S 
ATOM     78  O   UNL A   1      40.806  22.267  26.028  1.00  0.00    -0.237 OA
ATOM     79  O   UNL A   1      42.998  21.625  25.101  1.00  0.00    -0.237 OA
ATOM     80  O   UNL A   1      42.574  21.370  27.504  1.00  0.00    -0.744 OA
ENDBRANCH  74  77
ENDBRANCH  46  70
BRANCH  58  81
ATOM     81  C   UNL A   1      45.332  26.558  34.255  1.00  0.00     0.023 A 
ATOM     82  C   UNL A   1      46.651  27.052  34.224  1.00  0.00     0.012 A 
ATOM     83  C   UNL A   1      45.012  25.497  35.127  1.00  0.00     0.148 A 
ATOM     84  C   UNL A   1      47.637  26.490  35.034  1.00  0.00     0.002 A 
ATOM     85  C   UNL A   1      45.989  24.973  35.965  1.00  0.00     0.091 A 
ATOM     86  F   UNL A   1      43.756  25.026  35.127  1.00  0.00    -0.205 F 
ATOM     87  C   UNL A   1      47.304  25.463  35.914  1.00  0.00     0.022 A 
BRANCH  85  88
ATOM     88  S   UNL A   1      45.622  23.721  37.202  1.00  0.00     0.127 S 
ATOM     89  O   UNL A   1      44.611  24.394  38.017  1.00  0.00    -0.237 OA
ATOM     90  O   UNL A   1      45.112  22.617  36.388  1.00  0.00    -0.237 OA
ATOM     91  O   UNL A   1      46.884  23.440  37.872  1.00  0.00    -0.744 OA
ENDBRANCH  85  88
ENDBRANCH  58  81
ENDBRANCH  32  33
ENDBRANCH  25  27
ENDBRANCH  24  25
ENDBRANCH  23  24
ENDBRANCH   1  23
TORSDOF 20
ENDMDL
