MODEL 1
REMARK VINA RESULT:     -11.5      0.000      0.000
REMARK SMILES O=C(Nc1ccc(O)c(C(=O)OCCOCCOC(=O)c2ccc(-c3c4nc(c(-c5cccc(S(=O)(=O)[O-])c5F)c5ccc([nH]5)c(-c5cccc(S(=O)(=O)[O-])c5F)c5nc(c(-c6cccc(S(=O)(=O)[O-])c6F)c6ccc3[nH]6)C=C5)C=C4)cc2)c1)c1cncc(Br)c1
REMARK SMILES IDX 16 1 15 2 14 3 13 4 12 5 10 6 11 7 9 8 4 9 5 10 84 11 6 12
REMARK SMILES IDX 7 13 3 14 1 15 2 16 85 18 86 19 91 20 87 21 89 22 88 23
REMARK SMILES IDX 90 24 8 25 17 27 18 28 19 29 20 30 21 31 22 32 83 33 23 34
REMARK SMILES IDX 82 35 24 36 25 37 26 38 76 39 27 40 81 41 75 42 77 43 28 44
REMARK SMILES IDX 80 45 74 46 73 47 29 49 61 50 41 51 60 52 42 53 45 54 59 55
REMARK SMILES IDX 78 56 43 57 44 58 58 60 79 61 46 62 30 63 31 64 39 65 32 66
REMARK SMILES IDX 34 67 40 68 33 69 35 70 36 71 37 72 38 73 62 74 63 75 71 76
REMARK SMILES IDX 64 77 66 78 72 79 65 80 67 81 68 82 69 83 70 84 47 85 48 86
REMARK SMILES IDX 56 87 49 88 51 89 57 90 50 91 52 92 53 93 54 94 55 95
REMARK H PARENT 3 17 8 26 77 48 45 59
REMARK Flexibility Score: inf
ROOT
ATOM      1  C   UNL A   1      35.801  20.557  25.004  1.00  0.00     0.202 C 
ENDROOT
BRANCH   1   2
ATOM      2  O   UNL A   1      34.816  19.553  24.752  1.00  0.00    -0.374 OA
BRANCH   2   3
ATOM      3  C   UNL A   1      33.516  20.001  24.356  1.00  0.00     0.202 C 
BRANCH   3   4
ATOM      4  C   UNL A   1      32.546  20.321  25.496  1.00  0.00     0.261 C 
BRANCH   4   5
ATOM      5  O   UNL A   1      31.423  21.051  24.985  1.00  0.00    -0.460 OA
BRANCH   5   6
ATOM      6  C   UNL A   1      31.147  22.210  25.617  1.00  0.00     0.342 C 
ATOM      7  O   UNL A   1      30.262  22.405  26.439  1.00  0.00    -0.246 OA
BRANCH   6   8
ATOM      8  C   UNL A   1      32.218  23.200  25.384  1.00  0.00     0.103 A 
ATOM      9  C   UNL A   1      33.413  24.450  23.697  1.00  0.00     0.042 A 
ATOM     10  C   UNL A   1      34.319  24.887  24.667  1.00  0.00     0.030 A 
ATOM     11  C   UNL A   1      32.328  23.665  24.065  1.00  0.00     0.045 A 
ATOM     12  C   UNL A   1      34.165  24.494  26.001  1.00  0.00     0.049 A 
ATOM     13  C   UNL A   1      33.128  23.630  26.355  1.00  0.00     0.130 A 
BRANCH   9  14
ATOM     14  N   UNL A   1      33.600  24.690  22.329  1.00  0.00    -0.322 N 
ATOM     15  O   UNL A   1      33.102  25.690  20.350  1.00  0.00    -0.269 OA
ATOM     16  C   UNL A   1      33.033  25.698  21.576  1.00  0.00     0.257 C 
ATOM     17  H   UNL A   1      34.203  24.074  21.853  1.00  0.00     0.170 HD
BRANCH  16  18
ATOM     18  C   UNL A   1      32.426  26.865  22.253  1.00  0.00     0.059 A 
ATOM     19  C   UNL A   1      33.210  27.872  22.811  1.00  0.00     0.124 A 
ATOM     20  C   UNL A   1      31.040  26.997  22.308  1.00  0.00     0.032 A 
ATOM     21  N   UNL A   1      32.705  28.936  23.480  1.00  0.00    -0.263 NA
ATOM     22  C   UNL A   1      30.500  28.084  22.986  1.00  0.00     0.037 A 
ATOM     23  C   UNL A   1      31.357  29.010  23.566  1.00  0.00     0.126 A 
ATOM     24  Br  UNL A   1      28.632  28.295  23.118  1.00  0.00    -0.049 Br
ENDBRANCH  16  18
ENDBRANCH   9  14
BRANCH  13  25
ATOM     25  O   UNL A   1      33.031  23.186  27.640  1.00  0.00    -0.507 OA
ATOM     26  H   UNL A   1      32.498  23.648  28.257  1.00  0.00     0.293 HD
ENDBRANCH  13  25
ENDBRANCH   6   8
ENDBRANCH   5   6
ENDBRANCH   4   5
ENDBRANCH   3   4
ENDBRANCH   2   3
ENDBRANCH   1   2
BRANCH   1  27
ATOM     27  C   UNL A   1      37.266  20.103  24.994  1.00  0.00     0.261 C 
BRANCH  27  28
ATOM     28  O   UNL A   1      38.180  21.205  25.120  1.00  0.00    -0.460 OA
BRANCH  28  29
ATOM     29  C   UNL A   1      39.207  20.994  25.977  1.00  0.00     0.338 C 
ATOM     30  O   UNL A   1      39.823  19.948  26.145  1.00  0.00    -0.246 OA
BRANCH  29  31
ATOM     31  C   UNL A   1      39.629  22.266  26.587  1.00  0.00     0.060 A 
ATOM     32  C   UNL A   1      38.994  23.436  26.147  1.00  0.00     0.016 A 
ATOM     33  C   UNL A   1      40.667  22.330  27.519  1.00  0.00     0.016 A 
ATOM     34  C   UNL A   1      39.431  24.679  26.598  1.00  0.00     0.010 A 
ATOM     35  C   UNL A   1      41.109  23.581  27.964  1.00  0.00     0.010 A 
ATOM     36  C   UNL A   1      40.518  24.761  27.477  1.00  0.00    -0.014 A 
BRANCH  36  37
ATOM     37  C   UNL A   1      41.117  26.082  27.777  1.00  0.00     0.031 A 
ATOM     38  C   UNL A   1      42.526  26.363  27.335  1.00  0.00     0.074 A 
ATOM     39  C   UNL A   1      40.414  27.022  28.433  1.00  0.00     0.049 A 
ATOM     40  N   UNL A   1      43.250  27.438  27.509  1.00  0.00    -0.248 NA
ATOM     41  C   UNL A   1      43.214  25.287  26.600  1.00  0.00     0.031 C 
ATOM     42  C   UNL A   1      39.043  26.866  28.917  1.00  0.00     0.029 A 
ATOM     43  N   UNL A   1      40.770  28.287  28.829  1.00  0.00    -0.354 N 
ATOM     44  C   UNL A   1      44.482  27.163  26.929  1.00  0.00     0.074 A 
ATOM     45  C   UNL A   1      44.415  25.813  26.413  1.00  0.00     0.031 C 
ATOM     46  C   UNL A   1      38.685  27.980  29.576  1.00  0.00     0.029 A 
ATOM     47  C   UNL A   1      39.806  28.919  29.577  1.00  0.00     0.049 A 
ATOM     48  H   UNL A   1      41.634  28.701  28.600  1.00  0.00     0.167 HD
ATOM     49  C   UNL A   1      45.566  27.968  26.816  1.00  0.00     0.034 A 
ATOM     50  C   UNL A   1      39.834  30.110  30.208  1.00  0.00     0.034 A 
ATOM     51  C   UNL A   1      45.625  29.315  27.315  1.00  0.00     0.049 A 
ATOM     52  C   UNL A   1      41.056  30.982  30.083  1.00  0.00     0.074 A 
ATOM     53  C   UNL A   1      46.663  30.226  27.212  1.00  0.00     0.029 A 
ATOM     54  N   UNL A   1      44.610  29.944  28.019  1.00  0.00    -0.354 N 
ATOM     55  N   UNL A   1      42.167  30.756  29.425  1.00  0.00    -0.248 NA
ATOM     56  C   UNL A   1      41.013  32.289  30.755  1.00  0.00     0.031 C 
ATOM     57  C   UNL A   1      46.281  31.399  27.875  1.00  0.00     0.029 A 
ATOM     58  C   UNL A   1      44.997  31.226  28.367  1.00  0.00     0.049 A 
ATOM     59  H   UNL A   1      43.740  29.537  28.239  1.00  0.00     0.167 HD
ATOM     60  C   UNL A   1      42.942  31.902  29.577  1.00  0.00     0.074 A 
ATOM     61  C   UNL A   1      42.163  32.829  30.371  1.00  0.00     0.031 C 
ATOM     62  C   UNL A   1      44.191  32.158  29.114  1.00  0.00     0.034 A 
BRANCH  49  63
ATOM     63  C   UNL A   1      46.768  27.419  26.094  1.00  0.00     0.023 A 
ATOM     64  C   UNL A   1      46.877  27.591  24.699  1.00  0.00     0.012 A 
ATOM     65  C   UNL A   1      47.806  26.776  26.795  1.00  0.00     0.148 A 
ATOM     66  C   UNL A   1      47.985  27.102  24.008  1.00  0.00     0.002 A 
ATOM     67  C   UNL A   1      48.927  26.328  26.105  1.00  0.00     0.091 A 
ATOM     68  F   UNL A   1      47.672  26.598  28.117  1.00  0.00    -0.205 F 
ATOM     69  C   UNL A   1      49.014  26.481  24.711  1.00  0.00     0.022 A 
BRANCH  67  70
ATOM     70  S   UNL A   1      50.335  25.580  26.932  1.00  0.00     0.127 S 
ATOM     71  O   UNL A   1      51.242  25.339  25.810  1.00  0.00    -0.237 OA
ATOM     72  O   UNL A   1      50.761  26.643  27.842  1.00  0.00    -0.237 OA
ATOM     73  O   UNL A   1      49.824  24.387  27.592  1.00  0.00    -0.744 OA
ENDBRANCH  67  70
ENDBRANCH  49  63
BRANCH  50  74
ATOM     74  C   UNL A   1      38.648  30.558  30.990  1.00  0.00     0.023 A 
ATOM     75  C   UNL A   1      38.590  30.308  32.374  1.00  0.00     0.012 A 
ATOM     76  C   UNL A   1      37.592  31.256  30.372  1.00  0.00     0.148 A 
ATOM     77  C   UNL A   1      37.489  30.722  33.125  1.00  0.00     0.002 A 
ATOM     78  C   UNL A   1      36.525  31.715  31.135  1.00  0.00     0.091 A 
ATOM     79  F   UNL A   1      37.658  31.466  29.049  1.00  0.00    -0.205 F 
ATOM     80  C   UNL A   1      36.463  31.436  32.508  1.00  0.00     0.022 A 
BRANCH  78  81
ATOM     81  S   UNL A   1      35.229  32.751  30.447  1.00  0.00     0.127 S 
ATOM     82  O   UNL A   1      35.982  33.926  30.017  1.00  0.00    -0.237 OA
ATOM     83  O   UNL A   1      34.718  31.915  29.360  1.00  0.00    -0.237 OA
ATOM     84  O   UNL A   1      34.282  32.967  31.532  1.00  0.00    -0.744 OA
ENDBRANCH  78  81
ENDBRANCH  50  74
BRANCH  62  85
ATOM     85  C   UNL A   1      44.791  33.505  29.424  1.00  0.00     0.023 A 
ATOM     86  C   UNL A   1      45.500  33.695  30.627  1.00  0.00     0.012 A 
ATOM     87  C   UNL A   1      44.722  34.558  28.490  1.00  0.00     0.148 A 
ATOM     88  C   UNL A   1      46.105  34.919  30.908  1.00  0.00     0.002 A 
ATOM     89  C   UNL A   1      45.366  35.760  28.757  1.00  0.00     0.091 A 
ATOM     90  F   UNL A   1      44.028  34.365  27.359  1.00  0.00    -0.205 F 
ATOM     91  C   UNL A   1      46.049  35.947  29.971  1.00  0.00     0.022 A 
BRANCH  89  92
ATOM     92  S   UNL A   1      45.426  37.105  27.566  1.00  0.00     0.127 S 
ATOM     93  O   UNL A   1      46.250  38.087  28.268  1.00  0.00    -0.237 OA
ATOM     94  O   UNL A   1      46.074  36.474  26.416  1.00  0.00    -0.237 OA
ATOM     95  O   UNL A   1      44.041  37.497  27.337  1.00  0.00    -0.744 OA
ENDBRANCH  89  92
ENDBRANCH  62  85
ENDBRANCH  36  37
ENDBRANCH  29  31
ENDBRANCH  28  29
ENDBRANCH  27  28
ENDBRANCH   1  27
TORSDOF 20
ENDMDL
MODEL 2
REMARK VINA RESULT:     -11.4      0.998      7.750
REMARK SMILES O=C(Nc1ccc(O)c(C(=O)OCCOCCOC(=O)c2ccc(-c3c4nc(c(-c5cccc(S(=O)(=O)[O-])c5F)c5ccc([nH]5)c(-c5cccc(S(=O)(=O)[O-])c5F)c5nc(c(-c6cccc(S(=O)(=O)[O-])c6F)c6ccc3[nH]6)C=C5)C=C4)cc2)c1)c1cncc(Br)c1
REMARK SMILES IDX 16 1 15 2 14 3 13 4 12 5 10 6 11 7 9 8 4 9 5 10 84 11 6 12
REMARK SMILES IDX 7 13 3 14 1 15 2 16 85 18 86 19 91 20 87 21 89 22 88 23
REMARK SMILES IDX 90 24 8 25 17 27 18 28 19 29 20 30 21 31 22 32 83 33 23 34
REMARK SMILES IDX 82 35 24 36 25 37 26 38 76 39 27 40 81 41 75 42 77 43 28 44
REMARK SMILES IDX 80 45 74 46 73 47 29 49 61 50 41 51 60 52 42 53 45 54 59 55
REMARK SMILES IDX 78 56 43 57 44 58 58 60 79 61 46 62 30 63 31 64 39 65 32 66
REMARK SMILES IDX 34 67 40 68 33 69 35 70 36 71 37 72 38 73 62 74 63 75 71 76
REMARK SMILES IDX 64 77 66 78 72 79 65 80 67 81 68 82 69 83 70 84 47 85 48 86
REMARK SMILES IDX 56 87 49 88 51 89 57 90 50 91 52 92 53 93 54 94 55 95
REMARK H PARENT 3 17 8 26 77 48 45 59
REMARK Flexibility Score: inf
ROOT
ATOM      1  C   UNL A   1      35.711  20.225  24.898  1.00  0.00     0.202 C 
ENDROOT
BRANCH   1   2
ATOM      2  O   UNL A   1      34.926  19.038  24.779  1.00  0.00    -0.374 OA
BRANCH   2   3
ATOM      3  C   UNL A   1      33.592  19.186  24.280  1.00  0.00     0.202 C 
BRANCH   3   4
ATOM      4  C   UNL A   1      32.554  19.677  25.291  1.00  0.00     0.261 C 
BRANCH   4   5
ATOM      5  O   UNL A   1      31.778  20.734  24.712  1.00  0.00    -0.460 OA
BRANCH   5   6
ATOM      6  C   UNL A   1      31.531  21.784  25.522  1.00  0.00     0.342 C 
ATOM      7  O   UNL A   1      30.589  21.914  26.292  1.00  0.00    -0.246 OA
BRANCH   6   8
ATOM      8  C   UNL A   1      32.693  22.697  25.561  1.00  0.00     0.103 A 
ATOM      9  C   UNL A   1      33.998  24.280  24.284  1.00  0.00     0.042 A 
ATOM     10  C   UNL A   1      34.944  24.322  25.312  1.00  0.00     0.030 A 
ATOM     11  C   UNL A   1      32.844  23.523  24.436  1.00  0.00     0.045 A 
ATOM     12  C   UNL A   1      34.756  23.565  26.473  1.00  0.00     0.049 A 
ATOM     13  C   UNL A   1      33.642  22.732  26.587  1.00  0.00     0.130 A 
BRANCH   9  14
ATOM     14  N   UNL A   1      34.204  24.899  23.044  1.00  0.00    -0.322 N 
ATOM     15  O   UNL A   1      33.699  26.385  21.401  1.00  0.00    -0.269 OA
ATOM     16  C   UNL A   1      33.599  26.048  22.577  1.00  0.00     0.257 C 
ATOM     17  H   UNL A   1      34.852  24.468  22.441  1.00  0.00     0.170 HD
BRANCH  16  18
ATOM     18  C   UNL A   1      32.912  26.951  23.526  1.00  0.00     0.059 A 
ATOM     19  C   UNL A   1      31.532  27.141  23.482  1.00  0.00     0.124 A 
ATOM     20  C   UNL A   1      33.639  27.604  24.519  1.00  0.00     0.032 A 
ATOM     21  N   UNL A   1      30.863  27.989  24.298  1.00  0.00    -0.263 NA
ATOM     22  C   UNL A   1      32.971  28.477  25.370  1.00  0.00     0.037 A 
ATOM     23  C   UNL A   1      31.602  28.652  25.217  1.00  0.00     0.126 A 
ATOM     24  Br  UNL A   1      33.912  29.411  26.710  1.00  0.00    -0.049 Br
ENDBRANCH  16  18
ENDBRANCH   9  14
BRANCH  13  25
ATOM     25  O   UNL A   1      33.505  21.936  27.684  1.00  0.00    -0.507 OA
ATOM     26  H   UNL A   1      33.959  22.148  28.476  1.00  0.00     0.293 HD
ENDBRANCH  13  25
ENDBRANCH   6   8
ENDBRANCH   5   6
ENDBRANCH   4   5
ENDBRANCH   3   4
ENDBRANCH   2   3
ENDBRANCH   1   2
BRANCH   1  27
ATOM     27  C   UNL A   1      37.233  20.042  24.954  1.00  0.00     0.261 C 
BRANCH  27  28
ATOM     28  O   UNL A   1      37.911  21.232  25.392  1.00  0.00    -0.460 OA
BRANCH  28  29
ATOM     29  C   UNL A   1      39.087  21.013  26.025  1.00  0.00     0.338 C 
ATOM     30  O   UNL A   1      39.742  19.978  26.025  1.00  0.00    -0.246 OA
BRANCH  29  31
ATOM     31  C   UNL A   1      39.596  22.271  26.599  1.00  0.00     0.060 A 
ATOM     32  C   UNL A   1      39.030  23.467  26.138  1.00  0.00     0.016 A 
ATOM     33  C   UNL A   1      40.649  22.291  27.517  1.00  0.00     0.016 A 
ATOM     34  C   UNL A   1      39.549  24.690  26.553  1.00  0.00     0.010 A 
ATOM     35  C   UNL A   1      41.173  23.522  27.927  1.00  0.00     0.010 A 
ATOM     36  C   UNL A   1      40.650  24.725  27.417  1.00  0.00    -0.014 A 
BRANCH  36  37
ATOM     37  C   UNL A   1      41.336  26.012  27.678  1.00  0.00     0.031 A 
ATOM     38  C   UNL A   1      40.624  27.072  28.472  1.00  0.00     0.074 A 
ATOM     39  C   UNL A   1      42.579  26.235  27.216  1.00  0.00     0.049 A 
ATOM     40  N   UNL A   1      41.026  28.272  28.798  1.00  0.00    -0.248 NA
ATOM     41  C   UNL A   1      39.276  26.735  28.962  1.00  0.00     0.031 C 
ATOM     42  C   UNL A   1      43.368  25.287  26.431  1.00  0.00     0.029 A 
ATOM     43  N   UNL A   1      43.383  27.342  27.319  1.00  0.00    -0.354 N 
ATOM     44  C   UNL A   1      39.978  28.843  29.510  1.00  0.00     0.074 A 
ATOM     45  C   UNL A   1      38.913  27.864  29.552  1.00  0.00     0.031 C 
ATOM     46  C   UNL A   1      44.532  25.867  26.093  1.00  0.00     0.029 A 
ATOM     47  C   UNL A   1      44.561  27.230  26.621  1.00  0.00     0.049 A 
ATOM     48  H   UNL A   1      43.139  28.139  27.843  1.00  0.00     0.167 HD
ATOM     49  C   UNL A   1      39.913  30.063  30.094  1.00  0.00     0.034 A 
ATOM     50  C   UNL A   1      45.541  28.133  26.414  1.00  0.00     0.034 A 
ATOM     51  C   UNL A   1      40.978  31.029  30.065  1.00  0.00     0.049 A 
ATOM     52  C   UNL A   1      45.441  29.490  27.060  1.00  0.00     0.074 A 
ATOM     53  C   UNL A   1      41.025  32.276  30.662  1.00  0.00     0.029 A 
ATOM     54  N   UNL A   1      42.180  30.861  29.395  1.00  0.00    -0.354 N 
ATOM     55  N   UNL A   1      44.496  29.969  27.833  1.00  0.00    -0.248 NA
ATOM     56  C   UNL A   1      46.559  30.418  26.835  1.00  0.00     0.031 C 
ATOM     57  C   UNL A   1      42.249  32.871  30.335  1.00  0.00     0.029 A 
ATOM     58  C   UNL A   1      42.973  31.984  29.555  1.00  0.00     0.049 A 
ATOM     59  H   UNL A   1      42.433  30.059  28.881  1.00  0.00     0.167 HD
ATOM     60  C   UNL A   1      44.918  31.239  28.212  1.00  0.00     0.074 A 
ATOM     61  C   UNL A   1      46.216  31.446  27.602  1.00  0.00     0.031 C 
ATOM     62  C   UNL A   1      44.285  32.156  28.984  1.00  0.00     0.034 A 
BRANCH  49  63
ATOM     63  C   UNL A   1      38.654  30.410  30.844  1.00  0.00     0.023 A 
ATOM     64  C   UNL A   1      38.512  30.002  32.186  1.00  0.00     0.012 A 
ATOM     65  C   UNL A   1      37.634  31.171  30.241  1.00  0.00     0.148 A 
ATOM     66  C   UNL A   1      37.362  30.319  32.907  1.00  0.00     0.002 A 
ATOM     67  C   UNL A   1      36.508  31.519  30.980  1.00  0.00     0.091 A 
ATOM     68  F   UNL A   1      37.775  31.527  28.957  1.00  0.00    -0.205 F 
ATOM     69  C   UNL A   1      36.366  31.086  32.309  1.00  0.00     0.022 A 
BRANCH  67  70
ATOM     70  S   UNL A   1      35.205  32.563  30.319  1.00  0.00     0.127 S 
ATOM     71  O   UNL A   1      34.293  32.655  31.459  1.00  0.00    -0.237 OA
ATOM     72  O   UNL A   1      35.924  33.800  30.013  1.00  0.00    -0.237 OA
ATOM     73  O   UNL A   1      34.683  31.862  29.154  1.00  0.00    -0.744 OA
ENDBRANCH  67  70
ENDBRANCH  49  63
BRANCH  50  74
ATOM     74  C   UNL A   1      46.719  27.765  25.580  1.00  0.00     0.023 A 
ATOM     75  C   UNL A   1      46.689  27.991  24.191  1.00  0.00     0.012 A 
ATOM     76  C   UNL A   1      47.880  27.218  26.163  1.00  0.00     0.148 A 
ATOM     77  C   UNL A   1      47.783  27.657  23.393  1.00  0.00     0.002 A 
ATOM     78  C   UNL A   1      48.986  26.938  25.370  1.00  0.00     0.091 A 
ATOM     79  F   UNL A   1      47.880  26.991  27.484  1.00  0.00    -0.205 F 
ATOM     80  C   UNL A   1      48.935  27.142  23.983  1.00  0.00     0.022 A 
BRANCH  78  81
ATOM     81  S   UNL A   1      50.552  26.397  26.066  1.00  0.00     0.127 S 
ATOM     82  O   UNL A   1      50.930  27.547  26.883  1.00  0.00    -0.237 OA
ATOM     83  O   UNL A   1      50.153  25.208  26.821  1.00  0.00    -0.237 OA
ATOM     84  O   UNL A   1      51.413  26.120  24.924  1.00  0.00    -0.744 OA
ENDBRANCH  78  81
ENDBRANCH  50  74
BRANCH  62  85
ATOM     85  C   UNL A   1      44.991  33.462  29.244  1.00  0.00     0.023 A 
ATOM     86  C   UNL A   1      45.809  33.601  30.382  1.00  0.00     0.012 A 
ATOM     87  C   UNL A   1      44.908  34.523  28.320  1.00  0.00     0.148 A 
ATOM     88  C   UNL A   1      46.510  34.784  30.612  1.00  0.00     0.002 A 
ATOM     89  C   UNL A   1      45.644  35.682  28.531  1.00  0.00     0.091 A 
ATOM     90  F   UNL A   1      44.109  34.380  27.251  1.00  0.00    -0.205 F 
ATOM     91  C   UNL A   1      46.438  35.820  29.683  1.00  0.00     0.022 A 
BRANCH  89  92
ATOM     92  S   UNL A   1      45.685  37.028  27.342  1.00  0.00     0.127 S 
ATOM     93  O   UNL A   1      44.281  37.431  27.299  1.00  0.00    -0.237 OA
ATOM     94  O   UNL A   1      46.577  37.990  27.990  1.00  0.00    -0.237 OA
ATOM     95  O   UNL A   1      46.211  36.456  26.109  1.00  0.00    -0.744 OA
ENDBRANCH  89  92
ENDBRANCH  62  85
ENDBRANCH  36  37
ENDBRANCH  29  31
ENDBRANCH  28  29
ENDBRANCH  27  28
ENDBRANCH   1  27
TORSDOF 20
ENDMDL
MODEL 3
REMARK VINA RESULT:     -11.2      1.948      2.382
REMARK SMILES O=C(Nc1ccc(O)c(C(=O)OCCOCCOC(=O)c2ccc(-c3c4nc(c(-c5cccc(S(=O)(=O)[O-])c5F)c5ccc([nH]5)c(-c5cccc(S(=O)(=O)[O-])c5F)c5nc(c(-c6cccc(S(=O)(=O)[O-])c6F)c6ccc3[nH]6)C=C5)C=C4)cc2)c1)c1cncc(Br)c1
REMARK SMILES IDX 16 1 15 2 14 3 13 4 12 5 10 6 11 7 9 8 4 9 5 10 84 11 6 12
REMARK SMILES IDX 7 13 3 14 1 15 2 16 85 18 86 19 91 20 87 21 89 22 88 23
REMARK SMILES IDX 90 24 8 25 17 27 18 28 19 29 20 30 21 31 22 32 83 33 23 34
REMARK SMILES IDX 82 35 24 36 25 37 26 38 76 39 27 40 81 41 75 42 77 43 28 44
REMARK SMILES IDX 80 45 74 46 73 47 29 49 61 50 41 51 60 52 42 53 45 54 59 55
REMARK SMILES IDX 78 56 43 57 44 58 58 60 79 61 46 62 30 63 31 64 39 65 32 66
REMARK SMILES IDX 34 67 40 68 33 69 35 70 36 71 37 72 38 73 62 74 63 75 71 76
REMARK SMILES IDX 64 77 66 78 72 79 65 80 67 81 68 82 69 83 70 84 47 85 48 86
REMARK SMILES IDX 56 87 49 88 51 89 57 90 50 91 52 92 53 93 54 94 55 95
REMARK H PARENT 3 17 8 26 77 48 45 59
REMARK Flexibility Score: inf
ROOT
ATOM      1  C   UNL A   1      36.254  19.991  24.651  1.00  0.00     0.202 C 
ENDROOT
BRANCH   1   2
ATOM      2  O   UNL A   1      35.653  21.196  25.129  1.00  0.00    -0.374 OA
BRANCH   2   3
ATOM      3  C   UNL A   1      34.376  21.080  25.764  1.00  0.00     0.202 C 
BRANCH   3   4
ATOM      4  C   UNL A   1      33.270  21.977  25.204  1.00  0.00     0.261 C 
BRANCH   4   5
ATOM      5  O   UNL A   1      33.358  23.279  25.796  1.00  0.00    -0.460 OA
BRANCH   5   6
ATOM      6  C   UNL A   1      32.256  23.694  26.454  1.00  0.00     0.342 C 
ATOM      7  O   UNL A   1      31.979  23.487  27.628  1.00  0.00    -0.246 OA
BRANCH   6   8
ATOM      8  C   UNL A   1      31.499  24.670  25.642  1.00  0.00     0.103 A 
ATOM      9  C   UNL A   1      31.671  26.348  23.913  1.00  0.00     0.042 A 
ATOM     10  C   UNL A   1      30.342  26.715  24.142  1.00  0.00     0.030 A 
ATOM     11  C   UNL A   1      32.227  25.285  24.612  1.00  0.00     0.045 A 
ATOM     12  C   UNL A   1      29.585  26.048  25.111  1.00  0.00     0.049 A 
ATOM     13  C   UNL A   1      30.172  25.040  25.879  1.00  0.00     0.130 A 
BRANCH   9  14
ATOM     14  N   UNL A   1      32.517  27.074  23.064  1.00  0.00    -0.322 N 
ATOM     15  O   UNL A   1      33.576  28.962  22.372  1.00  0.00    -0.269 OA
ATOM     16  C   UNL A   1      33.015  28.345  23.273  1.00  0.00     0.257 C 
ATOM     17  H   UNL A   1      32.787  26.630  22.228  1.00  0.00     0.170 HD
BRANCH  16  18
ATOM     18  C   UNL A   1      32.973  28.933  24.629  1.00  0.00     0.059 A 
ATOM     19  C   UNL A   1      31.833  29.571  25.113  1.00  0.00     0.124 A 
ATOM     20  C   UNL A   1      34.078  28.821  25.472  1.00  0.00     0.032 A 
ATOM     21  N   UNL A   1      31.760  30.164  26.328  1.00  0.00    -0.263 NA
ATOM     22  C   UNL A   1      34.023  29.419  26.726  1.00  0.00     0.037 A 
ATOM     23  C   UNL A   1      32.866  30.087  27.103  1.00  0.00     0.126 A 
ATOM     24  Br  UNL A   1      35.499  29.325  27.893  1.00  0.00    -0.049 Br
ENDBRANCH  16  18
ENDBRANCH   9  14
BRANCH  13  25
ATOM     25  O   UNL A   1      29.455  24.450  26.876  1.00  0.00    -0.507 OA
ATOM     26  H   UNL A   1      29.268  24.923  27.663  1.00  0.00     0.293 HD
ENDBRANCH  13  25
ENDBRANCH   6   8
ENDBRANCH   5   6
ENDBRANCH   4   5
ENDBRANCH   3   4
ENDBRANCH   2   3
ENDBRANCH   1   2
BRANCH   1  27
ATOM     27  C   UNL A   1      37.715  19.746  25.046  1.00  0.00     0.261 C 
BRANCH  27  28
ATOM     28  O   UNL A   1      38.417  20.967  25.332  1.00  0.00    -0.460 OA
BRANCH  28  29
ATOM     29  C   UNL A   1      39.525  20.818  26.096  1.00  0.00     0.338 C 
ATOM     30  O   UNL A   1      40.213  19.811  26.207  1.00  0.00    -0.246 OA
BRANCH  29  31
ATOM     31  C   UNL A   1      39.923  22.115  26.671  1.00  0.00     0.060 A 
ATOM     32  C   UNL A   1      39.270  23.260  26.195  1.00  0.00     0.016 A 
ATOM     33  C   UNL A   1      40.955  22.223  27.605  1.00  0.00     0.016 A 
ATOM     34  C   UNL A   1      39.684  24.523  26.611  1.00  0.00     0.010 A 
ATOM     35  C   UNL A   1      41.374  23.494  28.016  1.00  0.00     0.010 A 
ATOM     36  C   UNL A   1      40.765  24.648  27.492  1.00  0.00    -0.014 A 
BRANCH  36  37
ATOM     37  C   UNL A   1      41.341  25.988  27.756  1.00  0.00     0.031 A 
ATOM     38  C   UNL A   1      42.735  26.292  27.281  1.00  0.00     0.074 A 
ATOM     39  C   UNL A   1      40.630  26.925  28.409  1.00  0.00     0.049 A 
ATOM     40  N   UNL A   1      43.438  27.384  27.422  1.00  0.00    -0.248 NA
ATOM     41  C   UNL A   1      43.431  25.217  26.552  1.00  0.00     0.031 C 
ATOM     42  C   UNL A   1      39.273  26.747  28.923  1.00  0.00     0.029 A 
ATOM     43  N   UNL A   1      40.966  28.203  28.776  1.00  0.00    -0.354 N 
ATOM     44  C   UNL A   1      44.664  27.126  26.822  1.00  0.00     0.074 A 
ATOM     45  C   UNL A   1      44.617  25.766  26.331  1.00  0.00     0.031 C 
ATOM     46  C   UNL A   1      38.904  27.866  29.569  1.00  0.00     0.029 A 
ATOM     47  C   UNL A   1      40.004  28.829  29.530  1.00  0.00     0.049 A 
ATOM     48  H   UNL A   1      41.816  28.632  28.521  1.00  0.00     0.167 HD
ATOM     49  C   UNL A   1      45.727  27.952  26.673  1.00  0.00     0.034 A 
ATOM     50  C   UNL A   1      40.017  30.031  30.139  1.00  0.00     0.034 A 
ATOM     51  C   UNL A   1      45.767  29.309  27.146  1.00  0.00     0.049 A 
ATOM     52  C   UNL A   1      41.217  30.927  29.974  1.00  0.00     0.074 A 
ATOM     53  C   UNL A   1      46.782  30.240  27.006  1.00  0.00     0.029 A 
ATOM     54  N   UNL A   1      44.752  29.928  27.859  1.00  0.00    -0.354 N 
ATOM     55  N   UNL A   1      42.320  30.714  29.298  1.00  0.00    -0.248 NA
ATOM     56  C   UNL A   1      41.158  32.245  30.624  1.00  0.00     0.031 C 
ATOM     57  C   UNL A   1      46.387  31.416  27.655  1.00  0.00     0.029 A 
ATOM     58  C   UNL A   1      45.117  31.225  28.176  1.00  0.00     0.049 A 
ATOM     59  H   UNL A   1      43.895  29.507  28.103  1.00  0.00     0.167 HD
ATOM     60  C   UNL A   1      43.072  31.878  29.414  1.00  0.00     0.074 A 
ATOM     61  C   UNL A   1      42.288  32.803  30.207  1.00  0.00     0.031 C 
ATOM     62  C   UNL A   1      44.306  32.153  28.922  1.00  0.00     0.034 A 
BRANCH  49  63
ATOM     63  C   UNL A   1      46.927  27.416  25.937  1.00  0.00     0.023 A 
ATOM     64  C   UNL A   1      47.816  26.547  26.601  1.00  0.00     0.012 A 
ATOM     65  C   UNL A   1      47.152  27.734  24.584  1.00  0.00     0.148 A 
ATOM     66  C   UNL A   1      48.929  26.028  25.940  1.00  0.00     0.002 A 
ATOM     67  C   UNL A   1      48.240  27.179  23.919  1.00  0.00     0.091 A 
ATOM     68  F   UNL A   1      46.310  28.582  23.977  1.00  0.00    -0.205 F 
ATOM     69  C   UNL A   1      49.134  26.334  24.598  1.00  0.00     0.022 A 
BRANCH  67  70
ATOM     70  S   UNL A   1      48.548  27.458  22.172  1.00  0.00     0.127 S 
ATOM     71  O   UNL A   1      49.808  28.199  22.208  1.00  0.00    -0.237 OA
ATOM     72  O   UNL A   1      48.658  26.094  21.655  1.00  0.00    -0.237 OA
ATOM     73  O   UNL A   1      47.398  28.202  21.677  1.00  0.00    -0.744 OA
ENDBRANCH  67  70
ENDBRANCH  49  63
BRANCH  50  74
ATOM     74  C   UNL A   1      38.837  30.468  30.937  1.00  0.00     0.023 A 
ATOM     75  C   UNL A   1      38.729  30.088  32.288  1.00  0.00     0.012 A 
ATOM     76  C   UNL A   1      37.837  31.282  30.369  1.00  0.00     0.148 A 
ATOM     77  C   UNL A   1      37.633  30.489  33.053  1.00  0.00     0.002 A 
ATOM     78  C   UNL A   1      36.778  31.724  31.151  1.00  0.00     0.091 A 
ATOM     79  F   UNL A   1      37.950  31.615  29.075  1.00  0.00    -0.205 F 
ATOM     80  C   UNL A   1      36.664  31.317  32.488  1.00  0.00     0.022 A 
BRANCH  78  81
ATOM     81  S   UNL A   1      35.559  32.895  30.541  1.00  0.00     0.127 S 
ATOM     82  O   UNL A   1      36.259  34.166  30.703  1.00  0.00    -0.237 OA
ATOM     83  O   UNL A   1      35.386  32.458  29.156  1.00  0.00    -0.237 OA
ATOM     84  O   UNL A   1      34.382  32.708  31.379  1.00  0.00    -0.744 OA
ENDBRANCH  78  81
ENDBRANCH  50  74
BRANCH  62  85
ATOM     85  C   UNL A   1      44.882  33.518  29.196  1.00  0.00     0.023 A 
ATOM     86  C   UNL A   1      45.619  33.742  30.375  1.00  0.00     0.012 A 
ATOM     87  C   UNL A   1      44.763  34.554  28.249  1.00  0.00     0.148 A 
ATOM     88  C   UNL A   1      46.203  34.984  30.622  1.00  0.00     0.002 A 
ATOM     89  C   UNL A   1      45.385  35.775  28.480  1.00  0.00     0.091 A 
ATOM     90  F   UNL A   1      44.042  34.329  27.140  1.00  0.00    -0.205 F 
ATOM     91  C   UNL A   1      46.096  35.997  29.671  1.00  0.00     0.022 A 
BRANCH  89  92
ATOM     92  S   UNL A   1      45.380  37.103  27.269  1.00  0.00     0.127 S 
ATOM     93  O   UNL A   1      46.112  38.153  27.975  1.00  0.00    -0.237 OA
ATOM     94  O   UNL A   1      46.104  36.504  26.146  1.00  0.00    -0.237 OA
ATOM     95  O   UNL A   1      43.978  37.390  26.997  1.00  0.00    -0.744 OA
ENDBRANCH  89  92
ENDBRANCH  62  85
ENDBRANCH  36  37
ENDBRANCH  29  31
ENDBRANCH  28  29
ENDBRANCH  27  28
ENDBRANCH   1  27
TORSDOF 20
ENDMDL
