MODEL 1
REMARK VINA RESULT:     -11.4      0.000      0.000
REMARK SMILES C[C@H](C(=O)OCCOCCOC(=O)c1ccc(-c2c3nc(c(-c4cccc(S(=O)(=O)[O-])c4F)c4ccc([nH]4)c(-c4cccc(S(=O)(=O)[O-])c4F)c4nc(c(-c5cccc(S(=O)(=O)[O-])c5F)c5ccc2[nH]5)C=C4)C=C3)cc1)c1ccc2c3cc(Cl)ccc3n(C(=O)c3ccc(Cl)cc3)c2c1
REMARK SMILES IDX 8 1 7 2 6 3 5 4 3 5 4 6 2 7 1 8 77 9 78 10 99 11 79 12 98 13
REMARK SMILES IDX 80 14 88 15 81 16 87 17 82 18 86 19 83 20 85 21 84 22 89 23
REMARK SMILES IDX 90 24 91 25 92 26 97 27 93 28 96 29 94 30 95 31 9 32 10 33
REMARK SMILES IDX 11 34 12 35 13 36 14 37 15 38 76 39 16 40 75 41 17 42 18 43
REMARK SMILES IDX 19 44 69 45 20 46 74 47 68 48 70 49 21 50 73 51 67 52 66 53
REMARK SMILES IDX 22 55 54 56 34 57 53 58 35 59 38 60 52 61 71 62 36 63 37 64
REMARK SMILES IDX 51 66 72 67 39 68 23 69 24 70 32 71 25 72 27 73 33 74 26 75
REMARK SMILES IDX 28 76 29 77 30 78 31 79 55 80 56 81 64 82 57 83 59 84 65 85
REMARK SMILES IDX 58 86 60 87 61 88 62 89 63 90 40 91 41 92 49 93 42 94 44 95
REMARK SMILES IDX 50 96 43 97 45 98 46 99 47 100 48 101
REMARK H PARENT 70 54 38 65
REMARK Flexibility Score: inf
ROOT
ATOM      1  O   UNL A   1      31.739  28.884  25.679  1.00  0.00    -0.374 OA
ENDROOT
BRANCH   1   2
ATOM      2  C   UNL A   1      30.983  29.208  24.514  1.00  0.00     0.202 C 
BRANCH   2   3
ATOM      3  C   UNL A   1      30.992  28.208  23.350  1.00  0.00     0.261 C 
BRANCH   3   4
ATOM      4  O   UNL A   1      30.344  26.959  23.648  1.00  0.00    -0.463 OA
BRANCH   4   5
ATOM      5  C   UNL A   1      31.123  25.850  23.513  1.00  0.00     0.313 C 
ATOM      6  O   UNL A   1      31.384  25.322  22.435  1.00  0.00    -0.252 OA
BRANCH   5   7
ATOM      7  C   UNL A   1      31.610  25.277  24.844  1.00  0.00     0.126 C 
ATOM      8  C   UNL A   1      30.618  25.662  25.951  1.00  0.00     0.025 C 
BRANCH   7   9
ATOM      9  C   UNL A   1      31.927  23.781  24.874  1.00  0.00    -0.032 A 
ATOM     10  C   UNL A   1      31.035  22.818  25.356  1.00  0.00     0.005 A 
ATOM     11  C   UNL A   1      33.193  23.358  24.442  1.00  0.00     0.032 A 
ATOM     12  C   UNL A   1      31.351  21.452  25.339  1.00  0.00     0.011 A 
ATOM     13  C   UNL A   1      33.558  21.999  24.553  1.00  0.00     0.057 A 
ATOM     14  C   UNL A   1      32.632  21.035  24.926  1.00  0.00     0.008 A 
ATOM     15  N   UNL A   1      34.800  21.371  24.358  1.00  0.00    -0.276 N 
ATOM     16  C   UNL A   1      33.267  19.769  24.814  1.00  0.00     0.009 A 
ATOM     17  C   UNL A   1      34.629  19.992  24.556  1.00  0.00     0.057 A 
ATOM     18  C   UNL A   1      32.794  18.449  24.997  1.00  0.00     0.031 A 
ATOM     19  C   UNL A   1      35.542  18.920  24.630  1.00  0.00     0.029 A 
ATOM     20  C   UNL A   1      33.694  17.389  24.984  1.00  0.00     0.041 A 
ATOM     21  C   UNL A   1      35.053  17.621  24.829  1.00  0.00     0.023 A 
ATOM     22  Cl  UNL A   1      33.117  15.784  25.222  1.00  0.00    -0.084 Cl
BRANCH  15  23
ATOM     23  C   UNL A   1      35.993  22.111  24.152  1.00  0.00     0.262 C 
ATOM     24  O   UNL A   1      36.127  22.581  23.018  1.00  0.00    -0.268 OA
BRANCH  23  25
ATOM     25  C   UNL A   1      37.110  22.403  25.097  1.00  0.00     0.040 A 
ATOM     26  C   UNL A   1      37.106  23.676  25.704  1.00  0.00     0.015 A 
ATOM     27  C   UNL A   1      38.199  21.558  25.332  1.00  0.00     0.015 A 
ATOM     28  C   UNL A   1      38.133  24.082  26.556  1.00  0.00     0.021 A 
ATOM     29  C   UNL A   1      39.213  21.951  26.222  1.00  0.00     0.021 A 
ATOM     30  C   UNL A   1      39.175  23.207  26.829  1.00  0.00     0.041 A 
ATOM     31  Cl  UNL A   1      40.421  23.682  27.913  1.00  0.00    -0.084 Cl
ENDBRANCH  23  25
ENDBRANCH  15  23
ENDBRANCH   7   9
ENDBRANCH   5   7
ENDBRANCH   4   5
ENDBRANCH   3   4
ENDBRANCH   2   3
ENDBRANCH   1   2
BRANCH   1  32
ATOM     32  C   UNL A   1      32.808  29.765  26.019  1.00  0.00     0.202 C 
BRANCH  32  33
ATOM     33  C   UNL A   1      32.442  31.190  26.452  1.00  0.00     0.261 C 
BRANCH  33  34
ATOM     34  O   UNL A   1      32.982  31.526  27.741  1.00  0.00    -0.460 OA
BRANCH  34  35
ATOM     35  C   UNL A   1      33.906  32.513  27.721  1.00  0.00     0.338 C 
ATOM     36  O   UNL A   1      33.696  33.716  27.605  1.00  0.00    -0.246 OA
BRANCH  35  37
ATOM     37  C   UNL A   1      35.241  31.988  28.050  1.00  0.00     0.060 A 
ATOM     38  C   UNL A   1      35.345  30.607  28.267  1.00  0.00     0.016 A 
ATOM     39  C   UNL A   1      36.338  32.826  28.259  1.00  0.00     0.016 A 
ATOM     40  C   UNL A   1      36.527  30.068  28.763  1.00  0.00     0.010 A 
ATOM     41  C   UNL A   1      37.524  32.281  28.764  1.00  0.00     0.010 A 
ATOM     42  C   UNL A   1      37.607  30.907  29.063  1.00  0.00    -0.014 A 
BRANCH  42  43
ATOM     43  C   UNL A   1      38.757  30.361  29.825  1.00  0.00     0.031 A 
ATOM     44  C   UNL A   1      38.850  30.632  31.303  1.00  0.00     0.074 A 
ATOM     45  C   UNL A   1      39.687  29.604  29.216  1.00  0.00     0.049 A 
ATOM     46  N   UNL A   1      39.756  30.240  32.160  1.00  0.00    -0.248 NA
ATOM     47  C   UNL A   1      37.779  31.453  31.894  1.00  0.00     0.031 C 
ATOM     48  C   UNL A   1      39.697  29.263  27.794  1.00  0.00     0.029 A 
ATOM     49  N   UNL A   1      40.812  28.999  29.716  1.00  0.00    -0.354 N 
ATOM     50  C   UNL A   1      39.387  30.790  33.382  1.00  0.00     0.074 A 
ATOM     51  C   UNL A   1      38.177  31.551  33.155  1.00  0.00     0.031 C 
ATOM     52  C   UNL A   1      40.789  28.526  27.531  1.00  0.00     0.029 A 
ATOM     53  C   UNL A   1      41.564  28.361  28.759  1.00  0.00     0.049 A 
ATOM     54  H   UNL A   1      41.056  29.020  30.669  1.00  0.00     0.167 HD
ATOM     55  C   UNL A   1      39.990  30.660  34.588  1.00  0.00     0.034 A 
ATOM     56  C   UNL A   1      42.751  27.731  28.861  1.00  0.00     0.034 A 
ATOM     57  C   UNL A   1      41.175  29.879  34.817  1.00  0.00     0.049 A 
ATOM     58  C   UNL A   1      43.411  27.618  30.211  1.00  0.00     0.074 A 
ATOM     59  C   UNL A   1      41.829  29.639  36.012  1.00  0.00     0.029 A 
ATOM     60  N   UNL A   1      41.891  29.220  33.830  1.00  0.00    -0.354 N 
ATOM     61  N   UNL A   1      42.983  28.038  31.377  1.00  0.00    -0.248 NA
ATOM     62  C   UNL A   1      44.700  26.912  30.265  1.00  0.00     0.031 C 
ATOM     63  C   UNL A   1      42.959  28.859  35.743  1.00  0.00     0.029 A 
ATOM     64  C   UNL A   1      42.990  28.588  34.385  1.00  0.00     0.049 A 
ATOM     65  H   UNL A   1      41.652  29.203  32.875  1.00  0.00     0.167 HD
ATOM     66  C   UNL A   1      43.929  27.618  32.306  1.00  0.00     0.074 A 
ATOM     67  C   UNL A   1      44.943  26.892  31.568  1.00  0.00     0.031 C 
ATOM     68  C   UNL A   1      43.963  27.823  33.646  1.00  0.00     0.034 A 
BRANCH  55  69
ATOM     69  C   UNL A   1      39.366  31.364  35.764  1.00  0.00     0.023 A 
ATOM     70  C   UNL A   1      38.325  30.740  36.482  1.00  0.00     0.012 A 
ATOM     71  C   UNL A   1      39.851  32.613  36.197  1.00  0.00     0.148 A 
ATOM     72  C   UNL A   1      37.758  31.363  37.594  1.00  0.00     0.002 A 
ATOM     73  C   UNL A   1      39.310  33.208  37.330  1.00  0.00     0.091 A 
ATOM     74  F   UNL A   1      40.825  33.200  35.486  1.00  0.00    -0.205 F 
ATOM     75  C   UNL A   1      38.258  32.590  38.024  1.00  0.00     0.022 A 
BRANCH  73  76
ATOM     76  S   UNL A   1      39.936  34.750  38.005  1.00  0.00     0.127 S 
ATOM     77  O   UNL A   1      41.348  34.430  38.210  1.00  0.00    -0.237 OA
ATOM     78  O   UNL A   1      39.677  35.692  36.915  1.00  0.00    -0.237 OA
ATOM     79  O   UNL A   1      39.170  34.999  39.218  1.00  0.00    -0.744 OA
ENDBRANCH  73  76
ENDBRANCH  55  69
BRANCH  56  80
ATOM     80  C   UNL A   1      43.378  27.124  27.652  1.00  0.00     0.023 A 
ATOM     81  C   UNL A   1      43.984  27.956  26.691  1.00  0.00     0.012 A 
ATOM     82  C   UNL A   1      43.390  25.729  27.460  1.00  0.00     0.148 A 
ATOM     83  C   UNL A   1      44.566  27.410  25.544  1.00  0.00     0.002 A 
ATOM     84  C   UNL A   1      44.020  25.189  26.345  1.00  0.00     0.091 A 
ATOM     85  F   UNL A   1      42.791  24.957  28.377  1.00  0.00    -0.205 F 
ATOM     86  C   UNL A   1      44.594  26.029  25.377  1.00  0.00     0.022 A 
BRANCH  84  87
ATOM     87  S   UNL A   1      44.216  23.418  26.116  1.00  0.00     0.127 S 
ATOM     88  O   UNL A   1      42.828  22.969  26.057  1.00  0.00    -0.237 OA
ATOM     89  O   UNL A   1      44.939  23.357  24.845  1.00  0.00    -0.237 OA
ATOM     90  O   UNL A   1      44.984  22.957  27.264  1.00  0.00    -0.744 OA
ENDBRANCH  84  87
ENDBRANCH  56  80
BRANCH  68  91
ATOM     91  C   UNL A   1      45.112  27.229  34.418  1.00  0.00     0.023 A 
ATOM     92  C   UNL A   1      46.277  27.991  34.640  1.00  0.00     0.012 A 
ATOM     93  C   UNL A   1      45.006  25.945  34.991  1.00  0.00     0.148 A 
ATOM     94  C   UNL A   1      47.331  27.472  35.392  1.00  0.00     0.002 A 
ATOM     95  C   UNL A   1      46.040  25.455  35.780  1.00  0.00     0.091 A 
ATOM     96  F   UNL A   1      43.898  25.229  34.753  1.00  0.00    -0.205 F 
ATOM     97  C   UNL A   1      47.207  26.211  35.971  1.00  0.00     0.022 A 
BRANCH  95  98
ATOM     98  S   UNL A   1      45.926  23.884  36.645  1.00  0.00     0.127 S 
ATOM     99  O   UNL A   1      44.759  24.099  37.499  1.00  0.00    -0.237 OA
ATOM    100  O   UNL A   1      45.714  22.939  35.547  1.00  0.00    -0.237 OA
ATOM    101  O   UNL A   1      47.193  23.720  37.345  1.00  0.00    -0.744 OA
ENDBRANCH  95  98
ENDBRANCH  68  91
ENDBRANCH  42  43
ENDBRANCH  35  37
ENDBRANCH  34  35
ENDBRANCH  33  34
ENDBRANCH  32  33
ENDBRANCH   1  32
TORSDOF 20
ENDMDL
MODEL 2
REMARK VINA RESULT:     -11.1      5.520     10.935
REMARK SMILES C[C@H](C(=O)OCCOCCOC(=O)c1ccc(-c2c3nc(c(-c4cccc(S(=O)(=O)[O-])c4F)c4ccc([nH]4)c(-c4cccc(S(=O)(=O)[O-])c4F)c4nc(c(-c5cccc(S(=O)(=O)[O-])c5F)c5ccc2[nH]5)C=C4)C=C3)cc1)c1ccc2c3cc(Cl)ccc3n(C(=O)c3ccc(Cl)cc3)c2c1
REMARK SMILES IDX 8 1 7 2 6 3 5 4 3 5 4 6 2 7 1 8 77 9 78 10 99 11 79 12 98 13
REMARK SMILES IDX 80 14 88 15 81 16 87 17 82 18 86 19 83 20 85 21 84 22 89 23
REMARK SMILES IDX 90 24 91 25 92 26 97 27 93 28 96 29 94 30 95 31 9 32 10 33
REMARK SMILES IDX 11 34 12 35 13 36 14 37 15 38 76 39 16 40 75 41 17 42 18 43
REMARK SMILES IDX 19 44 69 45 20 46 74 47 68 48 70 49 21 50 73 51 67 52 66 53
REMARK SMILES IDX 22 55 54 56 34 57 53 58 35 59 38 60 52 61 71 62 36 63 37 64
REMARK SMILES IDX 51 66 72 67 39 68 23 69 24 70 32 71 25 72 27 73 33 74 26 75
REMARK SMILES IDX 28 76 29 77 30 78 31 79 55 80 56 81 64 82 57 83 59 84 65 85
REMARK SMILES IDX 58 86 60 87 61 88 62 89 63 90 40 91 41 92 49 93 42 94 44 95
REMARK SMILES IDX 50 96 43 97 45 98 46 99 47 100 48 101
REMARK H PARENT 70 54 38 65
REMARK Flexibility Score: inf
ROOT
ATOM      1  O   UNL A   1      41.931  23.326  26.331  1.00  0.00    -0.374 OA
ENDROOT
BRANCH   1   2
ATOM      2  C   UNL A   1      41.616  23.750  27.656  1.00  0.00     0.202 C 
BRANCH   2   3
ATOM      3  C   UNL A   1      40.523  24.813  27.832  1.00  0.00     0.261 C 
BRANCH   3   4
ATOM      4  O   UNL A   1      40.944  25.962  28.588  1.00  0.00    -0.463 OA
BRANCH   4   5
ATOM      5  C   UNL A   1      39.938  26.713  29.118  1.00  0.00     0.313 C 
ATOM      6  O   UNL A   1      38.831  26.267  29.410  1.00  0.00    -0.252 OA
BRANCH   5   7
ATOM      7  C   UNL A   1      40.291  28.192  29.273  1.00  0.00     0.126 C 
ATOM      8  C   UNL A   1      39.761  28.965  28.056  1.00  0.00     0.025 C 
BRANCH   7   9
ATOM      9  C   UNL A   1      39.880  28.863  30.584  1.00  0.00    -0.032 A 
ATOM     10  C   UNL A   1      39.755  28.172  31.793  1.00  0.00     0.005 A 
ATOM     11  C   UNL A   1      39.566  30.230  30.563  1.00  0.00     0.032 A 
ATOM     12  C   UNL A   1      39.405  28.830  32.981  1.00  0.00     0.011 A 
ATOM     13  C   UNL A   1      39.083  30.860  31.731  1.00  0.00     0.057 A 
ATOM     14  C   UNL A   1      39.068  30.198  32.950  1.00  0.00     0.008 A 
ATOM     15  N   UNL A   1      38.545  32.145  31.916  1.00  0.00    -0.276 N 
ATOM     16  C   UNL A   1      38.658  31.134  33.937  1.00  0.00     0.009 A 
ATOM     17  C   UNL A   1      38.247  32.303  33.278  1.00  0.00     0.057 A 
ATOM     18  C   UNL A   1      38.530  31.037  35.342  1.00  0.00     0.031 A 
ATOM     19  C   UNL A   1      37.571  33.312  33.995  1.00  0.00     0.029 A 
ATOM     20  C   UNL A   1      37.937  32.078  36.051  1.00  0.00     0.041 A 
ATOM     21  C   UNL A   1      37.440  33.189  35.385  1.00  0.00     0.023 A 
ATOM     22  Cl  UNL A   1      37.769  31.951  37.760  1.00  0.00    -0.084 Cl
BRANCH  15  23
ATOM     23  C   UNL A   1      38.252  33.002  30.823  1.00  0.00     0.262 C 
ATOM     24  O   UNL A   1      39.203  33.678  30.420  1.00  0.00    -0.268 OA
BRANCH  23  25
ATOM     25  C   UNL A   1      36.967  33.212  30.094  1.00  0.00     0.040 A 
ATOM     26  C   UNL A   1      35.946  32.268  30.332  1.00  0.00     0.015 A 
ATOM     27  C   UNL A   1      36.749  34.197  29.127  1.00  0.00     0.015 A 
ATOM     28  C   UNL A   1      34.726  32.328  29.660  1.00  0.00     0.021 A 
ATOM     29  C   UNL A   1      35.505  34.282  28.478  1.00  0.00     0.021 A 
ATOM     30  C   UNL A   1      34.502  33.350  28.748  1.00  0.00     0.041 A 
ATOM     31  Cl  UNL A   1      32.984  33.457  27.948  1.00  0.00    -0.084 Cl
ENDBRANCH  23  25
ENDBRANCH  15  23
ENDBRANCH   7   9
ENDBRANCH   5   7
ENDBRANCH   4   5
ENDBRANCH   3   4
ENDBRANCH   2   3
ENDBRANCH   1   2
BRANCH   1  32
ATOM     32  C   UNL A   1      43.019  22.416  26.187  1.00  0.00     0.202 C 
BRANCH  32  33
ATOM     33  C   UNL A   1      44.190  22.845  25.296  1.00  0.00     0.261 C 
BRANCH  33  34
ATOM     34  O   UNL A   1      44.077  24.212  24.864  1.00  0.00    -0.460 OA
BRANCH  34  35
ATOM     35  C   UNL A   1      45.175  24.966  25.101  1.00  0.00     0.338 C 
ATOM     36  O   UNL A   1      46.295  24.806  24.627  1.00  0.00    -0.246 OA
BRANCH  35  37
ATOM     37  C   UNL A   1      44.828  26.164  25.881  1.00  0.00     0.060 A 
ATOM     38  C   UNL A   1      45.841  26.726  26.669  1.00  0.00     0.016 A 
ATOM     39  C   UNL A   1      43.524  26.660  25.939  1.00  0.00     0.016 A 
ATOM     40  C   UNL A   1      45.540  27.741  27.572  1.00  0.00     0.010 A 
ATOM     41  C   UNL A   1      43.223  27.677  26.853  1.00  0.00     0.010 A 
ATOM     42  C   UNL A   1      44.219  28.187  27.706  1.00  0.00    -0.014 A 
BRANCH  42  43
ATOM     43  C   UNL A   1      43.869  29.076  28.842  1.00  0.00     0.031 A 
ATOM     44  C   UNL A   1      43.635  28.471  30.200  1.00  0.00     0.074 A 
ATOM     45  C   UNL A   1      43.795  30.408  28.672  1.00  0.00     0.049 A 
ATOM     46  N   UNL A   1      43.335  29.060  31.328  1.00  0.00    -0.248 NA
ATOM     47  C   UNL A   1      43.756  27.006  30.301  1.00  0.00     0.031 C 
ATOM     48  C   UNL A   1      44.013  31.111  27.409  1.00  0.00     0.029 A 
ATOM     49  N   UNL A   1      43.500  31.406  29.567  1.00  0.00    -0.354 N 
ATOM     50  C   UNL A   1      43.200  28.043  32.265  1.00  0.00     0.074 A 
ATOM     51  C   UNL A   1      43.442  26.795  31.572  1.00  0.00     0.031 C 
ATOM     52  C   UNL A   1      43.822  32.426  27.604  1.00  0.00     0.029 A 
ATOM     53  C   UNL A   1      43.449  32.656  28.998  1.00  0.00     0.049 A 
ATOM     54  H   UNL A   1      43.340  31.241  30.524  1.00  0.00     0.167 HD
ATOM     55  C   UNL A   1      42.916  28.138  33.586  1.00  0.00     0.034 A 
ATOM     56  C   UNL A   1      43.123  33.847  29.539  1.00  0.00     0.034 A 
ATOM     57  C   UNL A   1      42.706  29.381  34.277  1.00  0.00     0.049 A 
ATOM     58  C   UNL A   1      42.792  33.922  31.008  1.00  0.00     0.074 A 
ATOM     59  C   UNL A   1      42.469  29.585  35.625  1.00  0.00     0.029 A 
ATOM     60  N   UNL A   1      42.694  30.629  33.676  1.00  0.00    -0.354 N 
ATOM     61  N   UNL A   1      42.790  32.965  31.904  1.00  0.00    -0.248 NA
ATOM     62  C   UNL A   1      42.452  35.247  31.547  1.00  0.00     0.031 C 
ATOM     63  C   UNL A   1      42.285  30.955  35.834  1.00  0.00     0.029 A 
ATOM     64  C   UNL A   1      42.437  31.607  34.621  1.00  0.00     0.049 A 
ATOM     65  H   UNL A   1      42.848  30.795  32.718  1.00  0.00     0.167 HD
ATOM     66  C   UNL A   1      42.486  33.576  33.115  1.00  0.00     0.074 A 
ATOM     67  C   UNL A   1      42.330  34.990  32.841  1.00  0.00     0.031 C 
ATOM     68  C   UNL A   1      42.337  33.018  34.343  1.00  0.00     0.034 A 
BRANCH  55  69
ATOM     69  C   UNL A   1      42.836  26.861  34.380  1.00  0.00     0.023 A 
ATOM     70  C   UNL A   1      41.578  26.352  34.762  1.00  0.00     0.012 A 
ATOM     71  C   UNL A   1      44.000  26.133  34.693  1.00  0.00     0.148 A 
ATOM     72  C   UNL A   1      41.483  25.152  35.469  1.00  0.00     0.002 A 
ATOM     73  C   UNL A   1      43.895  24.918  35.360  1.00  0.00     0.091 A 
ATOM     74  F   UNL A   1      45.188  26.646  34.341  1.00  0.00    -0.205 F 
ATOM     75  C   UNL A   1      42.639  24.432  35.758  1.00  0.00     0.022 A 
BRANCH  73  76
ATOM     76  S   UNL A   1      45.319  23.880  35.710  1.00  0.00     0.127 S 
ATOM     77  O   UNL A   1      44.684  22.595  35.993  1.00  0.00    -0.237 OA
ATOM     78  O   UNL A   1      46.055  23.931  34.447  1.00  0.00    -0.237 OA
ATOM     79  O   UNL A   1      46.002  24.501  36.836  1.00  0.00    -0.744 OA
ENDBRANCH  73  76
ENDBRANCH  55  69
BRANCH  56  80
ATOM     80  C   UNL A   1      43.128  35.075  28.694  1.00  0.00     0.023 A 
ATOM     81  C   UNL A   1      41.944  35.482  28.051  1.00  0.00     0.012 A 
ATOM     82  C   UNL A   1      44.295  35.847  28.540  1.00  0.00     0.148 A 
ATOM     83  C   UNL A   1      41.929  36.622  27.244  1.00  0.00     0.002 A 
ATOM     84  C   UNL A   1      44.260  37.011  27.781  1.00  0.00     0.091 A 
ATOM     85  F   UNL A   1      45.417  35.431  29.144  1.00  0.00    -0.205 F 
ATOM     86  C   UNL A   1      43.082  37.391  27.118  1.00  0.00     0.022 A 
BRANCH  84  87
ATOM     87  S   UNL A   1      45.662  38.129  27.671  1.00  0.00     0.127 S 
ATOM     88  O   UNL A   1      45.173  39.131  26.728  1.00  0.00    -0.237 OA
ATOM     89  O   UNL A   1      45.788  38.591  29.053  1.00  0.00    -0.237 OA
ATOM     90  O   UNL A   1      46.777  37.314  27.209  1.00  0.00    -0.744 OA
ENDBRANCH  84  87
ENDBRANCH  56  80
BRANCH  68  91
ATOM     91  C   UNL A   1      42.024  33.933  35.497  1.00  0.00     0.023 A 
ATOM     92  C   UNL A   1      40.682  34.219  35.821  1.00  0.00     0.012 A 
ATOM     93  C   UNL A   1      43.056  34.447  36.309  1.00  0.00     0.148 A 
ATOM     94  C   UNL A   1      40.374  35.027  36.915  1.00  0.00     0.002 A 
ATOM     95  C   UNL A   1      42.738  35.211  37.425  1.00  0.00     0.091 A 
ATOM     96  F   UNL A   1      44.326  34.179  35.973  1.00  0.00    -0.205 F 
ATOM     97  C   UNL A   1      41.400  35.512  37.723  1.00  0.00     0.022 A 
BRANCH  95  98
ATOM     98  S   UNL A   1      43.988  35.795  38.577  1.00  0.00     0.127 S 
ATOM     99  O   UNL A   1      43.166  36.363  39.644  1.00  0.00    -0.237 OA
ATOM    100  O   UNL A   1      44.684  34.558  38.934  1.00  0.00    -0.237 OA
ATOM    101  O   UNL A   1      44.801  36.751  37.836  1.00  0.00    -0.744 OA
ENDBRANCH  95  98
ENDBRANCH  68  91
ENDBRANCH  42  43
ENDBRANCH  35  37
ENDBRANCH  34  35
ENDBRANCH  33  34
ENDBRANCH  32  33
ENDBRANCH   1  32
TORSDOF 20
ENDMDL
MODEL 3
REMARK VINA RESULT:     -10.6      5.027     10.685
REMARK SMILES C[C@H](C(=O)OCCOCCOC(=O)c1ccc(-c2c3nc(c(-c4cccc(S(=O)(=O)[O-])c4F)c4ccc([nH]4)c(-c4cccc(S(=O)(=O)[O-])c4F)c4nc(c(-c5cccc(S(=O)(=O)[O-])c5F)c5ccc2[nH]5)C=C4)C=C3)cc1)c1ccc2c3cc(Cl)ccc3n(C(=O)c3ccc(Cl)cc3)c2c1
REMARK SMILES IDX 8 1 7 2 6 3 5 4 3 5 4 6 2 7 1 8 77 9 78 10 99 11 79 12 98 13
REMARK SMILES IDX 80 14 88 15 81 16 87 17 82 18 86 19 83 20 85 21 84 22 89 23
REMARK SMILES IDX 90 24 91 25 92 26 97 27 93 28 96 29 94 30 95 31 9 32 10 33
REMARK SMILES IDX 11 34 12 35 13 36 14 37 15 38 76 39 16 40 75 41 17 42 18 43
REMARK SMILES IDX 19 44 69 45 20 46 74 47 68 48 70 49 21 50 73 51 67 52 66 53
REMARK SMILES IDX 22 55 54 56 34 57 53 58 35 59 38 60 52 61 71 62 36 63 37 64
REMARK SMILES IDX 51 66 72 67 39 68 23 69 24 70 32 71 25 72 27 73 33 74 26 75
REMARK SMILES IDX 28 76 29 77 30 78 31 79 55 80 56 81 64 82 57 83 59 84 65 85
REMARK SMILES IDX 58 86 60 87 61 88 62 89 63 90 40 91 41 92 49 93 42 94 44 95
REMARK SMILES IDX 50 96 43 97 45 98 46 99 47 100 48 101
REMARK H PARENT 70 54 38 65
REMARK Flexibility Score: inf
ROOT
ATOM      1  O   UNL A   1      41.283  22.824  26.025  1.00  0.00    -0.374 OA
ENDROOT
BRANCH   1   2
ATOM      2  C   UNL A   1      40.547  23.043  27.227  1.00  0.00     0.202 C 
BRANCH   2   3
ATOM      3  C   UNL A   1      39.697  24.316  27.328  1.00  0.00     0.261 C 
BRANCH   3   4
ATOM      4  O   UNL A   1      40.333  25.387  28.047  1.00  0.00    -0.463 OA
BRANCH   4   5
ATOM      5  C   UNL A   1      39.679  26.582  28.015  1.00  0.00     0.313 C 
ATOM      6  O   UNL A   1      38.462  26.695  27.896  1.00  0.00    -0.252 OA
BRANCH   5   7
ATOM      7  C   UNL A   1      40.609  27.793  28.087  1.00  0.00     0.126 C 
ATOM      8  C   UNL A   1      40.491  28.596  26.783  1.00  0.00     0.025 C 
BRANCH   7   9
ATOM      9  C   UNL A   1      40.469  28.695  29.314  1.00  0.00    -0.032 A 
ATOM     10  C   UNL A   1      40.895  28.322  30.592  1.00  0.00     0.005 A 
ATOM     11  C   UNL A   1      39.838  29.938  29.159  1.00  0.00     0.032 A 
ATOM     12  C   UNL A   1      40.776  29.191  31.687  1.00  0.00     0.011 A 
ATOM     13  C   UNL A   1      39.597  30.753  30.287  1.00  0.00     0.057 A 
ATOM     14  C   UNL A   1      40.120  30.428  31.530  1.00  0.00     0.008 A 
ATOM     15  N   UNL A   1      38.844  31.932  30.414  1.00  0.00    -0.276 N 
ATOM     16  C   UNL A   1      39.816  31.501  32.412  1.00  0.00     0.009 A 
ATOM     17  C   UNL A   1      38.949  32.377  31.741  1.00  0.00     0.057 A 
ATOM     18  C   UNL A   1      40.154  31.744  33.763  1.00  0.00     0.031 A 
ATOM     19  C   UNL A   1      38.299  33.405  32.455  1.00  0.00     0.029 A 
ATOM     20  C   UNL A   1      39.570  32.814  34.435  1.00  0.00     0.041 A 
ATOM     21  C   UNL A   1      38.636  33.618  33.799  1.00  0.00     0.023 A 
ATOM     22  Cl  UNL A   1      39.971  33.098  36.085  1.00  0.00    -0.084 Cl
BRANCH  15  23
ATOM     23  C   UNL A   1      38.027  32.421  29.361  1.00  0.00     0.262 C 
ATOM     24  O   UNL A   1      38.375  33.510  28.894  1.00  0.00    -0.268 OA
BRANCH  23  25
ATOM     25  C   UNL A   1      36.812  31.820  28.738  1.00  0.00     0.040 A 
ATOM     26  C   UNL A   1      35.651  32.621  28.723  1.00  0.00     0.015 A 
ATOM     27  C   UNL A   1      36.718  30.504  28.278  1.00  0.00     0.015 A 
ATOM     28  C   UNL A   1      34.440  32.141  28.223  1.00  0.00     0.021 A 
ATOM     29  C   UNL A   1      35.509  30.033  27.737  1.00  0.00     0.021 A 
ATOM     30  C   UNL A   1      34.379  30.852  27.712  1.00  0.00     0.041 A 
ATOM     31  Cl  UNL A   1      32.903  30.269  27.053  1.00  0.00    -0.084 Cl
ENDBRANCH  23  25
ENDBRANCH  15  23
ENDBRANCH   7   9
ENDBRANCH   5   7
ENDBRANCH   4   5
ENDBRANCH   3   4
ENDBRANCH   2   3
ENDBRANCH   1   2
BRANCH   1  32
ATOM     32  C   UNL A   1      42.147  21.689  25.996  1.00  0.00     0.202 C 
BRANCH  32  33
ATOM     33  C   UNL A   1      43.507  21.851  25.308  1.00  0.00     0.261 C 
BRANCH  33  34
ATOM     34  O   UNL A   1      43.556  23.007  24.455  1.00  0.00    -0.460 OA
BRANCH  34  35
ATOM     35  C   UNL A   1      44.701  23.722  24.547  1.00  0.00     0.338 C 
ATOM     36  O   UNL A   1      45.687  23.629  23.824  1.00  0.00    -0.246 OA
BRANCH  35  37
ATOM     37  C   UNL A   1      44.565  24.802  25.537  1.00  0.00     0.060 A 
ATOM     38  C   UNL A   1      45.740  25.250  26.155  1.00  0.00     0.016 A 
ATOM     39  C   UNL A   1      43.318  25.286  25.941  1.00  0.00     0.016 A 
ATOM     40  C   UNL A   1      45.669  26.131  27.230  1.00  0.00     0.010 A 
ATOM     41  C   UNL A   1      43.251  26.168  27.026  1.00  0.00     0.010 A 
ATOM     42  C   UNL A   1      44.422  26.555  27.704  1.00  0.00    -0.014 A 
BRANCH  42  43
ATOM     43  C   UNL A   1      44.349  27.280  28.997  1.00  0.00     0.031 A 
ATOM     44  C   UNL A   1      44.537  26.513  30.278  1.00  0.00     0.074 A 
ATOM     45  C   UNL A   1      44.153  28.610  29.028  1.00  0.00     0.049 A 
ATOM     46  N   UNL A   1      44.528  26.946  31.511  1.00  0.00    -0.248 NA
ATOM     47  C   UNL A   1      44.766  25.063  30.153  1.00  0.00     0.031 C 
ATOM     48  C   UNL A   1      43.971  29.463  27.854  1.00  0.00     0.029 A 
ATOM     49  N   UNL A   1      44.061  29.474  30.090  1.00  0.00    -0.354 N 
ATOM     50  C   UNL A   1      44.717  25.825  32.310  1.00  0.00     0.074 A 
ATOM     51  C   UNL A   1      44.830  24.687  31.423  1.00  0.00     0.031 C 
ATOM     52  C   UNL A   1      43.766  30.727  28.262  1.00  0.00     0.029 A 
ATOM     53  C   UNL A   1      43.782  30.769  29.722  1.00  0.00     0.049 A 
ATOM     54  H   UNL A   1      44.182  29.192  31.025  1.00  0.00     0.167 HD
ATOM     55  C   UNL A   1      44.806  25.750  33.660  1.00  0.00     0.034 A 
ATOM     56  C   UNL A   1      43.550  31.859  30.480  1.00  0.00     0.034 A 
ATOM     57  C   UNL A   1      44.724  26.886  34.538  1.00  0.00     0.049 A 
ATOM     58  C   UNL A   1      43.636  31.744  31.981  1.00  0.00     0.074 A 
ATOM     59  C   UNL A   1      44.859  26.920  35.914  1.00  0.00     0.029 A 
ATOM     60  N   UNL A   1      44.474  28.186  34.128  1.00  0.00    -0.354 N 
ATOM     61  N   UNL A   1      43.938  30.699  32.713  1.00  0.00    -0.248 NA
ATOM     62  C   UNL A   1      43.382  32.966  32.758  1.00  0.00     0.031 C 
ATOM     63  C   UNL A   1      44.661  28.237  36.340  1.00  0.00     0.029 A 
ATOM     64  C   UNL A   1      44.433  29.028  35.225  1.00  0.00     0.049 A 
ATOM     65  H   UNL A   1      44.345  28.468  33.194  1.00  0.00     0.167 HD
ATOM     66  C   UNL A   1      43.948  31.145  34.030  1.00  0.00     0.074 A 
ATOM     67  C   UNL A   1      43.639  32.560  33.993  1.00  0.00     0.031 C 
ATOM     68  C   UNL A   1      44.178  30.445  35.170  1.00  0.00     0.034 A 
BRANCH  55  69
ATOM     69  C   UNL A   1      45.024  24.392  34.275  1.00  0.00     0.023 A 
ATOM     70  C   UNL A   1      43.938  23.504  34.413  1.00  0.00     0.012 A 
ATOM     71  C   UNL A   1      46.313  23.972  34.656  1.00  0.00     0.148 A 
ATOM     72  C   UNL A   1      44.127  22.230  34.950  1.00  0.00     0.002 A 
ATOM     73  C   UNL A   1      46.501  22.686  35.150  1.00  0.00     0.091 A 
ATOM     74  F   UNL A   1      47.328  24.840  34.538  1.00  0.00    -0.205 F 
ATOM     75  C   UNL A   1      45.409  21.818  35.307  1.00  0.00     0.022 A 
BRANCH  73  76
ATOM     76  S   UNL A   1      48.123  22.038  35.566  1.00  0.00     0.127 S 
ATOM     77  O   UNL A   1      47.802  20.665  35.950  1.00  0.00    -0.237 OA
ATOM     78  O   UNL A   1      48.841  22.165  34.297  1.00  0.00    -0.237 OA
ATOM     79  O   UNL A   1      48.632  22.884  36.637  1.00  0.00    -0.744 OA
ENDBRANCH  73  76
ENDBRANCH  55  69
BRANCH  56  80
ATOM     80  C   UNL A   1      43.249  33.167  29.832  1.00  0.00     0.023 A 
ATOM     81  C   UNL A   1      41.912  33.585  29.695  1.00  0.00     0.012 A 
ATOM     82  C   UNL A   1      44.282  34.002  29.365  1.00  0.00     0.148 A 
ATOM     83  C   UNL A   1      41.606  34.800  29.078  1.00  0.00     0.002 A 
ATOM     84  C   UNL A   1      43.974  35.236  28.803  1.00  0.00     0.091 A 
ATOM     85  F   UNL A   1      45.548  33.577  29.487  1.00  0.00    -0.205 F 
ATOM     86  C   UNL A   1      42.636  35.629  28.643  1.00  0.00     0.022 A 
BRANCH  84  87
ATOM     87  S   UNL A   1      45.240  36.421  28.335  1.00  0.00     0.127 S 
ATOM     88  O   UNL A   1      44.438  37.543  27.856  1.00  0.00    -0.237 OA
ATOM     89  O   UNL A   1      45.924  36.650  29.608  1.00  0.00    -0.237 OA
ATOM     90  O   UNL A   1      46.054  35.749  27.332  1.00  0.00    -0.744 OA
ENDBRANCH  84  87
ENDBRANCH  56  80
BRANCH  68  91
ATOM     91  C   UNL A   1      44.144  31.198  36.474  1.00  0.00     0.023 A 
ATOM     92  C   UNL A   1      42.949  31.257  37.219  1.00  0.00     0.012 A 
ATOM     93  C   UNL A   1      45.316  31.778  37.000  1.00  0.00     0.148 A 
ATOM     94  C   UNL A   1      42.913  31.911  38.451  1.00  0.00     0.002 A 
ATOM     95  C   UNL A   1      45.284  32.385  38.250  1.00  0.00     0.091 A 
ATOM     96  F   UNL A   1      46.438  31.727  36.268  1.00  0.00    -0.205 F 
ATOM     97  C   UNL A   1      44.082  32.462  38.971  1.00  0.00     0.022 A 
BRANCH  95  98
ATOM     98  S   UNL A   1      46.760  33.035  39.041  1.00  0.00     0.127 S 
ATOM     99  O   UNL A   1      46.216  33.582  40.283  1.00  0.00    -0.237 OA
ATOM    100  O   UNL A   1      47.578  31.832  39.210  1.00  0.00    -0.237 OA
ATOM    101  O   UNL A   1      47.313  34.014  38.115  1.00  0.00    -0.744 OA
ENDBRANCH  95  98
ENDBRANCH  68  91
ENDBRANCH  42  43
ENDBRANCH  35  37
ENDBRANCH  34  35
ENDBRANCH  33  34
ENDBRANCH  32  33
ENDBRANCH   1  32
TORSDOF 20
ENDMDL
