MODEL 1
REMARK VINA RESULT:     -11.6      0.000      0.000
REMARK SMILES Cc1cc(C(=O)OCCOCCOC(=O)c2ccc(-c3c4nc(c(-c5cccc(S(=O)(=O)[O-])c5F)c5ccc([nH]5)c(-c5cccc(S(=O)(=O)[O-])c5F)c5nc(c(-c6cccc(S(=O)(=O)[O-])c6F)c6ccc3[nH]6)C=C5)C=C4)cc2)ccc1NS(=O)(=O)c1c(F)cccc1F
REMARK SMILES IDX 10 1 9 2 8 3 7 4 5 5 6 6 4 7 1 8 2 9 3 10 81 11 80 12 79 13
REMARK SMILES IDX 82 14 83 16 84 17 85 18 86 19 87 20 92 21 88 22 89 23 91 24
REMARK SMILES IDX 93 25 90 26 11 27 12 28 13 29 14 30 15 31 16 32 17 33 78 34
REMARK SMILES IDX 18 35 77 36 19 37 20 38 21 39 71 40 22 41 76 42 70 43 72 44
REMARK SMILES IDX 23 45 75 46 69 47 68 48 24 50 56 51 36 52 55 53 37 54 40 55
REMARK SMILES IDX 54 56 73 57 38 58 39 59 53 61 74 62 41 63 25 64 26 65 34 66
REMARK SMILES IDX 27 67 29 68 35 69 28 70 30 71 31 72 32 73 33 74 57 75 58 76
REMARK SMILES IDX 66 77 59 78 61 79 67 80 60 81 62 82 63 83 64 84 65 85 42 86
REMARK SMILES IDX 43 87 51 88 44 89 46 90 52 91 45 92 47 93 48 94 49 95 50 96
REMARK H PARENT 82 15 72 49 40 60
REMARK Flexibility Score: inf
ROOT
ATOM      1  O   UNL A   1      37.878  22.773  25.577  1.00  0.00    -0.374 OA
ENDROOT
BRANCH   1   2
ATOM      2  C   UNL A   1      36.485  22.650  25.706  1.00  0.00     0.202 C 
BRANCH   2   3
ATOM      3  C   UNL A   1      35.887  21.263  25.393  1.00  0.00     0.261 C 
BRANCH   3   4
ATOM      4  O   UNL A   1      34.524  21.155  25.719  1.00  0.00    -0.460 OA
BRANCH   4   5
ATOM      5  C   UNL A   1      33.769  20.823  24.650  1.00  0.00     0.338 C 
ATOM      6  O   UNL A   1      33.404  19.726  24.274  1.00  0.00    -0.246 OA
BRANCH   5   7
ATOM      7  C   UNL A   1      33.185  22.093  24.267  1.00  0.00     0.060 A 
ATOM      8  C   UNL A   1      31.977  24.888  26.396  1.00  0.00     0.046 C 
ATOM      9  C   UNL A   1      32.468  24.185  25.169  1.00  0.00    -0.026 A 
ATOM     10  C   UNL A   1      32.635  22.811  25.310  1.00  0.00     0.021 A 
ATOM     11  C   UNL A   1      32.832  24.800  23.950  1.00  0.00     0.052 A 
ATOM     12  C   UNL A   1      33.109  24.006  22.836  1.00  0.00     0.028 A 
ATOM     13  C   UNL A   1      33.403  22.666  23.020  1.00  0.00     0.018 A 
BRANCH  11  14
ATOM     14  N   UNL A   1      33.249  26.163  23.988  1.00  0.00    -0.279 N 
ATOM     15  H   UNL A   1      34.218  26.313  24.080  1.00  0.00     0.180 HD
BRANCH  14  16
ATOM     16  S   UNL A   1      32.310  27.539  23.898  1.00  0.00     0.267 S 
ATOM     17  O   UNL A   1      32.822  28.303  22.779  1.00  0.00    -0.201 OA
ATOM     18  O   UNL A   1      30.941  27.063  23.902  1.00  0.00    -0.201 OA
BRANCH  16  19
ATOM     19  C   UNL A   1      32.488  28.530  25.340  1.00  0.00     0.158 A 
ATOM     20  C   UNL A   1      31.683  29.663  25.429  1.00  0.00     0.146 A 
ATOM     21  C   UNL A   1      33.503  28.357  26.270  1.00  0.00     0.146 A 
ATOM     22  F   UNL A   1      30.617  29.819  24.632  1.00  0.00    -0.205 F 
ATOM     23  C   UNL A   1      31.960  30.673  26.350  1.00  0.00     0.041 A 
ATOM     24  C   UNL A   1      33.817  29.382  27.172  1.00  0.00     0.041 A 
ATOM     25  F   UNL A   1      34.251  27.247  26.294  1.00  0.00    -0.205 F 
ATOM     26  C   UNL A   1      33.058  30.555  27.196  1.00  0.00     0.006 A 
ENDBRANCH  16  19
ENDBRANCH  14  16
ENDBRANCH  11  14
ENDBRANCH   5   7
ENDBRANCH   4   5
ENDBRANCH   3   4
ENDBRANCH   2   3
ENDBRANCH   1   2
BRANCH   1  27
ATOM     27  C   UNL A   1      38.495  21.514  25.634  1.00  0.00     0.202 C 
BRANCH  27  28
ATOM     28  C   UNL A   1      39.990  21.294  26.144  1.00  0.00     0.261 C 
BRANCH  28  29
ATOM     29  O   UNL A   1      40.933  22.417  26.728  1.00  0.00    -0.460 OA
BRANCH  29  30
ATOM     30  C   UNL A   1      41.281  23.663  27.223  1.00  0.00     0.338 C 
ATOM     31  O   UNL A   1      42.479  23.844  27.462  1.00  0.00    -0.246 OA
BRANCH  30  32
ATOM     32  C   UNL A   1      40.409  24.886  27.102  1.00  0.00     0.060 A 
ATOM     33  C   UNL A   1      40.764  25.876  26.182  1.00  0.00     0.016 A 
ATOM     34  C   UNL A   1      39.353  25.222  27.906  1.00  0.00     0.016 A 
ATOM     35  C   UNL A   1      40.650  27.234  26.530  1.00  0.00     0.010 A 
ATOM     36  C   UNL A   1      39.289  26.546  28.327  1.00  0.00     0.010 A 
ATOM     37  C   UNL A   1      40.122  27.526  27.761  1.00  0.00    -0.014 A 
BRANCH  37  38
ATOM     38  C   UNL A   1      40.421  28.708  28.590  1.00  0.00     0.031 A 
ATOM     39  C   UNL A   1      39.356  29.746  28.639  1.00  0.00     0.074 A 
ATOM     40  C   UNL A   1      41.444  28.737  29.505  1.00  0.00     0.049 A 
ATOM     41  N   UNL A   1      39.472  30.886  29.217  1.00  0.00    -0.248 NA
ATOM     42  C   UNL A   1      38.052  29.591  27.986  1.00  0.00     0.031 C 
ATOM     43  C   UNL A   1      41.464  29.560  30.726  1.00  0.00     0.029 A 
ATOM     44  N   UNL A   1      42.642  28.012  29.646  1.00  0.00    -0.354 N 
ATOM     45  C   UNL A   1      38.215  31.442  29.301  1.00  0.00     0.074 A 
ATOM     46  C   UNL A   1      37.399  30.675  28.406  1.00  0.00     0.031 C 
ATOM     47  C   UNL A   1      42.652  29.461  31.340  1.00  0.00     0.029 A 
ATOM     48  C   UNL A   1      43.533  28.735  30.456  1.00  0.00     0.049 A 
ATOM     49  H   UNL A   1      42.828  27.135  29.240  1.00  0.00     0.167 HD
ATOM     50  C   UNL A   1      37.996  32.420  30.217  1.00  0.00     0.034 A 
ATOM     51  C   UNL A   1      44.763  29.211  30.090  1.00  0.00     0.034 A 
ATOM     52  C   UNL A   1      39.276  32.827  30.827  1.00  0.00     0.049 A 
ATOM     53  C   UNL A   1      44.722  30.734  29.949  1.00  0.00     0.074 A 
ATOM     54  C   UNL A   1      39.869  32.585  32.053  1.00  0.00     0.029 A 
ATOM     55  N   UNL A   1      40.293  33.295  29.992  1.00  0.00    -0.354 N 
ATOM     56  N   UNL A   1      43.660  31.439  30.240  1.00  0.00    -0.248 NA
ATOM     57  C   UNL A   1      45.814  31.596  29.505  1.00  0.00     0.031 C 
ATOM     58  C   UNL A   1      41.276  32.795  31.901  1.00  0.00     0.029 A 
ATOM     59  C   UNL A   1      41.537  33.219  30.604  1.00  0.00     0.049 A 
ATOM     60  H   UNL A   1      40.146  33.636  29.080  1.00  0.00     0.167 HD
ATOM     61  C   UNL A   1      43.812  32.740  29.887  1.00  0.00     0.074 A 
ATOM     62  C   UNL A   1      45.216  32.806  29.507  1.00  0.00     0.031 C 
ATOM     63  C   UNL A   1      42.755  33.615  29.875  1.00  0.00     0.034 A 
BRANCH  50  64
ATOM     64  C   UNL A   1      36.637  32.938  30.666  1.00  0.00     0.023 A 
ATOM     65  C   UNL A   1      36.256  32.627  31.989  1.00  0.00     0.012 A 
ATOM     66  C   UNL A   1      35.670  33.641  29.891  1.00  0.00     0.148 A 
ATOM     67  C   UNL A   1      35.011  32.989  32.519  1.00  0.00     0.002 A 
ATOM     68  C   UNL A   1      34.451  34.059  30.444  1.00  0.00     0.091 A 
ATOM     69  F   UNL A   1      35.868  33.844  28.587  1.00  0.00    -0.205 F 
ATOM     70  C   UNL A   1      34.114  33.720  31.755  1.00  0.00     0.022 A 
BRANCH  68  71
ATOM     71  S   UNL A   1      33.245  35.060  29.540  1.00  0.00     0.127 S 
ATOM     72  O   UNL A   1      32.237  35.331  30.565  1.00  0.00    -0.237 OA
ATOM     73  O   UNL A   1      34.038  36.227  29.150  1.00  0.00    -0.237 OA
ATOM     74  O   UNL A   1      32.786  34.243  28.424  1.00  0.00    -0.744 OA
ENDBRANCH  68  71
ENDBRANCH  50  64
BRANCH  51  75
ATOM     75  C   UNL A   1      45.569  28.224  29.321  1.00  0.00     0.023 A 
ATOM     76  C   UNL A   1      45.724  26.951  29.940  1.00  0.00     0.012 A 
ATOM     77  C   UNL A   1      45.630  28.320  27.928  1.00  0.00     0.148 A 
ATOM     78  C   UNL A   1      45.739  25.779  29.183  1.00  0.00     0.002 A 
ATOM     79  C   UNL A   1      45.577  27.145  27.190  1.00  0.00     0.091 A 
ATOM     80  F   UNL A   1      45.545  29.531  27.364  1.00  0.00    -0.205 F 
ATOM     81  C   UNL A   1      45.617  25.879  27.811  1.00  0.00     0.022 A 
BRANCH  79  82
ATOM     82  S   UNL A   1      44.852  27.120  25.556  1.00  0.00     0.127 S 
ATOM     83  O   UNL A   1      45.979  27.408  24.679  1.00  0.00    -0.237 OA
ATOM     84  O   UNL A   1      44.421  25.727  25.554  1.00  0.00    -0.237 OA
ATOM     85  O   UNL A   1      43.788  28.110  25.572  1.00  0.00    -0.744 OA
ENDBRANCH  79  82
ENDBRANCH  51  75
BRANCH  63  86
ATOM     86  C   UNL A   1      42.798  34.947  29.149  1.00  0.00     0.023 A 
ATOM     87  C   UNL A   1      41.944  35.228  28.064  1.00  0.00     0.012 A 
ATOM     88  C   UNL A   1      43.597  36.020  29.617  1.00  0.00     0.148 A 
ATOM     89  C   UNL A   1      41.976  36.450  27.390  1.00  0.00     0.002 A 
ATOM     90  C   UNL A   1      43.509  37.282  29.040  1.00  0.00     0.091 A 
ATOM     91  F   UNL A   1      44.472  35.824  30.612  1.00  0.00    -0.205 F 
ATOM     92  C   UNL A   1      42.747  37.486  27.890  1.00  0.00     0.022 A 
BRANCH  90  93
ATOM     93  S   UNL A   1      44.223  38.724  29.838  1.00  0.00     0.127 S 
ATOM     94  O   UNL A   1      43.686  38.614  31.191  1.00  0.00    -0.237 OA
ATOM     95  O   UNL A   1      45.659  38.456  29.726  1.00  0.00    -0.237 OA
ATOM     96  O   UNL A   1      43.768  39.865  29.055  1.00  0.00    -0.744 OA
ENDBRANCH  90  93
ENDBRANCH  63  86
ENDBRANCH  37  38
ENDBRANCH  30  32
ENDBRANCH  29  30
ENDBRANCH  28  29
ENDBRANCH  27  28
ENDBRANCH   1  27
TORSDOF 20
ENDMDL
MODEL 2
REMARK VINA RESULT:     -11.5      1.436      2.352
REMARK SMILES Cc1cc(C(=O)OCCOCCOC(=O)c2ccc(-c3c4nc(c(-c5cccc(S(=O)(=O)[O-])c5F)c5ccc([nH]5)c(-c5cccc(S(=O)(=O)[O-])c5F)c5nc(c(-c6cccc(S(=O)(=O)[O-])c6F)c6ccc3[nH]6)C=C5)C=C4)cc2)ccc1NS(=O)(=O)c1c(F)cccc1F
REMARK SMILES IDX 10 1 9 2 8 3 7 4 5 5 6 6 4 7 1 8 2 9 3 10 81 11 80 12 79 13
REMARK SMILES IDX 82 14 83 16 84 17 85 18 86 19 87 20 92 21 88 22 89 23 91 24
REMARK SMILES IDX 93 25 90 26 11 27 12 28 13 29 14 30 15 31 16 32 17 33 78 34
REMARK SMILES IDX 18 35 77 36 19 37 20 38 21 39 71 40 22 41 76 42 70 43 72 44
REMARK SMILES IDX 23 45 75 46 69 47 68 48 24 50 56 51 36 52 55 53 37 54 40 55
REMARK SMILES IDX 54 56 73 57 38 58 39 59 53 61 74 62 41 63 25 64 26 65 34 66
REMARK SMILES IDX 27 67 29 68 35 69 28 70 30 71 31 72 32 73 33 74 57 75 58 76
REMARK SMILES IDX 66 77 59 78 61 79 67 80 60 81 62 82 63 83 64 84 65 85 42 86
REMARK SMILES IDX 43 87 51 88 44 89 46 90 52 91 45 92 47 93 48 94 49 95 50 96
REMARK H PARENT 82 15 72 49 40 60
REMARK Flexibility Score: inf
ROOT
ATOM      1  O   UNL A   1      38.605  21.847  25.397  1.00  0.00    -0.374 OA
ENDROOT
BRANCH   1   2
ATOM      2  C   UNL A   1      37.504  21.015  25.652  1.00  0.00     0.202 C 
BRANCH   2   3
ATOM      3  C   UNL A   1      36.169  21.422  24.994  1.00  0.00     0.261 C 
BRANCH   3   4
ATOM      4  O   UNL A   1      35.491  22.441  25.687  1.00  0.00    -0.460 OA
BRANCH   4   5
ATOM      5  C   UNL A   1      35.255  23.518  24.909  1.00  0.00     0.338 C 
ATOM      6  O   UNL A   1      35.549  23.708  23.745  1.00  0.00    -0.246 OA
BRANCH   5   7
ATOM      7  C   UNL A   1      34.250  24.240  25.663  1.00  0.00     0.060 A 
ATOM      8  C   UNL A   1      33.471  27.872  25.713  1.00  0.00     0.046 C 
ATOM      9  C   UNL A   1      33.263  26.401  25.901  1.00  0.00    -0.026 A 
ATOM     10  C   UNL A   1      34.376  25.614  25.622  1.00  0.00     0.021 A 
ATOM     11  C   UNL A   1      32.047  25.773  26.253  1.00  0.00     0.052 A 
ATOM     12  C   UNL A   1      32.042  24.412  26.561  1.00  0.00     0.028 A 
ATOM     13  C   UNL A   1      33.104  23.625  26.153  1.00  0.00     0.018 A 
BRANCH  11  14
ATOM     14  N   UNL A   1      30.831  26.450  25.940  1.00  0.00    -0.279 N 
ATOM     15  H   UNL A   1      30.292  26.741  26.711  1.00  0.00     0.180 HD
BRANCH  14  16
ATOM     16  S   UNL A   1      30.202  26.813  24.438  1.00  0.00     0.267 S 
ATOM     17  O   UNL A   1      28.897  26.184  24.386  1.00  0.00    -0.201 OA
ATOM     18  O   UNL A   1      30.333  28.251  24.312  1.00  0.00    -0.201 OA
BRANCH  16  19
ATOM     19  C   UNL A   1      31.176  26.117  23.151  1.00  0.00     0.158 A 
ATOM     20  C   UNL A   1      31.238  24.727  23.089  1.00  0.00     0.146 A 
ATOM     21  C   UNL A   1      32.025  26.859  22.343  1.00  0.00     0.146 A 
ATOM     22  F   UNL A   1      30.361  23.965  23.758  1.00  0.00    -0.205 F 
ATOM     23  C   UNL A   1      32.214  24.081  22.330  1.00  0.00     0.041 A 
ATOM     24  C   UNL A   1      33.036  26.225  21.609  1.00  0.00     0.041 A 
ATOM     25  F   UNL A   1      31.953  28.195  22.290  1.00  0.00    -0.205 F 
ATOM     26  C   UNL A   1      33.146  24.833  21.622  1.00  0.00     0.006 A 
ENDBRANCH  16  19
ENDBRANCH  14  16
ENDBRANCH  11  14
ENDBRANCH   5   7
ENDBRANCH   4   5
ENDBRANCH   3   4
ENDBRANCH   2   3
ENDBRANCH   1   2
BRANCH   1  27
ATOM     27  C   UNL A   1      39.717  21.446  26.154  1.00  0.00     0.202 C 
BRANCH  27  28
ATOM     28  C   UNL A   1      41.127  22.189  26.100  1.00  0.00     0.261 C 
BRANCH  28  29
ATOM     29  O   UNL A   1      41.523  23.464  26.942  1.00  0.00    -0.460 OA
BRANCH  29  30
ATOM     30  C   UNL A   1      41.407  24.433  27.924  1.00  0.00     0.338 C 
ATOM     31  O   UNL A   1      42.376  24.571  28.677  1.00  0.00    -0.246 OA
BRANCH  30  32
ATOM     32  C   UNL A   1      40.402  25.555  27.880  1.00  0.00     0.060 A 
ATOM     33  C   UNL A   1      40.494  26.499  26.852  1.00  0.00     0.016 A 
ATOM     34  C   UNL A   1      39.464  25.853  28.831  1.00  0.00     0.016 A 
ATOM     35  C   UNL A   1      40.295  27.862  27.130  1.00  0.00     0.010 A 
ATOM     36  C   UNL A   1      39.330  27.194  29.174  1.00  0.00     0.010 A 
ATOM     37  C   UNL A   1      39.949  28.200  28.413  1.00  0.00    -0.014 A 
BRANCH  37  38
ATOM     38  C   UNL A   1      40.254  29.467  29.104  1.00  0.00     0.031 A 
ATOM     39  C   UNL A   1      39.185  30.501  29.052  1.00  0.00     0.074 A 
ATOM     40  C   UNL A   1      41.288  29.598  29.996  1.00  0.00     0.049 A 
ATOM     41  N   UNL A   1      39.304  31.698  29.500  1.00  0.00    -0.248 NA
ATOM     42  C   UNL A   1      37.874  30.272  28.437  1.00  0.00     0.031 C 
ATOM     43  C   UNL A   1      41.320  30.551  31.119  1.00  0.00     0.029 A 
ATOM     44  N   UNL A   1      42.491  28.897  30.200  1.00  0.00    -0.354 N 
ATOM     45  C   UNL A   1      38.045  32.256  29.538  1.00  0.00     0.074 A 
ATOM     46  C   UNL A   1      37.222  31.394  28.743  1.00  0.00     0.031 C 
ATOM     47  C   UNL A   1      42.516  30.523  31.726  1.00  0.00     0.029 A 
ATOM     48  C   UNL A   1      43.389  29.707  30.915  1.00  0.00     0.049 A 
ATOM     49  H   UNL A   1      42.675  27.981  29.890  1.00  0.00     0.167 HD
ATOM     50  C   UNL A   1      37.834  33.328  30.344  1.00  0.00     0.034 A 
ATOM     51  C   UNL A   1      44.612  30.143  30.482  1.00  0.00     0.034 A 
ATOM     52  C   UNL A   1      39.120  33.803  30.890  1.00  0.00     0.049 A 
ATOM     53  C   UNL A   1      44.563  31.641  30.176  1.00  0.00     0.074 A 
ATOM     54  C   UNL A   1      39.729  33.699  32.126  1.00  0.00     0.029 A 
ATOM     55  N   UNL A   1      40.124  34.180  29.995  1.00  0.00    -0.354 N 
ATOM     56  N   UNL A   1      43.502  32.372  30.401  1.00  0.00    -0.248 NA
ATOM     57  C   UNL A   1      45.646  32.453  29.626  1.00  0.00     0.031 C 
ATOM     58  C   UNL A   1      41.133  33.895  31.935  1.00  0.00     0.029 A 
ATOM     59  C   UNL A   1      41.377  34.175  30.596  1.00  0.00     0.049 A 
ATOM     60  H   UNL A   1      39.964  34.418  29.054  1.00  0.00     0.167 HD
ATOM     61  C   UNL A   1      43.644  33.626  29.906  1.00  0.00     0.074 A 
ATOM     62  C   UNL A   1      45.043  33.654  29.503  1.00  0.00     0.031 C 
ATOM     63  C   UNL A   1      42.583  34.491  29.812  1.00  0.00     0.034 A 
BRANCH  50  64
ATOM     64  C   UNL A   1      36.479  33.889  30.751  1.00  0.00     0.023 A 
ATOM     65  C   UNL A   1      36.143  33.781  32.118  1.00  0.00     0.012 A 
ATOM     66  C   UNL A   1      35.475  34.447  29.909  1.00  0.00     0.148 A 
ATOM     67  C   UNL A   1      34.907  34.201  32.625  1.00  0.00     0.002 A 
ATOM     68  C   UNL A   1      34.264  34.928  30.429  1.00  0.00     0.091 A 
ATOM     69  F   UNL A   1      35.630  34.449  28.583  1.00  0.00    -0.205 F 
ATOM     70  C   UNL A   1      33.974  34.791  31.787  1.00  0.00     0.022 A 
BRANCH  68  71
ATOM     71  S   UNL A   1      33.013  35.757  29.421  1.00  0.00     0.127 S 
ATOM     72  O   UNL A   1      32.557  34.678  28.543  1.00  0.00    -0.237 OA
ATOM     73  O   UNL A   1      32.031  36.175  30.423  1.00  0.00    -0.237 OA
ATOM     74  O   UNL A   1      33.690  36.857  28.746  1.00  0.00    -0.744 OA
ENDBRANCH  68  71
ENDBRANCH  50  64
BRANCH  51  75
ATOM     75  C   UNL A   1      45.413  29.080  29.817  1.00  0.00     0.023 A 
ATOM     76  C   UNL A   1      45.575  27.881  30.566  1.00  0.00     0.012 A 
ATOM     77  C   UNL A   1      45.462  29.028  28.421  1.00  0.00     0.148 A 
ATOM     78  C   UNL A   1      45.583  26.634  29.939  1.00  0.00     0.002 A 
ATOM     79  C   UNL A   1      45.403  27.781  27.813  1.00  0.00     0.091 A 
ATOM     80  F   UNL A   1      45.370  30.172  27.731  1.00  0.00    -0.205 F 
ATOM     81  C   UNL A   1      45.450  26.588  28.564  1.00  0.00     0.022 A 
BRANCH  79  82
ATOM     82  S   UNL A   1      44.664  27.581  26.197  1.00  0.00     0.127 S 
ATOM     83  O   UNL A   1      45.772  27.826  25.283  1.00  0.00    -0.237 OA
ATOM     84  O   UNL A   1      44.283  26.180  26.328  1.00  0.00    -0.237 OA
ATOM     85  O   UNL A   1      43.566  28.532  26.136  1.00  0.00    -0.744 OA
ENDBRANCH  79  82
ENDBRANCH  51  75
BRANCH  63  86
ATOM     86  C   UNL A   1      42.611  35.736  28.944  1.00  0.00     0.023 A 
ATOM     87  C   UNL A   1      41.837  35.840  27.771  1.00  0.00     0.012 A 
ATOM     88  C   UNL A   1      43.306  36.904  29.346  1.00  0.00     0.148 A 
ATOM     89  C   UNL A   1      41.857  36.980  26.966  1.00  0.00     0.002 A 
ATOM     90  C   UNL A   1      43.196  38.086  28.624  1.00  0.00     0.091 A 
ATOM     91  F   UNL A   1      44.105  36.877  30.422  1.00  0.00    -0.205 F 
ATOM     92  C   UNL A   1      42.523  38.113  27.402  1.00  0.00     0.022 A 
BRANCH  90  93
ATOM     93  S   UNL A   1      43.758  39.651  29.303  1.00  0.00     0.127 S 
ATOM     94  O   UNL A   1      43.144  39.640  30.628  1.00  0.00    -0.237 OA
ATOM     95  O   UNL A   1      45.212  39.481  29.302  1.00  0.00    -0.237 OA
ATOM     96  O   UNL A   1      43.277  40.670  28.380  1.00  0.00    -0.744 OA
ENDBRANCH  90  93
ENDBRANCH  63  86
ENDBRANCH  37  38
ENDBRANCH  30  32
ENDBRANCH  29  30
ENDBRANCH  28  29
ENDBRANCH  27  28
ENDBRANCH   1  27
TORSDOF 20
ENDMDL
MODEL 3
REMARK VINA RESULT:     -11.3      3.149      4.414
REMARK SMILES Cc1cc(C(=O)OCCOCCOC(=O)c2ccc(-c3c4nc(c(-c5cccc(S(=O)(=O)[O-])c5F)c5ccc([nH]5)c(-c5cccc(S(=O)(=O)[O-])c5F)c5nc(c(-c6cccc(S(=O)(=O)[O-])c6F)c6ccc3[nH]6)C=C5)C=C4)cc2)ccc1NS(=O)(=O)c1c(F)cccc1F
REMARK SMILES IDX 10 1 9 2 8 3 7 4 5 5 6 6 4 7 1 8 2 9 3 10 81 11 80 12 79 13
REMARK SMILES IDX 82 14 83 16 84 17 85 18 86 19 87 20 92 21 88 22 89 23 91 24
REMARK SMILES IDX 93 25 90 26 11 27 12 28 13 29 14 30 15 31 16 32 17 33 78 34
REMARK SMILES IDX 18 35 77 36 19 37 20 38 21 39 71 40 22 41 76 42 70 43 72 44
REMARK SMILES IDX 23 45 75 46 69 47 68 48 24 50 56 51 36 52 55 53 37 54 40 55
REMARK SMILES IDX 54 56 73 57 38 58 39 59 53 61 74 62 41 63 25 64 26 65 34 66
REMARK SMILES IDX 27 67 29 68 35 69 28 70 30 71 31 72 32 73 33 74 57 75 58 76
REMARK SMILES IDX 66 77 59 78 61 79 67 80 60 81 62 82 63 83 64 84 65 85 42 86
REMARK SMILES IDX 43 87 51 88 44 89 46 90 52 91 45 92 47 93 48 94 49 95 50 96
REMARK H PARENT 82 15 72 49 40 60
REMARK Flexibility Score: inf
ROOT
ATOM      1  O   UNL A   1      41.968  19.334  26.822  1.00  0.00    -0.374 OA
ENDROOT
BRANCH   1   2
ATOM      2  C   UNL A   1      40.809  19.707  26.124  1.00  0.00     0.202 C 
BRANCH   2   3
ATOM      3  C   UNL A   1      40.031  20.917  26.682  1.00  0.00     0.261 C 
BRANCH   3   4
ATOM      4  O   UNL A   1      39.226  21.556  25.723  1.00  0.00    -0.460 OA
BRANCH   4   5
ATOM      5  C   UNL A   1      38.605  22.647  26.223  1.00  0.00     0.338 C 
ATOM      6  O   UNL A   1      39.066  23.569  26.866  1.00  0.00    -0.246 OA
BRANCH   5   7
ATOM      7  C   UNL A   1      37.348  22.653  25.503  1.00  0.00     0.060 A 
ATOM      8  C   UNL A   1      34.270  24.640  26.117  1.00  0.00     0.046 C 
ATOM      9  C   UNL A   1      35.259  23.803  25.368  1.00  0.00    -0.026 A 
ATOM     10  C   UNL A   1      36.329  23.343  26.129  1.00  0.00     0.021 A 
ATOM     11  C   UNL A   1      35.228  23.520  23.984  1.00  0.00     0.052 A 
ATOM     12  C   UNL A   1      36.118  22.585  23.455  1.00  0.00     0.028 A 
ATOM     13  C   UNL A   1      37.248  22.245  24.178  1.00  0.00     0.018 A 
BRANCH  11  14
ATOM     14  N   UNL A   1      34.550  24.439  23.130  1.00  0.00    -0.279 N 
ATOM     15  H   UNL A   1      35.071  25.224  22.845  1.00  0.00     0.180 HD
BRANCH  14  16
ATOM     16  S   UNL A   1      32.987  24.358  22.550  1.00  0.00     0.267 S 
ATOM     17  O   UNL A   1      33.057  24.739  21.153  1.00  0.00    -0.201 OA
ATOM     18  O   UNL A   1      32.509  23.045  22.933  1.00  0.00    -0.201 OA
BRANCH  16  19
ATOM     19  C   UNL A   1      31.943  25.517  23.362  1.00  0.00     0.158 A 
ATOM     20  C   UNL A   1      30.585  25.213  23.412  1.00  0.00     0.146 A 
ATOM     21  C   UNL A   1      32.361  26.777  23.765  1.00  0.00     0.146 A 
ATOM     22  F   UNL A   1      30.142  23.976  23.149  1.00  0.00    -0.205 F 
ATOM     23  C   UNL A   1      29.640  26.186  23.738  1.00  0.00     0.041 A 
ATOM     24  C   UNL A   1      31.420  27.774  24.053  1.00  0.00     0.041 A 
ATOM     25  F   UNL A   1      33.659  27.099  23.826  1.00  0.00    -0.205 F 
ATOM     26  C   UNL A   1      30.054  27.485  24.016  1.00  0.00     0.006 A 
ENDBRANCH  16  19
ENDBRANCH  14  16
ENDBRANCH  11  14
ENDBRANCH   5   7
ENDBRANCH   4   5
ENDBRANCH   3   4
ENDBRANCH   2   3
ENDBRANCH   1   2
BRANCH   1  27
ATOM     27  C   UNL A   1      42.732  18.429  26.068  1.00  0.00     0.202 C 
BRANCH  27  28
ATOM     28  C   UNL A   1      44.046  18.848  25.267  1.00  0.00     0.261 C 
BRANCH  28  29
ATOM     29  O   UNL A   1      44.815  20.218  25.422  1.00  0.00    -0.460 OA
BRANCH  29  30
ATOM     30  C   UNL A   1      44.973  21.578  25.628  1.00  0.00     0.338 C 
ATOM     31  O   UNL A   1      46.081  22.050  25.355  1.00  0.00    -0.246 OA
BRANCH  30  32
ATOM     32  C   UNL A   1      43.825  22.544  25.757  1.00  0.00     0.060 A 
ATOM     33  C   UNL A   1      43.669  23.537  24.785  1.00  0.00     0.016 A 
ATOM     34  C   UNL A   1      42.967  22.661  26.818  1.00  0.00     0.016 A 
ATOM     35  C   UNL A   1      43.315  24.844  25.165  1.00  0.00     0.010 A 
ATOM     36  C   UNL A   1      42.688  23.952  27.254  1.00  0.00     0.010 A 
ATOM     37  C   UNL A   1      43.073  25.070  26.496  1.00  0.00    -0.014 A 
BRANCH  37  38
ATOM     38  C   UNL A   1      43.275  26.334  27.226  1.00  0.00     0.031 A 
ATOM     39  C   UNL A   1      42.041  27.117  27.512  1.00  0.00     0.074 A 
ATOM     40  C   UNL A   1      44.442  26.638  27.881  1.00  0.00     0.049 A 
ATOM     41  N   UNL A   1      42.024  28.287  28.040  1.00  0.00    -0.248 NA
ATOM     42  C   UNL A   1      40.695  26.644  27.177  1.00  0.00     0.031 C 
ATOM     43  C   UNL A   1      44.547  27.515  29.060  1.00  0.00     0.029 A 
ATOM     44  N   UNL A   1      45.774  26.201  27.748  1.00  0.00    -0.354 N 
ATOM     45  C   UNL A   1      40.725  28.559  28.407  1.00  0.00     0.074 A 
ATOM     46  C   UNL A   1      39.924  27.583  27.728  1.00  0.00     0.031 C 
ATOM     47  C   UNL A   1      45.833  27.713  29.386  1.00  0.00     0.029 A 
ATOM     48  C   UNL A   1      46.636  27.146  28.327  1.00  0.00     0.049 A 
ATOM     49  H   UNL A   1      46.056  25.363  27.315  1.00  0.00     0.167 HD
ATOM     50  C   UNL A   1      40.500  29.517  29.343  1.00  0.00     0.034 A 
ATOM     51  C   UNL A   1      47.614  27.856  27.685  1.00  0.00     0.034 A 
ATOM     52  C   UNL A   1      41.759  30.227  29.640  1.00  0.00     0.049 A 
ATOM     53  C   UNL A   1      47.201  29.323  27.548  1.00  0.00     0.074 A 
ATOM     54  C   UNL A   1      42.649  30.192  30.698  1.00  0.00     0.029 A 
ATOM     55  N   UNL A   1      42.432  30.857  28.591  1.00  0.00    -0.354 N 
ATOM     56  N   UNL A   1      46.100  29.796  28.070  1.00  0.00    -0.248 NA
ATOM     57  C   UNL A   1      47.944  30.375  26.859  1.00  0.00     0.031 C 
ATOM     58  C   UNL A   1      43.902  30.694  30.226  1.00  0.00     0.029 A 
ATOM     59  C   UNL A   1      43.766  31.089  28.901  1.00  0.00     0.049 A 
ATOM     60  H   UNL A   1      42.013  31.105  27.735  1.00  0.00     0.167 HD
ATOM     61  C   UNL A   1      45.872  31.076  27.683  1.00  0.00     0.074 A 
ATOM     62  C   UNL A   1      47.105  31.424  26.990  1.00  0.00     0.031 C 
ATOM     63  C   UNL A   1      44.670  31.697  27.909  1.00  0.00     0.034 A 
BRANCH  50  64
ATOM     64  C   UNL A   1      39.195  29.752  30.088  1.00  0.00     0.023 A 
ATOM     65  C   UNL A   1      38.854  28.795  31.068  1.00  0.00     0.012 A 
ATOM     66  C   UNL A   1      38.237  30.784  29.871  1.00  0.00     0.148 A 
ATOM     67  C   UNL A   1      37.656  28.851  31.792  1.00  0.00     0.002 A 
ATOM     68  C   UNL A   1      37.069  30.875  30.642  1.00  0.00     0.091 A 
ATOM     69  F   UNL A   1      38.390  31.645  28.863  1.00  0.00    -0.205 F 
ATOM     70  C   UNL A   1      36.771  29.900  31.594  1.00  0.00     0.022 A 
BRANCH  68  71
ATOM     71  S   UNL A   1      35.886  32.235  30.489  1.00  0.00     0.127 S 
ATOM     72  O   UNL A   1      35.282  31.974  29.182  1.00  0.00    -0.237 OA
ATOM     73  O   UNL A   1      34.992  32.000  31.625  1.00  0.00    -0.237 OA
ATOM     74  O   UNL A   1      36.659  33.466  30.577  1.00  0.00    -0.744 OA
ENDBRANCH  68  71
ENDBRANCH  50  64
BRANCH  51  75
ATOM     75  C   UNL A   1      48.430  27.026  26.758  1.00  0.00     0.023 A 
ATOM     76  C   UNL A   1      47.750  26.564  25.596  1.00  0.00     0.012 A 
ATOM     77  C   UNL A   1      49.816  27.200  26.716  1.00  0.00     0.148 A 
ATOM     78  C   UNL A   1      48.403  26.471  24.367  1.00  0.00     0.002 A 
ATOM     79  C   UNL A   1      50.440  27.170  25.476  1.00  0.00     0.091 A 
ATOM     80  F   UNL A   1      50.450  27.575  27.834  1.00  0.00    -0.205 F 
ATOM     81  C   UNL A   1      49.738  26.820  24.303  1.00  0.00     0.022 A 
BRANCH  79  82
ATOM     82  S   UNL A   1      51.919  28.126  25.169  1.00  0.00     0.127 S 
ATOM     83  O   UNL A   1      52.531  27.451  24.032  1.00  0.00    -0.237 OA
ATOM     84  O   UNL A   1      51.270  29.391  24.847  1.00  0.00    -0.237 OA
ATOM     85  O   UNL A   1      52.679  28.102  26.408  1.00  0.00    -0.744 OA
ENDBRANCH  79  82
ENDBRANCH  51  75
BRANCH  63  86
ATOM     86  C   UNL A   1      44.249  32.963  27.185  1.00  0.00     0.023 A 
ATOM     87  C   UNL A   1      44.133  33.010  25.781  1.00  0.00     0.012 A 
ATOM     88  C   UNL A   1      43.818  34.113  27.892  1.00  0.00     0.148 A 
ATOM     89  C   UNL A   1      43.748  34.169  25.105  1.00  0.00     0.002 A 
ATOM     90  C   UNL A   1      43.287  35.208  27.220  1.00  0.00     0.091 A 
ATOM     91  F   UNL A   1      43.941  34.170  29.225  1.00  0.00    -0.205 F 
ATOM     92  C   UNL A   1      43.306  35.265  25.826  1.00  0.00     0.022 A 
BRANCH  90  93
ATOM     93  S   UNL A   1      42.407  36.504  28.099  1.00  0.00     0.127 S 
ATOM     94  O   UNL A   1      43.478  37.117  28.880  1.00  0.00    -0.237 OA
ATOM     95  O   UNL A   1      41.902  37.330  27.000  1.00  0.00    -0.237 OA
ATOM     96  O   UNL A   1      41.367  35.822  28.857  1.00  0.00    -0.744 OA
ENDBRANCH  90  93
ENDBRANCH  63  86
ENDBRANCH  37  38
ENDBRANCH  30  32
ENDBRANCH  29  30
ENDBRANCH  28  29
ENDBRANCH  27  28
ENDBRANCH   1  27
TORSDOF 20
ENDMDL
