MODEL 1
REMARK VINA RESULT:     -11.4      0.000      0.000
REMARK SMILES C[NH2+][C@@]1(C(=O)OCCOCCOC(=O)c2ccc(-c3c4nc(c(-c5cccc(S(=O)(=O)[O-])c5F)c5ccc([nH]5)c(-c5cccc(S(=O)(=O)[O-])c5F)c5nc(c(-c6cccc(S(=O)(=O)[O-])c6F)c6ccc3[nH]6)C=C5)C=C4)cc2)CC[C@H](Sc2nccc(=O)[nH]2)C1
REMARK SMILES IDX 10 1 9 2 8 3 7 4 6 5 4 6 5 7 3 8 78 9 89 10 79 11 80 12 2 13
REMARK SMILES IDX 1 14 81 17 82 18 83 19 88 20 84 21 86 22 85 24 87 25 11 26
REMARK SMILES IDX 12 27 13 28 14 29 15 30 16 31 77 32 17 33 76 34 18 35 19 36
REMARK SMILES IDX 20 37 70 38 21 39 75 40 69 41 71 42 22 43 74 44 68 45 67 46
REMARK SMILES IDX 23 48 55 49 35 50 54 51 36 52 39 53 53 54 72 55 37 56 38 57
REMARK SMILES IDX 52 59 73 60 40 61 24 62 25 63 33 64 26 65 28 66 34 67 27 68
REMARK SMILES IDX 29 69 30 70 31 71 32 72 56 73 57 74 65 75 58 76 60 77 66 78
REMARK SMILES IDX 59 79 61 80 62 81 63 82 64 83 41 84 42 85 50 86 43 87 45 88
REMARK SMILES IDX 51 89 44 90 46 91 47 92 48 93 49 94
REMARK H PARENT 2 15 2 16 88 23 71 47 39 58
REMARK Flexibility Score: inf
ROOT
ATOM      1  C   UNL A   1      32.100  30.898  26.475  1.00  0.00     0.202 C 
ENDROOT
BRANCH   1   2
ATOM      2  O   UNL A   1      31.500  29.723  27.025  1.00  0.00    -0.374 OA
BRANCH   2   3
ATOM      3  C   UNL A   1      32.357  28.605  27.262  1.00  0.00     0.202 C 
BRANCH   3   4
ATOM      4  C   UNL A   1      31.771  27.227  26.949  1.00  0.00     0.261 C 
BRANCH   4   5
ATOM      5  O   UNL A   1      31.619  27.058  25.531  1.00  0.00    -0.459 OA
BRANCH   5   6
ATOM      6  C   UNL A   1      32.705  26.585  24.866  1.00  0.00     0.368 C 
ATOM      7  O   UNL A   1      33.763  26.296  25.415  1.00  0.00    -0.245 OA
BRANCH   6   8
ATOM      8  C   UNL A   1      32.467  26.482  23.319  1.00  0.00     0.195 C 
ATOM      9  C   UNL A   1      33.461  27.424  22.632  1.00  0.00     0.082 C 
ATOM     10  C   UNL A   1      31.117  27.045  22.808  1.00  0.00     0.096 C 
ATOM     11  C   UNL A   1      32.814  28.801  22.796  1.00  0.00     0.022 C 
ATOM     12  C   UNL A   1      31.318  28.556  22.577  1.00  0.00     0.062 C 
BRANCH   8  13
ATOM     13  N   UNL A   1      32.532  25.048  22.916  1.00  0.00    -0.335 N 
ATOM     14  C   UNL A   1      32.918  24.814  21.529  1.00  0.00     0.331 C 
ATOM     15  H   UNL A   1      33.212  24.582  23.516  1.00  0.00     0.347 HD
ATOM     16  H   UNL A   1      31.585  24.682  23.014  1.00  0.00     0.347 HD
ENDBRANCH   8  13
BRANCH  12  17
ATOM     17  S   UNL A   1      30.207  29.479  23.673  1.00  0.00    -0.084 SA
BRANCH  17  18
ATOM     18  C   UNL A   1      29.285  30.456  22.583  1.00  0.00     0.168 A 
ATOM     19  N   UNL A   1      28.681  30.015  21.532  1.00  0.00    -0.233 NA
ATOM     20  N   UNL A   1      29.279  31.749  22.989  1.00  0.00    -0.301 N 
ATOM     21  C   UNL A   1      28.061  30.976  20.763  1.00  0.00     0.120 A 
ATOM     22  C   UNL A   1      28.563  32.707  22.346  1.00  0.00     0.251 A 
ATOM     23  H   UNL A   1      29.811  32.001  23.778  1.00  0.00     0.172 HD
ATOM     24  C   UNL A   1      27.972  32.275  21.072  1.00  0.00     0.091 A 
ATOM     25  O   UNL A   1      28.380  33.819  22.822  1.00  0.00    -0.269 OA
ENDBRANCH  17  18
ENDBRANCH  12  17
ENDBRANCH   6   8
ENDBRANCH   5   6
ENDBRANCH   4   5
ENDBRANCH   3   4
ENDBRANCH   2   3
ENDBRANCH   1   2
BRANCH   1  26
ATOM     26  C   UNL A   1      31.778  32.227  27.174  1.00  0.00     0.261 C 
BRANCH  26  27
ATOM     27  O   UNL A   1      32.760  33.252  26.930  1.00  0.00    -0.460 OA
BRANCH  27  28
ATOM     28  C   UNL A   1      33.341  33.763  28.041  1.00  0.00     0.338 C 
ATOM     29  O   UNL A   1      32.877  34.615  28.792  1.00  0.00    -0.246 OA
BRANCH  28  30
ATOM     30  C   UNL A   1      34.575  33.024  28.366  1.00  0.00     0.060 A 
ATOM     31  C   UNL A   1      34.439  31.715  28.849  1.00  0.00     0.016 A 
ATOM     32  C   UNL A   1      35.834  33.622  28.291  1.00  0.00     0.016 A 
ATOM     33  C   UNL A   1      35.559  31.012  29.292  1.00  0.00     0.010 A 
ATOM     34  C   UNL A   1      36.953  32.917  28.750  1.00  0.00     0.010 A 
ATOM     35  C   UNL A   1      36.820  31.618  29.278  1.00  0.00    -0.014 A 
BRANCH  35  36
ATOM     36  C   UNL A   1      37.966  30.955  29.954  1.00  0.00     0.031 A 
ATOM     37  C   UNL A   1      38.311  31.353  31.365  1.00  0.00     0.074 A 
ATOM     38  C   UNL A   1      38.684  30.001  29.333  1.00  0.00     0.049 A 
ATOM     39  N   UNL A   1      39.273  30.921  32.138  1.00  0.00    -0.248 NA
ATOM     40  C   UNL A   1      37.455  32.377  31.988  1.00  0.00     0.031 C 
ATOM     41  C   UNL A   1      38.461  29.523  27.969  1.00  0.00     0.029 A 
ATOM     42  N   UNL A   1      39.771  29.281  29.767  1.00  0.00    -0.354 N 
ATOM     43  C   UNL A   1      39.163  31.644  33.320  1.00  0.00     0.074 A 
ATOM     44  C   UNL A   1      38.048  32.552  33.160  1.00  0.00     0.031 C 
ATOM     45  C   UNL A   1      39.405  28.616  27.664  1.00  0.00     0.029 A 
ATOM     46  C   UNL A   1      40.309  28.461  28.803  1.00  0.00     0.049 A 
ATOM     47  H   UNL A   1      40.131  29.347  30.681  1.00  0.00     0.167 HD
ATOM     48  C   UNL A   1      39.903  31.546  34.450  1.00  0.00     0.034 A 
ATOM     49  C   UNL A   1      41.416  27.690  28.829  1.00  0.00     0.034 A 
ATOM     50  C   UNL A   1      40.989  30.622  34.627  1.00  0.00     0.049 A 
ATOM     51  C   UNL A   1      42.231  27.606  30.094  1.00  0.00     0.074 A 
ATOM     52  C   UNL A   1      41.759  30.407  35.758  1.00  0.00     0.029 A 
ATOM     53  N   UNL A   1      41.467  29.766  33.648  1.00  0.00    -0.354 N 
ATOM     54  N   UNL A   1      42.030  28.191  31.249  1.00  0.00    -0.248 NA
ATOM     55  C   UNL A   1      43.407  26.721  30.072  1.00  0.00     0.031 C 
ATOM     56  C   UNL A   1      42.716  29.433  35.454  1.00  0.00     0.029 A 
ATOM     57  C   UNL A   1      42.526  29.025  34.144  1.00  0.00     0.049 A 
ATOM     58  H   UNL A   1      41.106  29.694  32.735  1.00  0.00     0.167 HD
ATOM     59  C   UNL A   1      43.027  27.722  32.098  1.00  0.00     0.074 A 
ATOM     60  C   UNL A   1      43.821  26.785  31.331  1.00  0.00     0.031 C 
ATOM     61  C   UNL A   1      43.272  28.049  33.391  1.00  0.00     0.034 A 
BRANCH  48  62
ATOM     62  C   UNL A   1      39.535  32.442  35.602  1.00  0.00     0.023 A 
ATOM     63  C   UNL A   1      40.033  33.761  35.642  1.00  0.00     0.012 A 
ATOM     64  C   UNL A   1      38.664  32.000  36.616  1.00  0.00     0.148 A 
ATOM     65  C   UNL A   1      39.695  34.615  36.690  1.00  0.00     0.002 A 
ATOM     66  C   UNL A   1      38.298  32.871  37.635  1.00  0.00     0.091 A 
ATOM     67  F   UNL A   1      38.221  30.735  36.573  1.00  0.00    -0.205 F 
ATOM     68  C   UNL A   1      38.820  34.174  37.680  1.00  0.00     0.022 A 
BRANCH  66  69
ATOM     69  S   UNL A   1      37.119  32.421  38.915  1.00  0.00     0.127 S 
ATOM     70  O   UNL A   1      35.854  32.826  38.306  1.00  0.00    -0.237 OA
ATOM     71  O   UNL A   1      37.311  30.974  39.017  1.00  0.00    -0.237 OA
ATOM     72  O   UNL A   1      37.512  33.169  40.101  1.00  0.00    -0.744 OA
ENDBRANCH  66  69
ENDBRANCH  48  62
BRANCH  49  73
ATOM     73  C   UNL A   1      41.797  26.899  27.624  1.00  0.00     0.023 A 
ATOM     74  C   UNL A   1      42.402  27.548  26.530  1.00  0.00     0.012 A 
ATOM     75  C   UNL A   1      41.577  25.510  27.564  1.00  0.00     0.148 A 
ATOM     76  C   UNL A   1      42.755  26.831  25.385  1.00  0.00     0.002 A 
ATOM     77  C   UNL A   1      41.981  24.792  26.444  1.00  0.00     0.091 A 
ATOM     78  F   UNL A   1      40.983  24.913  28.607  1.00  0.00    -0.205 F 
ATOM     79  C   UNL A   1      42.554  25.453  25.346  1.00  0.00     0.022 A 
BRANCH  77  80
ATOM     80  S   UNL A   1      41.880  22.999  26.369  1.00  0.00     0.127 S 
ATOM     81  O   UNL A   1      40.437  22.779  26.414  1.00  0.00    -0.237 OA
ATOM     82  O   UNL A   1      42.507  22.715  25.078  1.00  0.00    -0.237 OA
ATOM     83  O   UNL A   1      42.632  22.513  27.519  1.00  0.00    -0.744 OA
ENDBRANCH  77  80
ENDBRANCH  49  73
BRANCH  61  84
ATOM     84  C   UNL A   1      44.421  27.366  34.086  1.00  0.00     0.023 A 
ATOM     85  C   UNL A   1      45.701  27.956  34.068  1.00  0.00     0.012 A 
ATOM     86  C   UNL A   1      44.215  26.187  34.831  1.00  0.00     0.148 A 
ATOM     87  C   UNL A   1      46.763  27.366  34.753  1.00  0.00     0.002 A 
ATOM     88  C   UNL A   1      45.267  25.632  35.551  1.00  0.00     0.091 A 
ATOM     89  F   UNL A   1      42.995  25.631  34.823  1.00  0.00    -0.205 F 
ATOM     90  C   UNL A   1      46.543  26.214  35.504  1.00  0.00     0.022 A 
BRANCH  88  91
ATOM     91  S   UNL A   1      45.053  24.205  36.622  1.00  0.00     0.127 S 
ATOM     92  O   UNL A   1      44.210  24.753  37.683  1.00  0.00    -0.237 OA
ATOM     93  O   UNL A   1      44.380  23.251  35.741  1.00  0.00    -0.237 OA
ATOM     94  O   UNL A   1      46.394  23.807  37.030  1.00  0.00    -0.744 OA
ENDBRANCH  88  91
ENDBRANCH  61  84
ENDBRANCH  35  36
ENDBRANCH  28  30
ENDBRANCH  27  28
ENDBRANCH  26  27
ENDBRANCH   1  26
TORSDOF 20
ENDMDL
MODEL 2
REMARK VINA RESULT:     -11.4      5.174      7.767
REMARK SMILES C[NH2+][C@@]1(C(=O)OCCOCCOC(=O)c2ccc(-c3c4nc(c(-c5cccc(S(=O)(=O)[O-])c5F)c5ccc([nH]5)c(-c5cccc(S(=O)(=O)[O-])c5F)c5nc(c(-c6cccc(S(=O)(=O)[O-])c6F)c6ccc3[nH]6)C=C5)C=C4)cc2)CC[C@H](Sc2nccc(=O)[nH]2)C1
REMARK SMILES IDX 10 1 9 2 8 3 7 4 6 5 4 6 5 7 3 8 78 9 89 10 79 11 80 12 2 13
REMARK SMILES IDX 1 14 81 17 82 18 83 19 88 20 84 21 86 22 85 24 87 25 11 26
REMARK SMILES IDX 12 27 13 28 14 29 15 30 16 31 77 32 17 33 76 34 18 35 19 36
REMARK SMILES IDX 20 37 70 38 21 39 75 40 69 41 71 42 22 43 74 44 68 45 67 46
REMARK SMILES IDX 23 48 55 49 35 50 54 51 36 52 39 53 53 54 72 55 37 56 38 57
REMARK SMILES IDX 52 59 73 60 40 61 24 62 25 63 33 64 26 65 28 66 34 67 27 68
REMARK SMILES IDX 29 69 30 70 31 71 32 72 56 73 57 74 65 75 58 76 60 77 66 78
REMARK SMILES IDX 59 79 61 80 62 81 63 82 64 83 41 84 42 85 50 86 43 87 45 88
REMARK SMILES IDX 51 89 44 90 46 91 47 92 48 93 49 94
REMARK H PARENT 2 15 2 16 88 23 71 47 39 58
REMARK Flexibility Score: inf
ROOT
ATOM      1  C   UNL A   1      35.472  21.551  26.002  1.00  0.00     0.202 C 
ENDROOT
BRANCH   1   2
ATOM      2  O   UNL A   1      34.809  22.660  25.390  1.00  0.00    -0.374 OA
BRANCH   2   3
ATOM      3  C   UNL A   1      34.366  23.710  26.252  1.00  0.00     0.202 C 
BRANCH   3   4
ATOM      4  C   UNL A   1      32.950  24.232  26.008  1.00  0.00     0.261 C 
BRANCH   4   5
ATOM      5  O   UNL A   1      32.991  25.469  25.279  1.00  0.00    -0.459 OA
BRANCH   5   6
ATOM      6  C   UNL A   1      31.810  25.900  24.765  1.00  0.00     0.368 C 
ATOM      7  O   UNL A   1      30.804  26.084  25.442  1.00  0.00    -0.245 OA
BRANCH   6   8
ATOM      8  C   UNL A   1      31.867  26.101  23.210  1.00  0.00     0.195 C 
ATOM      9  C   UNL A   1      33.157  26.861  22.887  1.00  0.00     0.082 C 
ATOM     10  C   UNL A   1      30.800  27.053  22.617  1.00  0.00     0.096 C 
ATOM     11  C   UNL A   1      32.804  28.312  23.217  1.00  0.00     0.022 C 
ATOM     12  C   UNL A   1      31.364  28.485  22.723  1.00  0.00     0.062 C 
BRANCH   8  13
ATOM     13  N   UNL A   1      31.698  24.776  22.547  1.00  0.00    -0.335 N 
ATOM     14  C   UNL A   1      32.921  24.202  21.997  1.00  0.00     0.331 C 
ATOM     15  H   UNL A   1      31.325  24.123  23.236  1.00  0.00     0.347 HD
ATOM     16  H   UNL A   1      31.074  24.931  21.755  1.00  0.00     0.347 HD
ENDBRANCH   8  13
BRANCH  12  17
ATOM     17  S   UNL A   1      30.285  29.473  23.794  1.00  0.00    -0.084 SA
BRANCH  17  18
ATOM     18  C   UNL A   1      29.358  30.412  22.674  1.00  0.00     0.168 A 
ATOM     19  N   UNL A   1      28.763  29.937  21.633  1.00  0.00    -0.233 NA
ATOM     20  N   UNL A   1      29.336  31.714  23.047  1.00  0.00    -0.301 N 
ATOM     21  C   UNL A   1      28.136  30.871  20.837  1.00  0.00     0.120 A 
ATOM     22  C   UNL A   1      28.613  32.648  22.375  1.00  0.00     0.251 A 
ATOM     23  H   UNL A   1      29.862  31.993  23.830  1.00  0.00     0.172 HD
ATOM     24  C   UNL A   1      28.032  32.176  21.112  1.00  0.00     0.091 A 
ATOM     25  O   UNL A   1      28.417  33.769  22.821  1.00  0.00    -0.269 OA
ENDBRANCH  17  18
ENDBRANCH  12  17
ENDBRANCH   6   8
ENDBRANCH   5   6
ENDBRANCH   4   5
ENDBRANCH   3   4
ENDBRANCH   2   3
ENDBRANCH   1   2
BRANCH   1  26
ATOM     26  C   UNL A   1      36.485  20.791  25.132  1.00  0.00     0.261 C 
BRANCH  26  27
ATOM     27  O   UNL A   1      37.712  21.514  24.923  1.00  0.00    -0.460 OA
BRANCH  27  28
ATOM     28  C   UNL A   1      38.722  21.182  25.762  1.00  0.00     0.338 C 
ATOM     29  O   UNL A   1      39.223  20.072  25.911  1.00  0.00    -0.246 OA
BRANCH  28  30
ATOM     30  C   UNL A   1      39.298  22.389  26.381  1.00  0.00     0.060 A 
ATOM     31  C   UNL A   1      38.724  23.624  26.051  1.00  0.00     0.016 A 
ATOM     32  C   UNL A   1      40.432  22.332  27.194  1.00  0.00     0.016 A 
ATOM     33  C   UNL A   1      39.303  24.810  26.503  1.00  0.00     0.010 A 
ATOM     34  C   UNL A   1      41.017  23.526  27.634  1.00  0.00     0.010 A 
ATOM     35  C   UNL A   1      40.473  24.772  27.270  1.00  0.00    -0.014 A 
BRANCH  35  36
ATOM     36  C   UNL A   1      41.208  26.033  27.559  1.00  0.00     0.031 A 
ATOM     37  C   UNL A   1      40.516  27.116  28.343  1.00  0.00     0.074 A 
ATOM     38  C   UNL A   1      42.476  26.210  27.146  1.00  0.00     0.049 A 
ATOM     39  N   UNL A   1      40.956  28.297  28.695  1.00  0.00    -0.248 NA
ATOM     40  C   UNL A   1      39.142  26.832  28.791  1.00  0.00     0.031 C 
ATOM     41  C   UNL A   1      43.261  25.245  26.377  1.00  0.00     0.029 A 
ATOM     42  N   UNL A   1      43.318  27.285  27.295  1.00  0.00    -0.354 N 
ATOM     43  C   UNL A   1      39.906  28.908  29.369  1.00  0.00     0.074 A 
ATOM     44  C   UNL A   1      38.801  27.974  29.368  1.00  0.00     0.031 C 
ATOM     45  C   UNL A   1      44.458  25.786  26.090  1.00  0.00     0.029 A 
ATOM     46  C   UNL A   1      44.518  27.141  26.639  1.00  0.00     0.049 A 
ATOM     47  H   UNL A   1      43.085  28.083  27.823  1.00  0.00     0.167 HD
ATOM     48  C   UNL A   1      39.867  30.124  29.961  1.00  0.00     0.034 A 
ATOM     49  C   UNL A   1      45.538  28.009  26.481  1.00  0.00     0.034 A 
ATOM     50  C   UNL A   1      40.973  31.042  29.996  1.00  0.00     0.049 A 
ATOM     51  C   UNL A   1      45.469  29.363  27.140  1.00  0.00     0.074 A 
ATOM     52  C   UNL A   1      41.050  32.272  30.625  1.00  0.00     0.029 A 
ATOM     53  N   UNL A   1      42.192  30.835  29.370  1.00  0.00    -0.354 N 
ATOM     54  N   UNL A   1      44.523  29.869  27.892  1.00  0.00    -0.248 NA
ATOM     55  C   UNL A   1      46.628  30.252  26.960  1.00  0.00     0.031 C 
ATOM     56  C   UNL A   1      42.310  32.819  30.361  1.00  0.00     0.029 A 
ATOM     57  C   UNL A   1      43.026  31.918  29.590  1.00  0.00     0.049 A 
ATOM     58  H   UNL A   1      42.430  30.036  28.846  1.00  0.00     0.167 HD
ATOM     59  C   UNL A   1      44.984  31.116  28.303  1.00  0.00     0.074 A 
ATOM     60  C   UNL A   1      46.305  31.280  27.735  1.00  0.00     0.031 C 
ATOM     61  C   UNL A   1      44.363  32.046  29.070  1.00  0.00     0.034 A 
BRANCH  48  62
ATOM     62  C   UNL A   1      38.593  30.520  30.657  1.00  0.00     0.023 A 
ATOM     63  C   UNL A   1      38.410  30.184  32.014  1.00  0.00     0.012 A 
ATOM     64  C   UNL A   1      37.600  31.261  29.988  1.00  0.00     0.148 A 
ATOM     65  C   UNL A   1      37.245  30.552  32.685  1.00  0.00     0.002 A 
ATOM     66  C   UNL A   1      36.460  31.661  30.675  1.00  0.00     0.091 A 
ATOM     67  F   UNL A   1      37.782  31.549  28.691  1.00  0.00    -0.205 F 
ATOM     68  C   UNL A   1      36.276  31.298  32.020  1.00  0.00     0.022 A 
BRANCH  66  69
ATOM     69  S   UNL A   1      35.190  32.688  29.927  1.00  0.00     0.127 S 
ATOM     70  O   UNL A   1      35.968  33.842  29.482  1.00  0.00    -0.237 OA
ATOM     71  O   UNL A   1      34.697  31.831  28.847  1.00  0.00    -0.237 OA
ATOM     72  O   UNL A   1      34.219  32.954  30.980  1.00  0.00    -0.744 OA
ENDBRANCH  66  69
ENDBRANCH  48  62
BRANCH  49  73
ATOM     73  C   UNL A   1      46.739  27.607  25.694  1.00  0.00     0.023 A 
ATOM     74  C   UNL A   1      46.770  27.839  24.305  1.00  0.00     0.012 A 
ATOM     75  C   UNL A   1      47.852  27.010  26.316  1.00  0.00     0.148 A 
ATOM     76  C   UNL A   1      47.877  27.458  23.545  1.00  0.00     0.002 A 
ATOM     77  C   UNL A   1      48.974  26.683  25.563  1.00  0.00     0.091 A 
ATOM     78  F   UNL A   1      47.798  26.778  27.635  1.00  0.00    -0.205 F 
ATOM     79  C   UNL A   1      48.982  26.890  24.175  1.00  0.00     0.022 A 
BRANCH  77  80
ATOM     80  S   UNL A   1      50.487  26.071  26.316  1.00  0.00     0.127 S 
ATOM     81  O   UNL A   1      50.766  27.105  27.308  1.00  0.00    -0.237 OA
ATOM     82  O   UNL A   1      50.052  24.787  26.868  1.00  0.00    -0.237 OA
ATOM     83  O   UNL A   1      51.451  25.957  25.229  1.00  0.00    -0.744 OA
ENDBRANCH  77  80
ENDBRANCH  49  73
BRANCH  61  84
ATOM     84  C   UNL A   1      45.111  33.317  29.381  1.00  0.00     0.023 A 
ATOM     85  C   UNL A   1      45.940  33.381  30.519  1.00  0.00     0.012 A 
ATOM     86  C   UNL A   1      45.062  34.415  28.500  1.00  0.00     0.148 A 
ATOM     87  C   UNL A   1      46.684  34.529  30.791  1.00  0.00     0.002 A 
ATOM     88  C   UNL A   1      45.844  35.538  28.751  1.00  0.00     0.091 A 
ATOM     89  F   UNL A   1      44.255  34.343  27.431  1.00  0.00    -0.205 F 
ATOM     90  C   UNL A   1      46.646  35.601  29.901  1.00  0.00     0.022 A 
BRANCH  88  91
ATOM     91  S   UNL A   1      45.931  36.925  27.612  1.00  0.00     0.127 S 
ATOM     92  O   UNL A   1      44.562  37.435  27.658  1.00  0.00    -0.237 OA
ATOM     93  O   UNL A   1      46.926  37.789  28.247  1.00  0.00    -0.237 OA
ATOM     94  O   UNL A   1      46.348  36.366  26.333  1.00  0.00    -0.744 OA
ENDBRANCH  88  91
ENDBRANCH  61  84
ENDBRANCH  35  36
ENDBRANCH  28  30
ENDBRANCH  27  28
ENDBRANCH  26  27
ENDBRANCH   1  26
TORSDOF 20
ENDMDL
MODEL 3
REMARK VINA RESULT:     -11.1      5.174     10.138
REMARK SMILES C[NH2+][C@@]1(C(=O)OCCOCCOC(=O)c2ccc(-c3c4nc(c(-c5cccc(S(=O)(=O)[O-])c5F)c5ccc([nH]5)c(-c5cccc(S(=O)(=O)[O-])c5F)c5nc(c(-c6cccc(S(=O)(=O)[O-])c6F)c6ccc3[nH]6)C=C5)C=C4)cc2)CC[C@H](Sc2nccc(=O)[nH]2)C1
REMARK SMILES IDX 10 1 9 2 8 3 7 4 6 5 4 6 5 7 3 8 78 9 89 10 79 11 80 12 2 13
REMARK SMILES IDX 1 14 81 17 82 18 83 19 88 20 84 21 86 22 85 24 87 25 11 26
REMARK SMILES IDX 12 27 13 28 14 29 15 30 16 31 77 32 17 33 76 34 18 35 19 36
REMARK SMILES IDX 20 37 70 38 21 39 75 40 69 41 71 42 22 43 74 44 68 45 67 46
REMARK SMILES IDX 23 48 55 49 35 50 54 51 36 52 39 53 53 54 72 55 37 56 38 57
REMARK SMILES IDX 52 59 73 60 40 61 24 62 25 63 33 64 26 65 28 66 34 67 27 68
REMARK SMILES IDX 29 69 30 70 31 71 32 72 56 73 57 74 65 75 58 76 60 77 66 78
REMARK SMILES IDX 59 79 61 80 62 81 63 82 64 83 41 84 42 85 50 86 43 87 45 88
REMARK SMILES IDX 51 89 44 90 46 91 47 92 48 93 49 94
REMARK H PARENT 2 15 2 16 88 23 71 47 39 58
REMARK Flexibility Score: inf
ROOT
ATOM      1  C   UNL A   1      35.893  21.611  25.727  1.00  0.00     0.202 C 
ENDROOT
BRANCH   1   2
ATOM      2  O   UNL A   1      35.134  22.445  24.850  1.00  0.00    -0.374 OA
BRANCH   2   3
ATOM      3  C   UNL A   1      35.135  23.848  25.123  1.00  0.00     0.202 C 
BRANCH   3   4
ATOM      4  C   UNL A   1      33.823  24.436  25.645  1.00  0.00     0.261 C 
BRANCH   4   5
ATOM      5  O   UNL A   1      33.644  25.773  25.154  1.00  0.00    -0.459 OA
BRANCH   5   6
ATOM      6  C   UNL A   1      32.371  26.132  24.846  1.00  0.00     0.368 C 
ATOM      7  O   UNL A   1      31.535  26.451  25.685  1.00  0.00    -0.245 OA
BRANCH   6   8
ATOM      8  C   UNL A   1      32.080  26.059  23.306  1.00  0.00     0.195 C 
ATOM      9  C   UNL A   1      33.173  26.858  22.588  1.00  0.00     0.082 C 
ATOM     10  C   UNL A   1      30.804  26.795  22.827  1.00  0.00     0.096 C 
ATOM     11  C   UNL A   1      32.719  28.309  22.761  1.00  0.00     0.022 C 
ATOM     12  C   UNL A   1      31.199  28.266  22.582  1.00  0.00     0.062 C 
BRANCH   8  13
ATOM     13  N   UNL A   1      31.942  24.628  22.910  1.00  0.00    -0.335 N 
ATOM     14  C   UNL A   1      30.701  23.988  23.333  1.00  0.00     0.331 C 
ATOM     15  H   UNL A   1      31.994  24.575  21.893  1.00  0.00     0.347 HD
ATOM     16  H   UNL A   1      32.696  24.128  23.381  1.00  0.00     0.347 HD
ENDBRANCH   8  13
BRANCH  12  17
ATOM     17  S   UNL A   1      30.251  29.332  23.702  1.00  0.00    -0.084 SA
BRANCH  17  18
ATOM     18  C   UNL A   1      29.343  30.339  22.628  1.00  0.00     0.168 A 
ATOM     19  N   UNL A   1      28.695  29.916  21.596  1.00  0.00    -0.233 NA
ATOM     20  N   UNL A   1      29.401  31.633  23.024  1.00  0.00    -0.301 N 
ATOM     21  C   UNL A   1      28.096  30.897  20.835  1.00  0.00     0.120 A 
ATOM     22  C   UNL A   1      28.710  32.616  22.391  1.00  0.00     0.251 A 
ATOM     23  H   UNL A   1      29.963  31.869  23.796  1.00  0.00     0.172 HD
ATOM     24  C   UNL A   1      28.069  32.200  21.136  1.00  0.00     0.091 A 
ATOM     25  O   UNL A   1      28.586  33.738  22.862  1.00  0.00    -0.269 OA
ENDBRANCH  17  18
ENDBRANCH  12  17
ENDBRANCH   6   8
ENDBRANCH   5   6
ENDBRANCH   4   5
ENDBRANCH   3   4
ENDBRANCH   2   3
ENDBRANCH   1   2
BRANCH   1  26
ATOM     26  C   UNL A   1      37.074  20.852  25.102  1.00  0.00     0.261 C 
BRANCH  26  27
ATOM     27  O   UNL A   1      38.284  21.631  25.042  1.00  0.00    -0.460 OA
BRANCH  27  28
ATOM     28  C   UNL A   1      39.185  21.364  26.016  1.00  0.00     0.338 C 
ATOM     29  O   UNL A   1      39.709  20.282  26.261  1.00  0.00    -0.246 OA
BRANCH  28  30
ATOM     30  C   UNL A   1      39.620  22.609  26.674  1.00  0.00     0.060 A 
ATOM     31  C   UNL A   1      39.040  23.809  26.240  1.00  0.00     0.016 A 
ATOM     32  C   UNL A   1      40.639  22.622  27.628  1.00  0.00     0.016 A 
ATOM     33  C   UNL A   1      39.501  25.030  26.733  1.00  0.00     0.010 A 
ATOM     34  C   UNL A   1      41.108  23.851  28.110  1.00  0.00     0.010 A 
ATOM     35  C   UNL A   1      40.560  25.063  27.646  1.00  0.00    -0.014 A 
BRANCH  35  36
ATOM     36  C   UNL A   1      41.194  26.362  27.996  1.00  0.00     0.031 A 
ATOM     37  C   UNL A   1      42.613  26.621  27.566  1.00  0.00     0.074 A 
ATOM     38  C   UNL A   1      40.516  27.307  28.673  1.00  0.00     0.049 A 
ATOM     39  N   UNL A   1      43.367  27.669  27.774  1.00  0.00    -0.248 NA
ATOM     40  C   UNL A   1      43.275  25.551  26.797  1.00  0.00     0.031 C 
ATOM     41  C   UNL A   1      39.139  27.187  29.151  1.00  0.00     0.029 A 
ATOM     42  N   UNL A   1      40.912  28.552  29.099  1.00  0.00    -0.354 N 
ATOM     43  C   UNL A   1      44.596  27.374  27.198  1.00  0.00     0.074 A 
ATOM     44  C   UNL A   1      44.495  26.042  26.642  1.00  0.00     0.031 C 
ATOM     45  C   UNL A   1      38.817  28.297  29.837  1.00  0.00     0.029 A 
ATOM     46  C   UNL A   1      39.968  29.199  29.862  1.00  0.00     0.049 A 
ATOM     47  H   UNL A   1      41.788  28.944  28.879  1.00  0.00     0.167 HD
ATOM     48  C   UNL A   1      45.705  28.147  27.114  1.00  0.00     0.034 A 
ATOM     49  C   UNL A   1      40.033  30.373  30.523  1.00  0.00     0.034 A 
ATOM     50  C   UNL A   1      45.800  29.483  27.633  1.00  0.00     0.049 A 
ATOM     51  C   UNL A   1      41.281  31.212  30.423  1.00  0.00     0.074 A 
ATOM     52  C   UNL A   1      46.860  30.368  27.542  1.00  0.00     0.029 A 
ATOM     53  N   UNL A   1      44.802  30.126  28.349  1.00  0.00    -0.354 N 
ATOM     54  N   UNL A   1      42.385  30.978  29.757  1.00  0.00    -0.248 NA
ATOM     55  C   UNL A   1      41.278  32.500  31.137  1.00  0.00     0.031 C 
ATOM     56  C   UNL A   1      46.511  31.539  28.221  1.00  0.00     0.029 A 
ATOM     57  C   UNL A   1      45.224  31.393  28.714  1.00  0.00     0.049 A 
ATOM     58  H   UNL A   1      43.923  29.739  28.566  1.00  0.00     0.167 HD
ATOM     59  C   UNL A   1      43.191  32.097  29.940  1.00  0.00     0.074 A 
ATOM     60  C   UNL A   1      42.440  33.021  30.763  1.00  0.00     0.031 C 
ATOM     61  C   UNL A   1      44.445  32.331  29.481  1.00  0.00     0.034 A 
BRANCH  48  62
ATOM     62  C   UNL A   1      46.898  27.576  26.396  1.00  0.00     0.023 A 
ATOM     63  C   UNL A   1      47.775  26.712  27.085  1.00  0.00     0.012 A 
ATOM     64  C   UNL A   1      47.127  27.852  25.035  1.00  0.00     0.148 A 
ATOM     65  C   UNL A   1      48.878  26.158  26.439  1.00  0.00     0.002 A 
ATOM     66  C   UNL A   1      48.206  27.262  24.386  1.00  0.00     0.091 A 
ATOM     67  F   UNL A   1      46.297  28.694  24.404  1.00  0.00    -0.205 F 
ATOM     68  C   UNL A   1      49.088  26.425  25.089  1.00  0.00     0.022 A 
BRANCH  66  69
ATOM     69  S   UNL A   1      48.518  27.484  22.630  1.00  0.00     0.127 S 
ATOM     70  O   UNL A   1      49.777  28.227  22.645  1.00  0.00    -0.237 OA
ATOM     71  O   UNL A   1      48.631  26.102  22.160  1.00  0.00    -0.237 OA
ATOM     72  O   UNL A   1      47.368  28.209  22.108  1.00  0.00    -0.744 OA
ENDBRANCH  66  69
ENDBRANCH  48  62
BRANCH  49  73
ATOM     73  C   UNL A   1      38.858  30.849  31.307  1.00  0.00     0.023 A 
ATOM     74  C   UNL A   1      38.731  30.482  32.661  1.00  0.00     0.012 A 
ATOM     75  C   UNL A   1      37.876  31.672  30.723  1.00  0.00     0.148 A 
ATOM     76  C   UNL A   1      37.632  30.903  33.411  1.00  0.00     0.002 A 
ATOM     77  C   UNL A   1      36.812  32.134  31.491  1.00  0.00     0.091 A 
ATOM     78  F   UNL A   1      38.002  31.995  29.428  1.00  0.00    -0.205 F 
ATOM     79  C   UNL A   1      36.679  31.736  32.830  1.00  0.00     0.022 A 
BRANCH  77  80
ATOM     80  S   UNL A   1      35.616  33.315  30.856  1.00  0.00     0.127 S 
ATOM     81  O   UNL A   1      34.413  32.495  30.749  1.00  0.00    -0.237 OA
ATOM     82  O   UNL A   1      35.587  34.318  31.921  1.00  0.00    -0.237 OA
ATOM     83  O   UNL A   1      36.169  33.798  29.597  1.00  0.00    -0.744 OA
ENDBRANCH  77  80
ENDBRANCH  49  73
BRANCH  61  84
ATOM     84  C   UNL A   1      45.084  33.654  29.817  1.00  0.00     0.023 A 
ATOM     85  C   UNL A   1      45.838  33.786  31.001  1.00  0.00     0.012 A 
ATOM     86  C   UNL A   1      45.012  34.737  28.920  1.00  0.00     0.148 A 
ATOM     87  C   UNL A   1      46.483  34.986  31.299  1.00  0.00     0.002 A 
ATOM     88  C   UNL A   1      45.698  35.915  29.200  1.00  0.00     0.091 A 
ATOM     89  F   UNL A   1      44.276  34.599  27.807  1.00  0.00    -0.205 F 
ATOM     90  C   UNL A   1      46.424  36.044  30.394  1.00  0.00     0.022 A 
BRANCH  88  91
ATOM     91  S   UNL A   1      45.757  37.292  28.049  1.00  0.00     0.127 S 
ATOM     92  O   UNL A   1      44.433  37.887  28.227  1.00  0.00    -0.237 OA
ATOM     93  O   UNL A   1      46.861  38.094  28.578  1.00  0.00    -0.237 OA
ATOM     94  O   UNL A   1      46.010  36.708  26.739  1.00  0.00    -0.744 OA
ENDBRANCH  88  91
ENDBRANCH  61  84
ENDBRANCH  35  36
ENDBRANCH  28  30
ENDBRANCH  27  28
ENDBRANCH  26  27
ENDBRANCH   1  26
TORSDOF 20
ENDMDL
