MODEL 1
REMARK VINA RESULT:     -12.1      0.000      0.000
REMARK SMILES O=C(Cc1c(C(=O)c2cc3c(cn2)CCCC3)[nH]c2cc(Cl)ccc12)OCCOCCOC(=O)c1ccc(-c2c3nc(c(-c4cccc(S(=O)(=O)[O-])c4F)c4ccc([nH]4)c(-c4cccc(S(=O)(=O)[O-])c4F)c4nc(c(-c5cccc(S(=O)(=O)[O-])c5F)c5ccc2[nH]5)C=C4)C=C3)cc1
REMARK SMILES IDX 29 1 28 2 27 3 26 4 2 5 1 6 3 7 4 8 5 9 25 10 18 11 19 12
REMARK SMILES IDX 24 13 20 15 23 16 21 17 22 18 6 19 7 20 8 21 9 22 13 23
REMARK SMILES IDX 10 24 12 25 11 26 17 27 14 28 16 29 15 30 30 31 31 32 32 33
REMARK SMILES IDX 33 34 34 35 35 36 36 37 97 38 37 39 96 40 38 41 39 42 40 43
REMARK SMILES IDX 90 44 41 45 95 46 89 47 91 48 42 49 94 50 88 51 87 52 43 54
REMARK SMILES IDX 75 55 55 56 74 57 56 58 59 59 73 60 92 61 57 62 58 63 72 65
REMARK SMILES IDX 93 66 60 67 44 68 45 69 53 70 46 71 48 72 54 73 47 74 49 75
REMARK SMILES IDX 50 76 51 77 52 78 76 79 77 80 85 81 78 82 80 83 86 84 79 85
REMARK SMILES IDX 81 86 82 87 83 88 84 89 61 90 62 91 70 92 63 93 65 94 71 95
REMARK SMILES IDX 64 96 66 97 67 98 68 99 69 100
REMARK H PARENT 18 14 91 53 59 64
REMARK Flexibility Score: inf
ROOT
ATOM      1  O   UNL A   1      33.015  30.251  27.532  1.00  0.00    -0.374 OA
ENDROOT
BRANCH   1   2
ATOM      2  C   UNL A   1      33.827  29.172  27.095  1.00  0.00     0.202 C 
BRANCH   2   3
ATOM      3  C   UNL A   1      33.190  28.097  26.211  1.00  0.00     0.261 C 
BRANCH   3   4
ATOM      4  O   UNL A   1      32.440  27.083  26.892  1.00  0.00    -0.463 OA
BRANCH   4   5
ATOM      5  C   UNL A   1      32.164  25.847  26.406  1.00  0.00     0.310 C 
ATOM      6  O   UNL A   1      31.129  25.274  26.757  1.00  0.00    -0.252 OA
BRANCH   5   7
ATOM      7  C   UNL A   1      33.216  25.087  25.638  1.00  0.00     0.161 C 
BRANCH   7   8
ATOM      8  C   UNL A   1      32.888  24.385  24.351  1.00  0.00     0.000 A 
ATOM      9  C   UNL A   1      32.609  24.890  23.082  1.00  0.00     0.093 A 
ATOM     10  C   UNL A   1      32.775  22.956  24.263  1.00  0.00     0.004 A 
ATOM     11  N   UNL A   1      32.545  23.808  22.228  1.00  0.00    -0.351 N 
ATOM     12  C   UNL A   1      32.536  22.629  22.933  1.00  0.00     0.048 A 
ATOM     13  C   UNL A   1      32.840  21.914  25.215  1.00  0.00     0.012 A 
ATOM     14  H   UNL A   1      32.510  23.872  21.246  1.00  0.00     0.167 HD
ATOM     15  C   UNL A   1      32.335  21.312  22.499  1.00  0.00     0.047 A 
ATOM     16  C   UNL A   1      32.616  20.594  24.808  1.00  0.00     0.021 A 
ATOM     17  C   UNL A   1      32.363  20.306  23.470  1.00  0.00     0.043 A 
ATOM     18  Cl  UNL A   1      32.061  18.674  23.003  1.00  0.00    -0.084 Cl
BRANCH   9  19
ATOM     19  C   UNL A   1      32.413  26.271  22.669  1.00  0.00     0.227 C 
ATOM     20  O   UNL A   1      33.318  26.992  22.265  1.00  0.00    -0.285 OA
BRANCH  19  21
ATOM     21  C   UNL A   1      31.085  26.884  22.848  1.00  0.00     0.113 A 
ATOM     22  C   UNL A   1      30.915  28.156  22.333  1.00  0.00     0.036 A 
ATOM     23  N   UNL A   1      30.143  26.177  23.521  1.00  0.00    -0.252 NA
ATOM     24  C   UNL A   1      29.676  28.763  22.494  1.00  0.00    -0.041 A 
ATOM     25  C   UNL A   1      28.930  26.772  23.616  1.00  0.00     0.115 A 
ATOM     26  C   UNL A   1      28.652  28.057  23.146  1.00  0.00    -0.026 A 
ATOM     27  C   UNL A   1      29.499  30.180  22.017  1.00  0.00     0.036 C 
ATOM     28  C   UNL A   1      27.266  28.638  23.276  1.00  0.00     0.037 C 
ATOM     29  C   UNL A   1      28.039  30.599  21.925  1.00  0.00     0.005 C 
ATOM     30  C   UNL A   1      27.283  30.163  23.176  1.00  0.00     0.005 C 
ENDBRANCH  19  21
ENDBRANCH   9  19
ENDBRANCH   7   8
ENDBRANCH   5   7
ENDBRANCH   4   5
ENDBRANCH   3   4
ENDBRANCH   2   3
ENDBRANCH   1   2
BRANCH   1  31
ATOM     31  C   UNL A   1      33.603  31.548  27.646  1.00  0.00     0.202 C 
BRANCH  31  32
ATOM     32  C   UNL A   1      32.716  32.798  27.592  1.00  0.00     0.261 C 
BRANCH  32  33
ATOM     33  O   UNL A   1      33.454  34.030  27.614  1.00  0.00    -0.460 OA
BRANCH  33  34
ATOM     34  C   UNL A   1      33.441  34.696  28.791  1.00  0.00     0.338 C 
ATOM     35  O   UNL A   1      32.583  35.478  29.188  1.00  0.00    -0.246 OA
BRANCH  34  36
ATOM     36  C   UNL A   1      34.554  34.241  29.632  1.00  0.00     0.060 A 
ATOM     37  C   UNL A   1      34.292  33.568  30.827  1.00  0.00     0.016 A 
ATOM     38  C   UNL A   1      35.867  34.398  29.169  1.00  0.00     0.016 A 
ATOM     39  C   UNL A   1      35.355  33.024  31.548  1.00  0.00     0.010 A 
ATOM     40  C   UNL A   1      36.927  33.858  29.897  1.00  0.00     0.010 A 
ATOM     41  C   UNL A   1      36.675  33.146  31.079  1.00  0.00    -0.014 A 
BRANCH  41  42
ATOM     42  C   UNL A   1      37.765  32.401  31.749  1.00  0.00     0.031 A 
ATOM     43  C   UNL A   1      38.444  31.242  31.088  1.00  0.00     0.074 A 
ATOM     44  C   UNL A   1      38.129  32.784  32.988  1.00  0.00     0.049 A 
ATOM     45  N   UNL A   1      39.460  30.541  31.518  1.00  0.00    -0.248 NA
ATOM     46  C   UNL A   1      37.916  30.808  29.786  1.00  0.00     0.031 C 
ATOM     47  C   UNL A   1      37.496  33.864  33.749  1.00  0.00     0.029 A 
ATOM     48  N   UNL A   1      39.109  32.314  33.823  1.00  0.00    -0.354 N 
ATOM     49  C   UNL A   1      39.703  29.585  30.541  1.00  0.00     0.074 A 
ATOM     50  C   UNL A   1      38.705  29.778  29.508  1.00  0.00     0.031 C 
ATOM     51  C   UNL A   1      38.116  33.986  34.933  1.00  0.00     0.029 A 
ATOM     52  C   UNL A   1      39.176  32.986  35.020  1.00  0.00     0.049 A 
ATOM     53  H   UNL A   1      39.706  31.569  33.589  1.00  0.00     0.167 HD
ATOM     54  C   UNL A   1      40.685  28.655  30.502  1.00  0.00     0.034 A 
ATOM     55  C   UNL A   1      40.003  32.824  36.071  1.00  0.00     0.034 A 
ATOM     56  C   UNL A   1      41.680  28.478  31.528  1.00  0.00     0.049 A 
ATOM     57  C   UNL A   1      41.080  31.782  36.005  1.00  0.00     0.074 A 
ATOM     58  C   UNL A   1      42.749  27.598  31.545  1.00  0.00     0.029 A 
ATOM     59  N   UNL A   1      41.727  29.182  32.722  1.00  0.00    -0.354 N 
ATOM     60  N   UNL A   1      41.375  30.972  35.019  1.00  0.00    -0.248 NA
ATOM     61  C   UNL A   1      41.951  31.647  37.180  1.00  0.00     0.031 C 
ATOM     62  C   UNL A   1      43.429  27.756  32.758  1.00  0.00     0.029 A 
ATOM     63  C   UNL A   1      42.794  28.744  33.491  1.00  0.00     0.049 A 
ATOM     64  H   UNL A   1      41.094  29.889  32.986  1.00  0.00     0.167 HD
ATOM     65  C   UNL A   1      42.470  30.232  35.448  1.00  0.00     0.074 A 
ATOM     66  C   UNL A   1      42.800  30.709  36.778  1.00  0.00     0.031 C 
ATOM     67  C   UNL A   1      43.127  29.238  34.803  1.00  0.00     0.034 A 
BRANCH  54  68
ATOM     68  C   UNL A   1      40.775  27.788  29.276  1.00  0.00     0.023 A 
ATOM     69  C   UNL A   1      39.936  26.660  29.173  1.00  0.00     0.012 A 
ATOM     70  C   UNL A   1      41.614  28.129  28.198  1.00  0.00     0.148 A 
ATOM     71  C   UNL A   1      39.942  25.874  28.023  1.00  0.00     0.002 A 
ATOM     72  C   UNL A   1      41.590  27.359  27.041  1.00  0.00     0.091 A 
ATOM     73  F   UNL A   1      42.411  29.198  28.324  1.00  0.00    -0.205 F 
ATOM     74  C   UNL A   1      40.762  26.227  26.955  1.00  0.00     0.022 A 
BRANCH  72  75
ATOM     75  S   UNL A   1      42.563  27.755  25.583  1.00  0.00     0.127 S 
ATOM     76  O   UNL A   1      43.907  27.872  26.148  1.00  0.00    -0.237 OA
ATOM     77  O   UNL A   1      42.359  26.574  24.748  1.00  0.00    -0.237 OA
ATOM     78  O   UNL A   1      42.015  28.997  25.056  1.00  0.00    -0.744 OA
ENDBRANCH  72  75
ENDBRANCH  54  68
BRANCH  55  79
ATOM     79  C   UNL A   1      39.866  33.735  37.238  1.00  0.00     0.023 A 
ATOM     80  C   UNL A   1      38.917  33.438  38.233  1.00  0.00     0.012 A 
ATOM     81  C   UNL A   1      40.744  34.822  37.417  1.00  0.00     0.148 A 
ATOM     82  C   UNL A   1      38.845  34.210  39.393  1.00  0.00     0.002 A 
ATOM     83  C   UNL A   1      40.691  35.564  38.589  1.00  0.00     0.091 A 
ATOM     84  F   UNL A   1      41.641  35.074  36.453  1.00  0.00    -0.205 F 
ATOM     85  C   UNL A   1      39.738  35.265  39.576  1.00  0.00     0.022 A 
BRANCH  83  86
ATOM     86  S   UNL A   1      41.860  36.876  38.963  1.00  0.00     0.127 S 
ATOM     87  O   UNL A   1      42.640  36.940  37.728  1.00  0.00    -0.237 OA
ATOM     88  O   UNL A   1      40.968  38.012  39.188  1.00  0.00    -0.237 OA
ATOM     89  O   UNL A   1      42.594  36.431  40.138  1.00  0.00    -0.744 OA
ENDBRANCH  83  86
ENDBRANCH  55  79
BRANCH  67  90
ATOM     90  C   UNL A   1      44.264  28.567  35.527  1.00  0.00     0.023 A 
ATOM     91  C   UNL A   1      45.578  29.036  35.326  1.00  0.00     0.012 A 
ATOM     92  C   UNL A   1      44.027  27.549  36.472  1.00  0.00     0.148 A 
ATOM     93  C   UNL A   1      46.640  28.495  36.048  1.00  0.00     0.002 A 
ATOM     94  C   UNL A   1      45.087  27.039  37.212  1.00  0.00     0.091 A 
ATOM     95  F   UNL A   1      42.770  27.114  36.638  1.00  0.00    -0.205 F 
ATOM     96  C   UNL A   1      46.395  27.507  36.998  1.00  0.00     0.022 A 
BRANCH  94  97
ATOM     97  S   UNL A   1      44.867  25.811  38.506  1.00  0.00     0.127 S 
ATOM     98  O   UNL A   1      44.035  26.538  39.464  1.00  0.00    -0.237 OA
ATOM     99  O   UNL A   1      44.178  24.734  37.794  1.00  0.00    -0.237 OA
ATOM    100  O   UNL A   1      46.203  25.474  38.976  1.00  0.00    -0.744 OA
ENDBRANCH  94  97
ENDBRANCH  67  90
ENDBRANCH  41  42
ENDBRANCH  34  36
ENDBRANCH  33  34
ENDBRANCH  32  33
ENDBRANCH  31  32
ENDBRANCH   1  31
TORSDOF 20
ENDMDL
MODEL 2
REMARK VINA RESULT:     -11.6      1.756      8.144
REMARK SMILES O=C(Cc1c(C(=O)c2cc3c(cn2)CCCC3)[nH]c2cc(Cl)ccc12)OCCOCCOC(=O)c1ccc(-c2c3nc(c(-c4cccc(S(=O)(=O)[O-])c4F)c4ccc([nH]4)c(-c4cccc(S(=O)(=O)[O-])c4F)c4nc(c(-c5cccc(S(=O)(=O)[O-])c5F)c5ccc2[nH]5)C=C4)C=C3)cc1
REMARK SMILES IDX 29 1 28 2 27 3 26 4 2 5 1 6 3 7 4 8 5 9 25 10 18 11 19 12
REMARK SMILES IDX 24 13 20 15 23 16 21 17 22 18 6 19 7 20 8 21 9 22 13 23
REMARK SMILES IDX 10 24 12 25 11 26 17 27 14 28 16 29 15 30 30 31 31 32 32 33
REMARK SMILES IDX 33 34 34 35 35 36 36 37 97 38 37 39 96 40 38 41 39 42 40 43
REMARK SMILES IDX 90 44 41 45 95 46 89 47 91 48 42 49 94 50 88 51 87 52 43 54
REMARK SMILES IDX 75 55 55 56 74 57 56 58 59 59 73 60 92 61 57 62 58 63 72 65
REMARK SMILES IDX 93 66 60 67 44 68 45 69 53 70 46 71 48 72 54 73 47 74 49 75
REMARK SMILES IDX 50 76 51 77 52 78 76 79 77 80 85 81 78 82 80 83 86 84 79 85
REMARK SMILES IDX 81 86 82 87 83 88 84 89 61 90 62 91 70 92 63 93 65 94 71 95
REMARK SMILES IDX 64 96 66 97 67 98 68 99 69 100
REMARK H PARENT 18 14 91 53 59 64
REMARK Flexibility Score: inf
ROOT
ATOM      1  O   UNL A   1      33.841  31.751  27.482  1.00  0.00    -0.374 OA
ENDROOT
BRANCH   1   2
ATOM      2  C   UNL A   1      34.863  30.902  27.980  1.00  0.00     0.202 C 
BRANCH   2   3
ATOM      3  C   UNL A   1      34.919  29.459  27.475  1.00  0.00     0.261 C 
BRANCH   3   4
ATOM      4  O   UNL A   1      33.688  28.725  27.525  1.00  0.00    -0.463 OA
BRANCH   4   5
ATOM      5  C   UNL A   1      33.187  27.960  26.522  1.00  0.00     0.310 C 
ATOM      6  O   UNL A   1      32.724  26.847  26.784  1.00  0.00    -0.252 OA
BRANCH   5   7
ATOM      7  C   UNL A   1      33.409  28.360  25.086  1.00  0.00     0.161 C 
BRANCH   7   8
ATOM      8  C   UNL A   1      32.309  28.252  24.067  1.00  0.00     0.000 A 
ATOM      9  C   UNL A   1      32.116  27.344  23.026  1.00  0.00     0.093 A 
ATOM     10  C   UNL A   1      31.222  29.189  24.009  1.00  0.00     0.004 A 
ATOM     11  N   UNL A   1      30.862  27.596  22.507  1.00  0.00    -0.351 N 
ATOM     12  C   UNL A   1      30.350  28.767  23.010  1.00  0.00     0.048 A 
ATOM     13  C   UNL A   1      30.919  30.373  24.716  1.00  0.00     0.012 A 
ATOM     14  H   UNL A   1      30.398  27.015  21.862  1.00  0.00     0.167 HD
ATOM     15  C   UNL A   1      29.196  29.479  22.662  1.00  0.00     0.047 A 
ATOM     16  C   UNL A   1      29.784  31.114  24.366  1.00  0.00     0.021 A 
ATOM     17  C   UNL A   1      28.944  30.671  23.350  1.00  0.00     0.043 A 
ATOM     18  Cl  UNL A   1      27.571  31.619  22.919  1.00  0.00    -0.084 Cl
BRANCH   9  19
ATOM     19  C   UNL A   1      33.013  26.311  22.534  1.00  0.00     0.227 C 
ATOM     20  O   UNL A   1      33.841  26.499  21.649  1.00  0.00    -0.285 OA
BRANCH  19  21
ATOM     21  C   UNL A   1      32.851  24.934  23.030  1.00  0.00     0.113 A 
ATOM     22  C   UNL A   1      34.002  24.278  23.428  1.00  0.00     0.036 A 
ATOM     23  N   UNL A   1      31.603  24.402  23.038  1.00  0.00    -0.252 NA
ATOM     24  C   UNL A   1      33.882  22.976  23.894  1.00  0.00    -0.041 A 
ATOM     25  C   UNL A   1      31.510  23.151  23.547  1.00  0.00     0.115 A 
ATOM     26  C   UNL A   1      32.606  22.393  23.963  1.00  0.00    -0.026 A 
ATOM     27  C   UNL A   1      35.133  22.218  24.249  1.00  0.00     0.036 C 
ATOM     28  C   UNL A   1      32.411  21.012  24.536  1.00  0.00     0.037 C 
ATOM     29  C   UNL A   1      34.858  20.962  25.064  1.00  0.00     0.005 C 
ATOM     30  C   UNL A   1      33.693  20.183  24.460  1.00  0.00     0.005 C 
ENDBRANCH  19  21
ENDBRANCH   9  19
ENDBRANCH   7   8
ENDBRANCH   5   7
ENDBRANCH   4   5
ENDBRANCH   3   4
ENDBRANCH   2   3
ENDBRANCH   1   2
BRANCH   1  31
ATOM     31  C   UNL A   1      33.992  33.164  27.627  1.00  0.00     0.202 C 
BRANCH  31  32
ATOM     32  C   UNL A   1      32.844  34.002  28.202  1.00  0.00     0.261 C 
BRANCH  32  33
ATOM     33  O   UNL A   1      33.283  35.150  28.946  1.00  0.00    -0.460 OA
BRANCH  33  34
ATOM     34  C   UNL A   1      33.405  34.967  30.281  1.00  0.00     0.338 C 
ATOM     35  O   UNL A   1      32.616  35.322  31.151  1.00  0.00    -0.246 OA
BRANCH  34  36
ATOM     36  C   UNL A   1      34.578  34.130  30.562  1.00  0.00     0.060 A 
ATOM     37  C   UNL A   1      35.836  34.521  30.102  1.00  0.00     0.016 A 
ATOM     38  C   UNL A   1      34.430  33.003  31.380  1.00  0.00     0.016 A 
ATOM     39  C   UNL A   1      36.959  33.789  30.490  1.00  0.00     0.010 A 
ATOM     40  C   UNL A   1      35.555  32.270  31.760  1.00  0.00     0.010 A 
ATOM     41  C   UNL A   1      36.829  32.674  31.337  1.00  0.00    -0.014 A 
BRANCH  41  42
ATOM     42  C   UNL A   1      38.040  32.029  31.893  1.00  0.00     0.031 A 
ATOM     43  C   UNL A   1      38.610  32.439  33.215  1.00  0.00     0.074 A 
ATOM     44  C   UNL A   1      38.635  31.062  31.168  1.00  0.00     0.049 A 
ATOM     45  N   UNL A   1      39.617  31.918  33.865  1.00  0.00    -0.248 NA
ATOM     46  C   UNL A   1      37.976  33.579  33.895  1.00  0.00     0.031 C 
ATOM     47  C   UNL A   1      38.200  30.624  29.840  1.00  0.00     0.029 A 
ATOM     48  N   UNL A   1      39.728  30.279  31.439  1.00  0.00    -0.354 N 
ATOM     49  C   UNL A   1      39.741  32.657  35.033  1.00  0.00     0.074 A 
ATOM     50  C   UNL A   1      38.721  33.686  34.988  1.00  0.00     0.031 C 
ATOM     51  C   UNL A   1      39.005  29.637  29.419  1.00  0.00     0.029 A 
ATOM     52  C   UNL A   1      40.021  29.385  30.437  1.00  0.00     0.049 A 
ATOM     53  H   UNL A   1      40.251  30.350  32.268  1.00  0.00     0.167 HD
ATOM     54  C   UNL A   1      40.607  32.473  36.056  1.00  0.00     0.034 A 
ATOM     55  C   UNL A   1      40.994  28.457  30.348  1.00  0.00     0.034 A 
ATOM     56  C   UNL A   1      41.610  31.440  36.097  1.00  0.00     0.049 A 
ATOM     57  C   UNL A   1      41.945  28.277  31.493  1.00  0.00     0.074 A 
ATOM     58  C   UNL A   1      42.495  31.143  37.121  1.00  0.00     0.029 A 
ATOM     59  N   UNL A   1      41.874  30.544  35.072  1.00  0.00    -0.354 N 
ATOM     60  N   UNL A   1      41.967  28.900  32.645  1.00  0.00    -0.248 NA
ATOM     61  C   UNL A   1      42.988  27.253  31.340  1.00  0.00     0.031 C 
ATOM     62  C   UNL A   1      43.306  30.081  36.705  1.00  0.00     0.029 A 
ATOM     63  C   UNL A   1      42.918  29.706  35.430  1.00  0.00     0.049 A 
ATOM     64  H   UNL A   1      41.390  30.509  34.215  1.00  0.00     0.167 HD
ATOM     65  C   UNL A   1      43.019  28.343  33.360  1.00  0.00     0.074 A 
ATOM     66  C   UNL A   1      43.597  27.313  32.518  1.00  0.00     0.031 C 
ATOM     67  C   UNL A   1      43.473  28.671  34.594  1.00  0.00     0.034 A 
BRANCH  54  68
ATOM     68  C   UNL A   1      40.472  33.372  37.254  1.00  0.00     0.023 A 
ATOM     69  C   UNL A   1      39.505  33.067  38.233  1.00  0.00     0.012 A 
ATOM     70  C   UNL A   1      41.348  34.456  37.458  1.00  0.00     0.148 A 
ATOM     71  C   UNL A   1      39.397  33.838  39.388  1.00  0.00     0.002 A 
ATOM     72  C   UNL A   1      41.256  35.200  38.629  1.00  0.00     0.091 A 
ATOM     73  F   UNL A   1      42.251  34.734  36.509  1.00  0.00    -0.205 F 
ATOM     74  C   UNL A   1      40.277  34.898  39.591  1.00  0.00     0.022 A 
BRANCH  72  75
ATOM     75  S   UNL A   1      42.375  36.551  39.018  1.00  0.00     0.127 S 
ATOM     76  O   UNL A   1      43.488  35.841  39.649  1.00  0.00    -0.237 OA
ATOM     77  O   UNL A   1      42.675  37.091  37.694  1.00  0.00    -0.237 OA
ATOM     78  O   UNL A   1      41.641  37.441  39.906  1.00  0.00    -0.744 OA
ENDBRANCH  72  75
ENDBRANCH  54  68
BRANCH  55  79
ATOM     79  C   UNL A   1      41.049  27.591  29.141  1.00  0.00     0.023 A 
ATOM     80  C   UNL A   1      40.149  26.516  29.025  1.00  0.00     0.012 A 
ATOM     81  C   UNL A   1      41.908  27.897  28.067  1.00  0.00     0.148 A 
ATOM     82  C   UNL A   1      40.101  25.758  27.855  1.00  0.00     0.002 A 
ATOM     83  C   UNL A   1      41.830  27.161  26.892  1.00  0.00     0.091 A 
ATOM     84  F   UNL A   1      42.749  28.931  28.206  1.00  0.00    -0.205 F 
ATOM     85  C   UNL A   1      40.932  26.087  26.785  1.00  0.00     0.022 A 
BRANCH  83  86
ATOM     86  S   UNL A   1      42.785  27.567  25.426  1.00  0.00     0.127 S 
ATOM     87  O   UNL A   1      42.567  26.387  24.592  1.00  0.00    -0.237 OA
ATOM     88  O   UNL A   1      42.115  28.781  24.963  1.00  0.00    -0.237 OA
ATOM     89  O   UNL A   1      44.154  27.759  25.883  1.00  0.00    -0.744 OA
ENDBRANCH  83  86
ENDBRANCH  55  79
BRANCH  67  90
ATOM     90  C   UNL A   1      44.674  27.929  35.117  1.00  0.00     0.023 A 
ATOM     91  C   UNL A   1      45.956  28.486  34.939  1.00  0.00     0.012 A 
ATOM     92  C   UNL A   1      44.530  26.745  35.866  1.00  0.00     0.148 A 
ATOM     93  C   UNL A   1      47.079  27.870  35.489  1.00  0.00     0.002 A 
ATOM     94  C   UNL A   1      45.650  26.154  36.440  1.00  0.00     0.091 A 
ATOM     95  F   UNL A   1      43.302  26.230  36.014  1.00  0.00    -0.205 F 
ATOM     96  C   UNL A   1      46.926  26.713  36.248  1.00  0.00     0.022 A 
BRANCH  94  97
ATOM     97  S   UNL A   1      45.551  24.700  37.490  1.00  0.00     0.127 S 
ATOM     98  O   UNL A   1      44.658  25.162  38.553  1.00  0.00    -0.237 OA
ATOM     99  O   UNL A   1      44.963  23.709  36.589  1.00  0.00    -0.237 OA
ATOM    100  O   UNL A   1      46.915  24.410  37.910  1.00  0.00    -0.744 OA
ENDBRANCH  94  97
ENDBRANCH  67  90
ENDBRANCH  41  42
ENDBRANCH  34  36
ENDBRANCH  33  34
ENDBRANCH  32  33
ENDBRANCH  31  32
ENDBRANCH   1  31
TORSDOF 20
ENDMDL
MODEL 3
REMARK VINA RESULT:     -11.6      1.889      7.504
REMARK SMILES O=C(Cc1c(C(=O)c2cc3c(cn2)CCCC3)[nH]c2cc(Cl)ccc12)OCCOCCOC(=O)c1ccc(-c2c3nc(c(-c4cccc(S(=O)(=O)[O-])c4F)c4ccc([nH]4)c(-c4cccc(S(=O)(=O)[O-])c4F)c4nc(c(-c5cccc(S(=O)(=O)[O-])c5F)c5ccc2[nH]5)C=C4)C=C3)cc1
REMARK SMILES IDX 29 1 28 2 27 3 26 4 2 5 1 6 3 7 4 8 5 9 25 10 18 11 19 12
REMARK SMILES IDX 24 13 20 15 23 16 21 17 22 18 6 19 7 20 8 21 9 22 13 23
REMARK SMILES IDX 10 24 12 25 11 26 17 27 14 28 16 29 15 30 30 31 31 32 32 33
REMARK SMILES IDX 33 34 34 35 35 36 36 37 97 38 37 39 96 40 38 41 39 42 40 43
REMARK SMILES IDX 90 44 41 45 95 46 89 47 91 48 42 49 94 50 88 51 87 52 43 54
REMARK SMILES IDX 75 55 55 56 74 57 56 58 59 59 73 60 92 61 57 62 58 63 72 65
REMARK SMILES IDX 93 66 60 67 44 68 45 69 53 70 46 71 48 72 54 73 47 74 49 75
REMARK SMILES IDX 50 76 51 77 52 78 76 79 77 80 85 81 78 82 80 83 86 84 79 85
REMARK SMILES IDX 81 86 82 87 83 88 84 89 61 90 62 91 70 92 63 93 65 94 71 95
REMARK SMILES IDX 64 96 66 97 67 98 68 99 69 100
REMARK H PARENT 18 14 91 53 59 64
REMARK Flexibility Score: inf
ROOT
ATOM      1  O   UNL A   1      32.980  31.150  27.313  1.00  0.00    -0.374 OA
ENDROOT
BRANCH   1   2
ATOM      2  C   UNL A   1      33.947  30.123  27.464  1.00  0.00     0.202 C 
BRANCH   2   3
ATOM      3  C   UNL A   1      33.802  28.858  26.615  1.00  0.00     0.261 C 
BRANCH   3   4
ATOM      4  O   UNL A   1      32.665  28.033  26.901  1.00  0.00    -0.463 OA
BRANCH   4   5
ATOM      5  C   UNL A   1      32.480  26.765  26.454  1.00  0.00     0.310 C 
ATOM      6  O   UNL A   1      31.482  26.135  26.815  1.00  0.00    -0.252 OA
BRANCH   5   7
ATOM      7  C   UNL A   1      33.590  26.054  25.722  1.00  0.00     0.161 C 
BRANCH   7   8
ATOM      8  C   UNL A   1      33.302  24.921  24.779  1.00  0.00     0.000 A 
ATOM      9  C   UNL A   1      32.931  24.923  23.435  1.00  0.00     0.093 A 
ATOM     10  C   UNL A   1      33.343  23.546  25.196  1.00  0.00     0.004 A 
ATOM     11  N   UNL A   1      32.960  23.610  23.011  1.00  0.00    -0.351 N 
ATOM     12  C   UNL A   1      33.101  22.755  24.078  1.00  0.00     0.048 A 
ATOM     13  C   UNL A   1      33.550  22.913  26.441  1.00  0.00     0.012 A 
ATOM     14  H   UNL A   1      32.889  23.324  22.072  1.00  0.00     0.167 HD
ATOM     15  C   UNL A   1      33.033  21.358  24.138  1.00  0.00     0.047 A 
ATOM     16  C   UNL A   1      33.460  21.519  26.529  1.00  0.00     0.021 A 
ATOM     17  C   UNL A   1      33.199  20.761  25.391  1.00  0.00     0.043 A 
ATOM     18  Cl  UNL A   1      33.063  19.048  25.534  1.00  0.00    -0.084 Cl
BRANCH   9  19
ATOM     19  C   UNL A   1      32.573  26.049  22.587  1.00  0.00     0.227 C 
ATOM     20  O   UNL A   1      33.339  26.554  21.773  1.00  0.00    -0.285 OA
BRANCH  19  21
ATOM     21  C   UNL A   1      31.267  26.701  22.785  1.00  0.00     0.113 A 
ATOM     22  C   UNL A   1      31.122  27.972  22.260  1.00  0.00     0.036 A 
ATOM     23  N   UNL A   1      30.318  26.026  23.482  1.00  0.00    -0.252 NA
ATOM     24  C   UNL A   1      29.904  28.615  22.438  1.00  0.00    -0.041 A 
ATOM     25  C   UNL A   1      29.124  26.656  23.593  1.00  0.00     0.115 A 
ATOM     26  C   UNL A   1      28.873  27.943  23.115  1.00  0.00    -0.026 A 
ATOM     27  C   UNL A   1      29.757  30.031  21.950  1.00  0.00     0.036 C 
ATOM     28  C   UNL A   1      27.507  28.564  23.265  1.00  0.00     0.037 C 
ATOM     29  C   UNL A   1      28.308  30.490  21.881  1.00  0.00     0.005 C 
ATOM     30  C   UNL A   1      27.563  30.087  23.150  1.00  0.00     0.005 C 
ENDBRANCH  19  21
ENDBRANCH   9  19
ENDBRANCH   7   8
ENDBRANCH   5   7
ENDBRANCH   4   5
ENDBRANCH   3   4
ENDBRANCH   2   3
ENDBRANCH   1   2
BRANCH   1  31
ATOM     31  C   UNL A   1      33.420  32.509  27.302  1.00  0.00     0.202 C 
BRANCH  31  32
ATOM     32  C   UNL A   1      32.496  33.618  27.820  1.00  0.00     0.261 C 
BRANCH  32  33
ATOM     33  O   UNL A   1      33.197  34.780  28.291  1.00  0.00    -0.460 OA
BRANCH  33  34
ATOM     34  C   UNL A   1      33.403  34.835  29.626  1.00  0.00     0.338 C 
ATOM     35  O   UNL A   1      32.687  35.375  30.464  1.00  0.00    -0.246 OA
BRANCH  34  36
ATOM     36  C   UNL A   1      34.564  34.011  29.984  1.00  0.00     0.060 A 
ATOM     37  C   UNL A   1      35.817  34.306  29.446  1.00  0.00     0.016 A 
ATOM     38  C   UNL A   1      34.415  33.003  30.945  1.00  0.00     0.016 A 
ATOM     39  C   UNL A   1      36.935  33.602  29.897  1.00  0.00     0.010 A 
ATOM     40  C   UNL A   1      35.533  32.297  31.388  1.00  0.00     0.010 A 
ATOM     41  C   UNL A   1      36.803  32.609  30.884  1.00  0.00    -0.014 A 
BRANCH  41  42
ATOM     42  C   UNL A   1      38.015  32.010  31.489  1.00  0.00     0.031 A 
ATOM     43  C   UNL A   1      38.561  32.495  32.795  1.00  0.00     0.074 A 
ATOM     44  C   UNL A   1      38.632  31.015  30.822  1.00  0.00     0.049 A 
ATOM     45  N   UNL A   1      39.567  32.022  33.483  1.00  0.00    -0.248 NA
ATOM     46  C   UNL A   1      37.904  33.660  33.406  1.00  0.00     0.031 C 
ATOM     47  C   UNL A   1      38.220  30.502  29.514  1.00  0.00     0.029 A 
ATOM     48  N   UNL A   1      39.730  30.261  31.147  1.00  0.00    -0.354 N 
ATOM     49  C   UNL A   1      39.665  32.823  34.612  1.00  0.00     0.074 A 
ATOM     50  C   UNL A   1      38.633  33.834  34.502  1.00  0.00     0.031 C 
ATOM     51  C   UNL A   1      39.043  29.506  29.155  1.00  0.00     0.029 A 
ATOM     52  C   UNL A   1      40.048  29.320  30.197  1.00  0.00     0.049 A 
ATOM     53  H   UNL A   1      40.242  30.383  31.979  1.00  0.00     0.167 HD
ATOM     54  C   UNL A   1      40.520  32.703  35.655  1.00  0.00     0.034 A 
ATOM     55  C   UNL A   1      41.034  28.403  30.169  1.00  0.00     0.034 A 
ATOM     56  C   UNL A   1      41.536  31.688  35.762  1.00  0.00     0.049 A 
ATOM     57  C   UNL A   1      41.972  28.294  31.334  1.00  0.00     0.074 A 
ATOM     58  C   UNL A   1      42.410  31.455  36.811  1.00  0.00     0.029 A 
ATOM     59  N   UNL A   1      41.824  30.743  34.789  1.00  0.00    -0.354 N 
ATOM     60  N   UNL A   1      41.970  28.977  32.452  1.00  0.00    -0.248 NA
ATOM     61  C   UNL A   1      43.029  27.278  31.247  1.00  0.00     0.031 C 
ATOM     62  C   UNL A   1      43.240  30.384  36.462  1.00  0.00     0.029 A 
ATOM     63  C   UNL A   1      42.874  29.939  35.203  1.00  0.00     0.049 A 
ATOM     64  H   UNL A   1      41.352  30.657  33.928  1.00  0.00     0.167 HD
ATOM     65  C   UNL A   1      43.020  28.472  33.208  1.00  0.00     0.074 A 
ATOM     66  C   UNL A   1      43.622  27.407  32.428  1.00  0.00     0.031 C 
ATOM     67  C   UNL A   1      43.453  28.869  34.429  1.00  0.00     0.034 A 
BRANCH  54  68
ATOM     68  C   UNL A   1      40.358  33.662  36.802  1.00  0.00     0.023 A 
ATOM     69  C   UNL A   1      40.898  34.959  36.691  1.00  0.00     0.012 A 
ATOM     70  C   UNL A   1      39.605  33.319  37.942  1.00  0.00     0.148 A 
ATOM     71  C   UNL A   1      40.708  35.896  37.705  1.00  0.00     0.002 A 
ATOM     72  C   UNL A   1      39.392  34.270  38.934  1.00  0.00     0.091 A 
ATOM     73  F   UNL A   1      39.112  32.077  38.030  1.00  0.00    -0.205 F 
ATOM     74  C   UNL A   1      39.949  35.555  38.821  1.00  0.00     0.022 A 
BRANCH  72  75
ATOM     75  S   UNL A   1      38.383  33.955  40.387  1.00  0.00     0.127 S 
ATOM     76  O   UNL A   1      39.218  33.009  41.127  1.00  0.00    -0.237 OA
ATOM     77  O   UNL A   1      38.293  35.283  40.991  1.00  0.00    -0.237 OA
ATOM     78  O   UNL A   1      37.128  33.405  39.897  1.00  0.00    -0.744 OA
ENDBRANCH  72  75
ENDBRANCH  54  68
BRANCH  55  79
ATOM     79  C   UNL A   1      41.116  27.475  29.009  1.00  0.00     0.023 A 
ATOM     80  C   UNL A   1      40.204  26.408  28.917  1.00  0.00     0.012 A 
ATOM     81  C   UNL A   1      42.014  27.715  27.951  1.00  0.00     0.148 A 
ATOM     82  C   UNL A   1      40.184  25.592  27.786  1.00  0.00     0.002 A 
ATOM     83  C   UNL A   1      41.965  26.922  26.812  1.00  0.00     0.091 A 
ATOM     84  F   UNL A   1      42.866  28.744  28.067  1.00  0.00    -0.205 F 
ATOM     85  C   UNL A   1      41.055  25.856  26.730  1.00  0.00     0.022 A 
BRANCH  83  86
ATOM     86  S   UNL A   1      42.974  27.240  25.361  1.00  0.00     0.127 S 
ATOM     87  O   UNL A   1      42.923  25.951  24.674  1.00  0.00    -0.237 OA
ATOM     88  O   UNL A   1      42.228  28.316  24.711  1.00  0.00    -0.237 OA
ATOM     89  O   UNL A   1      44.286  27.623  25.865  1.00  0.00    -0.744 OA
ENDBRANCH  83  86
ENDBRANCH  55  79
BRANCH  67  90
ATOM     90  C   UNL A   1      44.657  28.172  35.006  1.00  0.00     0.023 A 
ATOM     91  C   UNL A   1      44.470  27.015  35.789  1.00  0.00     0.012 A 
ATOM     92  C   UNL A   1      45.963  28.595  34.693  1.00  0.00     0.148 A 
ATOM     93  C   UNL A   1      45.566  26.296  36.262  1.00  0.00     0.002 A 
ATOM     94  C   UNL A   1      47.051  27.854  35.141  1.00  0.00     0.091 A 
ATOM     95  F   UNL A   1      46.114  29.703  33.955  1.00  0.00    -0.205 F 
ATOM     96  C   UNL A   1      46.854  26.708  35.930  1.00  0.00     0.022 A 
BRANCH  94  97
ATOM     97  S   UNL A   1      48.747  28.262  34.711  1.00  0.00     0.127 S 
ATOM     98  O   UNL A   1      49.486  27.176  35.355  1.00  0.00    -0.237 OA
ATOM     99  O   UNL A   1      48.719  28.197  33.250  1.00  0.00    -0.237 OA
ATOM    100  O   UNL A   1      48.995  29.589  35.258  1.00  0.00    -0.744 OA
ENDBRANCH  94  97
ENDBRANCH  67  90
ENDBRANCH  41  42
ENDBRANCH  34  36
ENDBRANCH  33  34
ENDBRANCH  32  33
ENDBRANCH  31  32
ENDBRANCH   1  31
TORSDOF 20
ENDMDL
