MODEL 1
REMARK VINA RESULT:     -11.2      0.000      0.000
REMARK SMILES COc1cccc(-c2c(C(=O)OCCOCCOC(=O)c3ccc(-c4c5nc(c(-c6cccc(S(=O)(=O)[O-])c6F)c6ccc([nH]6)c(-c6cccc(S(=O)(=O)[O-])c6F)c6nc(c(-c7cccc(S(=O)(=O)[O-])c7F)c7ccc4[nH]7)C=C6)C=C5)cc3)nnn2-c2ccc(OC(F)(F)F)cc2)c1
REMARK SMILES IDX 15 1 14 2 13 3 12 4 10 5 11 6 9 7 8 8 86 9 84 10 85 11 7 12
REMARK SMILES IDX 3 13 4 14 98 15 5 16 6 17 2 18 1 19 87 20 88 21 97 22 89 23
REMARK SMILES IDX 96 24 90 25 91 26 92 27 93 28 94 29 95 30 16 31 17 32 18 33
REMARK SMILES IDX 19 34 20 35 21 36 22 37 83 38 23 39 82 40 24 41 25 42 26 43
REMARK SMILES IDX 76 44 27 45 81 46 75 47 77 48 28 49 80 50 74 51 73 52 29 54
REMARK SMILES IDX 61 55 41 56 60 57 42 58 45 59 59 60 78 61 43 62 44 63 58 65
REMARK SMILES IDX 79 66 46 67 30 68 31 69 39 70 32 71 34 72 40 73 33 74 35 75
REMARK SMILES IDX 36 76 37 77 38 78 62 79 63 80 71 81 64 82 66 83 72 84 65 85
REMARK SMILES IDX 67 86 68 87 69 88 70 89 47 90 48 91 56 92 49 93 51 94 57 95
REMARK SMILES IDX 50 96 52 97 53 98 54 99 55 100
REMARK H PARENT 77 53 45 64
REMARK Flexibility Score: inf
ROOT
ATOM      1  O   UNL A   1      33.367  29.130  26.251  1.00  0.00    -0.374 OA
ENDROOT
BRANCH   1   2
ATOM      2  C   UNL A   1      32.400  28.396  27.001  1.00  0.00     0.202 C 
BRANCH   2   3
ATOM      3  C   UNL A   1      32.312  26.882  26.799  1.00  0.00     0.261 C 
BRANCH   3   4
ATOM      4  O   UNL A   1      31.706  26.528  25.547  1.00  0.00    -0.458 OA
BRANCH   4   5
ATOM      5  C   UNL A   1      32.577  26.105  24.583  1.00  0.00     0.361 C 
ATOM      6  O   UNL A   1      33.555  26.738  24.210  1.00  0.00    -0.244 OA
BRANCH   5   7
ATOM      7  C   UNL A   1      32.293  24.764  24.107  1.00  0.00     0.198 A 
ATOM      8  C   UNL A   1      33.131  23.669  23.947  1.00  0.00     0.109 A 
ATOM      9  N   UNL A   1      32.225  22.644  23.673  1.00  0.00    -0.212 N 
ATOM     10  N   UNL A   1      31.023  24.429  23.694  1.00  0.00    -0.122 NA
ATOM     11  N   UNL A   1      31.033  23.164  23.306  1.00  0.00    -0.061 NA
BRANCH   8  12
ATOM     12  C   UNL A   1      34.576  23.464  24.087  1.00  0.00     0.007 A 
ATOM     13  C   UNL A   1      36.605  23.715  25.418  1.00  0.00     0.119 A 
ATOM     14  C   UNL A   1      37.360  23.325  24.313  1.00  0.00     0.046 A 
ATOM     15  C   UNL A   1      35.215  23.767  25.308  1.00  0.00     0.056 A 
ATOM     16  C   UNL A   1      36.740  22.972  23.116  1.00  0.00     0.005 A 
ATOM     17  C   UNL A   1      35.351  23.044  23.000  1.00  0.00     0.011 A 
BRANCH  13  18
ATOM     18  O   UNL A   1      37.338  24.090  26.506  1.00  0.00    -0.497 OA
ATOM     19  C   UNL A   1      38.697  23.667  26.565  1.00  0.00     0.278 C 
ENDBRANCH  13  18
ENDBRANCH   8  12
BRANCH   9  20
ATOM     20  C   UNL A   1      32.352  21.260  23.924  1.00  0.00     0.067 A 
ATOM     21  C   UNL A   1      32.219  20.342  22.881  1.00  0.00     0.032 A 
ATOM     22  C   UNL A   1      32.566  20.813  25.233  1.00  0.00     0.032 A 
ATOM     23  C   UNL A   1      32.373  18.978  23.153  1.00  0.00     0.049 A 
ATOM     24  C   UNL A   1      32.671  19.448  25.499  1.00  0.00     0.049 A 
ATOM     25  C   UNL A   1      32.597  18.523  24.458  1.00  0.00     0.129 A 
BRANCH  25  26
ATOM     26  O   UNL A   1      32.724  17.169  24.580  1.00  0.00    -0.406 OA
BRANCH  26  27
ATOM     27  C   UNL A   1      33.988  16.600  24.284  1.00  0.00     0.573 C 
ATOM     28  F   UNL A   1      34.078  16.217  22.993  1.00  0.00    -0.132 F 
ATOM     29  F   UNL A   1      34.984  17.474  24.560  1.00  0.00    -0.132 F 
ATOM     30  F   UNL A   1      34.173  15.510  25.060  1.00  0.00    -0.132 F 
ENDBRANCH  26  27
ENDBRANCH  25  26
ENDBRANCH   9  20
ENDBRANCH   5   7
ENDBRANCH   4   5
ENDBRANCH   3   4
ENDBRANCH   2   3
ENDBRANCH   1   2
BRANCH   1  31
ATOM     31  C   UNL A   1      34.706  29.264  26.722  1.00  0.00     0.202 C 
BRANCH  31  32
ATOM     32  C   UNL A   1      34.965  30.041  28.005  1.00  0.00     0.261 C 
BRANCH  32  33
ATOM     33  O   UNL A   1      36.028  29.488  28.758  1.00  0.00    -0.460 OA
BRANCH  33  34
ATOM     34  C   UNL A   1      37.219  30.096  28.543  1.00  0.00     0.338 C 
ATOM     35  O   UNL A   1      37.461  31.284  28.600  1.00  0.00    -0.246 OA
BRANCH  34  36
ATOM     36  C   UNL A   1      38.170  29.084  28.072  1.00  0.00     0.060 A 
ATOM     37  C   UNL A   1      38.453  28.063  28.983  1.00  0.00     0.016 A 
ATOM     38  C   UNL A   1      39.012  29.393  26.995  1.00  0.00     0.016 A 
ATOM     39  C   UNL A   1      39.730  27.562  28.996  1.00  0.00     0.010 A 
ATOM     40  C   UNL A   1      40.294  28.917  27.033  1.00  0.00     0.010 A 
ATOM     41  C   UNL A   1      40.654  28.094  28.095  1.00  0.00    -0.014 A 
BRANCH  41  42
ATOM     42  C   UNL A   1      42.030  27.687  28.214  1.00  0.00     0.031 A 
ATOM     43  C   UNL A   1      42.251  26.364  27.607  1.00  0.00     0.074 A 
ATOM     44  C   UNL A   1      42.973  28.491  28.737  1.00  0.00     0.049 A 
ATOM     45  N   UNL A   1      42.383  25.240  28.226  1.00  0.00    -0.248 NA
ATOM     46  C   UNL A   1      42.034  26.238  26.157  1.00  0.00     0.031 C 
ATOM     47  C   UNL A   1      42.862  29.904  29.111  1.00  0.00     0.029 A 
ATOM     48  N   UNL A   1      44.289  28.226  28.928  1.00  0.00    -0.354 N 
ATOM     49  C   UNL A   1      42.545  24.304  27.213  1.00  0.00     0.074 A 
ATOM     50  C   UNL A   1      42.033  24.912  26.017  1.00  0.00     0.031 C 
ATOM     51  C   UNL A   1      44.106  30.423  29.249  1.00  0.00     0.029 A 
ATOM     52  C   UNL A   1      45.079  29.355  29.105  1.00  0.00     0.049 A 
ATOM     53  H   UNL A   1      44.653  27.311  28.941  1.00  0.00     0.167 HD
ATOM     54  C   UNL A   1      43.402  23.261  27.368  1.00  0.00     0.034 A 
ATOM     55  C   UNL A   1      46.434  29.393  29.052  1.00  0.00     0.034 A 
ATOM     56  C   UNL A   1      43.750  23.078  28.757  1.00  0.00     0.049 A 
ATOM     57  C   UNL A   1      46.917  28.011  29.273  1.00  0.00     0.074 A 
ATOM     58  C   UNL A   1      43.053  22.798  29.913  1.00  0.00     0.029 A 
ATOM     59  N   UNL A   1      44.960  23.598  29.149  1.00  0.00    -0.354 N 
ATOM     60  N   UNL A   1      46.769  27.377  30.403  1.00  0.00    -0.248 NA
ATOM     61  C   UNL A   1      47.151  27.167  28.111  1.00  0.00     0.031 C 
ATOM     62  C   UNL A   1      43.707  23.548  30.934  1.00  0.00     0.029 A 
ATOM     63  C   UNL A   1      44.804  24.203  30.365  1.00  0.00     0.049 A 
ATOM     64  H   UNL A   1      45.801  23.545  28.638  1.00  0.00     0.167 HD
ATOM     65  C   UNL A   1      46.421  26.085  30.031  1.00  0.00     0.074 A 
ATOM     66  C   UNL A   1      46.800  25.982  28.622  1.00  0.00     0.031 C 
ATOM     67  C   UNL A   1      45.590  25.334  30.812  1.00  0.00     0.034 A 
BRANCH  54  68
ATOM     68  C   UNL A   1      44.264  22.699  26.258  1.00  0.00     0.023 A 
ATOM     69  C   UNL A   1      44.973  23.633  25.472  1.00  0.00     0.012 A 
ATOM     70  C   UNL A   1      44.204  21.372  25.768  1.00  0.00     0.148 A 
ATOM     71  C   UNL A   1      45.535  23.280  24.242  1.00  0.00     0.002 A 
ATOM     72  C   UNL A   1      44.831  21.006  24.585  1.00  0.00     0.091 A 
ATOM     73  F   UNL A   1      43.424  20.464  26.358  1.00  0.00    -0.205 F 
ATOM     74  C   UNL A   1      45.469  21.964  23.799  1.00  0.00     0.022 A 
BRANCH  72  75
ATOM     75  S   UNL A   1      44.801  19.307  23.993  1.00  0.00     0.127 S 
ATOM     76  O   UNL A   1      44.328  19.486  22.624  1.00  0.00    -0.237 OA
ATOM     77  O   UNL A   1      46.207  18.925  24.122  1.00  0.00    -0.237 OA
ATOM     78  O   UNL A   1      43.904  18.591  24.892  1.00  0.00    -0.744 OA
ENDBRANCH  72  75
ENDBRANCH  54  68
BRANCH  55  79
ATOM     79  C   UNL A   1      47.326  30.467  28.557  1.00  0.00     0.023 A 
ATOM     80  C   UNL A   1      47.257  30.882  27.214  1.00  0.00     0.012 A 
ATOM     81  C   UNL A   1      48.045  31.273  29.468  1.00  0.00     0.148 A 
ATOM     82  C   UNL A   1      47.867  32.071  26.794  1.00  0.00     0.002 A 
ATOM     83  C   UNL A   1      48.652  32.451  29.047  1.00  0.00     0.091 A 
ATOM     84  F   UNL A   1      48.057  30.926  30.762  1.00  0.00    -0.205 F 
ATOM     85  C   UNL A   1      48.557  32.860  27.710  1.00  0.00     0.022 A 
BRANCH  83  86
ATOM     86  S   UNL A   1      49.528  33.541  30.179  1.00  0.00     0.127 S 
ATOM     87  O   UNL A   1      48.565  34.627  30.354  1.00  0.00    -0.237 OA
ATOM     88  O   UNL A   1      49.706  32.684  31.349  1.00  0.00    -0.237 OA
ATOM     89  O   UNL A   1      50.756  33.928  29.496  1.00  0.00    -0.744 OA
ENDBRANCH  83  86
ENDBRANCH  55  79
BRANCH  67  90
ATOM     90  C   UNL A   1      45.273  25.857  32.193  1.00  0.00     0.023 A 
ATOM     91  C   UNL A   1      46.157  25.700  33.283  1.00  0.00     0.012 A 
ATOM     92  C   UNL A   1      44.146  26.680  32.348  1.00  0.00     0.148 A 
ATOM     93  C   UNL A   1      45.912  26.336  34.505  1.00  0.00     0.002 A 
ATOM     94  C   UNL A   1      43.931  27.348  33.546  1.00  0.00     0.091 A 
ATOM     95  F   UNL A   1      43.323  26.825  31.298  1.00  0.00    -0.205 F 
ATOM     96  C   UNL A   1      44.806  27.171  34.631  1.00  0.00     0.022 A 
BRANCH  94  97
ATOM     97  S   UNL A   1      42.604  28.540  33.734  1.00  0.00     0.127 S 
ATOM     98  O   UNL A   1      41.419  27.686  33.697  1.00  0.00    -0.237 OA
ATOM     99  O   UNL A   1      42.896  29.127  35.043  1.00  0.00    -0.237 OA
ATOM    100  O   UNL A   1      42.738  29.470  32.620  1.00  0.00    -0.744 OA
ENDBRANCH  94  97
ENDBRANCH  67  90
ENDBRANCH  41  42
ENDBRANCH  34  36
ENDBRANCH  33  34
ENDBRANCH  32  33
ENDBRANCH  31  32
ENDBRANCH   1  31
TORSDOF 22
ENDMDL
MODEL 2
REMARK VINA RESULT:     -10.8      3.243      7.964
REMARK SMILES COc1cccc(-c2c(C(=O)OCCOCCOC(=O)c3ccc(-c4c5nc(c(-c6cccc(S(=O)(=O)[O-])c6F)c6ccc([nH]6)c(-c6cccc(S(=O)(=O)[O-])c6F)c6nc(c(-c7cccc(S(=O)(=O)[O-])c7F)c7ccc4[nH]7)C=C6)C=C5)cc3)nnn2-c2ccc(OC(F)(F)F)cc2)c1
REMARK SMILES IDX 15 1 14 2 13 3 12 4 10 5 11 6 9 7 8 8 86 9 84 10 85 11 7 12
REMARK SMILES IDX 3 13 4 14 98 15 5 16 6 17 2 18 1 19 87 20 88 21 97 22 89 23
REMARK SMILES IDX 96 24 90 25 91 26 92 27 93 28 94 29 95 30 16 31 17 32 18 33
REMARK SMILES IDX 19 34 20 35 21 36 22 37 83 38 23 39 82 40 24 41 25 42 26 43
REMARK SMILES IDX 76 44 27 45 81 46 75 47 77 48 28 49 80 50 74 51 73 52 29 54
REMARK SMILES IDX 61 55 41 56 60 57 42 58 45 59 59 60 78 61 43 62 44 63 58 65
REMARK SMILES IDX 79 66 46 67 30 68 31 69 39 70 32 71 34 72 40 73 33 74 35 75
REMARK SMILES IDX 36 76 37 77 38 78 62 79 63 80 71 81 64 82 66 83 72 84 65 85
REMARK SMILES IDX 67 86 68 87 69 88 70 89 47 90 48 91 56 92 49 93 51 94 57 95
REMARK SMILES IDX 50 96 52 97 53 98 54 99 55 100
REMARK H PARENT 77 53 45 64
REMARK Flexibility Score: inf
ROOT
ATOM      1  O   UNL A   1      33.434  33.269  29.061  1.00  0.00    -0.374 OA
ENDROOT
BRANCH   1   2
ATOM      2  C   UNL A   1      32.729  33.929  28.011  1.00  0.00     0.202 C 
BRANCH   2   3
ATOM      3  C   UNL A   1      32.169  33.087  26.863  1.00  0.00     0.261 C 
BRANCH   3   4
ATOM      4  O   UNL A   1      32.603  31.719  26.920  1.00  0.00    -0.458 OA
BRANCH   4   5
ATOM      5  C   UNL A   1      31.769  30.823  26.314  1.00  0.00     0.361 C 
ATOM      6  O   UNL A   1      30.799  31.132  25.635  1.00  0.00    -0.244 OA
BRANCH   5   7
ATOM      7  C   UNL A   1      32.208  29.447  26.461  1.00  0.00     0.198 A 
ATOM      8  C   UNL A   1      31.846  28.307  25.757  1.00  0.00     0.109 A 
ATOM      9  N   UNL A   1      32.767  27.370  26.225  1.00  0.00    -0.212 N 
ATOM     10  N   UNL A   1      33.104  29.107  27.449  1.00  0.00    -0.122 NA
ATOM     11  N   UNL A   1      33.331  27.806  27.373  1.00  0.00    -0.061 NA
BRANCH   8  12
ATOM     12  C   UNL A   1      30.858  28.026  24.710  1.00  0.00     0.007 A 
ATOM     13  C   UNL A   1      29.762  28.694  22.636  1.00  0.00     0.119 A 
ATOM     14  C   UNL A   1      28.827  27.677  22.820  1.00  0.00     0.046 A 
ATOM     15  C   UNL A   1      30.784  28.857  23.572  1.00  0.00     0.056 A 
ATOM     16  C   UNL A   1      28.919  26.815  23.912  1.00  0.00     0.005 A 
ATOM     17  C   UNL A   1      29.929  26.991  24.857  1.00  0.00     0.011 A 
BRANCH  13  18
ATOM     18  O   UNL A   1      29.523  29.501  21.561  1.00  0.00    -0.497 OA
ATOM     19  C   UNL A   1      28.297  30.227  21.539  1.00  0.00     0.278 C 
ENDBRANCH  13  18
ENDBRANCH   8  12
BRANCH   9  20
ATOM     20  C   UNL A   1      33.275  26.225  25.571  1.00  0.00     0.067 A 
ATOM     21  C   UNL A   1      33.912  26.345  24.336  1.00  0.00     0.032 A 
ATOM     22  C   UNL A   1      33.095  24.963  26.151  1.00  0.00     0.032 A 
ATOM     23  C   UNL A   1      34.426  25.199  23.722  1.00  0.00     0.049 A 
ATOM     24  C   UNL A   1      33.572  23.821  25.507  1.00  0.00     0.049 A 
ATOM     25  C   UNL A   1      34.260  23.934  24.300  1.00  0.00     0.129 A 
BRANCH  25  26
ATOM     26  O   UNL A   1      34.809  22.903  23.592  1.00  0.00    -0.406 OA
BRANCH  26  27
ATOM     27  C   UNL A   1      36.208  22.707  23.699  1.00  0.00     0.573 C 
ATOM     28  F   UNL A   1      36.838  22.920  22.525  1.00  0.00    -0.132 F 
ATOM     29  F   UNL A   1      36.736  23.522  24.642  1.00  0.00    -0.132 F 
ATOM     30  F   UNL A   1      36.446  21.432  24.080  1.00  0.00    -0.132 F 
ENDBRANCH  26  27
ENDBRANCH  25  26
ENDBRANCH   9  20
ENDBRANCH   5   7
ENDBRANCH   4   5
ENDBRANCH   3   4
ENDBRANCH   2   3
ENDBRANCH   1   2
BRANCH   1  31
ATOM     31  C   UNL A   1      34.617  33.840  29.615  1.00  0.00     0.202 C 
BRANCH  31  32
ATOM     32  C   UNL A   1      35.019  33.474  31.037  1.00  0.00     0.261 C 
BRANCH  32  33
ATOM     33  O   UNL A   1      34.899  32.086  31.284  1.00  0.00    -0.460 OA
BRANCH  33  34
ATOM     34  C   UNL A   1      35.969  31.555  31.924  1.00  0.00     0.338 C 
ATOM     35  O   UNL A   1      36.234  31.631  33.106  1.00  0.00    -0.246 OA
BRANCH  34  36
ATOM     36  C   UNL A   1      36.864  30.977  30.915  1.00  0.00     0.060 A 
ATOM     37  C   UNL A   1      36.790  29.590  30.777  1.00  0.00     0.016 A 
ATOM     38  C   UNL A   1      37.968  31.724  30.482  1.00  0.00     0.016 A 
ATOM     39  C   UNL A   1      37.951  28.918  30.491  1.00  0.00     0.010 A 
ATOM     40  C   UNL A   1      39.132  31.051  30.231  1.00  0.00     0.010 A 
ATOM     41  C   UNL A   1      39.123  29.664  30.345  1.00  0.00    -0.014 A 
BRANCH  41  42
ATOM     42  C   UNL A   1      40.367  28.954  30.205  1.00  0.00     0.031 A 
ATOM     43  C   UNL A   1      41.021  28.761  31.510  1.00  0.00     0.074 A 
ATOM     44  C   UNL A   1      40.788  28.469  29.024  1.00  0.00     0.049 A 
ATOM     45  N   UNL A   1      42.024  29.422  31.980  1.00  0.00    -0.248 NA
ATOM     46  C   UNL A   1      40.322  27.930  32.503  1.00  0.00     0.031 C 
ATOM     47  C   UNL A   1      40.060  28.403  27.753  1.00  0.00     0.029 A 
ATOM     48  N   UNL A   1      41.941  27.809  28.751  1.00  0.00    -0.354 N 
ATOM     49  C   UNL A   1      42.240  28.875  33.238  1.00  0.00     0.074 A 
ATOM     50  C   UNL A   1      41.021  28.208  33.603  1.00  0.00     0.031 C 
ATOM     51  C   UNL A   1      40.689  27.532  26.928  1.00  0.00     0.029 A 
ATOM     52  C   UNL A   1      41.920  27.092  27.561  1.00  0.00     0.049 A 
ATOM     53  H   UNL A   1      42.726  27.836  29.345  1.00  0.00     0.167 HD
ATOM     54  C   UNL A   1      43.504  28.713  33.711  1.00  0.00     0.034 A 
ATOM     55  C   UNL A   1      42.821  26.150  27.185  1.00  0.00     0.034 A 
ATOM     56  C   UNL A   1      44.446  29.502  32.956  1.00  0.00     0.049 A 
ATOM     57  C   UNL A   1      44.047  26.376  27.986  1.00  0.00     0.074 A 
ATOM     58  C   UNL A   1      44.616  30.846  32.699  1.00  0.00     0.029 A 
ATOM     59  N   UNL A   1      45.160  28.829  31.993  1.00  0.00    -0.354 N 
ATOM     60  N   UNL A   1      44.791  27.440  27.863  1.00  0.00    -0.248 NA
ATOM     61  C   UNL A   1      44.196  25.652  29.238  1.00  0.00     0.031 C 
ATOM     62  C   UNL A   1      45.079  30.913  31.352  1.00  0.00     0.029 A 
ATOM     63  C   UNL A   1      45.225  29.608  30.871  1.00  0.00     0.049 A 
ATOM     64  H   UNL A   1      45.559  27.934  32.094  1.00  0.00     0.167 HD
ATOM     65  C   UNL A   1      45.130  27.776  29.167  1.00  0.00     0.074 A 
ATOM     66  C   UNL A   1      44.850  26.574  29.952  1.00  0.00     0.031 C 
ATOM     67  C   UNL A   1      45.315  29.081  29.525  1.00  0.00     0.034 A 
BRANCH  54  68
ATOM     68  C   UNL A   1      43.952  27.530  34.543  1.00  0.00     0.023 A 
ATOM     69  C   UNL A   1      44.697  27.820  35.706  1.00  0.00     0.012 A 
ATOM     70  C   UNL A   1      43.934  26.179  34.120  1.00  0.00     0.148 A 
ATOM     71  C   UNL A   1      45.431  26.834  36.372  1.00  0.00     0.002 A 
ATOM     72  C   UNL A   1      44.599  25.188  34.829  1.00  0.00     0.091 A 
ATOM     73  F   UNL A   1      43.393  25.841  32.949  1.00  0.00    -0.205 F 
ATOM     74  C   UNL A   1      45.378  25.515  35.937  1.00  0.00     0.022 A 
BRANCH  72  75
ATOM     75  S   UNL A   1      44.529  23.463  34.321  1.00  0.00     0.127 S 
ATOM     76  O   UNL A   1      45.427  22.840  35.289  1.00  0.00    -0.237 OA
ATOM     77  O   UNL A   1      43.110  23.160  34.502  1.00  0.00    -0.237 OA
ATOM     78  O   UNL A   1      44.972  23.441  32.932  1.00  0.00    -0.744 OA
ENDBRANCH  72  75
ENDBRANCH  54  68
BRANCH  55  79
ATOM     79  C   UNL A   1      42.616  24.913  26.396  1.00  0.00     0.023 A 
ATOM     80  C   UNL A   1      43.467  24.614  25.315  1.00  0.00     0.012 A 
ATOM     81  C   UNL A   1      41.764  23.894  26.878  1.00  0.00     0.148 A 
ATOM     82  C   UNL A   1      43.484  23.334  24.745  1.00  0.00     0.002 A 
ATOM     83  C   UNL A   1      41.782  22.626  26.307  1.00  0.00     0.091 A 
ATOM     84  F   UNL A   1      41.004  24.146  27.951  1.00  0.00    -0.205 F 
ATOM     85  C   UNL A   1      42.649  22.338  25.244  1.00  0.00     0.022 A 
BRANCH  83  86
ATOM     86  S   UNL A   1      40.760  21.279  26.922  1.00  0.00     0.127 S 
ATOM     87  O   UNL A   1      39.481  21.550  26.267  1.00  0.00    -0.237 OA
ATOM     88  O   UNL A   1      41.470  20.106  26.418  1.00  0.00    -0.237 OA
ATOM     89  O   UNL A   1      40.738  21.421  28.372  1.00  0.00    -0.744 OA
ENDBRANCH  83  86
ENDBRANCH  55  79
BRANCH  67  90
ATOM     90  C   UNL A   1      45.385  30.104  28.416  1.00  0.00     0.023 A 
ATOM     91  C   UNL A   1      44.229  30.668  27.834  1.00  0.00     0.012 A 
ATOM     92  C   UNL A   1      46.640  30.637  28.084  1.00  0.00     0.148 A 
ATOM     93  C   UNL A   1      44.325  31.729  26.927  1.00  0.00     0.002 A 
ATOM     94  C   UNL A   1      46.730  31.721  27.221  1.00  0.00     0.091 A 
ATOM     95  F   UNL A   1      47.726  30.094  28.655  1.00  0.00    -0.205 F 
ATOM     96  C   UNL A   1      45.576  32.264  26.632  1.00  0.00     0.022 A 
BRANCH  94  97
ATOM     97  S   UNL A   1      48.292  32.543  26.902  1.00  0.00     0.127 S 
ATOM     98  O   UNL A   1      47.937  33.464  25.825  1.00  0.00    -0.237 OA
ATOM     99  O   UNL A   1      48.575  33.183  28.187  1.00  0.00    -0.237 OA
ATOM    100  O   UNL A   1      49.234  31.492  26.539  1.00  0.00    -0.744 OA
ENDBRANCH  94  97
ENDBRANCH  67  90
ENDBRANCH  41  42
ENDBRANCH  34  36
ENDBRANCH  33  34
ENDBRANCH  32  33
ENDBRANCH  31  32
ENDBRANCH   1  31
TORSDOF 22
ENDMDL
MODEL 3
REMARK VINA RESULT:     -10.2      4.551      9.151
REMARK SMILES COc1cccc(-c2c(C(=O)OCCOCCOC(=O)c3ccc(-c4c5nc(c(-c6cccc(S(=O)(=O)[O-])c6F)c6ccc([nH]6)c(-c6cccc(S(=O)(=O)[O-])c6F)c6nc(c(-c7cccc(S(=O)(=O)[O-])c7F)c7ccc4[nH]7)C=C6)C=C5)cc3)nnn2-c2ccc(OC(F)(F)F)cc2)c1
REMARK SMILES IDX 15 1 14 2 13 3 12 4 10 5 11 6 9 7 8 8 86 9 84 10 85 11 7 12
REMARK SMILES IDX 3 13 4 14 98 15 5 16 6 17 2 18 1 19 87 20 88 21 97 22 89 23
REMARK SMILES IDX 96 24 90 25 91 26 92 27 93 28 94 29 95 30 16 31 17 32 18 33
REMARK SMILES IDX 19 34 20 35 21 36 22 37 83 38 23 39 82 40 24 41 25 42 26 43
REMARK SMILES IDX 76 44 27 45 81 46 75 47 77 48 28 49 80 50 74 51 73 52 29 54
REMARK SMILES IDX 61 55 41 56 60 57 42 58 45 59 59 60 78 61 43 62 44 63 58 65
REMARK SMILES IDX 79 66 46 67 30 68 31 69 39 70 32 71 34 72 40 73 33 74 35 75
REMARK SMILES IDX 36 76 37 77 38 78 62 79 63 80 71 81 64 82 66 83 72 84 65 85
REMARK SMILES IDX 67 86 68 87 69 88 70 89 47 90 48 91 56 92 49 93 51 94 57 95
REMARK SMILES IDX 50 96 52 97 53 98 54 99 55 100
REMARK H PARENT 77 53 45 64
REMARK Flexibility Score: inf
ROOT
ATOM      1  O   UNL A   1      39.650  21.564  26.524  1.00  0.00    -0.374 OA
ENDROOT
BRANCH   1   2
ATOM      2  C   UNL A   1      38.965  20.740  25.582  1.00  0.00     0.202 C 
BRANCH   2   3
ATOM      3  C   UNL A   1      37.555  21.141  25.146  1.00  0.00     0.261 C 
BRANCH   3   4
ATOM      4  O   UNL A   1      37.068  22.293  25.851  1.00  0.00    -0.458 OA
BRANCH   4   5
ATOM      5  C   UNL A   1      35.716  22.320  26.049  1.00  0.00     0.361 C 
ATOM      6  O   UNL A   1      35.112  21.564  26.797  1.00  0.00    -0.244 OA
BRANCH   5   7
ATOM      7  C   UNL A   1      35.061  23.417  25.360  1.00  0.00     0.198 A 
ATOM      8  C   UNL A   1      33.980  23.417  24.489  1.00  0.00     0.109 A 
ATOM      9  N   UNL A   1      33.710  24.779  24.358  1.00  0.00    -0.212 N 
ATOM     10  N   UNL A   1      35.530  24.704  25.503  1.00  0.00    -0.122 NA
ATOM     11  N   UNL A   1      34.770  25.505  24.775  1.00  0.00    -0.061 NA
BRANCH   8  12
ATOM     12  C   UNL A   1      33.174  22.362  23.868  1.00  0.00     0.007 A 
ATOM     13  C   UNL A   1      32.308  20.082  23.926  1.00  0.00     0.119 A 
ATOM     14  C   UNL A   1      31.857  20.235  22.616  1.00  0.00     0.046 A 
ATOM     15  C   UNL A   1      32.950  21.150  24.554  1.00  0.00     0.056 A 
ATOM     16  C   UNL A   1      32.025  21.445  21.943  1.00  0.00     0.005 A 
ATOM     17  C   UNL A   1      32.684  22.505  22.565  1.00  0.00     0.011 A 
BRANCH  13  18
ATOM     18  O   UNL A   1      32.134  18.832  24.446  1.00  0.00    -0.497 OA
ATOM     19  C   UNL A   1      32.839  17.757  23.832  1.00  0.00     0.278 C 
ENDBRANCH  13  18
ENDBRANCH   8  12
BRANCH   9  20
ATOM     20  C   UNL A   1      32.482  25.414  24.065  1.00  0.00     0.067 A 
ATOM     21  C   UNL A   1      31.443  25.399  24.996  1.00  0.00     0.032 A 
ATOM     22  C   UNL A   1      32.299  26.019  22.816  1.00  0.00     0.032 A 
ATOM     23  C   UNL A   1      30.247  26.055  24.690  1.00  0.00     0.049 A 
ATOM     24  C   UNL A   1      31.085  26.631  22.504  1.00  0.00     0.049 A 
ATOM     25  C   UNL A   1      30.059  26.672  23.447  1.00  0.00     0.129 A 
BRANCH  25  26
ATOM     26  O   UNL A   1      28.843  27.271  23.282  1.00  0.00    -0.406 OA
BRANCH  26  27
ATOM     27  C   UNL A   1      28.820  28.683  23.158  1.00  0.00     0.573 C 
ATOM     28  F   UNL A   1      29.766  29.270  23.921  1.00  0.00    -0.132 F 
ATOM     29  F   UNL A   1      28.993  29.054  21.868  1.00  0.00    -0.132 F 
ATOM     30  F   UNL A   1      27.613  29.140  23.558  1.00  0.00    -0.132 F 
ENDBRANCH  26  27
ENDBRANCH  25  26
ENDBRANCH   9  20
ENDBRANCH   5   7
ENDBRANCH   4   5
ENDBRANCH   3   4
ENDBRANCH   2   3
ENDBRANCH   1   2
BRANCH   1  31
ATOM     31  C   UNL A   1      40.734  21.047  27.292  1.00  0.00     0.202 C 
BRANCH  31  32
ATOM     32  C   UNL A   1      41.934  21.940  27.572  1.00  0.00     0.261 C 
BRANCH  32  33
ATOM     33  O   UNL A   1      41.697  23.284  27.196  1.00  0.00    -0.460 OA
BRANCH  33  34
ATOM     34  C   UNL A   1      42.365  23.661  26.079  1.00  0.00     0.338 C 
ATOM     35  O   UNL A   1      42.736  22.950  25.167  1.00  0.00    -0.246 OA
BRANCH  34  36
ATOM     36  C   UNL A   1      42.711  25.080  26.210  1.00  0.00     0.060 A 
ATOM     37  C   UNL A   1      43.695  25.367  27.158  1.00  0.00     0.016 A 
ATOM     38  C   UNL A   1      41.811  26.044  25.736  1.00  0.00     0.016 A 
ATOM     39  C   UNL A   1      43.576  26.540  27.860  1.00  0.00     0.010 A 
ATOM     40  C   UNL A   1      41.674  27.196  26.460  1.00  0.00     0.010 A 
ATOM     41  C   UNL A   1      42.490  27.371  27.572  1.00  0.00    -0.014 A 
BRANCH  41  42
ATOM     42  C   UNL A   1      42.271  28.518  28.414  1.00  0.00     0.031 A 
ATOM     43  C   UNL A   1      43.249  29.582  28.131  1.00  0.00     0.074 A 
ATOM     44  C   UNL A   1      41.234  28.596  29.266  1.00  0.00     0.049 A 
ATOM     45  N   UNL A   1      44.288  29.886  28.833  1.00  0.00    -0.248 NA
ATOM     46  C   UNL A   1      43.221  30.192  26.793  1.00  0.00     0.031 C 
ATOM     47  C   UNL A   1      40.091  27.687  29.397  1.00  0.00     0.029 A 
ATOM     48  N   UNL A   1      40.928  29.599  30.125  1.00  0.00    -0.354 N 
ATOM     49  C   UNL A   1      44.883  30.930  28.138  1.00  0.00     0.074 A 
ATOM     50  C   UNL A   1      44.373  30.863  26.796  1.00  0.00     0.031 C 
ATOM     51  C   UNL A   1      39.113  28.307  30.100  1.00  0.00     0.029 A 
ATOM     52  C   UNL A   1      39.613  29.586  30.573  1.00  0.00     0.049 A 
ATOM     53  H   UNL A   1      41.582  30.279  30.407  1.00  0.00     0.167 HD
ATOM     54  C   UNL A   1      45.459  31.964  28.805  1.00  0.00     0.034 A 
ATOM     55  C   UNL A   1      38.981  30.601  31.215  1.00  0.00     0.034 A 
ATOM     56  C   UNL A   1      45.695  31.622  30.187  1.00  0.00     0.049 A 
ATOM     57  C   UNL A   1      40.032  31.479  31.779  1.00  0.00     0.074 A 
ATOM     58  C   UNL A   1      46.433  30.663  30.847  1.00  0.00     0.029 A 
ATOM     59  N   UNL A   1      44.772  32.092  31.090  1.00  0.00    -0.354 N 
ATOM     60  N   UNL A   1      40.841  31.101  32.730  1.00  0.00    -0.248 NA
ATOM     61  C   UNL A   1      40.489  32.607  30.984  1.00  0.00     0.031 C 
ATOM     62  C   UNL A   1      45.649  30.305  31.983  1.00  0.00     0.029 A 
ATOM     63  C   UNL A   1      44.501  31.102  31.994  1.00  0.00     0.049 A 
ATOM     64  H   UNL A   1      44.371  32.991  31.087  1.00  0.00     0.167 HD
ATOM     65  C   UNL A   1      42.076  31.612  32.356  1.00  0.00     0.074 A 
ATOM     66  C   UNL A   1      41.774  32.633  31.353  1.00  0.00     0.031 C 
ATOM     67  C   UNL A   1      43.229  30.951  32.671  1.00  0.00     0.034 A 
BRANCH  54  68
ATOM     68  C   UNL A   1      45.403  33.406  28.347  1.00  0.00     0.023 A 
ATOM     69  C   UNL A   1      46.624  34.113  28.331  1.00  0.00     0.012 A 
ATOM     70  C   UNL A   1      44.221  34.173  28.205  1.00  0.00     0.148 A 
ATOM     71  C   UNL A   1      46.663  35.508  28.243  1.00  0.00     0.002 A 
ATOM     72  C   UNL A   1      44.267  35.550  28.038  1.00  0.00     0.091 A 
ATOM     73  F   UNL A   1      43.023  33.612  28.369  1.00  0.00    -0.205 F 
ATOM     74  C   UNL A   1      45.483  36.228  28.090  1.00  0.00     0.022 A 
BRANCH  72  75
ATOM     75  S   UNL A   1      42.768  36.517  27.802  1.00  0.00     0.127 S 
ATOM     76  O   UNL A   1      42.193  35.878  26.622  1.00  0.00    -0.237 OA
ATOM     77  O   UNL A   1      42.056  36.268  29.055  1.00  0.00    -0.237 OA
ATOM     78  O   UNL A   1      43.209  37.896  27.631  1.00  0.00    -0.744 OA
ENDBRANCH  72  75
ENDBRANCH  54  68
BRANCH  55  79
ATOM     79  C   UNL A   1      37.562  31.019  31.145  1.00  0.00     0.023 A 
ATOM     80  C   UNL A   1      36.868  31.364  32.321  1.00  0.00     0.012 A 
ATOM     81  C   UNL A   1      36.976  31.348  29.903  1.00  0.00     0.148 A 
ATOM     82  C   UNL A   1      35.638  32.033  32.261  1.00  0.00     0.002 A 
ATOM     83  C   UNL A   1      35.753  32.009  29.848  1.00  0.00     0.091 A 
ATOM     84  F   UNL A   1      37.661  31.090  28.781  1.00  0.00    -0.205 F 
ATOM     85  C   UNL A   1      35.085  32.363  31.028  1.00  0.00     0.022 A 
BRANCH  83  86
ATOM     86  S   UNL A   1      34.994  32.502  28.293  1.00  0.00     0.127 S 
ATOM     87  O   UNL A   1      33.781  33.177  28.753  1.00  0.00    -0.237 OA
ATOM     88  O   UNL A   1      36.011  33.385  27.726  1.00  0.00    -0.237 OA
ATOM     89  O   UNL A   1      34.755  31.269  27.554  1.00  0.00    -0.744 OA
ENDBRANCH  83  86
ENDBRANCH  55  79
BRANCH  67  90
ATOM     90  C   UNL A   1      43.127  29.798  33.641  1.00  0.00     0.023 A 
ATOM     91  C   UNL A   1      42.696  28.513  33.245  1.00  0.00     0.012 A 
ATOM     92  C   UNL A   1      43.649  29.970  34.932  1.00  0.00     0.148 A 
ATOM     93  C   UNL A   1      42.768  27.429  34.126  1.00  0.00     0.002 A 
ATOM     94  C   UNL A   1      43.765  28.883  35.788  1.00  0.00     0.091 A 
ATOM     95  F   UNL A   1      44.063  31.197  35.286  1.00  0.00    -0.205 F 
ATOM     96  C   UNL A   1      43.317  27.612  35.392  1.00  0.00     0.022 A 
BRANCH  94  97
ATOM     97  S   UNL A   1      44.581  29.019  37.378  1.00  0.00     0.127 S 
ATOM     98  O   UNL A   1      43.792  30.056  38.039  1.00  0.00    -0.237 OA
ATOM     99  O   UNL A   1      44.412  27.675  37.932  1.00  0.00    -0.237 OA
ATOM    100  O   UNL A   1      45.965  29.376  37.092  1.00  0.00    -0.744 OA
ENDBRANCH  94  97
ENDBRANCH  67  90
ENDBRANCH  41  42
ENDBRANCH  34  36
ENDBRANCH  33  34
ENDBRANCH  32  33
ENDBRANCH  31  32
ENDBRANCH   1  31
TORSDOF 22
ENDMDL
