MODEL 1
REMARK VINA RESULT:     -10.5      0.000      0.000
REMARK SMILES C[C@@]([NH2+]Cc1ccccc1Br)(C(=O)OCCOCCOC(=O)c1ccc(-c2c3nc(c(-c4cccc(S(=O)(=O)[O-])c4F)c4ccc([nH]4)c(-c4cccc(S(=O)(=O)[O-])c4F)c4nc(c(-c5cccc(S(=O)(=O)[O-])c5F)c5ccc2[nH]5)C=C4)C=C3)cc1)C(F)(F)F
REMARK SMILES IDX 17 1 16 2 15 3 14 4 12 5 13 6 2 7 1 8 3 9 4 12 5 13 6 14
REMARK SMILES IDX 10 15 7 16 9 17 11 18 8 19 86 20 87 21 88 22 89 23 18 24
REMARK SMILES IDX 19 25 20 26 21 27 22 28 23 29 24 30 85 31 25 32 84 33 26 34
REMARK SMILES IDX 27 35 28 36 78 37 29 38 83 39 77 40 79 41 30 42 82 43 76 44
REMARK SMILES IDX 75 45 31 47 63 48 43 49 62 50 44 51 47 52 61 53 80 54 45 55
REMARK SMILES IDX 46 56 60 58 81 59 48 60 32 61 33 62 41 63 34 64 36 65 42 66
REMARK SMILES IDX 35 67 37 68 38 69 39 70 40 71 64 72 65 73 73 74 66 75 68 76
REMARK SMILES IDX 74 77 67 78 69 79 70 80 71 81 72 82 49 83 50 84 58 85 51 86
REMARK SMILES IDX 53 87 59 88 52 89 54 90 55 91 56 92 57 93
REMARK H PARENT 3 10 3 11 79 46 47 57
REMARK Flexibility Score: inf
ROOT
ATOM      1  O   UNL A   1      35.503  21.480  24.277  1.00  0.00    -0.374 OA
ENDROOT
BRANCH   1   2
ATOM      2  C   UNL A   1      34.966  20.632  25.288  1.00  0.00     0.202 C 
BRANCH   2   3
ATOM      3  C   UNL A   1      33.521  20.860  25.742  1.00  0.00     0.261 C 
BRANCH   3   4
ATOM      4  O   UNL A   1      32.954  22.097  25.282  1.00  0.00    -0.458 OA
BRANCH   4   5
ATOM      5  C   UNL A   1      33.021  23.119  26.182  1.00  0.00     0.377 C 
ATOM      6  O   UNL A   1      33.421  22.963  27.331  1.00  0.00    -0.244 OA
BRANCH   5   7
ATOM      7  C   UNL A   1      32.521  24.454  25.625  1.00  0.00     0.287 C 
ATOM      8  C   UNL A   1      31.682  24.262  24.337  1.00  0.00     0.103 C 
BRANCH   7   9
ATOM      9  N   UNL A   1      31.563  25.122  26.580  1.00  0.00    -0.321 N 
ATOM     10  H   UNL A   1      32.123  25.593  27.290  1.00  0.00     0.347 HD
ATOM     11  H   UNL A   1      30.968  24.362  26.912  1.00  0.00     0.347 HD
BRANCH   9  12
ATOM     12  C   UNL A   1      30.623  26.109  26.043  1.00  0.00     0.299 C 
BRANCH  12  13
ATOM     13  C   UNL A   1      31.123  27.533  26.042  1.00  0.00     0.020 A 
ATOM     14  C   UNL A   1      31.704  28.044  27.218  1.00  0.00     0.011 A 
ATOM     15  C   UNL A   1      31.070  28.371  24.917  1.00  0.00     0.026 A 
ATOM     16  C   UNL A   1      32.304  29.303  27.242  1.00  0.00     0.001 A 
ATOM     17  C   UNL A   1      31.653  29.644  24.950  1.00  0.00     0.016 A 
ATOM     18  Br  UNL A   1      30.225  27.848  23.298  1.00  0.00    -0.050 Br
ATOM     19  C   UNL A   1      32.290  30.098  26.104  1.00  0.00     0.001 A 
ENDBRANCH  12  13
ENDBRANCH   9  12
ENDBRANCH   7   9
BRANCH   7  20
ATOM     20  C   UNL A   1      33.788  25.236  25.183  1.00  0.00     0.455 C 
ATOM     21  F   UNL A   1      33.543  26.016  24.098  1.00  0.00    -0.164 F 
ATOM     22  F   UNL A   1      34.180  26.083  26.174  1.00  0.00    -0.164 F 
ATOM     23  F   UNL A   1      34.859  24.484  24.876  1.00  0.00    -0.164 F 
ENDBRANCH   7  20
ENDBRANCH   5   7
ENDBRANCH   4   5
ENDBRANCH   3   4
ENDBRANCH   2   3
ENDBRANCH   1   2
BRANCH   1  24
ATOM     24  C   UNL A   1      36.902  21.755  24.296  1.00  0.00     0.202 C 
BRANCH  24  25
ATOM     25  C   UNL A   1      37.852  20.658  24.785  1.00  0.00     0.261 C 
BRANCH  25  26
ATOM     26  O   UNL A   1      38.288  20.886  26.135  1.00  0.00    -0.460 OA
BRANCH  26  27
ATOM     27  C   UNL A   1      39.626  21.041  26.272  1.00  0.00     0.338 C 
ATOM     28  O   UNL A   1      40.502  20.350  25.766  1.00  0.00    -0.246 OA
BRANCH  27  29
ATOM     29  C   UNL A   1      39.928  22.306  26.962  1.00  0.00     0.060 A 
ATOM     30  C   UNL A   1      39.231  23.446  26.540  1.00  0.00     0.016 A 
ATOM     31  C   UNL A   1      40.929  22.399  27.929  1.00  0.00     0.016 A 
ATOM     32  C   UNL A   1      39.587  24.699  27.025  1.00  0.00     0.010 A 
ATOM     33  C   UNL A   1      41.293  23.661  28.409  1.00  0.00     0.010 A 
ATOM     34  C   UNL A   1      40.658  24.818  27.917  1.00  0.00    -0.014 A 
BRANCH  34  35
ATOM     35  C   UNL A   1      41.234  26.158  28.172  1.00  0.00     0.031 A 
ATOM     36  C   UNL A   1      42.612  26.462  27.649  1.00  0.00     0.074 A 
ATOM     37  C   UNL A   1      40.529  27.098  28.824  1.00  0.00     0.049 A 
ATOM     38  N   UNL A   1      43.308  27.563  27.742  1.00  0.00    -0.248 NA
ATOM     39  C   UNL A   1      43.295  25.376  26.927  1.00  0.00     0.031 C 
ATOM     40  C   UNL A   1      39.181  26.923  29.360  1.00  0.00     0.029 A 
ATOM     41  N   UNL A   1      40.864  28.386  29.159  1.00  0.00    -0.354 N 
ATOM     42  C   UNL A   1      44.521  27.296  27.118  1.00  0.00     0.074 A 
ATOM     43  C   UNL A   1      44.472  25.924  26.663  1.00  0.00     0.031 C 
ATOM     44  C   UNL A   1      38.810  28.058  29.978  1.00  0.00     0.029 A 
ATOM     45  C   UNL A   1      39.902  29.028  29.898  1.00  0.00     0.049 A 
ATOM     46  H   UNL A   1      41.713  28.809  28.894  1.00  0.00     0.167 HD
ATOM     47  C   UNL A   1      45.576  28.123  26.924  1.00  0.00     0.034 A 
ATOM     48  C   UNL A   1      39.910  30.253  30.458  1.00  0.00     0.034 A 
ATOM     49  C   UNL A   1      45.611  29.493  27.360  1.00  0.00     0.049 A 
ATOM     50  C   UNL A   1      41.104  31.147  30.251  1.00  0.00     0.074 A 
ATOM     51  C   UNL A   1      46.612  30.429  27.172  1.00  0.00     0.029 A 
ATOM     52  N   UNL A   1      44.605  30.119  28.079  1.00  0.00    -0.354 N 
ATOM     53  N   UNL A   1      42.196  30.922  29.561  1.00  0.00    -0.248 NA
ATOM     54  C   UNL A   1      41.052  32.480  30.872  1.00  0.00     0.031 C 
ATOM     55  C   UNL A   1      46.221  31.616  27.804  1.00  0.00     0.029 A 
ATOM     56  C   UNL A   1      44.965  31.426  28.358  1.00  0.00     0.049 A 
ATOM     57  H   UNL A   1      43.759  29.696  28.352  1.00  0.00     0.167 HD
ATOM     58  C   UNL A   1      42.943  32.092  29.631  1.00  0.00     0.074 A 
ATOM     59  C   UNL A   1      42.170  33.032  30.420  1.00  0.00     0.031 C 
ATOM     60  C   UNL A   1      44.161  32.364  29.100  1.00  0.00     0.034 A 
BRANCH  47  61
ATOM     61  C   UNL A   1      46.769  27.566  26.195  1.00  0.00     0.023 A 
ATOM     62  C   UNL A   1      46.890  27.756  24.803  1.00  0.00     0.012 A 
ATOM     63  C   UNL A   1      47.785  26.881  26.889  1.00  0.00     0.148 A 
ATOM     64  C   UNL A   1      47.982  27.241  24.107  1.00  0.00     0.002 A 
ATOM     65  C   UNL A   1      48.893  26.407  26.195  1.00  0.00     0.091 A 
ATOM     66  F   UNL A   1      47.640  26.685  28.207  1.00  0.00    -0.205 F 
ATOM     67  C   UNL A   1      48.988  26.576  24.804  1.00  0.00     0.022 A 
BRANCH  65  68
ATOM     68  S   UNL A   1      50.272  25.605  27.020  1.00  0.00     0.127 S 
ATOM     69  O   UNL A   1      51.198  25.392  25.908  1.00  0.00    -0.237 OA
ATOM     70  O   UNL A   1      50.697  26.626  27.978  1.00  0.00    -0.237 OA
ATOM     71  O   UNL A   1      49.728  24.399  27.625  1.00  0.00    -0.744 OA
ENDBRANCH  65  68
ENDBRANCH  47  61
BRANCH  48  72
ATOM     72  C   UNL A   1      38.724  30.720  31.231  1.00  0.00     0.023 A 
ATOM     73  C   UNL A   1      38.706  30.572  32.631  1.00  0.00     0.012 A 
ATOM     74  C   UNL A   1      37.635  31.343  30.591  1.00  0.00     0.148 A 
ATOM     75  C   UNL A   1      37.613  31.013  33.378  1.00  0.00     0.002 A 
ATOM     76  C   UNL A   1      36.575  31.830  31.346  1.00  0.00     0.091 A 
ATOM     77  F   UNL A   1      37.667  31.461  29.256  1.00  0.00    -0.205 F 
ATOM     78  C   UNL A   1      36.555  31.652  32.738  1.00  0.00     0.022 A 
BRANCH  76  79
ATOM     79  S   UNL A   1      35.230  32.777  30.625  1.00  0.00     0.127 S 
ATOM     80  O   UNL A   1      35.927  33.963  30.137  1.00  0.00    -0.237 OA
ATOM     81  O   UNL A   1      34.753  31.869  29.581  1.00  0.00    -0.237 OA
ATOM     82  O   UNL A   1      34.281  33.002  31.706  1.00  0.00    -0.744 OA
ENDBRANCH  76  79
ENDBRANCH  48  72
BRANCH  60  83
ATOM     83  C   UNL A   1      44.730  33.742  29.319  1.00  0.00     0.023 A 
ATOM     84  C   UNL A   1      45.493  34.013  30.472  1.00  0.00     0.012 A 
ATOM     85  C   UNL A   1      44.575  34.746  28.342  1.00  0.00     0.148 A 
ATOM     86  C   UNL A   1      46.067  35.269  30.664  1.00  0.00     0.002 A 
ATOM     87  C   UNL A   1      45.191  35.980  28.516  1.00  0.00     0.091 A 
ATOM     88  F   UNL A   1      43.831  34.476  27.259  1.00  0.00    -0.205 F 
ATOM     89  C   UNL A   1      45.927  36.247  29.682  1.00  0.00     0.022 A 
BRANCH  87  90
ATOM     90  S   UNL A   1      45.145  37.262  27.259  1.00  0.00     0.127 S 
ATOM     91  O   UNL A   1      45.806  38.373  27.941  1.00  0.00    -0.237 OA
ATOM     92  O   UNL A   1      45.923  36.663  26.173  1.00  0.00    -0.237 OA
ATOM     93  O   UNL A   1      43.736  37.467  26.947  1.00  0.00    -0.744 OA
ENDBRANCH  87  90
ENDBRANCH  60  83
ENDBRANCH  34  35
ENDBRANCH  27  29
ENDBRANCH  26  27
ENDBRANCH  25  26
ENDBRANCH  24  25
ENDBRANCH   1  24
TORSDOF 21
ENDMDL
MODEL 2
REMARK VINA RESULT:     -10.3      4.754     10.277
REMARK SMILES C[C@@]([NH2+]Cc1ccccc1Br)(C(=O)OCCOCCOC(=O)c1ccc(-c2c3nc(c(-c4cccc(S(=O)(=O)[O-])c4F)c4ccc([nH]4)c(-c4cccc(S(=O)(=O)[O-])c4F)c4nc(c(-c5cccc(S(=O)(=O)[O-])c5F)c5ccc2[nH]5)C=C4)C=C3)cc1)C(F)(F)F
REMARK SMILES IDX 17 1 16 2 15 3 14 4 12 5 13 6 2 7 1 8 3 9 4 12 5 13 6 14
REMARK SMILES IDX 10 15 7 16 9 17 11 18 8 19 86 20 87 21 88 22 89 23 18 24
REMARK SMILES IDX 19 25 20 26 21 27 22 28 23 29 24 30 85 31 25 32 84 33 26 34
REMARK SMILES IDX 27 35 28 36 78 37 29 38 83 39 77 40 79 41 30 42 82 43 76 44
REMARK SMILES IDX 75 45 31 47 63 48 43 49 62 50 44 51 47 52 61 53 80 54 45 55
REMARK SMILES IDX 46 56 60 58 81 59 48 60 32 61 33 62 41 63 34 64 36 65 42 66
REMARK SMILES IDX 35 67 37 68 38 69 39 70 40 71 64 72 65 73 73 74 66 75 68 76
REMARK SMILES IDX 74 77 67 78 69 79 70 80 71 81 72 82 49 83 50 84 58 85 51 86
REMARK SMILES IDX 53 87 59 88 52 89 54 90 55 91 56 92 57 93
REMARK H PARENT 3 10 3 11 79 46 47 57
REMARK Flexibility Score: inf
ROOT
ATOM      1  O   UNL A   1      32.507  30.051  25.609  1.00  0.00    -0.374 OA
ENDROOT
BRANCH   1   2
ATOM      2  C   UNL A   1      32.292  28.713  25.169  1.00  0.00     0.202 C 
BRANCH   2   3
ATOM      3  C   UNL A   1      33.484  27.923  24.619  1.00  0.00     0.261 C 
BRANCH   3   4
ATOM      4  O   UNL A   1      33.598  26.594  25.153  1.00  0.00    -0.458 OA
BRANCH   4   5
ATOM      5  C   UNL A   1      32.920  25.642  24.451  1.00  0.00     0.377 C 
ATOM      6  O   UNL A   1      32.827  25.663  23.229  1.00  0.00    -0.244 OA
BRANCH   5   7
ATOM      7  C   UNL A   1      32.268  24.580  25.339  1.00  0.00     0.287 C 
ATOM      8  C   UNL A   1      32.009  23.263  24.567  1.00  0.00     0.103 C 
BRANCH   7   9
ATOM      9  N   UNL A   1      33.188  24.162  26.459  1.00  0.00    -0.321 N 
ATOM     10  H   UNL A   1      32.708  24.363  27.336  1.00  0.00     0.347 HD
ATOM     11  H   UNL A   1      34.046  24.687  26.289  1.00  0.00     0.347 HD
BRANCH   9  12
ATOM     12  C   UNL A   1      33.624  22.765  26.514  1.00  0.00     0.299 C 
BRANCH  12  13
ATOM     13  C   UNL A   1      34.970  22.489  25.887  1.00  0.00     0.020 A 
ATOM     14  C   UNL A   1      35.985  23.456  26.018  1.00  0.00     0.011 A 
ATOM     15  C   UNL A   1      35.277  21.302  25.205  1.00  0.00     0.026 A 
ATOM     16  C   UNL A   1      37.285  23.207  25.579  1.00  0.00     0.001 A 
ATOM     17  C   UNL A   1      36.578  21.062  24.745  1.00  0.00     0.016 A 
ATOM     18  Br  UNL A   1      33.978  19.958  24.868  1.00  0.00    -0.050 Br
ATOM     19  C   UNL A   1      37.584  22.003  24.954  1.00  0.00     0.001 A 
ENDBRANCH  12  13
ENDBRANCH   9  12
ENDBRANCH   7   9
BRANCH   7  20
ATOM     20  C   UNL A   1      30.862  25.131  25.706  1.00  0.00     0.455 C 
ATOM     21  F   UNL A   1      30.936  26.103  26.652  1.00  0.00    -0.164 F 
ATOM     22  F   UNL A   1      30.291  25.711  24.614  1.00  0.00    -0.164 F 
ATOM     23  F   UNL A   1      29.982  24.223  26.162  1.00  0.00    -0.164 F 
ENDBRANCH   7  20
ENDBRANCH   5   7
ENDBRANCH   4   5
ENDBRANCH   3   4
ENDBRANCH   2   3
ENDBRANCH   1   2
BRANCH   1  24
ATOM     24  C   UNL A   1      31.375  30.906  25.755  1.00  0.00     0.202 C 
BRANCH  24  25
ATOM     25  C   UNL A   1      31.525  32.174  26.601  1.00  0.00     0.261 C 
BRANCH  25  26
ATOM     26  O   UNL A   1      32.471  31.998  27.669  1.00  0.00    -0.460 OA
BRANCH  26  27
ATOM     27  C   UNL A   1      33.416  32.964  27.743  1.00  0.00     0.338 C 
ATOM     28  O   UNL A   1      33.229  34.175  27.774  1.00  0.00    -0.246 OA
BRANCH  27  29
ATOM     29  C   UNL A   1      34.739  32.370  27.997  1.00  0.00     0.060 A 
ATOM     30  C   UNL A   1      34.791  30.980  28.175  1.00  0.00     0.016 A 
ATOM     31  C   UNL A   1      35.884  33.152  28.149  1.00  0.00     0.016 A 
ATOM     32  C   UNL A   1      35.973  30.376  28.587  1.00  0.00     0.010 A 
ATOM     33  C   UNL A   1      37.069  32.544  28.572  1.00  0.00     0.010 A 
ATOM     34  C   UNL A   1      37.101  31.163  28.844  1.00  0.00    -0.014 A 
BRANCH  34  35
ATOM     35  C   UNL A   1      38.238  30.567  29.583  1.00  0.00     0.031 A 
ATOM     36  C   UNL A   1      38.454  30.966  31.017  1.00  0.00     0.074 A 
ATOM     37  C   UNL A   1      39.040  29.661  28.999  1.00  0.00     0.049 A 
ATOM     38  N   UNL A   1      39.371  30.568  31.858  1.00  0.00    -0.248 NA
ATOM     39  C   UNL A   1      37.509  31.948  31.576  1.00  0.00     0.031 C 
ATOM     40  C   UNL A   1      38.916  29.186  27.623  1.00  0.00     0.029 A 
ATOM     41  N   UNL A   1      40.131  28.991  29.493  1.00  0.00    -0.354 N 
ATOM     42  C   UNL A   1      39.135  31.270  33.034  1.00  0.00     0.074 A 
ATOM     43  C   UNL A   1      37.996  32.130  32.794  1.00  0.00     0.031 C 
ATOM     44  C   UNL A   1      39.909  28.314  27.374  1.00  0.00     0.029 A 
ATOM     45  C   UNL A   1      40.748  28.188  28.566  1.00  0.00     0.049 A 
ATOM     46  H   UNL A   1      40.440  29.078  30.424  1.00  0.00     0.167 HD
ATOM     47  C   UNL A   1      39.793  31.194  34.214  1.00  0.00     0.034 A 
ATOM     48  C   UNL A   1      41.869  27.449  28.665  1.00  0.00     0.034 A 
ATOM     49  C   UNL A   1      40.911  30.322  34.455  1.00  0.00     0.049 A 
ATOM     50  C   UNL A   1      42.601  27.398  29.981  1.00  0.00     0.074 A 
ATOM     51  C   UNL A   1      41.620  30.135  35.628  1.00  0.00     0.029 A 
ATOM     52  N   UNL A   1      41.490  29.500  33.500  1.00  0.00    -0.354 N 
ATOM     53  N   UNL A   1      42.298  27.978  31.118  1.00  0.00    -0.248 NA
ATOM     54  C   UNL A   1      43.810  26.563  30.038  1.00  0.00     0.031 C 
ATOM     55  C   UNL A   1      42.646  29.217  35.374  1.00  0.00     0.029 A 
ATOM     56  C   UNL A   1      42.557  28.812  34.052  1.00  0.00     0.049 A 
ATOM     57  H   UNL A   1      41.187  29.417  32.567  1.00  0.00     0.167 HD
ATOM     58  C   UNL A   1      43.254  27.550  32.033  1.00  0.00     0.074 A 
ATOM     59  C   UNL A   1      44.137  26.649  31.320  1.00  0.00     0.031 C 
ATOM     60  C   UNL A   1      43.395  27.879  33.342  1.00  0.00     0.034 A 
BRANCH  47  61
ATOM     61  C   UNL A   1      39.306  32.069  35.338  1.00  0.00     0.023 A 
ATOM     62  C   UNL A   1      38.325  31.584  36.228  1.00  0.00     0.012 A 
ATOM     63  C   UNL A   1      39.838  33.358  35.534  1.00  0.00     0.148 A 
ATOM     64  C   UNL A   1      37.854  32.382  37.270  1.00  0.00     0.002 A 
ATOM     65  C   UNL A   1      39.395  34.132  36.600  1.00  0.00     0.091 A 
ATOM     66  F   UNL A   1      40.749  33.814  34.662  1.00  0.00    -0.205 F 
ATOM     67  C   UNL A   1      38.396  33.650  37.462  1.00  0.00     0.022 A 
BRANCH  65  68
ATOM     68  S   UNL A   1      40.087  35.748  36.970  1.00  0.00     0.127 S 
ATOM     69  O   UNL A   1      39.701  36.512  35.785  1.00  0.00    -0.237 OA
ATOM     70  O   UNL A   1      39.373  36.118  38.193  1.00  0.00    -0.237 OA
ATOM     71  O   UNL A   1      41.516  35.538  37.146  1.00  0.00    -0.744 OA
ENDBRANCH  65  68
ENDBRANCH  47  61
BRANCH  48  72
ATOM     72  C   UNL A   1      42.341  26.660  27.493  1.00  0.00     0.023 A 
ATOM     73  C   UNL A   1      43.150  27.278  26.520  1.00  0.00     0.012 A 
ATOM     74  C   UNL A   1      42.024  25.294  27.357  1.00  0.00     0.148 A 
ATOM     75  C   UNL A   1      43.615  26.557  25.420  1.00  0.00     0.002 A 
ATOM     76  C   UNL A   1      42.536  24.568  26.288  1.00  0.00     0.091 A 
ATOM     77  F   UNL A   1      41.242  24.729  28.287  1.00  0.00    -0.205 F 
ATOM     78  C   UNL A   1      43.319  25.201  25.310  1.00  0.00     0.022 A 
BRANCH  76  79
ATOM     79  S   UNL A   1      42.314  22.793  26.132  1.00  0.00     0.127 S 
ATOM     80  O   UNL A   1      42.913  22.530  24.826  1.00  0.00    -0.237 OA
ATOM     81  O   UNL A   1      43.080  22.294  27.274  1.00  0.00    -0.237 OA
ATOM     82  O   UNL A   1      40.878  22.565  26.224  1.00  0.00    -0.744 OA
ENDBRANCH  76  79
ENDBRANCH  48  72
BRANCH  60  83
ATOM     83  C   UNL A   1      44.523  27.239  34.107  1.00  0.00     0.023 A 
ATOM     84  C   UNL A   1      45.765  27.897  34.210  1.00  0.00     0.012 A 
ATOM     85  C   UNL A   1      44.326  26.024  34.793  1.00  0.00     0.148 A 
ATOM     86  C   UNL A   1      46.802  27.340  34.957  1.00  0.00     0.002 A 
ATOM     87  C   UNL A   1      45.349  25.500  35.576  1.00  0.00     0.091 A 
ATOM     88  F   UNL A   1      43.144  25.403  34.670  1.00  0.00    -0.205 F 
ATOM     89  C   UNL A   1      46.591  26.150  35.650  1.00  0.00     0.022 A 
BRANCH  87  90
ATOM     90  S   UNL A   1      45.131  24.025  36.578  1.00  0.00     0.127 S 
ATOM     91  O   UNL A   1      44.517  24.572  37.786  1.00  0.00    -0.237 OA
ATOM     92  O   UNL A   1      44.234  23.216  35.751  1.00  0.00    -0.237 OA
ATOM     93  O   UNL A   1      46.463  23.459  36.752  1.00  0.00    -0.744 OA
ENDBRANCH  87  90
ENDBRANCH  60  83
ENDBRANCH  34  35
ENDBRANCH  27  29
ENDBRANCH  26  27
ENDBRANCH  25  26
ENDBRANCH  24  25
ENDBRANCH   1  24
TORSDOF 21
ENDMDL
MODEL 3
REMARK VINA RESULT:     -10.2      1.015      7.840
REMARK SMILES C[C@@]([NH2+]Cc1ccccc1Br)(C(=O)OCCOCCOC(=O)c1ccc(-c2c3nc(c(-c4cccc(S(=O)(=O)[O-])c4F)c4ccc([nH]4)c(-c4cccc(S(=O)(=O)[O-])c4F)c4nc(c(-c5cccc(S(=O)(=O)[O-])c5F)c5ccc2[nH]5)C=C4)C=C3)cc1)C(F)(F)F
REMARK SMILES IDX 17 1 16 2 15 3 14 4 12 5 13 6 2 7 1 8 3 9 4 12 5 13 6 14
REMARK SMILES IDX 10 15 7 16 9 17 11 18 8 19 86 20 87 21 88 22 89 23 18 24
REMARK SMILES IDX 19 25 20 26 21 27 22 28 23 29 24 30 85 31 25 32 84 33 26 34
REMARK SMILES IDX 27 35 28 36 78 37 29 38 83 39 77 40 79 41 30 42 82 43 76 44
REMARK SMILES IDX 75 45 31 47 63 48 43 49 62 50 44 51 47 52 61 53 80 54 45 55
REMARK SMILES IDX 46 56 60 58 81 59 48 60 32 61 33 62 41 63 34 64 36 65 42 66
REMARK SMILES IDX 35 67 37 68 38 69 39 70 40 71 64 72 65 73 73 74 66 75 68 76
REMARK SMILES IDX 74 77 67 78 69 79 70 80 71 81 72 82 49 83 50 84 58 85 51 86
REMARK SMILES IDX 53 87 59 88 52 89 54 90 55 91 56 92 57 93
REMARK H PARENT 3 10 3 11 79 46 47 57
REMARK Flexibility Score: inf
ROOT
ATOM      1  O   UNL A   1      34.753  20.782  24.341  1.00  0.00    -0.374 OA
ENDROOT
BRANCH   1   2
ATOM      2  C   UNL A   1      33.473  20.214  24.601  1.00  0.00     0.202 C 
BRANCH   2   3
ATOM      3  C   UNL A   1      32.270  20.721  23.798  1.00  0.00     0.261 C 
BRANCH   3   4
ATOM      4  O   UNL A   1      32.350  22.111  23.445  1.00  0.00    -0.458 OA
BRANCH   4   5
ATOM      5  C   UNL A   1      31.971  22.968  24.434  1.00  0.00     0.377 C 
ATOM      6  O   UNL A   1      31.002  22.759  25.155  1.00  0.00    -0.244 OA
BRANCH   5   7
ATOM      7  C   UNL A   1      32.851  24.217  24.527  1.00  0.00     0.287 C 
ATOM      8  C   UNL A   1      34.020  24.175  23.511  1.00  0.00     0.103 C 
BRANCH   7   9
ATOM      9  N   UNL A   1      32.085  25.457  24.138  1.00  0.00    -0.321 N 
ATOM     10  H   UNL A   1      31.479  25.696  24.923  1.00  0.00     0.347 HD
ATOM     11  H   UNL A   1      31.612  25.199  23.271  1.00  0.00     0.347 HD
BRANCH   9  12
ATOM     12  C   UNL A   1      32.843  26.662  23.792  1.00  0.00     0.299 C 
BRANCH  12  13
ATOM     13  C   UNL A   1      32.679  27.818  24.748  1.00  0.00     0.020 A 
ATOM     14  C   UNL A   1      33.482  27.857  25.903  1.00  0.00     0.011 A 
ATOM     15  C   UNL A   1      31.788  28.881  24.532  1.00  0.00     0.026 A 
ATOM     16  C   UNL A   1      33.475  28.961  26.756  1.00  0.00     0.001 A 
ATOM     17  C   UNL A   1      31.766  29.979  25.400  1.00  0.00     0.016 A 
ATOM     18  Br  UNL A   1      30.576  28.909  23.070  1.00  0.00    -0.050 Br
ATOM     19  C   UNL A   1      32.625  30.028  26.496  1.00  0.00     0.001 A 
ENDBRANCH  12  13
ENDBRANCH   9  12
ENDBRANCH   7   9
BRANCH   7  20
ATOM     20  C   UNL A   1      33.516  24.170  25.930  1.00  0.00     0.455 C 
ATOM     21  F   UNL A   1      33.757  22.895  26.328  1.00  0.00    -0.164 F 
ATOM     22  F   UNL A   1      34.730  24.787  25.889  1.00  0.00    -0.164 F 
ATOM     23  F   UNL A   1      32.823  24.755  26.922  1.00  0.00    -0.164 F 
ENDBRANCH   7  20
ENDBRANCH   5   7
ENDBRANCH   4   5
ENDBRANCH   3   4
ENDBRANCH   2   3
ENDBRANCH   1   2
BRANCH   1  24
ATOM     24  C   UNL A   1      35.850  20.385  25.162  1.00  0.00     0.202 C 
BRANCH  24  25
ATOM     25  C   UNL A   1      36.756  21.476  25.741  1.00  0.00     0.261 C 
BRANCH  25  26
ATOM     26  O   UNL A   1      38.056  21.476  25.127  1.00  0.00    -0.460 OA
BRANCH  26  27
ATOM     27  C   UNL A   1      39.078  21.244  25.983  1.00  0.00     0.338 C 
ATOM     28  O   UNL A   1      39.701  20.197  26.119  1.00  0.00    -0.246 OA
BRANCH  27  29
ATOM     29  C   UNL A   1      39.512  22.500  26.617  1.00  0.00     0.060 A 
ATOM     30  C   UNL A   1      38.987  23.692  26.099  1.00  0.00     0.016 A 
ATOM     31  C   UNL A   1      40.474  22.524  27.627  1.00  0.00     0.016 A 
ATOM     32  C   UNL A   1      39.481  24.917  26.532  1.00  0.00     0.010 A 
ATOM     33  C   UNL A   1      40.977  23.756  28.055  1.00  0.00     0.010 A 
ATOM     34  C   UNL A   1      40.519  24.952  27.469  1.00  0.00    -0.014 A 
BRANCH  34  35
ATOM     35  C   UNL A   1      41.252  26.222  27.679  1.00  0.00     0.031 A 
ATOM     36  C   UNL A   1      40.579  27.323  28.453  1.00  0.00     0.074 A 
ATOM     37  C   UNL A   1      42.505  26.379  27.220  1.00  0.00     0.049 A 
ATOM     38  N   UNL A   1      41.028  28.508  28.768  1.00  0.00    -0.248 NA
ATOM     39  C   UNL A   1      39.214  27.048  28.935  1.00  0.00     0.031 C 
ATOM     40  C   UNL A   1      43.262  25.377  26.473  1.00  0.00     0.029 A 
ATOM     41  N   UNL A   1      43.354  27.453  27.305  1.00  0.00    -0.354 N 
ATOM     42  C   UNL A   1      39.996  29.133  29.456  1.00  0.00     0.074 A 
ATOM     43  C   UNL A   1      38.891  28.200  29.503  1.00  0.00     0.031 C 
ATOM     44  C   UNL A   1      44.461  25.893  26.148  1.00  0.00     0.029 A 
ATOM     45  C   UNL A   1      44.543  27.267  26.645  1.00  0.00     0.049 A 
ATOM     46  H   UNL A   1      43.131  28.279  27.794  1.00  0.00     0.167 HD
ATOM     47  C   UNL A   1      39.973  30.365  30.018  1.00  0.00     0.034 A 
ATOM     48  C   UNL A   1      45.573  28.114  26.453  1.00  0.00     0.034 A 
ATOM     49  C   UNL A   1      41.082  31.280  29.988  1.00  0.00     0.049 A 
ATOM     50  C   UNL A   1      45.516  29.489  27.065  1.00  0.00     0.074 A 
ATOM     51  C   UNL A   1      41.179  32.533  30.566  1.00  0.00     0.029 A 
ATOM     52  N   UNL A   1      42.283  31.044  29.336  1.00  0.00    -0.354 N 
ATOM     53  N   UNL A   1      44.580  30.023  27.812  1.00  0.00    -0.248 NA
ATOM     54  C   UNL A   1      46.674  30.366  26.836  1.00  0.00     0.031 C 
ATOM     55  C   UNL A   1      42.431  33.066  30.239  1.00  0.00     0.029 A 
ATOM     56  C   UNL A   1      43.123  32.134  29.484  1.00  0.00     0.049 A 
ATOM     57  H   UNL A   1      42.505  30.222  28.841  1.00  0.00     0.167 HD
ATOM     58  C   UNL A   1      45.050  31.281  28.174  1.00  0.00     0.074 A 
ATOM     59  C   UNL A   1      46.363  31.422  27.576  1.00  0.00     0.031 C 
ATOM     60  C   UNL A   1      44.448  32.237  28.925  1.00  0.00     0.034 A 
BRANCH  47  61
ATOM     61  C   UNL A   1      38.712  30.782  30.725  1.00  0.00     0.023 A 
ATOM     62  C   UNL A   1      38.574  30.548  32.108  1.00  0.00     0.012 A 
ATOM     63  C   UNL A   1      37.674  31.433  30.028  1.00  0.00     0.148 A 
ATOM     64  C   UNL A   1      37.410  30.919  32.780  1.00  0.00     0.002 A 
ATOM     65  C   UNL A   1      36.535  31.839  30.713  1.00  0.00     0.091 A 
ATOM     66  F   UNL A   1      37.810  31.622  28.708  1.00  0.00    -0.205 F 
ATOM     67  C   UNL A   1      36.396  31.573  32.085  1.00  0.00     0.022 A 
BRANCH  65  68
ATOM     68  S   UNL A   1      35.209  32.753  29.916  1.00  0.00     0.127 S 
ATOM     69  O   UNL A   1      34.646  31.740  29.025  1.00  0.00    -0.237 OA
ATOM     70  O   UNL A   1      34.355  33.110  31.050  1.00  0.00    -0.237 OA
ATOM     71  O   UNL A   1      35.845  33.886  29.260  1.00  0.00    -0.744 OA
ENDBRANCH  65  68
ENDBRANCH  47  61
BRANCH  48  72
ATOM     72  C   UNL A   1      46.766  27.664  25.681  1.00  0.00     0.023 A 
ATOM     73  C   UNL A   1      46.797  27.845  24.285  1.00  0.00     0.012 A 
ATOM     74  C   UNL A   1      47.880  27.094  26.327  1.00  0.00     0.148 A 
ATOM     75  C   UNL A   1      47.909  27.444  23.542  1.00  0.00     0.002 A 
ATOM     76  C   UNL A   1      49.006  26.748  25.588  1.00  0.00     0.091 A 
ATOM     77  F   UNL A   1      47.822  26.919  27.654  1.00  0.00    -0.205 F 
ATOM     78  C   UNL A   1      49.016  26.908  24.194  1.00  0.00     0.022 A 
BRANCH  76  79
ATOM     79  S   UNL A   1      50.523  26.169  26.355  1.00  0.00     0.127 S 
ATOM     80  O   UNL A   1      50.096  24.902  26.943  1.00  0.00    -0.237 OA
ATOM     81  O   UNL A   1      51.412  26.045  25.200  1.00  0.00    -0.237 OA
ATOM     82  O   UNL A   1      50.907  27.206  27.302  1.00  0.00    -0.744 OA
ENDBRANCH  76  79
ENDBRANCH  48  72
BRANCH  60  83
ATOM     83  C   UNL A   1      45.209  33.512  29.178  1.00  0.00     0.023 A 
ATOM     84  C   UNL A   1      46.060  33.613  30.296  1.00  0.00     0.012 A 
ATOM     85  C   UNL A   1      45.143  34.581  28.262  1.00  0.00     0.148 A 
ATOM     86  C   UNL A   1      46.809  34.768  30.515  1.00  0.00     0.002 A 
ATOM     87  C   UNL A   1      45.929  35.710  28.460  1.00  0.00     0.091 A 
ATOM     88  F   UNL A   1      44.314  34.475  27.213  1.00  0.00    -0.205 F 
ATOM     89  C   UNL A   1      46.753  35.810  29.593  1.00  0.00     0.022 A 
BRANCH  87  90
ATOM     90  S   UNL A   1      45.993  37.057  27.273  1.00  0.00     0.127 S 
ATOM     91  O   UNL A   1      46.877  38.007  27.947  1.00  0.00    -0.237 OA
ATOM     92  O   UNL A   1      46.577  36.409  26.098  1.00  0.00    -0.237 OA
ATOM     93  O   UNL A   1      44.617  37.499  27.095  1.00  0.00    -0.744 OA
ENDBRANCH  87  90
ENDBRANCH  60  83
ENDBRANCH  34  35
ENDBRANCH  27  29
ENDBRANCH  26  27
ENDBRANCH  25  26
ENDBRANCH  24  25
ENDBRANCH   1  24
TORSDOF 21
ENDMDL
