MODEL 1
REMARK VINA RESULT:     -10.9      0.000      0.000
REMARK SMILES O=C(CCCC[NH+]1CC2(CCOCC2)C1)OCCOCCOC(=O)c1ccc(-c2c3nc(c(-c4cccc(S(=O)(=O)[O-])c4F)c4ccc([nH]4)c(-c4cccc(S(=O)(=O)[O-])c4F)c4nc(c(-c5cccc(S(=O)(=O)[O-])c5F)c5ccc2[nH]5)C=C4)C=C3)cc1
REMARK SMILES IDX 18 1 17 2 16 3 2 4 1 5 3 6 4 7 5 8 6 9 7 10 8 11 15 12 9 14
REMARK SMILES IDX 10 15 14 16 11 17 13 18 12 19 19 20 20 21 21 22 22 23 23 24
REMARK SMILES IDX 24 25 25 26 26 27 87 28 27 29 86 30 28 31 29 32 30 33 80 34
REMARK SMILES IDX 31 35 85 36 79 37 81 38 32 39 84 40 78 41 77 42 33 44 65 45
REMARK SMILES IDX 45 46 64 47 46 48 49 49 63 50 82 51 47 52 48 53 62 55 83 56
REMARK SMILES IDX 50 57 34 58 35 59 43 60 36 61 38 62 44 63 37 64 39 65 40 66
REMARK SMILES IDX 41 67 42 68 66 69 67 70 75 71 68 72 70 73 76 74 69 75 71 76
REMARK SMILES IDX 72 77 73 78 74 79 51 80 52 81 60 82 53 83 55 84 61 85 54 86
REMARK SMILES IDX 56 87 57 88 58 89 59 90
REMARK H PARENT 7 13 81 43 49 54
REMARK Flexibility Score: inf
ROOT
ATOM      1  C   UNL A   1      35.437  23.093  25.322  1.00  0.00     0.202 C 
ENDROOT
BRANCH   1   2
ATOM      2  C   UNL A   1      34.045  23.555  24.926  1.00  0.00     0.261 C 
BRANCH   2   3
ATOM      3  O   UNL A   1      33.315  24.087  26.042  1.00  0.00    -0.463 OA
BRANCH   3   4
ATOM      4  C   UNL A   1      32.793  25.332  26.064  1.00  0.00     0.305 C 
ATOM      5  O   UNL A   1      31.774  25.569  26.710  1.00  0.00    -0.252 OA
BRANCH   4   6
ATOM      6  C   UNL A   1      33.414  26.404  25.201  1.00  0.00     0.123 C 
BRANCH   6   7
ATOM      7  C   UNL A   1      32.942  27.839  25.437  1.00  0.00     0.017 C 
BRANCH   7   8
ATOM      8  C   UNL A   1      32.307  28.619  24.260  1.00  0.00     0.062 C 
BRANCH   8   9
ATOM      9  C   UNL A   1      30.763  28.670  24.132  1.00  0.00     0.262 C 
BRANCH   9  10
ATOM     10  N   UNL A   1      30.203  28.593  22.775  1.00  0.00    -0.334 N 
ATOM     11  C   UNL A   1      30.200  29.863  22.052  1.00  0.00     0.275 C 
ATOM     12  C   UNL A   1      28.713  28.594  22.799  1.00  0.00     0.275 C 
ATOM     13  H   UNL A   1      30.733  27.809  22.395  1.00  0.00     0.348 HD
ATOM     14  C   UNL A   1      28.709  30.102  22.412  1.00  0.00     0.073 C 
ATOM     15  C   UNL A   1      27.921  30.564  21.182  1.00  0.00     0.047 C 
ATOM     16  C   UNL A   1      28.353  31.044  23.568  1.00  0.00     0.047 C 
ATOM     17  C   UNL A   1      28.328  32.012  20.888  1.00  0.00     0.161 C 
ATOM     18  C   UNL A   1      28.742  32.464  23.185  1.00  0.00     0.161 C 
ATOM     19  O   UNL A   1      28.037  32.861  22.005  1.00  0.00    -0.381 OA
ENDBRANCH   9  10
ENDBRANCH   8   9
ENDBRANCH   7   8
ENDBRANCH   6   7
ENDBRANCH   4   6
ENDBRANCH   3   4
ENDBRANCH   2   3
ENDBRANCH   1   2
BRANCH   1  20
ATOM     20  O   UNL A   1      35.450  21.805  25.943  1.00  0.00    -0.374 OA
BRANCH  20  21
ATOM     21  C   UNL A   1      35.578  20.715  25.023  1.00  0.00     0.202 C 
BRANCH  21  22
ATOM     22  C   UNL A   1      37.005  20.154  24.945  1.00  0.00     0.261 C 
BRANCH  22  23
ATOM     23  O   UNL A   1      37.963  21.197  25.179  1.00  0.00    -0.460 OA
BRANCH  23  24
ATOM     24  C   UNL A   1      39.053  20.837  25.908  1.00  0.00     0.338 C 
ATOM     25  O   UNL A   1      39.553  19.734  25.976  1.00  0.00    -0.246 OA
BRANCH  24  26
ATOM     26  C   UNL A   1      39.703  22.072  26.422  1.00  0.00     0.060 A 
ATOM     27  C   UNL A   1      39.163  23.305  26.024  1.00  0.00     0.016 A 
ATOM     28  C   UNL A   1      40.742  22.032  27.357  1.00  0.00     0.016 A 
ATOM     29  C   UNL A   1      39.672  24.496  26.540  1.00  0.00     0.010 A 
ATOM     30  C   UNL A   1      41.258  23.224  27.867  1.00  0.00     0.010 A 
ATOM     31  C   UNL A   1      40.747  24.459  27.434  1.00  0.00    -0.014 A 
BRANCH  31  32
ATOM     32  C   UNL A   1      41.505  25.697  27.727  1.00  0.00     0.031 A 
ATOM     33  C   UNL A   1      40.791  26.777  28.491  1.00  0.00     0.074 A 
ATOM     34  C   UNL A   1      42.768  25.875  27.303  1.00  0.00     0.049 A 
ATOM     35  N   UNL A   1      41.202  27.971  28.821  1.00  0.00    -0.248 NA
ATOM     36  C   UNL A   1      39.419  26.466  28.935  1.00  0.00     0.031 C 
ATOM     37  C   UNL A   1      43.558  24.902  26.551  1.00  0.00     0.029 A 
ATOM     38  N   UNL A   1      43.596  26.963  27.424  1.00  0.00    -0.354 N 
ATOM     39  C   UNL A   1      40.133  28.564  29.482  1.00  0.00     0.074 A 
ATOM     40  C   UNL A   1      39.051  27.607  29.495  1.00  0.00     0.031 C 
ATOM     41  C   UNL A   1      44.749  25.451  26.247  1.00  0.00     0.029 A 
ATOM     42  C   UNL A   1      44.795  26.819  26.765  1.00  0.00     0.049 A 
ATOM     43  H   UNL A   1      43.356  27.770  27.933  1.00  0.00     0.167 HD
ATOM     44  C   UNL A   1      40.063  29.792  30.044  1.00  0.00     0.034 A 
ATOM     45  C   UNL A   1      45.799  27.701  26.587  1.00  0.00     0.034 A 
ATOM     46  C   UNL A   1      41.143  30.736  30.039  1.00  0.00     0.049 A 
ATOM     47  C   UNL A   1      45.689  29.073  27.205  1.00  0.00     0.074 A 
ATOM     48  C   UNL A   1      41.191  31.990  30.619  1.00  0.00     0.029 A 
ATOM     49  N   UNL A   1      42.361  30.535  29.410  1.00  0.00    -0.354 N 
ATOM     50  N   UNL A   1      44.723  29.575  27.939  1.00  0.00    -0.248 NA
ATOM     51  C   UNL A   1      46.819  29.990  26.997  1.00  0.00     0.031 C 
ATOM     52  C   UNL A   1      42.434  32.558  30.319  1.00  0.00     0.029 A 
ATOM     53  C   UNL A   1      43.167  31.646  29.577  1.00  0.00     0.049 A 
ATOM     54  H   UNL A   1      42.615  29.721  28.918  1.00  0.00     0.167 HD
ATOM     55  C   UNL A   1      45.145  30.848  28.309  1.00  0.00     0.074 A 
ATOM     56  C   UNL A   1      46.461  31.034  27.735  1.00  0.00     0.031 C 
ATOM     57  C   UNL A   1      44.499  31.787  29.044  1.00  0.00     0.034 A 
BRANCH  44  58
ATOM     58  C   UNL A   1      38.776  30.166  30.726  1.00  0.00     0.023 A 
ATOM     59  C   UNL A   1      38.551  29.762  32.058  1.00  0.00     0.012 A 
ATOM     60  C   UNL A   1      37.804  30.937  30.061  1.00  0.00     0.148 A 
ATOM     61  C   UNL A   1      37.363  30.092  32.707  1.00  0.00     0.002 A 
ATOM     62  C   UNL A   1      36.641  31.299  30.730  1.00  0.00     0.091 A 
ATOM     63  F   UNL A   1      38.025  31.281  28.785  1.00  0.00    -0.205 F 
ATOM     64  C   UNL A   1      36.413  30.868  32.047  1.00  0.00     0.022 A 
BRANCH  62  65
ATOM     65  S   UNL A   1      35.391  32.355  29.992  1.00  0.00     0.127 S 
ATOM     66  O   UNL A   1      36.176  33.536  29.635  1.00  0.00    -0.237 OA
ATOM     67  O   UNL A   1      34.945  31.553  28.853  1.00  0.00    -0.237 OA
ATOM     68  O   UNL A   1      34.382  32.563  31.021  1.00  0.00    -0.744 OA
ENDBRANCH  62  65
ENDBRANCH  44  58
BRANCH  45  69
ATOM     69  C   UNL A   1      47.016  27.310  25.818  1.00  0.00     0.023 A 
ATOM     70  C   UNL A   1      48.031  26.569  26.454  1.00  0.00     0.012 A 
ATOM     71  C   UNL A   1      47.172  27.664  24.464  1.00  0.00     0.148 A 
ATOM     72  C   UNL A   1      49.192  26.214  25.766  1.00  0.00     0.002 A 
ATOM     73  C   UNL A   1      48.308  27.262  23.769  1.00  0.00     0.091 A 
ATOM     74  F   UNL A   1      46.205  28.387  23.881  1.00  0.00    -0.205 F 
ATOM     75  C   UNL A   1      49.327  26.553  24.423  1.00  0.00     0.022 A 
BRANCH  73  76
ATOM     76  S   UNL A   1      48.512  27.547  22.007  1.00  0.00     0.127 S 
ATOM     77  O   UNL A   1      49.624  28.495  21.984  1.00  0.00    -0.237 OA
ATOM     78  O   UNL A   1      48.835  26.205  21.521  1.00  0.00    -0.237 OA
ATOM     79  O   UNL A   1      47.232  28.063  21.543  1.00  0.00    -0.744 OA
ENDBRANCH  73  76
ENDBRANCH  45  69
BRANCH  57  80
ATOM     80  C   UNL A   1      45.212  33.087  29.310  1.00  0.00     0.023 A 
ATOM     81  C   UNL A   1      46.073  33.200  30.419  1.00  0.00     0.012 A 
ATOM     82  C   UNL A   1      45.099  34.164  28.409  1.00  0.00     0.148 A 
ATOM     83  C   UNL A   1      46.788  34.376  30.643  1.00  0.00     0.002 A 
ATOM     84  C   UNL A   1      45.852  35.315  28.610  1.00  0.00     0.091 A 
ATOM     85  F   UNL A   1      44.261  34.043  27.368  1.00  0.00    -0.205 F 
ATOM     86  C   UNL A   1      46.688  35.427  29.733  1.00  0.00     0.022 A 
BRANCH  84  87
ATOM     87  S   UNL A   1      45.862  36.676  27.438  1.00  0.00     0.127 S 
ATOM     88  O   UNL A   1      46.514  36.067  26.281  1.00  0.00    -0.237 OA
ATOM     89  O   UNL A   1      44.434  36.945  27.263  1.00  0.00    -0.237 OA
ATOM     90  O   UNL A   1      46.603  37.753  28.081  1.00  0.00    -0.744 OA
ENDBRANCH  84  87
ENDBRANCH  57  80
ENDBRANCH  31  32
ENDBRANCH  24  26
ENDBRANCH  23  24
ENDBRANCH  22  23
ENDBRANCH  21  22
ENDBRANCH  20  21
ENDBRANCH   1  20
TORSDOF 21
ENDMDL
MODEL 2
REMARK VINA RESULT:     -10.5      5.372      9.078
REMARK SMILES O=C(CCCC[NH+]1CC2(CCOCC2)C1)OCCOCCOC(=O)c1ccc(-c2c3nc(c(-c4cccc(S(=O)(=O)[O-])c4F)c4ccc([nH]4)c(-c4cccc(S(=O)(=O)[O-])c4F)c4nc(c(-c5cccc(S(=O)(=O)[O-])c5F)c5ccc2[nH]5)C=C4)C=C3)cc1
REMARK SMILES IDX 18 1 17 2 16 3 2 4 1 5 3 6 4 7 5 8 6 9 7 10 8 11 15 12 9 14
REMARK SMILES IDX 10 15 14 16 11 17 13 18 12 19 19 20 20 21 21 22 22 23 23 24
REMARK SMILES IDX 24 25 25 26 26 27 87 28 27 29 86 30 28 31 29 32 30 33 80 34
REMARK SMILES IDX 31 35 85 36 79 37 81 38 32 39 84 40 78 41 77 42 33 44 65 45
REMARK SMILES IDX 45 46 64 47 46 48 49 49 63 50 82 51 47 52 48 53 62 55 83 56
REMARK SMILES IDX 50 57 34 58 35 59 43 60 36 61 38 62 44 63 37 64 39 65 40 66
REMARK SMILES IDX 41 67 42 68 66 69 67 70 75 71 68 72 70 73 76 74 69 75 71 76
REMARK SMILES IDX 72 77 73 78 74 79 51 80 52 81 60 82 53 83 55 84 61 85 54 86
REMARK SMILES IDX 56 87 57 88 58 89 59 90
REMARK H PARENT 7 13 81 43 49 54
REMARK Flexibility Score: inf
ROOT
ATOM      1  C   UNL A   1      32.630  30.559  26.878  1.00  0.00     0.202 C 
ENDROOT
BRANCH   1   2
ATOM      2  C   UNL A   1      33.135  29.460  25.958  1.00  0.00     0.261 C 
BRANCH   2   3
ATOM      3  O   UNL A   1      32.951  28.154  26.524  1.00  0.00    -0.463 OA
BRANCH   3   4
ATOM      4  C   UNL A   1      31.742  27.653  26.858  1.00  0.00     0.305 C 
ATOM      5  O   UNL A   1      31.323  27.756  28.010  1.00  0.00    -0.252 OA
BRANCH   4   6
ATOM      6  C   UNL A   1      30.961  26.873  25.830  1.00  0.00     0.123 C 
BRANCH   6   7
ATOM      7  C   UNL A   1      30.688  25.401  26.140  1.00  0.00     0.017 C 
BRANCH   7   8
ATOM      8  C   UNL A   1      31.491  24.317  25.379  1.00  0.00     0.062 C 
BRANCH   8   9
ATOM      9  C   UNL A   1      30.933  22.872  25.311  1.00  0.00     0.262 C 
BRANCH   9  10
ATOM     10  N   UNL A   1      31.750  21.812  25.921  1.00  0.00    -0.334 N 
ATOM     11  C   UNL A   1      33.140  22.189  26.165  1.00  0.00     0.275 C 
ATOM     12  C   UNL A   1      32.190  20.812  24.907  1.00  0.00     0.275 C 
ATOM     13  H   UNL A   1      31.161  21.550  26.711  1.00  0.00     0.348 HD
ATOM     14  C   UNL A   1      33.596  21.481  24.862  1.00  0.00     0.073 C 
ATOM     15  C   UNL A   1      34.846  20.630  25.114  1.00  0.00     0.047 C 
ATOM     16  C   UNL A   1      33.853  22.313  23.600  1.00  0.00     0.047 C 
ATOM     17  C   UNL A   1      36.030  21.587  25.289  1.00  0.00     0.161 C 
ATOM     18  C   UNL A   1      35.067  23.200  23.833  1.00  0.00     0.161 C 
ATOM     19  O   UNL A   1      36.213  22.394  24.119  1.00  0.00    -0.381 OA
ENDBRANCH   9  10
ENDBRANCH   8   9
ENDBRANCH   7   8
ENDBRANCH   6   7
ENDBRANCH   4   6
ENDBRANCH   3   4
ENDBRANCH   2   3
ENDBRANCH   1   2
BRANCH   1  20
ATOM     20  O   UNL A   1      31.382  31.118  26.458  1.00  0.00    -0.374 OA
BRANCH  20  21
ATOM     21  C   UNL A   1      31.322  32.545  26.546  1.00  0.00     0.202 C 
BRANCH  21  22
ATOM     22  C   UNL A   1      32.638  33.179  27.018  1.00  0.00     0.261 C 
BRANCH  22  23
ATOM     23  O   UNL A   1      32.432  33.892  28.247  1.00  0.00    -0.460 OA
BRANCH  23  24
ATOM     24  C   UNL A   1      33.453  34.707  28.628  1.00  0.00     0.338 C 
ATOM     25  O   UNL A   1      33.399  35.904  28.814  1.00  0.00    -0.246 OA
BRANCH  24  26
ATOM     26  C   UNL A   1      34.605  33.857  29.032  1.00  0.00     0.060 A 
ATOM     27  C   UNL A   1      34.323  32.612  29.616  1.00  0.00     0.016 A 
ATOM     28  C   UNL A   1      35.928  34.214  28.748  1.00  0.00     0.016 A 
ATOM     29  C   UNL A   1      35.357  31.734  29.936  1.00  0.00     0.010 A 
ATOM     30  C   UNL A   1      36.964  33.339  29.076  1.00  0.00     0.010 A 
ATOM     31  C   UNL A   1      36.684  32.112  29.702  1.00  0.00    -0.014 A 
BRANCH  31  32
ATOM     32  C   UNL A   1      37.788  31.353  30.330  1.00  0.00     0.031 A 
ATOM     33  C   UNL A   1      38.116  31.670  31.762  1.00  0.00     0.074 A 
ATOM     34  C   UNL A   1      38.500  30.438  29.649  1.00  0.00     0.049 A 
ATOM     35  N   UNL A   1      39.067  31.198  32.521  1.00  0.00    -0.248 NA
ATOM     36  C   UNL A   1      37.253  32.667  32.424  1.00  0.00     0.031 C 
ATOM     37  C   UNL A   1      38.279  30.052  28.257  1.00  0.00     0.029 A 
ATOM     38  N   UNL A   1      39.583  29.690  30.039  1.00  0.00    -0.354 N 
ATOM     39  C   UNL A   1      38.938  31.860  33.736  1.00  0.00     0.074 A 
ATOM     40  C   UNL A   1      37.827  32.776  33.611  1.00  0.00     0.031 C 
ATOM     41  C   UNL A   1      39.220  29.159  27.898  1.00  0.00     0.029 A 
ATOM     42  C   UNL A   1      40.121  28.930  29.028  1.00  0.00     0.049 A 
ATOM     43  H   UNL A   1      39.941  29.697  30.956  1.00  0.00     0.167 HD
ATOM     44  C   UNL A   1      39.668  31.708  34.863  1.00  0.00     0.034 A 
ATOM     45  C   UNL A   1      41.226  28.157  29.017  1.00  0.00     0.034 A 
ATOM     46  C   UNL A   1      40.764  30.790  34.988  1.00  0.00     0.049 A 
ATOM     47  C   UNL A   1      42.039  28.020  30.281  1.00  0.00     0.074 A 
ATOM     48  C   UNL A   1      41.541  30.526  36.100  1.00  0.00     0.029 A 
ATOM     49  N   UNL A   1      41.246  29.996  33.960  1.00  0.00    -0.354 N 
ATOM     50  N   UNL A   1      41.828  28.553  31.462  1.00  0.00    -0.248 NA
ATOM     51  C   UNL A   1      43.223  27.150  30.221  1.00  0.00     0.031 C 
ATOM     52  C   UNL A   1      42.512  29.586  35.736  1.00  0.00     0.029 A 
ATOM     53  C   UNL A   1      42.320  29.248  34.406  1.00  0.00     0.049 A 
ATOM     54  H   UNL A   1      40.878  29.969  33.047  1.00  0.00     0.167 HD
ATOM     55  C   UNL A   1      42.829  28.056  32.291  1.00  0.00     0.074 A 
ATOM     56  C   UNL A   1      43.635  27.164  31.482  1.00  0.00     0.031 C 
ATOM     57  C   UNL A   1      43.072  28.322  33.598  1.00  0.00     0.034 A 
BRANCH  44  58
ATOM     58  C   UNL A   1      39.285  32.545  36.053  1.00  0.00     0.023 A 
ATOM     59  C   UNL A   1      39.815  33.844  36.192  1.00  0.00     0.012 A 
ATOM     60  C   UNL A   1      38.384  32.057  37.018  1.00  0.00     0.148 A 
ATOM     61  C   UNL A   1      39.479  34.633  37.289  1.00  0.00     0.002 A 
ATOM     62  C   UNL A   1      38.019  32.866  38.086  1.00  0.00     0.091 A 
ATOM     63  F   UNL A   1      37.918  30.807  36.884  1.00  0.00    -0.205 F 
ATOM     64  C   UNL A   1      38.574  34.149  38.231  1.00  0.00     0.022 A 
BRANCH  62  65
ATOM     65  S   UNL A   1      36.808  32.362  39.312  1.00  0.00     0.127 S 
ATOM     66  O   UNL A   1      37.177  30.964  39.533  1.00  0.00    -0.237 OA
ATOM     67  O   UNL A   1      37.110  33.256  40.429  1.00  0.00    -0.237 OA
ATOM     68  O   UNL A   1      35.504  32.574  38.699  1.00  0.00    -0.744 OA
ENDBRANCH  62  65
ENDBRANCH  44  58
BRANCH  45  69
ATOM     69  C   UNL A   1      41.617  27.422  27.779  1.00  0.00     0.023 A 
ATOM     70  C   UNL A   1      42.112  28.139  26.672  1.00  0.00     0.012 A 
ATOM     71  C   UNL A   1      41.504  26.021  27.692  1.00  0.00     0.148 A 
ATOM     72  C   UNL A   1      42.457  27.481  25.492  1.00  0.00     0.002 A 
ATOM     73  C   UNL A   1      41.899  25.365  26.531  1.00  0.00     0.091 A 
ATOM     74  F   UNL A   1      41.012  25.356  28.747  1.00  0.00    -0.205 F 
ATOM     75  C   UNL A   1      42.359  26.094  25.424  1.00  0.00     0.022 A 
BRANCH  73  76
ATOM     76  S   UNL A   1      41.924  23.574  26.396  1.00  0.00     0.127 S 
ATOM     77  O   UNL A   1      42.709  23.196  27.569  1.00  0.00    -0.237 OA
ATOM     78  O   UNL A   1      40.500  23.246  26.475  1.00  0.00    -0.237 OA
ATOM     79  O   UNL A   1      42.537  23.286  25.107  1.00  0.00    -0.744 OA
ENDBRANCH  73  76
ENDBRANCH  45  69
BRANCH  57  80
ATOM     80  C   UNL A   1      44.229  27.617  34.258  1.00  0.00     0.023 A 
ATOM     81  C   UNL A   1      45.492  28.239  34.307  1.00  0.00     0.012 A 
ATOM     82  C   UNL A   1      44.039  26.382  34.908  1.00  0.00     0.148 A 
ATOM     83  C   UNL A   1      46.557  27.627  34.968  1.00  0.00     0.002 A 
ATOM     84  C   UNL A   1      45.091  25.802  35.608  1.00  0.00     0.091 A 
ATOM     85  F   UNL A   1      42.833  25.799  34.836  1.00  0.00    -0.205 F 
ATOM     86  C   UNL A   1      46.353  26.417  35.629  1.00  0.00     0.022 A 
BRANCH  84  87
ATOM     87  S   UNL A   1      44.892  24.298  36.569  1.00  0.00     0.127 S 
ATOM     88  O   UNL A   1      46.281  23.888  36.772  1.00  0.00    -0.237 OA
ATOM     89  O   UNL A   1      44.218  24.785  37.773  1.00  0.00    -0.237 OA
ATOM     90  O   UNL A   1      44.088  23.402  35.750  1.00  0.00    -0.744 OA
ENDBRANCH  84  87
ENDBRANCH  57  80
ENDBRANCH  31  32
ENDBRANCH  24  26
ENDBRANCH  23  24
ENDBRANCH  22  23
ENDBRANCH  21  22
ENDBRANCH  20  21
ENDBRANCH   1  20
TORSDOF 21
ENDMDL
MODEL 3
REMARK VINA RESULT:     -10.4      2.321      8.071
REMARK SMILES O=C(CCCC[NH+]1CC2(CCOCC2)C1)OCCOCCOC(=O)c1ccc(-c2c3nc(c(-c4cccc(S(=O)(=O)[O-])c4F)c4ccc([nH]4)c(-c4cccc(S(=O)(=O)[O-])c4F)c4nc(c(-c5cccc(S(=O)(=O)[O-])c5F)c5ccc2[nH]5)C=C4)C=C3)cc1
REMARK SMILES IDX 18 1 17 2 16 3 2 4 1 5 3 6 4 7 5 8 6 9 7 10 8 11 15 12 9 14
REMARK SMILES IDX 10 15 14 16 11 17 13 18 12 19 19 20 20 21 21 22 22 23 23 24
REMARK SMILES IDX 24 25 25 26 26 27 87 28 27 29 86 30 28 31 29 32 30 33 80 34
REMARK SMILES IDX 31 35 85 36 79 37 81 38 32 39 84 40 78 41 77 42 33 44 65 45
REMARK SMILES IDX 45 46 64 47 46 48 49 49 63 50 82 51 47 52 48 53 62 55 83 56
REMARK SMILES IDX 50 57 34 58 35 59 43 60 36 61 38 62 44 63 37 64 39 65 40 66
REMARK SMILES IDX 41 67 42 68 66 69 67 70 75 71 68 72 70 73 76 74 69 75 71 76
REMARK SMILES IDX 72 77 73 78 74 79 51 80 52 81 60 82 53 83 55 84 61 85 54 86
REMARK SMILES IDX 56 87 57 88 58 89 59 90
REMARK H PARENT 7 13 81 43 49 54
REMARK Flexibility Score: inf
ROOT
ATOM      1  C   UNL A   1      36.051  22.430  24.979  1.00  0.00     0.202 C 
ENDROOT
BRANCH   1   2
ATOM      2  C   UNL A   1      34.734  22.252  24.242  1.00  0.00     0.261 C 
BRANCH   2   3
ATOM      3  O   UNL A   1      33.813  21.429  24.974  1.00  0.00    -0.463 OA
BRANCH   3   4
ATOM      4  C   UNL A   1      33.024  21.897  25.965  1.00  0.00     0.305 C 
ATOM      5  O   UNL A   1      33.442  21.951  27.120  1.00  0.00    -0.252 OA
BRANCH   4   6
ATOM      6  C   UNL A   1      31.589  22.251  25.656  1.00  0.00     0.123 C 
BRANCH   6   7
ATOM      7  C   UNL A   1      31.355  23.298  24.568  1.00  0.00     0.017 C 
BRANCH   7   8
ATOM      8  C   UNL A   1      30.710  24.650  24.959  1.00  0.00     0.062 C 
BRANCH   8   9
ATOM      9  C   UNL A   1      31.294  25.449  26.153  1.00  0.00     0.262 C 
BRANCH   9  10
ATOM     10  N   UNL A   1      31.394  26.908  25.994  1.00  0.00    -0.334 N 
ATOM     11  C   UNL A   1      31.409  27.362  24.606  1.00  0.00     0.275 C 
ATOM     12  C   UNL A   1      32.796  27.380  26.173  1.00  0.00     0.275 C 
ATOM     13  H   UNL A   1      30.641  27.217  26.608  1.00  0.00     0.348 HD
ATOM     14  C   UNL A   1      32.956  27.483  24.627  1.00  0.00     0.073 C 
ATOM     15  C   UNL A   1      33.407  28.807  24.001  1.00  0.00     0.047 C 
ATOM     16  C   UNL A   1      33.810  26.369  24.011  1.00  0.00     0.047 C 
ATOM     17  C   UNL A   1      33.200  28.697  22.486  1.00  0.00     0.161 C 
ATOM     18  C   UNL A   1      33.587  26.352  22.506  1.00  0.00     0.161 C 
ATOM     19  O   UNL A   1      33.963  27.613  21.944  1.00  0.00    -0.381 OA
ENDBRANCH   9  10
ENDBRANCH   8   9
ENDBRANCH   7   8
ENDBRANCH   6   7
ENDBRANCH   4   6
ENDBRANCH   3   4
ENDBRANCH   2   3
ENDBRANCH   1   2
BRANCH   1  20
ATOM     20  O   UNL A   1      36.431  21.280  25.741  1.00  0.00    -0.374 OA
BRANCH  20  21
ATOM     21  C   UNL A   1      36.812  20.152  24.946  1.00  0.00     0.202 C 
BRANCH  21  22
ATOM     22  C   UNL A   1      38.263  19.708  25.180  1.00  0.00     0.261 C 
BRANCH  22  23
ATOM     23  O   UNL A   1      39.100  20.850  25.416  1.00  0.00    -0.460 OA
BRANCH  23  24
ATOM     24  C   UNL A   1      39.929  20.755  26.489  1.00  0.00     0.338 C 
ATOM     25  O   UNL A   1      40.454  19.749  26.918  1.00  0.00    -0.246 OA
BRANCH  24  26
ATOM     26  C   UNL A   1      40.303  22.130  26.917  1.00  0.00     0.060 A 
ATOM     27  C   UNL A   1      39.619  23.204  26.326  1.00  0.00     0.016 A 
ATOM     28  C   UNL A   1      41.218  22.365  27.949  1.00  0.00     0.016 A 
ATOM     29  C   UNL A   1      39.862  24.510  26.747  1.00  0.00     0.010 A 
ATOM     30  C   UNL A   1      41.467  23.673  28.365  1.00  0.00     0.010 A 
ATOM     31  C   UNL A   1      40.816  24.751  27.742  1.00  0.00    -0.014 A 
BRANCH  31  32
ATOM     32  C   UNL A   1      41.321  26.125  27.961  1.00  0.00     0.031 A 
ATOM     33  C   UNL A   1      42.715  26.430  27.489  1.00  0.00     0.074 A 
ATOM     34  C   UNL A   1      40.586  27.062  28.586  1.00  0.00     0.049 A 
ATOM     35  N   UNL A   1      43.413  27.526  27.613  1.00  0.00    -0.248 NA
ATOM     36  C   UNL A   1      43.421  25.341  26.789  1.00  0.00     0.031 C 
ATOM     37  C   UNL A   1      39.227  26.880  29.091  1.00  0.00     0.029 A 
ATOM     38  N   UNL A   1      40.905  28.352  28.928  1.00  0.00    -0.354 N 
ATOM     39  C   UNL A   1      44.647  27.250  27.037  1.00  0.00     0.074 A 
ATOM     40  C   UNL A   1      44.610  25.881  26.575  1.00  0.00     0.031 C 
ATOM     41  C   UNL A   1      38.839  28.011  29.710  1.00  0.00     0.029 A 
ATOM     42  C   UNL A   1      39.930  28.984  29.663  1.00  0.00     0.049 A 
ATOM     43  H   UNL A   1      41.752  28.785  28.674  1.00  0.00     0.167 HD
ATOM     44  C   UNL A   1      45.712  28.069  26.889  1.00  0.00     0.034 A 
ATOM     45  C   UNL A   1      39.932  30.201  30.245  1.00  0.00     0.034 A 
ATOM     46  C   UNL A   1      45.742  29.432  27.337  1.00  0.00     0.049 A 
ATOM     47  C   UNL A   1      41.142  31.088  30.085  1.00  0.00     0.074 A 
ATOM     48  C   UNL A   1      46.756  30.361  27.196  1.00  0.00     0.029 A 
ATOM     49  N   UNL A   1      44.716  30.055  28.029  1.00  0.00    -0.354 N 
ATOM     50  N   UNL A   1      42.253  30.861  29.424  1.00  0.00    -0.248 NA
ATOM     51  C   UNL A   1      41.086  32.412  30.723  1.00  0.00     0.031 C 
ATOM     52  C   UNL A   1      46.350  31.542  27.826  1.00  0.00     0.029 A 
ATOM     53  C   UNL A   1      45.074  31.356  28.333  1.00  0.00     0.049 A 
ATOM     54  H   UNL A   1      43.858  29.634  28.267  1.00  0.00     0.167 HD
ATOM     55  C   UNL A   1      43.010  32.023  29.537  1.00  0.00     0.074 A 
ATOM     56  C   UNL A   1      42.223  32.959  30.313  1.00  0.00     0.031 C 
ATOM     57  C   UNL A   1      44.250  32.290  29.057  1.00  0.00     0.034 A 
BRANCH  44  58
ATOM     58  C   UNL A   1      46.922  27.509  26.193  1.00  0.00     0.023 A 
ATOM     59  C   UNL A   1      47.072  27.688  24.802  1.00  0.00     0.012 A 
ATOM     60  C   UNL A   1      47.921  26.829  26.916  1.00  0.00     0.148 A 
ATOM     61  C   UNL A   1      48.181  27.171  24.137  1.00  0.00     0.002 A 
ATOM     62  C   UNL A   1      49.045  26.355  26.252  1.00  0.00     0.091 A 
ATOM     63  F   UNL A   1      47.742  26.642  28.231  1.00  0.00    -0.205 F 
ATOM     64  C   UNL A   1      49.172  26.514  24.862  1.00  0.00     0.022 A 
BRANCH  62  65
ATOM     65  S   UNL A   1      50.408  25.559  27.107  1.00  0.00     0.127 S 
ATOM     66  O   UNL A   1      49.758  24.371  27.657  1.00  0.00    -0.237 OA
ATOM     67  O   UNL A   1      51.343  25.293  26.014  1.00  0.00    -0.237 OA
ATOM     68  O   UNL A   1      50.883  26.523  28.091  1.00  0.00    -0.744 OA
ENDBRANCH  62  65
ENDBRANCH  44  58
BRANCH  45  69
ATOM     69  C   UNL A   1      38.740  30.672  31.007  1.00  0.00     0.023 A 
ATOM     70  C   UNL A   1      38.677  30.462  32.398  1.00  0.00     0.012 A 
ATOM     71  C   UNL A   1      37.671  31.326  30.364  1.00  0.00     0.148 A 
ATOM     72  C   UNL A   1      37.560  30.866  33.131  1.00  0.00     0.002 A 
ATOM     73  C   UNL A   1      36.584  31.774  31.108  1.00  0.00     0.091 A 
ATOM     74  F   UNL A   1      37.738  31.500  29.036  1.00  0.00    -0.205 F 
ATOM     75  C   UNL A   1      36.518  31.529  32.488  1.00  0.00     0.022 A 
BRANCH  73  76
ATOM     76  S   UNL A   1      35.255  32.744  30.387  1.00  0.00     0.127 S 
ATOM     77  O   UNL A   1      35.949  33.977  30.021  1.00  0.00    -0.237 OA
ATOM     78  O   UNL A   1      34.849  31.906  29.258  1.00  0.00    -0.237 OA
ATOM     79  O   UNL A   1      34.251  32.872  31.433  1.00  0.00    -0.744 OA
ENDBRANCH  73  76
ENDBRANCH  45  69
BRANCH  57  80
ATOM     80  C   UNL A   1      44.827  33.658  29.316  1.00  0.00     0.023 A 
ATOM     81  C   UNL A   1      45.558  33.898  30.495  1.00  0.00     0.012 A 
ATOM     82  C   UNL A   1      44.722  34.675  28.346  1.00  0.00     0.148 A 
ATOM     83  C   UNL A   1      46.151  35.140  30.720  1.00  0.00     0.002 A 
ATOM     84  C   UNL A   1      45.358  35.893  28.554  1.00  0.00     0.091 A 
ATOM     85  F   UNL A   1      44.008  34.431  27.237  1.00  0.00    -0.205 F 
ATOM     86  C   UNL A   1      46.062  36.132  29.745  1.00  0.00     0.022 A 
BRANCH  84  87
ATOM     87  S   UNL A   1      45.380  37.190  27.311  1.00  0.00     0.127 S 
ATOM     88  O   UNL A   1      46.038  38.280  28.029  1.00  0.00    -0.237 OA
ATOM     89  O   UNL A   1      46.184  36.587  26.247  1.00  0.00    -0.237 OA
ATOM     90  O   UNL A   1      43.988  37.426  26.953  1.00  0.00    -0.744 OA
ENDBRANCH  84  87
ENDBRANCH  57  80
ENDBRANCH  31  32
ENDBRANCH  24  26
ENDBRANCH  23  24
ENDBRANCH  22  23
ENDBRANCH  21  22
ENDBRANCH  20  21
ENDBRANCH   1  20
TORSDOF 21
ENDMDL
