MODEL 1
REMARK VINA RESULT:     -11.3      0.000      0.000
REMARK SMILES CC(C)(C)c1ccc(CSc2ccnc(C(=O)OCCOCCOC(=O)c3ccc(-c4c5nc(c(-c6cccc(S(=O)(=O)[O-])c6F)c6ccc([nH]6)c(-c6cccc(S(=O)(=O)[O-])c6F)c6nc(c(-c7cccc(S(=O)(=O)[O-])c7F)c7ccc4[nH]7)C=C6)C=C5)cc3)c2)cc1
REMARK SMILES IDX 20 1 19 2 18 3 16 4 17 5 15 6 11 7 12 8 90 9 13 10 14 11
REMARK SMILES IDX 10 12 9 13 8 14 5 15 6 16 92 17 7 18 91 19 2 20 1 21 3 22
REMARK SMILES IDX 4 23 21 24 22 25 23 26 24 27 25 28 26 29 27 30 28 31 89 32
REMARK SMILES IDX 29 33 88 34 30 35 31 36 32 37 82 38 33 39 87 40 81 41 83 42
REMARK SMILES IDX 34 43 86 44 80 45 79 46 35 48 67 49 47 50 66 51 48 52 51 53
REMARK SMILES IDX 65 54 84 55 49 56 50 57 64 59 85 60 52 61 36 62 37 63 45 64
REMARK SMILES IDX 38 65 40 66 46 67 39 68 41 69 42 70 43 71 44 72 68 73 69 74
REMARK SMILES IDX 77 75 70 76 72 77 78 78 71 79 73 80 74 81 75 82 76 83 53 84
REMARK SMILES IDX 54 85 62 86 55 87 57 88 63 89 56 90 58 91 59 92 60 93 61 94
REMARK H PARENT 83 47 51 58
REMARK Flexibility Score: inf
ROOT
ATOM      1  C   UNL A   1      29.756  32.933  23.899  1.00  0.00     0.202 C 
ENDROOT
BRANCH   1   2
ATOM      2  C   UNL A   1      28.647  33.129  22.860  1.00  0.00     0.261 C 
BRANCH   2   3
ATOM      3  O   UNL A   1      29.027  32.569  21.591  1.00  0.00    -0.459 OA
BRANCH   3   4
ATOM      4  C   UNL A   1      28.227  31.574  21.125  1.00  0.00     0.357 C 
ATOM      5  O   UNL A   1      27.472  31.643  20.165  1.00  0.00    -0.244 OA
BRANCH   4   6
ATOM      6  C   UNL A   1      28.525  30.309  21.863  1.00  0.00     0.149 A 
ATOM      7  C   UNL A   1      29.985  28.590  22.628  1.00  0.00     0.011 A 
ATOM      8  C   UNL A   1      28.891  27.963  23.220  1.00  0.00     0.035 A 
ATOM      9  C   UNL A   1      29.804  29.773  21.912  1.00  0.00     0.051 A 
ATOM     10  C   UNL A   1      27.652  28.561  23.101  1.00  0.00     0.113 A 
ATOM     11  N   UNL A   1      27.444  29.718  22.447  1.00  0.00    -0.249 NA
BRANCH   7  12
ATOM     12  S   UNL A   1      31.613  27.889  22.814  1.00  0.00    -0.121 SA
BRANCH  12  13
ATOM     13  C   UNL A   1      31.595  27.543  24.613  1.00  0.00     0.110 C 
BRANCH  13  14
ATOM     14  C   UNL A   1      32.466  26.376  25.005  1.00  0.00    -0.038 A 
ATOM     15  C   UNL A   1      34.055  24.104  25.658  1.00  0.00    -0.043 A 
ATOM     16  C   UNL A   1      32.792  24.305  26.238  1.00  0.00     0.004 A 
ATOM     17  C   UNL A   1      34.504  25.077  24.747  1.00  0.00     0.004 A 
ATOM     18  C   UNL A   1      32.014  25.425  25.924  1.00  0.00     0.005 A 
ATOM     19  C   UNL A   1      33.728  26.197  24.430  1.00  0.00     0.005 A 
BRANCH  15  20
ATOM     20  C   UNL A   1      34.891  22.844  25.944  1.00  0.00    -0.013 C 
ATOM     21  C   UNL A   1      34.491  22.122  27.251  1.00  0.00     0.016 C 
ATOM     22  C   UNL A   1      36.394  23.181  26.070  1.00  0.00     0.016 C 
ATOM     23  C   UNL A   1      34.694  21.859  24.774  1.00  0.00     0.016 C 
ENDBRANCH  15  20
ENDBRANCH  13  14
ENDBRANCH  12  13
ENDBRANCH   7  12
ENDBRANCH   4   6
ENDBRANCH   3   4
ENDBRANCH   2   3
ENDBRANCH   1   2
BRANCH   1  24
ATOM     24  O   UNL A   1      29.624  31.788  24.743  1.00  0.00    -0.374 OA
BRANCH  24  25
ATOM     25  C   UNL A   1      30.813  31.324  25.387  1.00  0.00     0.202 C 
BRANCH  25  26
ATOM     26  C   UNL A   1      31.383  32.238  26.479  1.00  0.00     0.261 C 
BRANCH  26  27
ATOM     27  O   UNL A   1      32.651  31.768  26.969  1.00  0.00    -0.460 OA
BRANCH  27  28
ATOM     28  C   UNL A   1      33.416  32.709  27.571  1.00  0.00     0.338 C 
ATOM     29  O   UNL A   1      33.083  33.850  27.870  1.00  0.00    -0.246 OA
BRANCH  28  30
ATOM     30  C   UNL A   1      34.700  32.122  27.999  1.00  0.00     0.060 A 
ATOM     31  C   UNL A   1      34.715  30.755  28.306  1.00  0.00     0.016 A 
ATOM     32  C   UNL A   1      35.852  32.897  28.155  1.00  0.00     0.016 A 
ATOM     33  C   UNL A   1      35.871  30.167  28.814  1.00  0.00     0.010 A 
ATOM     34  C   UNL A   1      37.009  32.304  28.672  1.00  0.00     0.010 A 
ATOM     35  C   UNL A   1      37.016  30.945  29.035  1.00  0.00    -0.014 A 
BRANCH  35  36
ATOM     36  C   UNL A   1      38.177  30.360  29.749  1.00  0.00     0.031 A 
ATOM     37  C   UNL A   1      38.473  30.795  31.159  1.00  0.00     0.074 A 
ATOM     38  C   UNL A   1      38.962  29.449  29.146  1.00  0.00     0.049 A 
ATOM     39  N   UNL A   1      39.438  30.418  31.955  1.00  0.00    -0.248 NA
ATOM     40  C   UNL A   1      37.561  31.790  31.747  1.00  0.00     0.031 C 
ATOM     41  C   UNL A   1      38.783  28.951  27.783  1.00  0.00     0.029 A 
ATOM     42  N   UNL A   1      40.083  28.798  29.599  1.00  0.00    -0.354 N 
ATOM     43  C   UNL A   1      39.269  31.145  33.127  1.00  0.00     0.074 A 
ATOM     44  C   UNL A   1      38.115  31.996  32.933  1.00  0.00     0.031 C 
ATOM     45  C   UNL A   1      39.776  28.092  27.498  1.00  0.00     0.029 A 
ATOM     46  C   UNL A   1      40.671  27.995  28.651  1.00  0.00     0.049 A 
ATOM     47  H   UNL A   1      40.432  28.898  30.513  1.00  0.00     0.167 HD
ATOM     48  C   UNL A   1      39.996  31.094  34.269  1.00  0.00     0.034 A 
ATOM     49  C   UNL A   1      41.813  27.278  28.700  1.00  0.00     0.034 A 
ATOM     50  C   UNL A   1      41.130  30.232  34.469  1.00  0.00     0.049 A 
ATOM     51  C   UNL A   1      42.612  27.252  29.976  1.00  0.00     0.074 A 
ATOM     52  C   UNL A   1      41.896  30.070  35.610  1.00  0.00     0.029 A 
ATOM     53  N   UNL A   1      41.670  29.398  33.503  1.00  0.00    -0.354 N 
ATOM     54  N   UNL A   1      42.363  27.842  31.121  1.00  0.00    -0.248 NA
ATOM     55  C   UNL A   1      43.833  26.431  29.981  1.00  0.00     0.031 C 
ATOM     56  C   UNL A   1      42.915  29.156  35.325  1.00  0.00     0.029 A 
ATOM     57  C   UNL A   1      42.768  28.728  34.015  1.00  0.00     0.049 A 
ATOM     58  H   UNL A   1      41.323  29.296  32.588  1.00  0.00     0.167 HD
ATOM     59  C   UNL A   1      43.371  27.438  31.988  1.00  0.00     0.074 A 
ATOM     60  C   UNL A   1      44.227  26.536  31.243  1.00  0.00     0.031 C 
ATOM     61  C   UNL A   1      43.580  27.792  33.281  1.00  0.00     0.034 A 
BRANCH  48  62
ATOM     62  C   UNL A   1      39.568  31.981  35.409  1.00  0.00     0.023 A 
ATOM     63  C   UNL A   1      39.931  33.343  35.405  1.00  0.00     0.012 A 
ATOM     64  C   UNL A   1      38.762  31.484  36.451  1.00  0.00     0.148 A 
ATOM     65  C   UNL A   1      39.523  34.189  36.435  1.00  0.00     0.002 A 
ATOM     66  C   UNL A   1      38.325  32.342  37.453  1.00  0.00     0.091 A 
ATOM     67  F   UNL A   1      38.447  30.180  36.450  1.00  0.00    -0.205 F 
ATOM     68  C   UNL A   1      38.713  33.692  37.453  1.00  0.00     0.022 A 
BRANCH  66  69
ATOM     69  S   UNL A   1      37.216  31.813  38.764  1.00  0.00     0.127 S 
ATOM     70  O   UNL A   1      38.067  31.956  39.945  1.00  0.00    -0.237 OA
ATOM     71  O   UNL A   1      36.135  32.796  38.669  1.00  0.00    -0.237 OA
ATOM     72  O   UNL A   1      36.827  30.450  38.433  1.00  0.00    -0.744 OA
ENDBRANCH  66  69
ENDBRANCH  48  62
BRANCH  49  73
ATOM     73  C   UNL A   1      42.245  26.490  27.511  1.00  0.00     0.023 A 
ATOM     74  C   UNL A   1      43.013  27.110  26.508  1.00  0.00     0.012 A 
ATOM     75  C   UNL A   1      41.918  25.126  27.382  1.00  0.00     0.148 A 
ATOM     76  C   UNL A   1      43.426  26.394  25.384  1.00  0.00     0.002 A 
ATOM     77  C   UNL A   1      42.380  24.404  26.288  1.00  0.00     0.091 A 
ATOM     78  F   UNL A   1      41.169  24.559  28.338  1.00  0.00    -0.205 F 
ATOM     79  C   UNL A   1      43.120  25.039  25.279  1.00  0.00     0.022 A 
BRANCH  77  80
ATOM     80  S   UNL A   1      42.148  22.628  26.140  1.00  0.00     0.127 S 
ATOM     81  O   UNL A   1      42.806  22.345  24.867  1.00  0.00    -0.237 OA
ATOM     82  O   UNL A   1      42.850  22.132  27.323  1.00  0.00    -0.237 OA
ATOM     83  O   UNL A   1      40.706  22.417  26.168  1.00  0.00    -0.744 OA
ENDBRANCH  77  80
ENDBRANCH  49  73
BRANCH  61  84
ATOM     84  C   UNL A   1      44.759  27.182  33.995  1.00  0.00     0.023 A 
ATOM     85  C   UNL A   1      46.012  27.827  33.957  1.00  0.00     0.012 A 
ATOM     86  C   UNL A   1      44.607  26.014  34.769  1.00  0.00     0.148 A 
ATOM     87  C   UNL A   1      47.102  27.301  34.650  1.00  0.00     0.002 A 
ATOM     88  C   UNL A   1      45.686  25.523  35.496  1.00  0.00     0.091 A 
ATOM     89  F   UNL A   1      43.413  25.404  34.780  1.00  0.00    -0.205 F 
ATOM     90  C   UNL A   1      46.936  26.158  35.428  1.00  0.00     0.022 A 
BRANCH  88  91
ATOM     91  S   UNL A   1      45.540  24.112  36.600  1.00  0.00     0.127 S 
ATOM     92  O   UNL A   1      46.909  23.979  37.095  1.00  0.00    -0.237 OA
ATOM     93  O   UNL A   1      44.576  24.590  37.591  1.00  0.00    -0.237 OA
ATOM     94  O   UNL A   1      45.062  23.009  35.777  1.00  0.00    -0.744 OA
ENDBRANCH  88  91
ENDBRANCH  61  84
ENDBRANCH  35  36
ENDBRANCH  28  30
ENDBRANCH  27  28
ENDBRANCH  26  27
ENDBRANCH  25  26
ENDBRANCH  24  25
ENDBRANCH   1  24
TORSDOF 21
ENDMDL
MODEL 2
REMARK VINA RESULT:     -11.2      1.938      2.809
REMARK SMILES CC(C)(C)c1ccc(CSc2ccnc(C(=O)OCCOCCOC(=O)c3ccc(-c4c5nc(c(-c6cccc(S(=O)(=O)[O-])c6F)c6ccc([nH]6)c(-c6cccc(S(=O)(=O)[O-])c6F)c6nc(c(-c7cccc(S(=O)(=O)[O-])c7F)c7ccc4[nH]7)C=C6)C=C5)cc3)c2)cc1
REMARK SMILES IDX 20 1 19 2 18 3 16 4 17 5 15 6 11 7 12 8 90 9 13 10 14 11
REMARK SMILES IDX 10 12 9 13 8 14 5 15 6 16 92 17 7 18 91 19 2 20 1 21 3 22
REMARK SMILES IDX 4 23 21 24 22 25 23 26 24 27 25 28 26 29 27 30 28 31 89 32
REMARK SMILES IDX 29 33 88 34 30 35 31 36 32 37 82 38 33 39 87 40 81 41 83 42
REMARK SMILES IDX 34 43 86 44 80 45 79 46 35 48 67 49 47 50 66 51 48 52 51 53
REMARK SMILES IDX 65 54 84 55 49 56 50 57 64 59 85 60 52 61 36 62 37 63 45 64
REMARK SMILES IDX 38 65 40 66 46 67 39 68 41 69 42 70 43 71 44 72 68 73 69 74
REMARK SMILES IDX 77 75 70 76 72 77 78 78 71 79 73 80 74 81 75 82 76 83 53 84
REMARK SMILES IDX 54 85 62 86 55 87 57 88 63 89 56 90 58 91 59 92 60 93 61 94
REMARK H PARENT 83 47 51 58
REMARK Flexibility Score: inf
ROOT
ATOM      1  C   UNL A   1      29.513  30.955  22.943  1.00  0.00     0.202 C 
ENDROOT
BRANCH   1   2
ATOM      2  C   UNL A   1      28.586  29.810  22.521  1.00  0.00     0.261 C 
BRANCH   2   3
ATOM      3  O   UNL A   1      29.326  28.589  22.344  1.00  0.00    -0.459 OA
BRANCH   3   4
ATOM      4  C   UNL A   1      29.132  27.641  23.299  1.00  0.00     0.357 C 
ATOM      5  O   UNL A   1      28.057  27.169  23.640  1.00  0.00    -0.244 OA
BRANCH   4   6
ATOM      6  C   UNL A   1      30.455  27.129  23.767  1.00  0.00     0.149 A 
ATOM      7  C   UNL A   1      31.841  25.801  25.177  1.00  0.00     0.011 A 
ATOM      8  C   UNL A   1      32.957  26.327  24.529  1.00  0.00     0.035 A 
ATOM      9  C   UNL A   1      30.563  26.224  24.812  1.00  0.00     0.051 A 
ATOM     10  C   UNL A   1      32.752  27.240  23.513  1.00  0.00     0.113 A 
ATOM     11  N   UNL A   1      31.534  27.646  23.112  1.00  0.00    -0.249 NA
BRANCH   7  12
ATOM     12  S   UNL A   1      32.056  24.571  26.448  1.00  0.00    -0.121 SA
BRANCH  12  13
ATOM     13  C   UNL A   1      33.674  23.880  25.937  1.00  0.00     0.110 C 
BRANCH  13  14
ATOM     14  C   UNL A   1      33.590  22.449  25.470  1.00  0.00    -0.038 A 
ATOM     15  C   UNL A   1      33.428  19.710  24.705  1.00  0.00    -0.043 A 
ATOM     16  C   UNL A   1      34.660  20.316  24.998  1.00  0.00     0.004 A 
ATOM     17  C   UNL A   1      32.279  20.515  24.798  1.00  0.00     0.004 A 
ATOM     18  C   UNL A   1      34.742  21.663  25.366  1.00  0.00     0.005 A 
ATOM     19  C   UNL A   1      32.356  21.863  25.167  1.00  0.00     0.005 A 
BRANCH  15  20
ATOM     20  C   UNL A   1      33.317  18.213  24.364  1.00  0.00    -0.013 C 
ATOM     21  C   UNL A   1      32.528  17.397  25.414  1.00  0.00     0.016 C 
ATOM     22  C   UNL A   1      34.710  17.555  24.251  1.00  0.00     0.016 C 
ATOM     23  C   UNL A   1      32.588  18.081  23.011  1.00  0.00     0.016 C 
ENDBRANCH  15  20
ENDBRANCH  13  14
ENDBRANCH  12  13
ENDBRANCH   7  12
ENDBRANCH   4   6
ENDBRANCH   3   4
ENDBRANCH   2   3
ENDBRANCH   1   2
BRANCH   1  24
ATOM     24  O   UNL A   1      29.528  31.262  24.339  1.00  0.00    -0.374 OA
BRANCH  24  25
ATOM     25  C   UNL A   1      30.700  30.886  25.065  1.00  0.00     0.202 C 
BRANCH  25  26
ATOM     26  C   UNL A   1      31.114  31.828  26.203  1.00  0.00     0.261 C 
BRANCH  26  27
ATOM     27  O   UNL A   1      32.336  31.406  26.836  1.00  0.00    -0.460 OA
BRANCH  27  28
ATOM     28  C   UNL A   1      33.067  32.402  27.388  1.00  0.00     0.338 C 
ATOM     29  O   UNL A   1      32.695  33.546  27.625  1.00  0.00    -0.246 OA
BRANCH  28  30
ATOM     30  C   UNL A   1      34.369  31.882  27.847  1.00  0.00     0.060 A 
ATOM     31  C   UNL A   1      34.452  30.514  28.137  1.00  0.00     0.016 A 
ATOM     32  C   UNL A   1      35.470  32.718  28.048  1.00  0.00     0.016 A 
ATOM     33  C   UNL A   1      35.623  29.984  28.673  1.00  0.00     0.010 A 
ATOM     34  C   UNL A   1      36.643  32.183  28.593  1.00  0.00     0.010 A 
ATOM     35  C   UNL A   1      36.715  30.822  28.939  1.00  0.00    -0.014 A 
BRANCH  35  36
ATOM     36  C   UNL A   1      37.885  30.292  29.680  1.00  0.00     0.031 A 
ATOM     37  C   UNL A   1      38.138  30.756  31.089  1.00  0.00     0.074 A 
ATOM     38  C   UNL A   1      38.716  29.404  29.104  1.00  0.00     0.049 A 
ATOM     39  N   UNL A   1      39.104  30.427  31.906  1.00  0.00    -0.248 NA
ATOM     40  C   UNL A   1      37.178  31.722  31.648  1.00  0.00     0.031 C 
ATOM     41  C   UNL A   1      38.581  28.883  27.744  1.00  0.00     0.029 A 
ATOM     42  N   UNL A   1      39.854  28.804  29.584  1.00  0.00    -0.354 N 
ATOM     43  C   UNL A   1      38.885  31.162  33.066  1.00  0.00     0.074 A 
ATOM     44  C   UNL A   1      37.702  31.965  32.841  1.00  0.00     0.031 C 
ATOM     45  C   UNL A   1      39.612  28.060  27.488  1.00  0.00     0.029 A 
ATOM     46  C   UNL A   1      40.490  28.013  28.658  1.00  0.00     0.049 A 
ATOM     47  H   UNL A   1      40.182  28.930  30.503  1.00  0.00     0.167 HD
ATOM     48  C   UNL A   1      39.593  31.155  34.221  1.00  0.00     0.034 A 
ATOM     49  C   UNL A   1      41.657  27.342  28.735  1.00  0.00     0.034 A 
ATOM     50  C   UNL A   1      40.756  30.341  34.452  1.00  0.00     0.049 A 
ATOM     51  C   UNL A   1      42.434  27.364  30.026  1.00  0.00     0.074 A 
ATOM     52  C   UNL A   1      41.508  30.224  35.608  1.00  0.00     0.029 A 
ATOM     53  N   UNL A   1      41.346  29.517  33.507  1.00  0.00    -0.354 N 
ATOM     54  N   UNL A   1      42.142  27.958  31.158  1.00  0.00    -0.248 NA
ATOM     55  C   UNL A   1      43.687  26.593  30.062  1.00  0.00     0.031 C 
ATOM     56  C   UNL A   1      42.567  29.347  35.353  1.00  0.00     0.029 A 
ATOM     57  C   UNL A   1      42.461  28.897  34.047  1.00  0.00     0.049 A 
ATOM     58  H   UNL A   1      41.020  29.390  32.587  1.00  0.00     0.167 HD
ATOM     59  C   UNL A   1      43.150  27.606  32.048  1.00  0.00     0.074 A 
ATOM     60  C   UNL A   1      44.053  26.730  31.330  1.00  0.00     0.031 C 
ATOM     61  C   UNL A   1      43.321  27.984  33.339  1.00  0.00     0.034 A 
BRANCH  48  62
ATOM     62  C   UNL A   1      39.111  32.039  35.341  1.00  0.00     0.023 A 
ATOM     63  C   UNL A   1      38.122  31.563  36.225  1.00  0.00     0.012 A 
ATOM     64  C   UNL A   1      39.674  33.312  35.554  1.00  0.00     0.148 A 
ATOM     65  C   UNL A   1      37.680  32.352  37.286  1.00  0.00     0.002 A 
ATOM     66  C   UNL A   1      39.258  34.076  36.637  1.00  0.00     0.091 A 
ATOM     67  F   UNL A   1      40.596  33.756  34.688  1.00  0.00    -0.205 F 
ATOM     68  C   UNL A   1      38.253  33.603  37.498  1.00  0.00     0.022 A 
BRANCH  66  69
ATOM     69  S   UNL A   1      39.990  35.667  37.037  1.00  0.00     0.127 S 
ATOM     70  O   UNL A   1      39.654  36.454  35.851  1.00  0.00    -0.237 OA
ATOM     71  O   UNL A   1      39.261  36.047  38.248  1.00  0.00    -0.237 OA
ATOM     72  O   UNL A   1      41.410  35.415  37.240  1.00  0.00    -0.744 OA
ENDBRANCH  66  69
ENDBRANCH  48  62
BRANCH  49  73
ATOM     73  C   UNL A   1      42.141  26.558  27.565  1.00  0.00     0.023 A 
ATOM     74  C   UNL A   1      42.806  27.216  26.513  1.00  0.00     0.012 A 
ATOM     75  C   UNL A   1      41.966  25.161  27.501  1.00  0.00     0.148 A 
ATOM     76  C   UNL A   1      43.265  26.502  25.405  1.00  0.00     0.002 A 
ATOM     77  C   UNL A   1      42.475  24.448  26.422  1.00  0.00     0.091 A 
ATOM     78  F   UNL A   1      41.313  24.555  28.503  1.00  0.00    -0.205 F 
ATOM     79  C   UNL A   1      43.110  25.118  25.365  1.00  0.00     0.022 A 
BRANCH  77  80
ATOM     80  S   UNL A   1      42.440  22.653  26.352  1.00  0.00     0.127 S 
ATOM     81  O   UNL A   1      41.097  22.361  26.846  1.00  0.00    -0.237 OA
ATOM     82  O   UNL A   1      42.641  22.402  24.925  1.00  0.00    -0.237 OA
ATOM     83  O   UNL A   1      43.539  22.206  27.198  1.00  0.00    -0.744 OA
ENDBRANCH  77  80
ENDBRANCH  49  73
BRANCH  61  84
ATOM     84  C   UNL A   1      44.511  27.431  34.082  1.00  0.00     0.023 A 
ATOM     85  C   UNL A   1      45.741  28.118  34.048  1.00  0.00     0.012 A 
ATOM     86  C   UNL A   1      44.389  26.274  34.877  1.00  0.00     0.148 A 
ATOM     87  C   UNL A   1      46.838  27.645  34.766  1.00  0.00     0.002 A 
ATOM     88  C   UNL A   1      45.473  25.835  35.629  1.00  0.00     0.091 A 
ATOM     89  F   UNL A   1      43.217  25.622  34.884  1.00  0.00    -0.205 F 
ATOM     90  C   UNL A   1      46.701  26.513  35.565  1.00  0.00     0.022 A 
BRANCH  88  91
ATOM     91  S   UNL A   1      45.361  24.442  36.759  1.00  0.00     0.127 S 
ATOM     92  O   UNL A   1      44.256  24.851  37.626  1.00  0.00    -0.237 OA
ATOM     93  O   UNL A   1      45.048  23.334  35.856  1.00  0.00    -0.237 OA
ATOM     94  O   UNL A   1      46.662  24.346  37.406  1.00  0.00    -0.744 OA
ENDBRANCH  88  91
ENDBRANCH  61  84
ENDBRANCH  35  36
ENDBRANCH  28  30
ENDBRANCH  27  28
ENDBRANCH  26  27
ENDBRANCH  25  26
ENDBRANCH  24  25
ENDBRANCH   1  24
TORSDOF 21
ENDMDL
MODEL 3
REMARK VINA RESULT:     -10.7      2.300      8.076
REMARK SMILES CC(C)(C)c1ccc(CSc2ccnc(C(=O)OCCOCCOC(=O)c3ccc(-c4c5nc(c(-c6cccc(S(=O)(=O)[O-])c6F)c6ccc([nH]6)c(-c6cccc(S(=O)(=O)[O-])c6F)c6nc(c(-c7cccc(S(=O)(=O)[O-])c7F)c7ccc4[nH]7)C=C6)C=C5)cc3)c2)cc1
REMARK SMILES IDX 20 1 19 2 18 3 16 4 17 5 15 6 11 7 12 8 90 9 13 10 14 11
REMARK SMILES IDX 10 12 9 13 8 14 5 15 6 16 92 17 7 18 91 19 2 20 1 21 3 22
REMARK SMILES IDX 4 23 21 24 22 25 23 26 24 27 25 28 26 29 27 30 28 31 89 32
REMARK SMILES IDX 29 33 88 34 30 35 31 36 32 37 82 38 33 39 87 40 81 41 83 42
REMARK SMILES IDX 34 43 86 44 80 45 79 46 35 48 67 49 47 50 66 51 48 52 51 53
REMARK SMILES IDX 65 54 84 55 49 56 50 57 64 59 85 60 52 61 36 62 37 63 45 64
REMARK SMILES IDX 38 65 40 66 46 67 39 68 41 69 42 70 43 71 44 72 68 73 69 74
REMARK SMILES IDX 77 75 70 76 72 77 78 78 71 79 73 80 74 81 75 82 76 83 53 84
REMARK SMILES IDX 54 85 62 86 55 87 57 88 63 89 56 90 58 91 59 92 60 93 61 94
REMARK H PARENT 83 47 51 58
REMARK Flexibility Score: inf
ROOT
ATOM      1  C   UNL A   1      29.906  29.737  22.938  1.00  0.00     0.202 C 
ENDROOT
BRANCH   1   2
ATOM      2  C   UNL A   1      29.274  28.345  22.831  1.00  0.00     0.261 C 
BRANCH   2   3
ATOM      3  O   UNL A   1      30.003  27.388  23.619  1.00  0.00    -0.459 OA
BRANCH   3   4
ATOM      4  C   UNL A   1      31.009  26.741  22.973  1.00  0.00     0.357 C 
ATOM      5  O   UNL A   1      31.182  26.702  21.762  1.00  0.00    -0.244 OA
BRANCH   4   6
ATOM      6  C   UNL A   1      31.984  26.213  23.973  1.00  0.00     0.149 A 
ATOM      7  C   UNL A   1      33.936  25.002  24.604  1.00  0.00     0.011 A 
ATOM      8  C   UNL A   1      33.647  25.284  25.937  1.00  0.00     0.035 A 
ATOM      9  C   UNL A   1      33.079  25.449  23.597  1.00  0.00     0.051 A 
ATOM     10  C   UNL A   1      32.521  26.034  26.216  1.00  0.00     0.113 A 
ATOM     11  N   UNL A   1      31.691  26.511  25.271  1.00  0.00    -0.249 NA
BRANCH   7  12
ATOM     12  S   UNL A   1      35.413  24.094  24.192  1.00  0.00    -0.121 SA
BRANCH  12  13
ATOM     13  C   UNL A   1      35.369  22.822  25.510  1.00  0.00     0.110 C 
BRANCH  13  14
ATOM     14  C   UNL A   1      34.839  21.492  25.036  1.00  0.00    -0.038 A 
ATOM     15  C   UNL A   1      33.816  18.949  24.261  1.00  0.00    -0.043 A 
ATOM     16  C   UNL A   1      35.161  19.116  24.627  1.00  0.00     0.004 A 
ATOM     17  C   UNL A   1      32.998  20.093  24.286  1.00  0.00     0.004 A 
ATOM     18  C   UNL A   1      35.667  20.366  25.000  1.00  0.00     0.005 A 
ATOM     19  C   UNL A   1      33.500  21.345  24.661  1.00  0.00     0.005 A 
BRANCH  15  20
ATOM     20  C   UNL A   1      33.231  17.569  23.912  1.00  0.00    -0.013 C 
ATOM     21  C   UNL A   1      32.475  16.905  25.084  1.00  0.00     0.016 C 
ATOM     22  C   UNL A   1      34.338  16.579  23.485  1.00  0.00     0.016 C 
ATOM     23  C   UNL A   1      32.240  17.748  22.744  1.00  0.00     0.016 C 
ENDBRANCH  15  20
ENDBRANCH  13  14
ENDBRANCH  12  13
ENDBRANCH   7  12
ENDBRANCH   4   6
ENDBRANCH   3   4
ENDBRANCH   2   3
ENDBRANCH   1   2
BRANCH   1  24
ATOM     24  O   UNL A   1      29.986  30.286  24.255  1.00  0.00    -0.374 OA
BRANCH  24  25
ATOM     25  C   UNL A   1      31.225  30.118  24.947  1.00  0.00     0.202 C 
BRANCH  25  26
ATOM     26  C   UNL A   1      31.491  31.102  26.094  1.00  0.00     0.261 C 
BRANCH  26  27
ATOM     27  O   UNL A   1      32.714  30.803  26.790  1.00  0.00    -0.460 OA
BRANCH  27  28
ATOM     28  C   UNL A   1      33.327  31.870  27.354  1.00  0.00     0.338 C 
ATOM     29  O   UNL A   1      32.833  32.969  27.580  1.00  0.00    -0.246 OA
BRANCH  28  30
ATOM     30  C   UNL A   1      34.664  31.487  27.843  1.00  0.00     0.060 A 
ATOM     31  C   UNL A   1      34.883  30.135  28.136  1.00  0.00     0.016 A 
ATOM     32  C   UNL A   1      35.668  32.432  28.067  1.00  0.00     0.016 A 
ATOM     33  C   UNL A   1      36.091  29.729  28.699  1.00  0.00     0.010 A 
ATOM     34  C   UNL A   1      36.878  32.022  28.639  1.00  0.00     0.010 A 
ATOM     35  C   UNL A   1      37.084  30.675  28.988  1.00  0.00    -0.014 A 
BRANCH  35  36
ATOM     36  C   UNL A   1      38.286  30.269  29.756  1.00  0.00     0.031 A 
ATOM     37  C   UNL A   1      39.232  29.258  29.165  1.00  0.00     0.074 A 
ATOM     38  C   UNL A   1      38.534  30.796  30.968  1.00  0.00     0.049 A 
ATOM     39  N   UNL A   1      40.330  28.761  29.670  1.00  0.00    -0.248 NA
ATOM     40  C   UNL A   1      38.892  28.737  27.831  1.00  0.00     0.031 C 
ATOM     41  C   UNL A   1      37.691  31.779  31.649  1.00  0.00     0.029 A 
ATOM     42  N   UNL A   1      39.557  30.558  31.852  1.00  0.00    -0.354 N 
ATOM     43  C   UNL A   1      40.800  27.850  28.731  1.00  0.00     0.074 A 
ATOM     44  C   UNL A   1      39.860  27.854  27.631  1.00  0.00     0.031 C 
ATOM     45  C   UNL A   1      38.216  32.041  32.857  1.00  0.00     0.029 A 
ATOM     46  C   UNL A   1      39.420  31.230  33.044  1.00  0.00     0.049 A 
ATOM     47  H   UNL A   1      40.314  29.963  31.652  1.00  0.00     0.167 HD
ATOM     48  C   UNL A   1      41.923  27.093  28.772  1.00  0.00     0.034 A 
ATOM     49  C   UNL A   1      40.168  31.182  34.165  1.00  0.00     0.034 A 
ATOM     50  C   UNL A   1      42.868  27.106  29.855  1.00  0.00     0.049 A 
ATOM     51  C   UNL A   1      41.403  30.320  34.190  1.00  0.00     0.074 A 
ATOM     52  C   UNL A   1      44.063  26.416  29.962  1.00  0.00     0.029 A 
ATOM     53  N   UNL A   1      42.721  27.833  31.026  1.00  0.00    -0.354 N 
ATOM     54  N   UNL A   1      41.905  29.567  33.241  1.00  0.00    -0.248 NA
ATOM     55  C   UNL A   1      42.196  30.328  35.429  1.00  0.00     0.031 C 
ATOM     56  C   UNL A   1      44.626  26.707  31.209  1.00  0.00     0.029 A 
ATOM     57  C   UNL A   1      43.796  27.600  31.868  1.00  0.00     0.049 A 
ATOM     58  H   UNL A   1      41.965  28.429  31.229  1.00  0.00     0.167 HD
ATOM     59  C   UNL A   1      43.086  29.041  33.753  1.00  0.00     0.074 A 
ATOM     60  C   UNL A   1      43.236  29.577  35.091  1.00  0.00     0.031 C 
ATOM     61  C   UNL A   1      43.961  28.181  33.175  1.00  0.00     0.034 A 
BRANCH  48  62
ATOM     62  C   UNL A   1      42.208  26.203  27.591  1.00  0.00     0.023 A 
ATOM     63  C   UNL A   1      42.930  26.714  26.493  1.00  0.00     0.012 A 
ATOM     64  C   UNL A   1      41.813  24.851  27.590  1.00  0.00     0.148 A 
ATOM     65  C   UNL A   1      43.230  25.901  25.401  1.00  0.00     0.002 A 
ATOM     66  C   UNL A   1      42.152  24.036  26.516  1.00  0.00     0.091 A 
ATOM     67  F   UNL A   1      41.106  24.391  28.632  1.00  0.00    -0.205 F 
ATOM     68  C   UNL A   1      42.851  24.562  25.416  1.00  0.00     0.022 A 
BRANCH  66  69
ATOM     69  S   UNL A   1      41.773  22.280  26.477  1.00  0.00     0.127 S 
ATOM     70  O   UNL A   1      42.383  21.819  27.723  1.00  0.00    -0.237 OA
ATOM     71  O   UNL A   1      40.310  22.281  26.478  1.00  0.00    -0.237 OA
ATOM     72  O   UNL A   1      42.378  21.768  25.256  1.00  0.00    -0.744 OA
ENDBRANCH  66  69
ENDBRANCH  48  62
BRANCH  49  73
ATOM     73  C   UNL A   1      39.791  32.011  35.344  1.00  0.00     0.023 A 
ATOM     74  C   UNL A   1      40.281  33.326  35.456  1.00  0.00     0.012 A 
ATOM     75  C   UNL A   1      38.930  31.511  36.342  1.00  0.00     0.148 A 
ATOM     76  C   UNL A   1      39.944  34.120  36.553  1.00  0.00     0.002 A 
ATOM     77  C   UNL A   1      38.553  32.326  37.403  1.00  0.00     0.091 A 
ATOM     78  F   UNL A   1      38.490  30.250  36.228  1.00  0.00    -0.205 F 
ATOM     79  C   UNL A   1      39.072  33.625  37.520  1.00  0.00     0.022 A 
BRANCH  77  80
ATOM     80  S   UNL A   1      37.331  31.818  38.618  1.00  0.00     0.127 S 
ATOM     81  O   UNL A   1      37.020  30.460  38.180  1.00  0.00    -0.237 OA
ATOM     82  O   UNL A   1      38.092  31.905  39.865  1.00  0.00    -0.237 OA
ATOM     83  O   UNL A   1      36.246  32.784  38.511  1.00  0.00    -0.744 OA
ENDBRANCH  77  80
ENDBRANCH  49  73
BRANCH  61  84
ATOM     84  C   UNL A   1      45.183  27.785  33.965  1.00  0.00     0.023 A 
ATOM     85  C   UNL A   1      45.130  26.669  34.825  1.00  0.00     0.012 A 
ATOM     86  C   UNL A   1      46.403  28.467  33.794  1.00  0.00     0.148 A 
ATOM     87  C   UNL A   1      46.263  26.261  35.528  1.00  0.00     0.002 A 
ATOM     88  C   UNL A   1      47.541  28.024  34.460  1.00  0.00     0.091 A 
ATOM     89  F   UNL A   1      46.431  29.536  32.985  1.00  0.00    -0.205 F 
ATOM     90  C   UNL A   1      47.470  26.930  35.336  1.00  0.00     0.022 A 
BRANCH  88  91
ATOM     91  S   UNL A   1      49.158  28.765  34.201  1.00  0.00     0.127 S 
ATOM     92  O   UNL A   1      49.903  28.264  35.355  1.00  0.00    -0.237 OA
ATOM     93  O   UNL A   1      49.562  28.190  32.918  1.00  0.00    -0.237 OA
ATOM     94  O   UNL A   1      48.938  30.205  34.174  1.00  0.00    -0.744 OA
ENDBRANCH  88  91
ENDBRANCH  61  84
ENDBRANCH  35  36
ENDBRANCH  28  30
ENDBRANCH  27  28
ENDBRANCH  26  27
ENDBRANCH  25  26
ENDBRANCH  24  25
ENDBRANCH   1  24
TORSDOF 21
ENDMDL
