MODEL 1
REMARK VINA RESULT:      -9.1      0.000      0.000
REMARK SMILES CNC(=O)CCCn1cc(C(=O)OCCOCCOC(=O)c2ccc(-c3c4nc(c(-c5cccc(S(=O)(=O)[O-])c5F)c5ccc([nH]5)c(-c5cccc(S(=O)(=O)[O-])c5F)c5nc(c(-c6cccc(S(=O)(=O)[O-])c6F)c6ccc3[nH]6)C=C5)C=C4)cc2)cc1Br
REMARK SMILES IDX 15 1 14 2 13 3 11 4 12 5 10 6 8 7 9 8 86 9 85 10 87 11 7 12
REMARK SMILES IDX 6 13 5 14 3 15 1 16 2 17 4 19 16 20 17 21 18 22 19 23 20 24
REMARK SMILES IDX 21 25 22 26 23 27 84 28 24 29 83 30 25 31 26 32 27 33 77 34
REMARK SMILES IDX 28 35 82 36 76 37 78 38 29 39 81 40 75 41 74 42 30 44 62 45
REMARK SMILES IDX 42 46 61 47 43 48 46 49 60 50 79 51 44 52 45 53 59 55 80 56
REMARK SMILES IDX 47 57 31 58 32 59 40 60 33 61 35 62 41 63 34 64 36 65 37 66
REMARK SMILES IDX 38 67 39 68 63 69 64 70 72 71 65 72 67 73 73 74 66 75 68 76
REMARK SMILES IDX 69 77 70 78 71 79 48 80 49 81 57 82 50 83 52 84 58 85 51 86
REMARK SMILES IDX 53 87 54 88 55 89 56 90
REMARK H PARENT 2 18 78 43 46 54
REMARK Flexibility Score: inf
ROOT
ATOM      1  C   UNL A   1      34.774  34.640  29.165  1.00  0.00     0.202 C 
ENDROOT
BRANCH   1   2
ATOM      2  C   UNL A   1      33.564  35.316  29.814  1.00  0.00     0.261 C 
BRANCH   2   3
ATOM      3  O   UNL A   1      33.143  34.637  31.003  1.00  0.00    -0.460 OA
BRANCH   3   4
ATOM      4  C   UNL A   1      33.588  35.192  32.171  1.00  0.00     0.339 C 
ATOM      5  O   UNL A   1      33.223  36.264  32.620  1.00  0.00    -0.246 OA
BRANCH   4   6
ATOM      6  C   UNL A   1      34.486  34.301  32.901  1.00  0.00     0.078 A 
ATOM      7  N   UNL A   1      35.810  32.565  33.408  1.00  0.00    -0.341 N 
ATOM      8  C   UNL A   1      34.723  32.958  32.664  1.00  0.00     0.102 A 
ATOM      9  C   UNL A   1      36.024  33.540  34.360  1.00  0.00     0.085 A 
ATOM     10  C   UNL A   1      35.249  34.633  34.054  1.00  0.00     0.051 A 
ATOM     11  Br  UNL A   1      37.230  33.499  35.788  1.00  0.00    -0.031 Br
BRANCH   7  12
ATOM     12  C   UNL A   1      36.772  31.517  33.095  1.00  0.00     0.123 C 
BRANCH  12  13
ATOM     13  C   UNL A   1      38.116  31.824  32.428  1.00  0.00     0.032 C 
BRANCH  13  14
ATOM     14  C   UNL A   1      39.305  30.871  32.560  1.00  0.00     0.102 C 
BRANCH  14  15
ATOM     15  C   UNL A   1      39.211  29.677  33.494  1.00  0.00     0.219 C 
ATOM     16  C   UNL A   1      40.291  30.700  35.576  1.00  0.00     0.142 C 
ATOM     17  N   UNL A   1      39.695  29.679  34.759  1.00  0.00    -0.359 N 
ATOM     18  H   UNL A   1      39.623  28.807  35.209  1.00  0.00     0.163 HD
ATOM     19  O   UNL A   1      38.742  28.608  33.095  1.00  0.00    -0.275 OA
ENDBRANCH  14  15
ENDBRANCH  13  14
ENDBRANCH  12  13
ENDBRANCH   7  12
ENDBRANCH   4   6
ENDBRANCH   3   4
ENDBRANCH   2   3
ENDBRANCH   1   2
BRANCH   1  20
ATOM     20  O   UNL A   1      34.554  33.449  28.407  1.00  0.00    -0.374 OA
BRANCH  20  21
ATOM     21  C   UNL A   1      35.661  32.669  27.965  1.00  0.00     0.202 C 
BRANCH  21  22
ATOM     22  C   UNL A   1      36.759  32.299  28.947  1.00  0.00     0.261 C 
BRANCH  22  23
ATOM     23  O   UNL A   1      36.567  31.028  29.541  1.00  0.00    -0.460 OA
BRANCH  23  24
ATOM     24  C   UNL A   1      36.318  30.060  28.628  1.00  0.00     0.338 C 
ATOM     25  O   UNL A   1      35.241  29.775  28.135  1.00  0.00    -0.246 OA
BRANCH  24  26
ATOM     26  C   UNL A   1      37.524  29.249  28.476  1.00  0.00     0.060 A 
ATOM     27  C   UNL A   1      37.882  28.467  29.575  1.00  0.00     0.016 A 
ATOM     28  C   UNL A   1      38.407  29.513  27.419  1.00  0.00     0.016 A 
ATOM     29  C   UNL A   1      39.200  28.107  29.709  1.00  0.00     0.010 A 
ATOM     30  C   UNL A   1      39.728  29.178  27.568  1.00  0.00     0.010 A 
ATOM     31  C   UNL A   1      40.115  28.538  28.743  1.00  0.00    -0.014 A 
BRANCH  31  32
ATOM     32  C   UNL A   1      41.482  28.079  28.860  1.00  0.00     0.031 A 
ATOM     33  C   UNL A   1      41.696  26.929  27.955  1.00  0.00     0.074 A 
ATOM     34  C   UNL A   1      42.399  28.723  29.606  1.00  0.00     0.049 A 
ATOM     35  N   UNL A   1      41.770  25.680  28.286  1.00  0.00    -0.248 NA
ATOM     36  C   UNL A   1      41.497  27.142  26.508  1.00  0.00     0.031 C 
ATOM     37  C   UNL A   1      42.225  30.018  30.276  1.00  0.00     0.029 A 
ATOM     38  N   UNL A   1      43.719  28.450  29.809  1.00  0.00    -0.354 N 
ATOM     39  C   UNL A   1      42.004  25.025  27.079  1.00  0.00     0.074 A 
ATOM     40  C   UNL A   1      41.479  25.885  26.060  1.00  0.00     0.031 C 
ATOM     41  C   UNL A   1      43.442  30.531  30.568  1.00  0.00     0.029 A 
ATOM     42  C   UNL A   1      44.462  29.561  30.213  1.00  0.00     0.049 A 
ATOM     43  H   UNL A   1      44.111  27.556  29.683  1.00  0.00     0.167 HD
ATOM     44  C   UNL A   1      43.033  24.135  27.009  1.00  0.00     0.034 A 
ATOM     45  C   UNL A   1      45.812  29.693  30.166  1.00  0.00     0.034 A 
ATOM     46  C   UNL A   1      43.408  23.720  28.343  1.00  0.00     0.049 A 
ATOM     47  C   UNL A   1      46.382  28.331  30.100  1.00  0.00     0.074 A 
ATOM     48  C   UNL A   1      42.843  23.013  29.382  1.00  0.00     0.029 A 
ATOM     49  N   UNL A   1      44.410  24.492  28.870  1.00  0.00    -0.354 N 
ATOM     50  N   UNL A   1      46.314  27.482  31.087  1.00  0.00    -0.248 NA
ATOM     51  C   UNL A   1      46.713  27.758  28.800  1.00  0.00     0.031 C 
ATOM     52  C   UNL A   1      43.477  23.483  30.571  1.00  0.00     0.029 A 
ATOM     53  C   UNL A   1      44.453  24.418  30.228  1.00  0.00     0.049 A 
ATOM     54  H   UNL A   1      45.027  25.037  28.329  1.00  0.00     0.167 HD
ATOM     55  C   UNL A   1      46.099  26.269  30.457  1.00  0.00     0.074 A 
ATOM     56  C   UNL A   1      46.554  26.463  29.084  1.00  0.00     0.031 C 
ATOM     57  C   UNL A   1      45.243  25.355  30.997  1.00  0.00     0.034 A 
BRANCH  44  58
ATOM     58  C   UNL A   1      44.098  24.128  25.900  1.00  0.00     0.023 A 
ATOM     59  C   UNL A   1      44.421  22.858  25.365  1.00  0.00     0.012 A 
ATOM     60  C   UNL A   1      45.004  25.176  25.604  1.00  0.00     0.148 A 
ATOM     61  C   UNL A   1      45.618  22.623  24.678  1.00  0.00     0.002 A 
ATOM     62  C   UNL A   1      46.179  24.948  24.896  1.00  0.00     0.091 A 
ATOM     63  F   UNL A   1      44.799  26.408  26.058  1.00  0.00    -0.205 F 
ATOM     64  C   UNL A   1      46.507  23.667  24.455  1.00  0.00     0.022 A 
BRANCH  62  65
ATOM     65  S   UNL A   1      47.373  26.264  24.590  1.00  0.00     0.127 S 
ATOM     66  O   UNL A   1      47.975  26.417  25.911  1.00  0.00    -0.237 OA
ATOM     67  O   UNL A   1      48.230  25.648  23.579  1.00  0.00    -0.237 OA
ATOM     68  O   UNL A   1      46.602  27.407  24.117  1.00  0.00    -0.744 OA
ENDBRANCH  62  65
ENDBRANCH  44  58
BRANCH  45  69
ATOM     69  C   UNL A   1      46.665  30.891  29.953  1.00  0.00     0.023 A 
ATOM     70  C   UNL A   1      47.842  31.052  30.716  1.00  0.00     0.012 A 
ATOM     71  C   UNL A   1      46.494  31.717  28.822  1.00  0.00     0.148 A 
ATOM     72  C   UNL A   1      48.837  31.963  30.334  1.00  0.00     0.002 A 
ATOM     73  C   UNL A   1      47.481  32.627  28.449  1.00  0.00     0.091 A 
ATOM     74  F   UNL A   1      45.410  31.550  28.056  1.00  0.00    -0.205 F 
ATOM     75  C   UNL A   1      48.662  32.740  29.194  1.00  0.00     0.022 A 
BRANCH  73  76
ATOM     76  S   UNL A   1      47.333  33.650  26.977  1.00  0.00     0.127 S 
ATOM     77  O   UNL A   1      47.125  32.647  25.932  1.00  0.00    -0.237 OA
ATOM     78  O   UNL A   1      46.160  34.462  27.288  1.00  0.00    -0.237 OA
ATOM     79  O   UNL A   1      48.593  34.376  26.867  1.00  0.00    -0.744 OA
ENDBRANCH  73  76
ENDBRANCH  45  69
BRANCH  57  80
ATOM     80  C   UNL A   1      45.005  25.414  32.475  1.00  0.00     0.023 A 
ATOM     81  C   UNL A   1      45.825  24.774  33.425  1.00  0.00     0.012 A 
ATOM     82  C   UNL A   1      43.953  26.232  32.913  1.00  0.00     0.148 A 
ATOM     83  C   UNL A   1      45.578  24.937  34.792  1.00  0.00     0.002 A 
ATOM     84  C   UNL A   1      43.742  26.429  34.268  1.00  0.00     0.091 A 
ATOM     85  F   UNL A   1      43.180  26.819  31.987  1.00  0.00    -0.205 F 
ATOM     86  C   UNL A   1      44.546  25.775  35.213  1.00  0.00     0.022 A 
BRANCH  84  87
ATOM     87  S   UNL A   1      42.499  27.581  34.851  1.00  0.00     0.127 S 
ATOM     88  O   UNL A   1      42.675  28.707  33.937  1.00  0.00    -0.237 OA
ATOM     89  O   UNL A   1      41.259  26.826  34.662  1.00  0.00    -0.237 OA
ATOM     90  O   UNL A   1      42.823  27.847  36.248  1.00  0.00    -0.744 OA
ENDBRANCH  84  87
ENDBRANCH  57  80
ENDBRANCH  31  32
ENDBRANCH  24  26
ENDBRANCH  23  24
ENDBRANCH  22  23
ENDBRANCH  21  22
ENDBRANCH  20  21
ENDBRANCH   1  20
TORSDOF 21
ENDMDL
MODEL 2
REMARK VINA RESULT:      -9.0      4.786      9.695
REMARK SMILES CNC(=O)CCCn1cc(C(=O)OCCOCCOC(=O)c2ccc(-c3c4nc(c(-c5cccc(S(=O)(=O)[O-])c5F)c5ccc([nH]5)c(-c5cccc(S(=O)(=O)[O-])c5F)c5nc(c(-c6cccc(S(=O)(=O)[O-])c6F)c6ccc3[nH]6)C=C5)C=C4)cc2)cc1Br
REMARK SMILES IDX 15 1 14 2 13 3 11 4 12 5 10 6 8 7 9 8 86 9 85 10 87 11 7 12
REMARK SMILES IDX 6 13 5 14 3 15 1 16 2 17 4 19 16 20 17 21 18 22 19 23 20 24
REMARK SMILES IDX 21 25 22 26 23 27 84 28 24 29 83 30 25 31 26 32 27 33 77 34
REMARK SMILES IDX 28 35 82 36 76 37 78 38 29 39 81 40 75 41 74 42 30 44 62 45
REMARK SMILES IDX 42 46 61 47 43 48 46 49 60 50 79 51 44 52 45 53 59 55 80 56
REMARK SMILES IDX 47 57 31 58 32 59 40 60 33 61 35 62 41 63 34 64 36 65 37 66
REMARK SMILES IDX 38 67 39 68 63 69 64 70 72 71 65 72 67 73 73 74 66 75 68 76
REMARK SMILES IDX 69 77 70 78 71 79 48 80 49 81 57 82 50 83 52 84 58 85 51 86
REMARK SMILES IDX 53 87 54 88 55 89 56 90
REMARK H PARENT 2 18 78 43 46 54
REMARK Flexibility Score: inf
ROOT
ATOM      1  C   UNL A   1      31.840  28.255  25.389  1.00  0.00     0.202 C 
ENDROOT
BRANCH   1   2
ATOM      2  C   UNL A   1      31.733  27.155  26.447  1.00  0.00     0.261 C 
BRANCH   2   3
ATOM      3  O   UNL A   1      31.369  25.892  25.877  1.00  0.00    -0.460 OA
BRANCH   3   4
ATOM      4  C   UNL A   1      32.151  25.486  24.831  1.00  0.00     0.339 C 
ATOM      5  O   UNL A   1      32.008  25.835  23.673  1.00  0.00    -0.246 OA
BRANCH   4   6
ATOM      6  C   UNL A   1      33.271  24.655  25.266  1.00  0.00     0.078 A 
ATOM      7  N   UNL A   1      34.449  22.922  26.062  1.00  0.00    -0.341 N 
ATOM      8  C   UNL A   1      33.233  23.560  26.114  1.00  0.00     0.102 A 
ATOM      9  C   UNL A   1      35.342  23.798  25.480  1.00  0.00     0.085 A 
ATOM     10  C   UNL A   1      34.642  24.856  24.953  1.00  0.00     0.051 A 
ATOM     11  Br  UNL A   1      37.192  23.595  25.303  1.00  0.00    -0.031 Br
BRANCH   7  12
ATOM     12  C   UNL A   1      34.722  21.505  26.262  1.00  0.00     0.123 C 
BRANCH  12  13
ATOM     13  C   UNL A   1      34.466  20.469  25.164  1.00  0.00     0.032 C 
BRANCH  13  14
ATOM     14  C   UNL A   1      33.051  19.988  24.839  1.00  0.00     0.102 C 
BRANCH  14  15
ATOM     15  C   UNL A   1      32.375  20.451  23.560  1.00  0.00     0.219 C 
ATOM     16  C   UNL A   1      32.300  18.221  22.307  1.00  0.00     0.142 C 
ATOM     17  N   UNL A   1      32.126  19.633  22.509  1.00  0.00    -0.359 N 
ATOM     18  H   UNL A   1      31.751  20.099  21.728  1.00  0.00     0.163 HD
ATOM     19  O   UNL A   1      32.087  21.640  23.402  1.00  0.00    -0.275 OA
ENDBRANCH  14  15
ENDBRANCH  13  14
ENDBRANCH  12  13
ENDBRANCH   7  12
ENDBRANCH   4   6
ENDBRANCH   3   4
ENDBRANCH   2   3
ENDBRANCH   1   2
BRANCH   1  20
ATOM     20  O   UNL A   1      31.408  29.571  25.738  1.00  0.00    -0.374 OA
BRANCH  20  21
ATOM     21  C   UNL A   1      32.365  30.574  26.065  1.00  0.00     0.202 C 
BRANCH  21  22
ATOM     22  C   UNL A   1      33.069  30.532  27.411  1.00  0.00     0.261 C 
BRANCH  22  23
ATOM     23  O   UNL A   1      34.477  30.624  27.302  1.00  0.00    -0.460 OA
BRANCH  23  24
ATOM     24  C   UNL A   1      35.010  31.508  28.177  1.00  0.00     0.338 C 
ATOM     25  O   UNL A   1      34.683  32.671  28.337  1.00  0.00    -0.246 OA
BRANCH  24  26
ATOM     26  C   UNL A   1      36.205  30.909  28.767  1.00  0.00     0.060 A 
ATOM     27  C   UNL A   1      37.206  31.796  29.165  1.00  0.00     0.016 A 
ATOM     28  C   UNL A   1      36.431  29.531  28.626  1.00  0.00     0.016 A 
ATOM     29  C   UNL A   1      38.494  31.327  29.233  1.00  0.00     0.010 A 
ATOM     30  C   UNL A   1      37.721  29.071  28.667  1.00  0.00     0.010 A 
ATOM     31  C   UNL A   1      38.740  29.989  28.905  1.00  0.00    -0.014 A 
BRANCH  31  32
ATOM     32  C   UNL A   1      40.091  29.496  29.063  1.00  0.00     0.031 A 
ATOM     33  C   UNL A   1      40.442  29.472  30.500  1.00  0.00     0.074 A 
ATOM     34  C   UNL A   1      40.816  29.032  28.028  1.00  0.00     0.049 A 
ATOM     35  N   UNL A   1      41.203  30.309  31.129  1.00  0.00    -0.248 NA
ATOM     36  C   UNL A   1      39.629  28.627  31.396  1.00  0.00     0.031 C 
ATOM     37  C   UNL A   1      40.340  28.815  26.656  1.00  0.00     0.029 A 
ATOM     38  N   UNL A   1      42.076  28.514  27.998  1.00  0.00    -0.354 N 
ATOM     39  C   UNL A   1      41.227  29.824  32.435  1.00  0.00     0.074 A 
ATOM     40  C   UNL A   1      40.021  29.068  32.593  1.00  0.00     0.031 C 
ATOM     41  C   UNL A   1      41.191  27.978  26.020  1.00  0.00     0.029 A 
ATOM     42  C   UNL A   1      42.317  27.697  26.892  1.00  0.00     0.049 A 
ATOM     43  H   UNL A   1      42.753  28.699  28.689  1.00  0.00     0.167 HD
ATOM     44  C   UNL A   1      42.433  29.659  33.047  1.00  0.00     0.034 A 
ATOM     45  C   UNL A   1      43.320  26.792  26.756  1.00  0.00     0.034 A 
ATOM     46  C   UNL A   1      43.436  30.445  32.361  1.00  0.00     0.049 A 
ATOM     47  C   UNL A   1      44.376  27.164  27.720  1.00  0.00     0.074 A 
ATOM     48  C   UNL A   1      43.707  31.778  32.145  1.00  0.00     0.029 A 
ATOM     49  N   UNL A   1      44.087  29.732  31.390  1.00  0.00    -0.354 N 
ATOM     50  N   UNL A   1      45.091  28.249  27.611  1.00  0.00    -0.248 NA
ATOM     51  C   UNL A   1      44.405  26.521  29.030  1.00  0.00     0.031 C 
ATOM     52  C   UNL A   1      44.456  31.838  30.931  1.00  0.00     0.029 A 
ATOM     53  C   UNL A   1      44.677  30.541  30.468  1.00  0.00     0.049 A 
ATOM     54  H   UNL A   1      44.123  28.748  31.360  1.00  0.00     0.167 HD
ATOM     55  C   UNL A   1      45.234  28.676  28.920  1.00  0.00     0.074 A 
ATOM     56  C   UNL A   1      44.982  27.495  29.739  1.00  0.00     0.031 C 
ATOM     57  C   UNL A   1      45.175  30.005  29.220  1.00  0.00     0.034 A 
BRANCH  44  58
ATOM     58  C   UNL A   1      42.864  28.381  33.783  1.00  0.00     0.023 A 
ATOM     59  C   UNL A   1      43.365  27.339  32.966  1.00  0.00     0.012 A 
ATOM     60  C   UNL A   1      42.508  28.017  35.106  1.00  0.00     0.148 A 
ATOM     61  C   UNL A   1      43.405  26.008  33.400  1.00  0.00     0.002 A 
ATOM     62  C   UNL A   1      42.577  26.700  35.545  1.00  0.00     0.091 A 
ATOM     63  F   UNL A   1      42.025  28.916  35.957  1.00  0.00    -0.205 F 
ATOM     64  C   UNL A   1      42.996  25.685  34.686  1.00  0.00     0.022 A 
BRANCH  62  65
ATOM     65  S   UNL A   1      42.046  26.223  37.201  1.00  0.00     0.127 S 
ATOM     66  O   UNL A   1      40.757  26.902  37.295  1.00  0.00    -0.237 OA
ATOM     67  O   UNL A   1      41.980  24.768  37.076  1.00  0.00    -0.237 OA
ATOM     68  O   UNL A   1      43.077  26.708  38.111  1.00  0.00    -0.744 OA
ENDBRANCH  62  65
ENDBRANCH  44  58
BRANCH  45  69
ATOM     69  C   UNL A   1      43.371  25.500  26.023  1.00  0.00     0.023 A 
ATOM     70  C   UNL A   1      44.451  25.237  25.152  1.00  0.00     0.012 A 
ATOM     71  C   UNL A   1      42.540  24.420  26.389  1.00  0.00     0.148 A 
ATOM     72  C   UNL A   1      44.724  23.936  24.706  1.00  0.00     0.002 A 
ATOM     73  C   UNL A   1      42.810  23.131  25.938  1.00  0.00     0.091 A 
ATOM     74  F   UNL A   1      41.540  24.637  27.251  1.00  0.00    -0.205 F 
ATOM     75  C   UNL A   1      43.912  22.882  25.110  1.00  0.00     0.022 A 
BRANCH  73  76
ATOM     76  S   UNL A   1      41.815  21.716  26.434  1.00  0.00     0.127 S 
ATOM     77  O   UNL A   1      42.063  21.662  27.875  1.00  0.00    -0.237 OA
ATOM     78  O   UNL A   1      40.470  22.145  26.060  1.00  0.00    -0.237 OA
ATOM     79  O   UNL A   1      42.344  20.577  25.693  1.00  0.00    -0.744 OA
ENDBRANCH  73  76
ENDBRANCH  45  69
BRANCH  57  80
ATOM     80  C   UNL A   1      45.525  30.979  28.137  1.00  0.00     0.023 A 
ATOM     81  C   UNL A   1      44.582  31.539  27.254  1.00  0.00     0.012 A 
ATOM     82  C   UNL A   1      46.861  31.406  28.080  1.00  0.00     0.148 A 
ATOM     83  C   UNL A   1      44.979  32.498  26.316  1.00  0.00     0.002 A 
ATOM     84  C   UNL A   1      47.240  32.390  27.182  1.00  0.00     0.091 A 
ATOM     85  F   UNL A   1      47.740  30.846  28.924  1.00  0.00    -0.205 F 
ATOM     86  C   UNL A   1      46.304  32.933  26.289  1.00  0.00     0.022 A 
BRANCH  84  87
ATOM     87  S   UNL A   1      48.903  33.055  27.188  1.00  0.00     0.127 S 
ATOM     88  O   UNL A   1      49.616  32.100  26.342  1.00  0.00    -0.237 OA
ATOM     89  O   UNL A   1      48.714  34.379  26.594  1.00  0.00    -0.237 OA
ATOM     90  O   UNL A   1      49.317  33.087  28.586  1.00  0.00    -0.744 OA
ENDBRANCH  84  87
ENDBRANCH  57  80
ENDBRANCH  31  32
ENDBRANCH  24  26
ENDBRANCH  23  24
ENDBRANCH  22  23
ENDBRANCH  21  22
ENDBRANCH  20  21
ENDBRANCH   1  20
TORSDOF 21
ENDMDL
MODEL 3
REMARK VINA RESULT:      -8.8      4.916     10.244
REMARK SMILES CNC(=O)CCCn1cc(C(=O)OCCOCCOC(=O)c2ccc(-c3c4nc(c(-c5cccc(S(=O)(=O)[O-])c5F)c5ccc([nH]5)c(-c5cccc(S(=O)(=O)[O-])c5F)c5nc(c(-c6cccc(S(=O)(=O)[O-])c6F)c6ccc3[nH]6)C=C5)C=C4)cc2)cc1Br
REMARK SMILES IDX 15 1 14 2 13 3 11 4 12 5 10 6 8 7 9 8 86 9 85 10 87 11 7 12
REMARK SMILES IDX 6 13 5 14 3 15 1 16 2 17 4 19 16 20 17 21 18 22 19 23 20 24
REMARK SMILES IDX 21 25 22 26 23 27 84 28 24 29 83 30 25 31 26 32 27 33 77 34
REMARK SMILES IDX 28 35 82 36 76 37 78 38 29 39 81 40 75 41 74 42 30 44 62 45
REMARK SMILES IDX 42 46 61 47 43 48 46 49 60 50 79 51 44 52 45 53 59 55 80 56
REMARK SMILES IDX 47 57 31 58 32 59 40 60 33 61 35 62 41 63 34 64 36 65 37 66
REMARK SMILES IDX 38 67 39 68 63 69 64 70 72 71 65 72 67 73 73 74 66 75 68 76
REMARK SMILES IDX 69 77 70 78 71 79 48 80 49 81 57 82 50 83 52 84 58 85 51 86
REMARK SMILES IDX 53 87 54 88 55 89 56 90
REMARK H PARENT 2 18 78 43 46 54
REMARK Flexibility Score: inf
ROOT
ATOM      1  C   UNL A   1      39.996  21.874  27.179  1.00  0.00     0.202 C 
ENDROOT
BRANCH   1   2
ATOM      2  C   UNL A   1      39.350  21.869  25.792  1.00  0.00     0.261 C 
BRANCH   2   3
ATOM      3  O   UNL A   1      37.960  22.215  25.845  1.00  0.00    -0.460 OA
BRANCH   3   4
ATOM      4  C   UNL A   1      37.696  23.553  25.755  1.00  0.00     0.339 C 
ATOM      5  O   UNL A   1      38.450  24.442  26.107  1.00  0.00    -0.246 OA
BRANCH   4   6
ATOM      6  C   UNL A   1      36.429  23.824  25.078  1.00  0.00     0.078 A 
ATOM      7  N   UNL A   1      34.701  23.668  23.660  1.00  0.00    -0.341 N 
ATOM      8  C   UNL A   1      36.045  23.422  23.810  1.00  0.00     0.102 A 
ATOM      9  C   UNL A   1      34.331  24.533  24.669  1.00  0.00     0.085 A 
ATOM     10  C   UNL A   1      35.362  24.620  25.574  1.00  0.00     0.051 A 
ATOM     11  Br  UNL A   1      32.685  25.389  24.895  1.00  0.00    -0.031 Br
BRANCH   7  12
ATOM     12  C   UNL A   1      33.749  22.942  22.829  1.00  0.00     0.123 C 
BRANCH  12  13
ATOM     13  C   UNL A   1      32.865  21.828  23.397  1.00  0.00     0.032 C 
BRANCH  13  14
ATOM     14  C   UNL A   1      33.198  21.149  24.727  1.00  0.00     0.102 C 
BRANCH  14  15
ATOM     15  C   UNL A   1      34.203  20.011  24.759  1.00  0.00     0.219 C 
ATOM     16  C   UNL A   1      32.678  18.097  24.012  1.00  0.00     0.142 C 
ATOM     17  N   UNL A   1      33.884  18.726  24.475  1.00  0.00    -0.359 N 
ATOM     18  H   UNL A   1      34.629  18.096  24.612  1.00  0.00     0.163 HD
ATOM     19  O   UNL A   1      35.363  20.213  25.127  1.00  0.00    -0.275 OA
ENDBRANCH  14  15
ENDBRANCH  13  14
ENDBRANCH  12  13
ENDBRANCH   7  12
ENDBRANCH   4   6
ENDBRANCH   3   4
ENDBRANCH   2   3
ENDBRANCH   1   2
BRANCH   1  20
ATOM     20  O   UNL A   1      41.208  21.140  27.359  1.00  0.00    -0.374 OA
BRANCH  20  21
ATOM     21  C   UNL A   1      42.195  21.127  26.333  1.00  0.00     0.202 C 
BRANCH  21  22
ATOM     22  C   UNL A   1      43.223  22.244  26.263  1.00  0.00     0.261 C 
BRANCH  22  23
ATOM     23  O   UNL A   1      42.854  23.383  27.020  1.00  0.00    -0.460 OA
BRANCH  23  24
ATOM     24  C   UNL A   1      42.535  24.443  26.242  1.00  0.00     0.338 C 
ATOM     25  O   UNL A   1      42.682  24.541  25.036  1.00  0.00    -0.246 OA
BRANCH  24  26
ATOM     26  C   UNL A   1      42.173  25.560  27.112  1.00  0.00     0.060 A 
ATOM     27  C   UNL A   1      41.386  26.558  26.536  1.00  0.00     0.016 A 
ATOM     28  C   UNL A   1      42.856  25.743  28.324  1.00  0.00     0.016 A 
ATOM     29  C   UNL A   1      41.440  27.817  27.080  1.00  0.00     0.010 A 
ATOM     30  C   UNL A   1      42.931  27.006  28.850  1.00  0.00     0.010 A 
ATOM     31  C   UNL A   1      42.275  28.037  28.181  1.00  0.00    -0.014 A 
BRANCH  31  32
ATOM     32  C   UNL A   1      42.253  29.350  28.789  1.00  0.00     0.031 A 
ATOM     33  C   UNL A   1      43.478  30.089  28.409  1.00  0.00     0.074 A 
ATOM     34  C   UNL A   1      41.194  29.809  29.481  1.00  0.00     0.049 A 
ATOM     35  N   UNL A   1      44.516  30.307  29.149  1.00  0.00    -0.248 NA
ATOM     36  C   UNL A   1      43.713  30.345  26.975  1.00  0.00     0.031 C 
ATOM     37  C   UNL A   1      39.886  29.155  29.609  1.00  0.00     0.029 A 
ATOM     38  N   UNL A   1      40.994  31.011  30.091  1.00  0.00    -0.354 N 
ATOM     39  C   UNL A   1      45.357  31.062  28.335  1.00  0.00     0.074 A 
ATOM     40  C   UNL A   1      44.988  30.741  26.988  1.00  0.00     0.031 C 
ATOM     41  C   UNL A   1      38.972  30.069  30.009  1.00  0.00     0.029 A 
ATOM     42  C   UNL A   1      39.647  31.327  30.273  1.00  0.00     0.049 A 
ATOM     43  H   UNL A   1      41.729  31.600  30.377  1.00  0.00     0.167 HD
ATOM     44  C   UNL A   1      45.882  32.217  28.832  1.00  0.00     0.034 A 
ATOM     45  C   UNL A   1      39.130  32.556  30.528  1.00  0.00     0.034 A 
ATOM     46  C   UNL A   1      45.807  32.201  30.277  1.00  0.00     0.049 A 
ATOM     47  C   UNL A   1      40.226  33.386  31.071  1.00  0.00     0.074 A 
ATOM     48  C   UNL A   1      46.360  31.482  31.313  1.00  0.00     0.029 A 
ATOM     49  N   UNL A   1      44.662  32.785  30.748  1.00  0.00    -0.354 N 
ATOM     50  N   UNL A   1      40.773  33.170  32.235  1.00  0.00    -0.248 NA
ATOM     51  C   UNL A   1      40.986  34.244  30.169  1.00  0.00     0.031 C 
ATOM     52  C   UNL A   1      45.432  31.569  32.394  1.00  0.00     0.029 A 
ATOM     53  C   UNL A   1      44.368  32.386  32.016  1.00  0.00     0.049 A 
ATOM     54  H   UNL A   1      44.114  33.419  30.231  1.00  0.00     0.167 HD
ATOM     55  C   UNL A   1      42.113  33.437  32.017  1.00  0.00     0.074 A 
ATOM     56  C   UNL A   1      42.150  34.273  30.823  1.00  0.00     0.031 C 
ATOM     57  C   UNL A   1      43.072  32.659  32.598  1.00  0.00     0.034 A 
BRANCH  44  58
ATOM     58  C   UNL A   1      45.852  33.567  28.099  1.00  0.00     0.023 A 
ATOM     59  C   UNL A   1      47.082  34.267  28.047  1.00  0.00     0.012 A 
ATOM     60  C   UNL A   1      44.695  34.320  27.778  1.00  0.00     0.148 A 
ATOM     61  C   UNL A   1      47.143  35.644  27.801  1.00  0.00     0.002 A 
ATOM     62  C   UNL A   1      44.761  35.682  27.506  1.00  0.00     0.091 A 
ATOM     63  F   UNL A   1      43.488  33.763  27.799  1.00  0.00    -0.205 F 
ATOM     64  C   UNL A   1      45.980  36.357  27.545  1.00  0.00     0.022 A 
BRANCH  62  65
ATOM     65  S   UNL A   1      43.280  36.657  27.179  1.00  0.00     0.127 S 
ATOM     66  O   UNL A   1      43.860  37.954  26.841  1.00  0.00    -0.237 OA
ATOM     67  O   UNL A   1      42.691  35.924  26.060  1.00  0.00    -0.237 OA
ATOM     68  O   UNL A   1      42.495  36.623  28.407  1.00  0.00    -0.744 OA
ENDBRANCH  62  65
ENDBRANCH  44  58
BRANCH  45  69
ATOM     69  C   UNL A   1      37.827  33.161  30.148  1.00  0.00     0.023 A 
ATOM     70  C   UNL A   1      37.394  33.094  28.805  1.00  0.00     0.012 A 
ATOM     71  C   UNL A   1      36.883  33.539  31.126  1.00  0.00     0.148 A 
ATOM     72  C   UNL A   1      36.058  33.338  28.459  1.00  0.00     0.002 A 
ATOM     73  C   UNL A   1      35.558  33.790  30.778  1.00  0.00     0.091 A 
ATOM     74  F   UNL A   1      37.258  33.564  32.411  1.00  0.00    -0.205 F 
ATOM     75  C   UNL A   1      35.138  33.674  29.447  1.00  0.00     0.022 A 
BRANCH  73  76
ATOM     76  S   UNL A   1      34.310  34.208  32.003  1.00  0.00     0.127 S 
ATOM     77  O   UNL A   1      35.028  35.156  32.856  1.00  0.00    -0.237 OA
ATOM     78  O   UNL A   1      33.261  34.800  31.178  1.00  0.00    -0.237 OA
ATOM     79  O   UNL A   1      33.963  32.955  32.664  1.00  0.00    -0.744 OA
ENDBRANCH  73  76
ENDBRANCH  45  69
BRANCH  57  80
ATOM     80  C   UNL A   1      42.710  31.935  33.858  1.00  0.00     0.023 A 
ATOM     81  C   UNL A   1      42.562  32.566  35.108  1.00  0.00     0.012 A 
ATOM     82  C   UNL A   1      42.422  30.566  33.739  1.00  0.00     0.148 A 
ATOM     83  C   UNL A   1      42.151  31.830  36.224  1.00  0.00     0.002 A 
ATOM     84  C   UNL A   1      41.970  29.851  34.836  1.00  0.00     0.091 A 
ATOM     85  F   UNL A   1      42.585  29.988  32.539  1.00  0.00    -0.205 F 
ATOM     86  C   UNL A   1      41.842  30.477  36.086  1.00  0.00     0.022 A 
BRANCH  84  87
ATOM     87  S   UNL A   1      41.458  28.142  34.677  1.00  0.00     0.127 S 
ATOM     88  O   UNL A   1      40.362  28.240  33.716  1.00  0.00    -0.237 OA
ATOM     89  O   UNL A   1      42.669  27.499  34.164  1.00  0.00    -0.237 OA
ATOM     90  O   UNL A   1      41.083  27.710  36.018  1.00  0.00    -0.744 OA
ENDBRANCH  84  87
ENDBRANCH  57  80
ENDBRANCH  31  32
ENDBRANCH  24  26
ENDBRANCH  23  24
ENDBRANCH  22  23
ENDBRANCH  21  22
ENDBRANCH  20  21
ENDBRANCH   1  20
TORSDOF 21
ENDMDL
