MODEL 1
REMARK VINA RESULT:     -11.8      0.000      0.000
REMARK SMILES CC(C)C(=O)Nc1ccc2c([C@H](C(=O)OCCOCCOC(=O)c3ccc(-c4c5nc(c(-c6cccc(S(=O)(=O)[O-])c6F)c6ccc([nH]6)c(-c6cccc(S(=O)(=O)[O-])c6F)c6nc(c(-c7cccc(S(=O)(=O)[O-])c7F)c7ccc4[nH]7)C=C6)C=C5)cc3)[NH+]3CC[NH+](CC(=O)N(C)C)CC3)c[nH]c2c1
REMARK SMILES IDX 18 1 17 2 16 3 15 4 13 5 14 6 12 7 11 8 7 9 8 10 102 11 9 12
REMARK SMILES IDX 101 13 10 14 100 15 99 16 6 18 4 19 5 20 2 22 1 23 3 24
REMARK SMILES IDX 87 25 88 26 98 27 89 29 97 30 90 31 91 33 92 34 93 35 94 36
REMARK SMILES IDX 95 37 96 38 19 39 20 40 21 41 22 42 23 43 24 44 25 45 86 46
REMARK SMILES IDX 26 47 85 48 27 49 28 50 29 51 79 52 30 53 84 54 78 55 80 56
REMARK SMILES IDX 31 57 83 58 77 59 76 60 32 62 64 63 44 64 63 65 45 66 48 67
REMARK SMILES IDX 62 68 81 69 46 70 47 71 61 73 82 74 49 75 33 76 34 77 42 78
REMARK SMILES IDX 35 79 37 80 43 81 36 82 38 83 39 84 40 85 41 86 65 87 66 88
REMARK SMILES IDX 74 89 67 90 69 91 75 92 68 93 70 94 71 95 72 96 73 97 50 98
REMARK SMILES IDX 51 99 59 100 52 101 54 102 60 103 53 104 55 105 56 106
REMARK SMILES IDX 57 107 58 108
REMARK H PARENT 100 17 6 21 87 28 90 32 80 61 48 72
REMARK Flexibility Score: inf
ROOT
ATOM      1  O   UNL A   1      32.155  30.341  27.179  1.00  0.00    -0.374 OA
ENDROOT
BRANCH   1   2
ATOM      2  C   UNL A   1      33.300  29.659  26.658  1.00  0.00     0.202 C 
BRANCH   2   3
ATOM      3  C   UNL A   1      33.151  28.221  26.115  1.00  0.00     0.261 C 
BRANCH   3   4
ATOM      4  O   UNL A   1      32.225  27.376  26.839  1.00  0.00    -0.459 OA
BRANCH   4   5
ATOM      5  C   UNL A   1      32.218  26.050  26.481  1.00  0.00     0.370 C 
ATOM      6  O   UNL A   1      31.739  25.167  27.188  1.00  0.00    -0.245 OA
BRANCH   5   7
ATOM      7  C   UNL A   1      32.968  25.805  25.140  1.00  0.00     0.328 C 
BRANCH   7   8
ATOM      8  C   UNL A   1      33.828  24.555  25.221  1.00  0.00     0.046 A 
ATOM      9  C   UNL A   1      33.013  20.525  26.081  1.00  0.00     0.043 A 
ATOM     10  C   UNL A   1      31.908  21.362  26.047  1.00  0.00     0.027 A 
ATOM     11  C   UNL A   1      34.311  21.039  25.983  1.00  0.00     0.052 A 
ATOM     12  C   UNL A   1      32.052  22.711  25.738  1.00  0.00     0.013 A 
ATOM     13  C   UNL A   1      34.437  22.394  25.657  1.00  0.00     0.048 A 
ATOM     14  C   UNL A   1      33.338  23.237  25.513  1.00  0.00     0.009 A 
ATOM     15  N   UNL A   1      35.556  23.150  25.406  1.00  0.00    -0.361 N 
ATOM     16  C   UNL A   1      35.203  24.439  25.113  1.00  0.00     0.094 A 
ATOM     17  H   UNL A   1      36.481  22.813  25.432  1.00  0.00     0.166 HD
BRANCH   9  18
ATOM     18  N   UNL A   1      32.862  19.145  26.216  1.00  0.00    -0.326 N 
ATOM     19  C   UNL A   1      32.819  18.178  25.253  1.00  0.00     0.226 C 
ATOM     20  O   UNL A   1      32.509  17.036  25.614  1.00  0.00    -0.274 OA
ATOM     21  H   UNL A   1      32.774  18.820  27.142  1.00  0.00     0.169 HD
BRANCH  19  22
ATOM     22  C   UNL A   1      33.227  18.422  23.788  1.00  0.00     0.072 C 
ATOM     23  C   UNL A   1      33.888  17.236  23.096  1.00  0.00     0.018 C 
ATOM     24  C   UNL A   1      32.152  19.082  22.925  1.00  0.00     0.018 C 
ENDBRANCH  19  22
ENDBRANCH   9  18
ENDBRANCH   7   8
BRANCH   7  25
ATOM     25  N   UNL A   1      32.119  25.583  23.939  1.00  0.00    -0.310 N 
ATOM     26  C   UNL A   1      30.672  25.611  24.113  1.00  0.00     0.325 C 
ATOM     27  C   UNL A   1      32.507  26.255  22.711  1.00  0.00     0.325 C 
ATOM     28  H   UNL A   1      32.363  24.601  23.813  1.00  0.00     0.349 HD
ATOM     29  C   UNL A   1      30.035  27.013  24.013  1.00  0.00     0.325 C 
ATOM     30  C   UNL A   1      32.042  27.700  22.697  1.00  0.00     0.325 C 
ATOM     31  N   UNL A   1      30.658  27.984  23.093  1.00  0.00    -0.318 N 
ATOM     32  H   UNL A   1      30.796  28.820  23.661  1.00  0.00     0.348 HD
BRANCH  31  33
ATOM     33  C   UNL A   1      29.757  28.411  22.014  1.00  0.00     0.364 C 
BRANCH  33  34
ATOM     34  C   UNL A   1      29.144  29.782  22.311  1.00  0.00     0.277 C 
ATOM     35  O   UNL A   1      29.749  30.811  21.995  1.00  0.00    -0.268 OA
ATOM     36  N   UNL A   1      27.966  29.826  23.050  1.00  0.00    -0.344 N 
ATOM     37  C   UNL A   1      26.972  28.765  23.140  1.00  0.00     0.146 C 
ATOM     38  C   UNL A   1      27.646  31.069  23.724  1.00  0.00     0.146 C 
ENDBRANCH  33  34
ENDBRANCH  31  33
ENDBRANCH   7  25
ENDBRANCH   5   7
ENDBRANCH   4   5
ENDBRANCH   3   4
ENDBRANCH   2   3
ENDBRANCH   1   2
BRANCH   1  39
ATOM     39  C   UNL A   1      31.724  31.423  26.366  1.00  0.00     0.202 C 
BRANCH  39  40
ATOM     40  C   UNL A   1      31.682  32.786  27.063  1.00  0.00     0.261 C 
BRANCH  40  41
ATOM     41  O   UNL A   1      33.004  33.333  27.003  1.00  0.00    -0.460 OA
BRANCH  41  42
ATOM     42  C   UNL A   1      33.463  33.650  28.235  1.00  0.00     0.338 C 
ATOM     43  O   UNL A   1      32.866  34.255  29.097  1.00  0.00    -0.246 OA
BRANCH  42  44
ATOM     44  C   UNL A   1      34.721  32.911  28.454  1.00  0.00     0.060 A 
ATOM     45  C   UNL A   1      34.611  31.721  29.179  1.00  0.00     0.016 A 
ATOM     46  C   UNL A   1      35.957  33.339  27.953  1.00  0.00     0.016 A 
ATOM     47  C   UNL A   1      35.750  31.001  29.494  1.00  0.00     0.010 A 
ATOM     48  C   UNL A   1      37.106  32.617  28.272  1.00  0.00     0.010 A 
ATOM     49  C   UNL A   1      37.001  31.485  29.097  1.00  0.00    -0.014 A 
BRANCH  49  50
ATOM     50  C   UNL A   1      38.186  30.928  29.772  1.00  0.00     0.031 A 
ATOM     51  C   UNL A   1      38.445  31.350  31.190  1.00  0.00     0.074 A 
ATOM     52  C   UNL A   1      38.933  29.996  29.160  1.00  0.00     0.049 A 
ATOM     53  N   UNL A   1      39.345  30.921  32.028  1.00  0.00    -0.248 NA
ATOM     54  C   UNL A   1      37.560  32.394  31.741  1.00  0.00     0.031 C 
ATOM     55  C   UNL A   1      38.736  29.523  27.790  1.00  0.00     0.029 A 
ATOM     56  N   UNL A   1      40.009  29.283  29.615  1.00  0.00    -0.354 N 
ATOM     57  C   UNL A   1      39.153  31.652  33.194  1.00  0.00     0.074 A 
ATOM     58  C   UNL A   1      38.059  32.564  32.955  1.00  0.00     0.031 C 
ATOM     59  C   UNL A   1      39.675  28.604  27.509  1.00  0.00     0.029 A 
ATOM     60  C   UNL A   1      40.544  28.443  28.671  1.00  0.00     0.049 A 
ATOM     61  H   UNL A   1      40.362  29.364  30.530  1.00  0.00     0.167 HD
ATOM     62  C   UNL A   1      39.825  31.559  34.364  1.00  0.00     0.034 A 
ATOM     63  C   UNL A   1      41.629  27.648  28.744  1.00  0.00     0.034 A 
ATOM     64  C   UNL A   1      40.905  30.638  34.576  1.00  0.00     0.049 A 
ATOM     65  C   UNL A   1      42.368  27.574  30.054  1.00  0.00     0.074 A 
ATOM     66  C   UNL A   1      41.643  30.425  35.725  1.00  0.00     0.029 A 
ATOM     67  N   UNL A   1      41.417  29.789  33.604  1.00  0.00    -0.354 N 
ATOM     68  N   UNL A   1      42.110  28.191  31.183  1.00  0.00    -0.248 NA
ATOM     69  C   UNL A   1      43.522  26.669  30.112  1.00  0.00     0.031 C 
ATOM     70  C   UNL A   1      42.630  29.477  35.433  1.00  0.00     0.029 A 
ATOM     71  C   UNL A   1      42.477  29.065  34.118  1.00  0.00     0.049 A 
ATOM     72  H   UNL A   1      41.076  29.715  32.684  1.00  0.00     0.167 HD
ATOM     73  C   UNL A   1      43.052  27.732  32.095  1.00  0.00     0.074 A 
ATOM     74  C   UNL A   1      43.865  26.759  31.390  1.00  0.00     0.031 C 
ATOM     75  C   UNL A   1      43.245  28.086  33.391  1.00  0.00     0.034 A 
BRANCH  62  76
ATOM     76  C   UNL A   1      39.415  32.478  35.484  1.00  0.00     0.023 A 
ATOM     77  C   UNL A   1      38.510  32.034  36.472  1.00  0.00     0.012 A 
ATOM     78  C   UNL A   1      39.949  33.777  35.574  1.00  0.00     0.148 A 
ATOM     79  C   UNL A   1      38.125  32.878  37.514  1.00  0.00     0.002 A 
ATOM     80  C   UNL A   1      39.598  34.596  36.641  1.00  0.00     0.091 A 
ATOM     81  F   UNL A   1      40.783  34.192  34.609  1.00  0.00    -0.205 F 
ATOM     82  C   UNL A   1      38.677  34.153  37.603  1.00  0.00     0.022 A 
BRANCH  80  83
ATOM     83  S   UNL A   1      40.309  36.227  36.885  1.00  0.00     0.127 S 
ATOM     84  O   UNL A   1      39.944  36.897  35.637  1.00  0.00    -0.237 OA
ATOM     85  O   UNL A   1      39.584  36.700  38.065  1.00  0.00    -0.237 OA
ATOM     86  O   UNL A   1      41.736  36.021  37.084  1.00  0.00    -0.744 OA
ENDBRANCH  80  83
ENDBRANCH  62  76
BRANCH  63  87
ATOM     87  C   UNL A   1      42.056  26.860  27.556  1.00  0.00     0.023 A 
ATOM     88  C   UNL A   1      42.780  27.476  26.518  1.00  0.00     0.012 A 
ATOM     89  C   UNL A   1      41.770  25.482  27.469  1.00  0.00     0.148 A 
ATOM     90  C   UNL A   1      43.187  26.742  25.403  1.00  0.00     0.002 A 
ATOM     91  C   UNL A   1      42.230  24.745  26.386  1.00  0.00     0.091 A 
ATOM     92  F   UNL A   1      41.066  24.916  28.459  1.00  0.00    -0.205 F 
ATOM     93  C   UNL A   1      42.924  25.376  25.342  1.00  0.00     0.022 A 
BRANCH  91  94
ATOM     94  S   UNL A   1      42.056  22.959  26.297  1.00  0.00     0.127 S 
ATOM     95  O   UNL A   1      40.606  22.797  26.340  1.00  0.00    -0.237 OA
ATOM     96  O   UNL A   1      42.673  22.660  25.004  1.00  0.00    -0.237 OA
ATOM     97  O   UNL A   1      42.787  22.436  27.443  1.00  0.00    -0.744 OA
ENDBRANCH  91  94
ENDBRANCH  63  87
BRANCH  75  98
ATOM     98  C   UNL A   1      44.363  27.400  34.128  1.00  0.00     0.023 A 
ATOM     99  C   UNL A   1      45.655  27.962  34.127  1.00  0.00     0.012 A 
ATOM    100  C   UNL A   1      44.118  26.224  34.863  1.00  0.00     0.148 A 
ATOM    101  C   UNL A   1      46.698  27.336  34.806  1.00  0.00     0.002 A 
ATOM    102  C   UNL A   1      45.149  25.638  35.585  1.00  0.00     0.091 A 
ATOM    103  F   UNL A   1      42.885  25.698  34.838  1.00  0.00    -0.205 F 
ATOM    104  C   UNL A   1      46.443  26.183  35.543  1.00  0.00     0.022 A 
BRANCH 102 105
ATOM    105  S   UNL A   1      44.888  24.213  36.644  1.00  0.00     0.127 S 
ATOM    106  O   UNL A   1      44.187  23.299  35.744  1.00  0.00    -0.237 OA
ATOM    107  O   UNL A   1      46.258  23.816  36.972  1.00  0.00    -0.237 OA
ATOM    108  O   UNL A   1      44.111  24.693  37.778  1.00  0.00    -0.744 OA
ENDBRANCH 102 105
ENDBRANCH  75  98
ENDBRANCH  49  50
ENDBRANCH  42  44
ENDBRANCH  41  42
ENDBRANCH  40  41
ENDBRANCH  39  40
ENDBRANCH   1  39
TORSDOF 23
ENDMDL
MODEL 2
REMARK VINA RESULT:     -11.4      4.602      9.262
REMARK SMILES CC(C)C(=O)Nc1ccc2c([C@H](C(=O)OCCOCCOC(=O)c3ccc(-c4c5nc(c(-c6cccc(S(=O)(=O)[O-])c6F)c6ccc([nH]6)c(-c6cccc(S(=O)(=O)[O-])c6F)c6nc(c(-c7cccc(S(=O)(=O)[O-])c7F)c7ccc4[nH]7)C=C6)C=C5)cc3)[NH+]3CC[NH+](CC(=O)N(C)C)CC3)c[nH]c2c1
REMARK SMILES IDX 18 1 17 2 16 3 15 4 13 5 14 6 12 7 11 8 7 9 8 10 102 11 9 12
REMARK SMILES IDX 101 13 10 14 100 15 99 16 6 18 4 19 5 20 2 22 1 23 3 24
REMARK SMILES IDX 87 25 88 26 98 27 89 29 97 30 90 31 91 33 92 34 93 35 94 36
REMARK SMILES IDX 95 37 96 38 19 39 20 40 21 41 22 42 23 43 24 44 25 45 86 46
REMARK SMILES IDX 26 47 85 48 27 49 28 50 29 51 79 52 30 53 84 54 78 55 80 56
REMARK SMILES IDX 31 57 83 58 77 59 76 60 32 62 64 63 44 64 63 65 45 66 48 67
REMARK SMILES IDX 62 68 81 69 46 70 47 71 61 73 82 74 49 75 33 76 34 77 42 78
REMARK SMILES IDX 35 79 37 80 43 81 36 82 38 83 39 84 40 85 41 86 65 87 66 88
REMARK SMILES IDX 74 89 67 90 69 91 75 92 68 93 70 94 71 95 72 96 73 97 50 98
REMARK SMILES IDX 51 99 59 100 52 101 54 102 60 103 53 104 55 105 56 106
REMARK SMILES IDX 57 107 58 108
REMARK H PARENT 100 17 6 21 87 28 90 32 80 61 48 72
REMARK Flexibility Score: inf
ROOT
ATOM      1  O   UNL A   1      37.104  19.689  25.016  1.00  0.00    -0.374 OA
ENDROOT
BRANCH   1   2
ATOM      2  C   UNL A   1      36.084  20.692  25.019  1.00  0.00     0.202 C 
BRANCH   2   3
ATOM      3  C   UNL A   1      36.471  22.175  24.831  1.00  0.00     0.261 C 
BRANCH   3   4
ATOM      4  O   UNL A   1      35.408  23.130  25.069  1.00  0.00    -0.459 OA
BRANCH   4   5
ATOM      5  C   UNL A   1      34.778  23.616  23.949  1.00  0.00     0.370 C 
ATOM      6  O   UNL A   1      35.296  23.617  22.836  1.00  0.00    -0.245 OA
BRANCH   5   7
ATOM      7  C   UNL A   1      33.393  24.239  24.285  1.00  0.00     0.328 C 
BRANCH   7   8
ATOM      8  C   UNL A   1      33.131  25.469  23.432  1.00  0.00     0.046 A 
ATOM      9  C   UNL A   1      30.872  28.965  23.999  1.00  0.00     0.043 A 
ATOM     10  C   UNL A   1      30.902  28.093  25.076  1.00  0.00     0.027 A 
ATOM     11  C   UNL A   1      31.438  28.609  22.768  1.00  0.00     0.052 A 
ATOM     12  C   UNL A   1      31.646  26.919  25.016  1.00  0.00     0.013 A 
ATOM     13  C   UNL A   1      32.195  27.434  22.729  1.00  0.00     0.048 A 
ATOM     14  C   UNL A   1      32.328  26.591  23.830  1.00  0.00     0.009 A 
ATOM     15  N   UNL A   1      32.934  26.882  21.712  1.00  0.00    -0.361 N 
ATOM     16  C   UNL A   1      33.524  25.721  22.129  1.00  0.00     0.094 A 
ATOM     17  H   UNL A   1      33.026  27.267  20.810  1.00  0.00     0.166 HD
BRANCH   9  18
ATOM     18  N   UNL A   1      30.276  30.221  24.108  1.00  0.00    -0.326 N 
ATOM     19  C   UNL A   1      29.281  30.777  23.359  1.00  0.00     0.226 C 
ATOM     20  O   UNL A   1      29.036  31.976  23.546  1.00  0.00    -0.274 OA
ATOM     21  H   UNL A   1      30.625  30.790  24.833  1.00  0.00     0.169 HD
BRANCH  19  22
ATOM     22  C   UNL A   1      28.402  29.972  22.383  1.00  0.00     0.072 C 
ATOM     23  C   UNL A   1      27.245  29.218  23.029  1.00  0.00     0.018 C 
ATOM     24  C   UNL A   1      27.981  30.730  21.125  1.00  0.00     0.018 C 
ENDBRANCH  19  22
ENDBRANCH   9  18
ENDBRANCH   7   8
BRANCH   7  25
ATOM     25  N   UNL A   1      32.204  23.376  24.049  1.00  0.00    -0.310 N 
ATOM     26  C   UNL A   1      32.176  22.575  22.831  1.00  0.00     0.325 C 
ATOM     27  C   UNL A   1      31.688  22.623  25.177  1.00  0.00     0.325 C 
ATOM     28  H   UNL A   1      31.545  24.139  23.892  1.00  0.00     0.349 HD
ATOM     29  C   UNL A   1      32.860  21.196  22.949  1.00  0.00     0.325 C 
ATOM     30  C   UNL A   1      32.486  21.353  25.412  1.00  0.00     0.325 C 
ATOM     31  N   UNL A   1      32.795  20.509  24.253  1.00  0.00    -0.318 N 
ATOM     32  H   UNL A   1      33.763  20.261  24.457  1.00  0.00     0.348 HD
BRANCH  31  33
ATOM     33  C   UNL A   1      32.086  19.223  24.189  1.00  0.00     0.364 C 
BRANCH  33  34
ATOM     34  C   UNL A   1      32.836  18.136  24.962  1.00  0.00     0.277 C 
ATOM     35  O   UNL A   1      32.692  18.036  26.185  1.00  0.00    -0.268 OA
ATOM     36  N   UNL A   1      33.766  17.363  24.272  1.00  0.00    -0.344 N 
ATOM     37  C   UNL A   1      33.759  17.094  22.841  1.00  0.00     0.146 C 
ATOM     38  C   UNL A   1      34.785  16.690  25.051  1.00  0.00     0.146 C 
ENDBRANCH  33  34
ENDBRANCH  31  33
ENDBRANCH   7  25
ENDBRANCH   5   7
ENDBRANCH   4   5
ENDBRANCH   3   4
ENDBRANCH   2   3
ENDBRANCH   1   2
BRANCH   1  39
ATOM     39  C   UNL A   1      38.384  20.185  25.378  1.00  0.00     0.202 C 
BRANCH  39  40
ATOM     40  C   UNL A   1      39.494  19.132  25.458  1.00  0.00     0.261 C 
BRANCH  40  41
ATOM     41  O   UNL A   1      40.305  19.457  26.593  1.00  0.00    -0.460 OA
BRANCH  41  42
ATOM     42  C   UNL A   1      41.526  19.900  26.216  1.00  0.00     0.338 C 
ATOM     43  O   UNL A   1      42.290  19.354  25.452  1.00  0.00    -0.246 OA
BRANCH  42  44
ATOM     44  C   UNL A   1      41.669  21.290  26.688  1.00  0.00     0.060 A 
ATOM     45  C   UNL A   1      41.248  22.282  25.799  1.00  0.00     0.016 A 
ATOM     46  C   UNL A   1      42.169  21.620  27.954  1.00  0.00     0.016 A 
ATOM     47  C   UNL A   1      41.413  23.616  26.130  1.00  0.00     0.010 A 
ATOM     48  C   UNL A   1      42.340  22.962  28.288  1.00  0.00     0.010 A 
ATOM     49  C   UNL A   1      42.020  23.952  27.345  1.00  0.00    -0.014 A 
BRANCH  49  50
ATOM     50  C   UNL A   1      42.532  25.326  27.486  1.00  0.00     0.031 A 
ATOM     51  C   UNL A   1      41.646  26.337  28.156  1.00  0.00     0.074 A 
ATOM     52  C   UNL A   1      43.790  25.618  27.118  1.00  0.00     0.049 A 
ATOM     53  N   UNL A   1      41.906  27.567  28.496  1.00  0.00    -0.248 NA
ATOM     54  C   UNL A   1      40.280  25.895  28.498  1.00  0.00     0.031 C 
ATOM     55  C   UNL A   1      44.716  24.687  26.474  1.00  0.00     0.029 A 
ATOM     56  N   UNL A   1      44.500  26.780  27.232  1.00  0.00    -0.354 N 
ATOM     57  C   UNL A   1      40.738  28.054  29.070  1.00  0.00     0.074 A 
ATOM     58  C   UNL A   1      39.759  26.993  29.021  1.00  0.00     0.031 C 
ATOM     59  C   UNL A   1      45.875  25.323  26.236  1.00  0.00     0.029 A 
ATOM     60  C   UNL A   1      45.760  26.705  26.693  1.00  0.00     0.049 A 
ATOM     61  H   UNL A   1      44.143  27.591  27.662  1.00  0.00     0.167 HD
ATOM     62  C   UNL A   1      40.510  29.277  29.602  1.00  0.00     0.034 A 
ATOM     63  C   UNL A   1      46.702  27.660  26.572  1.00  0.00     0.034 A 
ATOM     64  C   UNL A   1      41.503  30.312  29.642  1.00  0.00     0.049 A 
ATOM     65  C   UNL A   1      46.417  29.017  27.158  1.00  0.00     0.074 A 
ATOM     66  C   UNL A   1      41.406  31.580  30.182  1.00  0.00     0.029 A 
ATOM     67  N   UNL A   1      42.776  30.201  29.098  1.00  0.00    -0.354 N 
ATOM     68  N   UNL A   1      45.347  29.433  27.794  1.00  0.00    -0.248 NA
ATOM     69  C   UNL A   1      47.479  30.024  27.044  1.00  0.00     0.031 C 
ATOM     70  C   UNL A   1      42.607  32.251  29.926  1.00  0.00     0.029 A 
ATOM     71  C   UNL A   1      43.469  31.385  29.269  1.00  0.00     0.049 A 
ATOM     72  H   UNL A   1      43.133  29.397  28.656  1.00  0.00     0.167 HD
ATOM     73  C   UNL A   1      45.614  30.740  28.180  1.00  0.00     0.074 A 
ATOM     74  C   UNL A   1      46.962  31.033  27.732  1.00  0.00     0.031 C 
ATOM     75  C   UNL A   1      44.820  31.629  28.832  1.00  0.00     0.034 A 
BRANCH  62  76
ATOM     76  C   UNL A   1      39.141  29.554  30.164  1.00  0.00     0.023 A 
ATOM     77  C   UNL A   1      38.814  29.141  31.473  1.00  0.00     0.012 A 
ATOM     78  C   UNL A   1      38.183  30.251  29.403  1.00  0.00     0.148 A 
ATOM     79  C   UNL A   1      37.548  29.393  32.003  1.00  0.00     0.002 A 
ATOM     80  C   UNL A   1      36.941  30.541  29.954  1.00  0.00     0.091 A 
ATOM     81  F   UNL A   1      38.501  30.607  28.150  1.00  0.00    -0.205 F 
ATOM     82  C   UNL A   1      36.617  30.102  31.248  1.00  0.00     0.022 A 
BRANCH  80  83
ATOM     83  S   UNL A   1      35.700  31.509  29.090  1.00  0.00     0.127 S 
ATOM     84  O   UNL A   1      35.160  30.526  28.151  1.00  0.00    -0.237 OA
ATOM     85  O   UNL A   1      34.791  31.877  30.176  1.00  0.00    -0.237 OA
ATOM     86  O   UNL A   1      36.409  32.625  28.481  1.00  0.00    -0.744 OA
ENDBRANCH  80  83
ENDBRANCH  62  76
BRANCH  63  87
ATOM     87  C   UNL A   1      47.989  27.355  25.889  1.00  0.00     0.023 A 
ATOM     88  C   UNL A   1      49.071  26.828  26.618  1.00  0.00     0.012 A 
ATOM     89  C   UNL A   1      48.131  27.558  24.501  1.00  0.00     0.148 A 
ATOM     90  C   UNL A   1      50.280  26.536  25.984  1.00  0.00     0.002 A 
ATOM     91  C   UNL A   1      49.315  27.209  23.866  1.00  0.00     0.091 A 
ATOM     92  F   UNL A   1      47.095  28.075  23.827  1.00  0.00    -0.205 F 
ATOM     93  C   UNL A   1      50.398  26.714  24.608  1.00  0.00     0.022 A 
BRANCH  91  94
ATOM     94  S   UNL A   1      49.502  27.275  22.081  1.00  0.00     0.127 S 
ATOM     95  O   UNL A   1      50.939  27.070  21.923  1.00  0.00    -0.237 OA
ATOM     96  O   UNL A   1      48.667  26.154  21.648  1.00  0.00    -0.237 OA
ATOM     97  O   UNL A   1      49.000  28.583  21.682  1.00  0.00    -0.744 OA
ENDBRANCH  91  94
ENDBRANCH  63  87
BRANCH  75  98
ATOM     98  C   UNL A   1      45.403  32.988  29.112  1.00  0.00     0.023 A 
ATOM     99  C   UNL A   1      45.229  34.033  28.183  1.00  0.00     0.012 A 
ATOM    100  C   UNL A   1      46.079  33.239  30.322  1.00  0.00     0.148 A 
ATOM    101  C   UNL A   1      45.764  35.295  28.432  1.00  0.00     0.002 A 
ATOM    102  C   UNL A   1      46.557  34.515  30.588  1.00  0.00     0.091 A 
ATOM    103  F   UNL A   1      46.245  32.227  31.185  1.00  0.00    -0.205 F 
ATOM    104  C   UNL A   1      46.417  35.539  29.637  1.00  0.00     0.022 A 
BRANCH 102 105
ATOM    105  S   UNL A   1      47.316  34.945  32.157  1.00  0.00     0.127 S 
ATOM    106  O   UNL A   1      48.411  33.978  32.231  1.00  0.00    -0.237 OA
ATOM    107  O   UNL A   1      47.737  36.327  31.928  1.00  0.00    -0.237 OA
ATOM    108  O   UNL A   1      46.275  34.789  33.163  1.00  0.00    -0.744 OA
ENDBRANCH 102 105
ENDBRANCH  75  98
ENDBRANCH  49  50
ENDBRANCH  42  44
ENDBRANCH  41  42
ENDBRANCH  40  41
ENDBRANCH  39  40
ENDBRANCH   1  39
TORSDOF 23
ENDMDL
MODEL 3
REMARK VINA RESULT:     -11.1      1.553      5.385
REMARK SMILES CC(C)C(=O)Nc1ccc2c([C@H](C(=O)OCCOCCOC(=O)c3ccc(-c4c5nc(c(-c6cccc(S(=O)(=O)[O-])c6F)c6ccc([nH]6)c(-c6cccc(S(=O)(=O)[O-])c6F)c6nc(c(-c7cccc(S(=O)(=O)[O-])c7F)c7ccc4[nH]7)C=C6)C=C5)cc3)[NH+]3CC[NH+](CC(=O)N(C)C)CC3)c[nH]c2c1
REMARK SMILES IDX 18 1 17 2 16 3 15 4 13 5 14 6 12 7 11 8 7 9 8 10 102 11 9 12
REMARK SMILES IDX 101 13 10 14 100 15 99 16 6 18 4 19 5 20 2 22 1 23 3 24
REMARK SMILES IDX 87 25 88 26 98 27 89 29 97 30 90 31 91 33 92 34 93 35 94 36
REMARK SMILES IDX 95 37 96 38 19 39 20 40 21 41 22 42 23 43 24 44 25 45 86 46
REMARK SMILES IDX 26 47 85 48 27 49 28 50 29 51 79 52 30 53 84 54 78 55 80 56
REMARK SMILES IDX 31 57 83 58 77 59 76 60 32 62 64 63 44 64 63 65 45 66 48 67
REMARK SMILES IDX 62 68 81 69 46 70 47 71 61 73 82 74 49 75 33 76 34 77 42 78
REMARK SMILES IDX 35 79 37 80 43 81 36 82 38 83 39 84 40 85 41 86 65 87 66 88
REMARK SMILES IDX 74 89 67 90 69 91 75 92 68 93 70 94 71 95 72 96 73 97 50 98
REMARK SMILES IDX 51 99 59 100 52 101 54 102 60 103 53 104 55 105 56 106
REMARK SMILES IDX 57 107 58 108
REMARK H PARENT 100 17 6 21 87 28 90 32 80 61 48 72
REMARK Flexibility Score: inf
ROOT
ATOM      1  O   UNL A   1      32.487  29.328  26.211  1.00  0.00    -0.374 OA
ENDROOT
BRANCH   1   2
ATOM      2  C   UNL A   1      31.688  28.242  26.689  1.00  0.00     0.202 C 
BRANCH   2   3
ATOM      3  C   UNL A   1      32.342  26.865  26.941  1.00  0.00     0.261 C 
BRANCH   3   4
ATOM      4  O   UNL A   1      32.136  25.879  25.900  1.00  0.00    -0.459 OA
BRANCH   4   5
ATOM      5  C   UNL A   1      30.851  25.414  25.761  1.00  0.00     0.370 C 
ATOM      6  O   UNL A   1      30.186  24.992  26.703  1.00  0.00    -0.245 OA
BRANCH   5   7
ATOM      7  C   UNL A   1      30.394  25.401  24.275  1.00  0.00     0.328 C 
BRANCH   7   8
ATOM      8  C   UNL A   1      30.853  26.659  23.556  1.00  0.00     0.046 A 
ATOM      9  C   UNL A   1      28.831  29.878  21.767  1.00  0.00     0.043 A 
ATOM     10  C   UNL A   1      28.023  28.938  22.389  1.00  0.00     0.027 A 
ATOM     11  C   UNL A   1      30.208  29.666  21.628  1.00  0.00     0.052 A 
ATOM     12  C   UNL A   1      28.584  27.847  23.045  1.00  0.00     0.013 A 
ATOM     13  C   UNL A   1      30.757  28.572  22.307  1.00  0.00     0.048 A 
ATOM     14  C   UNL A   1      29.980  27.670  23.027  1.00  0.00     0.009 A 
ATOM     15  N   UNL A   1      32.063  28.166  22.434  1.00  0.00    -0.361 N 
ATOM     16  C   UNL A   1      32.137  27.039  23.205  1.00  0.00     0.094 A 
ATOM     17  H   UNL A   1      32.836  28.622  22.029  1.00  0.00     0.166 HD
BRANCH   9  18
ATOM     18  N   UNL A   1      28.295  31.061  21.261  1.00  0.00    -0.326 N 
ATOM     19  C   UNL A   1      28.269  32.309  21.814  1.00  0.00     0.226 C 
ATOM     20  O   UNL A   1      27.584  33.166  21.240  1.00  0.00    -0.274 OA
ATOM     21  H   UNL A   1      27.873  30.986  20.374  1.00  0.00     0.169 HD
BRANCH  19  22
ATOM     22  C   UNL A   1      29.114  32.712  23.036  1.00  0.00     0.072 C 
ATOM     23  C   UNL A   1      29.153  34.208  23.329  1.00  0.00     0.018 C 
ATOM     24  C   UNL A   1      28.868  31.874  24.290  1.00  0.00     0.018 C 
ENDBRANCH  19  22
ENDBRANCH   9  18
ENDBRANCH   7   8
BRANCH   7  25
ATOM     25  N   UNL A   1      30.918  24.293  23.431  1.00  0.00    -0.310 N 
ATOM     26  C   UNL A   1      32.047  24.579  22.554  1.00  0.00     0.325 C 
ATOM     27  C   UNL A   1      31.062  22.989  24.053  1.00  0.00     0.325 C 
ATOM     28  H   UNL A   1      30.104  24.226  22.820  1.00  0.00     0.349 HD
ATOM     29  C   UNL A   1      33.434  24.419  23.212  1.00  0.00     0.325 C 
ATOM     30  C   UNL A   1      32.343  22.896  24.863  1.00  0.00     0.325 C 
ATOM     31  N   UNL A   1      33.585  23.377  24.247  1.00  0.00    -0.318 N 
ATOM     32  H   UNL A   1      34.007  23.865  25.037  1.00  0.00     0.348 HD
BRANCH  31  33
ATOM     33  C   UNL A   1      34.562  22.343  23.881  1.00  0.00     0.364 C 
BRANCH  33  34
ATOM     34  C   UNL A   1      35.850  22.481  24.697  1.00  0.00     0.277 C 
ATOM     35  O   UNL A   1      36.251  23.600  25.034  1.00  0.00    -0.268 OA
ATOM     36  N   UNL A   1      36.604  21.336  24.930  1.00  0.00    -0.344 N 
ATOM     37  C   UNL A   1      36.099  19.970  24.955  1.00  0.00     0.146 C 
ATOM     38  C   UNL A   1      38.002  21.513  25.266  1.00  0.00     0.146 C 
ENDBRANCH  33  34
ENDBRANCH  31  33
ENDBRANCH   7  25
ENDBRANCH   5   7
ENDBRANCH   4   5
ENDBRANCH   3   4
ENDBRANCH   2   3
ENDBRANCH   1   2
BRANCH   1  39
ATOM     39  C   UNL A   1      31.722  30.404  25.688  1.00  0.00     0.202 C 
BRANCH  39  40
ATOM     40  C   UNL A   1      31.724  31.679  26.538  1.00  0.00     0.261 C 
BRANCH  40  41
ATOM     41  O   UNL A   1      32.673  31.483  27.592  1.00  0.00    -0.460 OA
BRANCH  41  42
ATOM     42  C   UNL A   1      33.460  32.572  27.755  1.00  0.00     0.338 C 
ATOM     43  O   UNL A   1      33.093  33.721  27.866  1.00  0.00    -0.246 OA
BRANCH  42  44
ATOM     44  C   UNL A   1      34.830  32.103  28.036  1.00  0.00     0.060 A 
ATOM     45  C   UNL A   1      34.974  30.726  28.236  1.00  0.00     0.016 A 
ATOM     46  C   UNL A   1      35.938  32.958  28.080  1.00  0.00     0.016 A 
ATOM     47  C   UNL A   1      36.211  30.208  28.576  1.00  0.00     0.010 A 
ATOM     48  C   UNL A   1      37.184  32.439  28.427  1.00  0.00     0.010 A 
ATOM     49  C   UNL A   1      37.299  31.074  28.737  1.00  0.00    -0.014 A 
BRANCH  49  50
ATOM     50  C   UNL A   1      38.468  30.560  29.470  1.00  0.00     0.031 A 
ATOM     51  C   UNL A   1      38.629  30.973  30.905  1.00  0.00     0.074 A 
ATOM     52  C   UNL A   1      39.289  29.670  28.890  1.00  0.00     0.049 A 
ATOM     53  N   UNL A   1      39.501  30.573  31.787  1.00  0.00    -0.248 NA
ATOM     54  C   UNL A   1      37.670  31.969  31.418  1.00  0.00     0.031 C 
ATOM     55  C   UNL A   1      39.189  29.208  27.506  1.00  0.00     0.029 A 
ATOM     56  N   UNL A   1      40.368  28.999  29.396  1.00  0.00    -0.354 N 
ATOM     57  C   UNL A   1      39.212  31.278  32.948  1.00  0.00     0.074 A 
ATOM     58  C   UNL A   1      38.094  32.145  32.659  1.00  0.00     0.031 C 
ATOM     59  C   UNL A   1      40.181  28.335  27.267  1.00  0.00     0.029 A 
ATOM     60  C   UNL A   1      40.992  28.196  28.473  1.00  0.00     0.049 A 
ATOM     61  H   UNL A   1      40.667  29.083  30.330  1.00  0.00     0.167 HD
ATOM     62  C   UNL A   1      39.822  31.199  34.153  1.00  0.00     0.034 A 
ATOM     63  C   UNL A   1      42.105  27.449  28.598  1.00  0.00     0.034 A 
ATOM     64  C   UNL A   1      40.930  30.324  34.415  1.00  0.00     0.049 A 
ATOM     65  C   UNL A   1      42.774  27.389  29.945  1.00  0.00     0.074 A 
ATOM     66  C   UNL A   1      41.612  30.127  35.600  1.00  0.00     0.029 A 
ATOM     67  N   UNL A   1      41.532  29.511  33.463  1.00  0.00    -0.354 N 
ATOM     68  N   UNL A   1      42.427  27.979  31.066  1.00  0.00    -0.248 NA
ATOM     69  C   UNL A   1      43.962  26.535  30.058  1.00  0.00     0.031 C 
ATOM     70  C   UNL A   1      42.655  29.227  35.353  1.00  0.00     0.029 A 
ATOM     71  C   UNL A   1      42.593  28.827  34.026  1.00  0.00     0.049 A 
ATOM     72  H   UNL A   1      41.245  29.435  32.524  1.00  0.00     0.167 HD
ATOM     73  C   UNL A   1      43.337  27.549  32.023  1.00  0.00     0.074 A 
ATOM     74  C   UNL A   1      44.231  26.623  31.353  1.00  0.00     0.031 C 
ATOM     75  C   UNL A   1      43.442  27.893  33.332  1.00  0.00     0.034 A 
BRANCH  62  76
ATOM     76  C   UNL A   1      39.311  32.083  35.259  1.00  0.00     0.023 A 
ATOM     77  C   UNL A   1      38.322  31.609  36.147  1.00  0.00     0.012 A 
ATOM     78  C   UNL A   1      39.833  33.378  35.437  1.00  0.00     0.148 A 
ATOM     79  C   UNL A   1      37.843  32.421  37.175  1.00  0.00     0.002 A 
ATOM     80  C   UNL A   1      39.385  34.164  36.492  1.00  0.00     0.091 A 
ATOM     81  F   UNL A   1      40.749  33.822  34.564  1.00  0.00    -0.205 F 
ATOM     82  C   UNL A   1      38.381  33.693  37.353  1.00  0.00     0.022 A 
BRANCH  80  83
ATOM     83  S   UNL A   1      40.067  35.787  36.849  1.00  0.00     0.127 S 
ATOM     84  O   UNL A   1      41.495  35.489  36.959  1.00  0.00    -0.237 OA
ATOM     85  O   UNL A   1      39.692  36.544  35.654  1.00  0.00    -0.237 OA
ATOM     86  O   UNL A   1      39.430  36.232  38.080  1.00  0.00    -0.744 OA
ENDBRANCH  80  83
ENDBRANCH  62  76
BRANCH  63  87
ATOM     87  C   UNL A   1      42.632  26.697  27.426  1.00  0.00     0.023 A 
ATOM     88  C   UNL A   1      43.480  27.330  26.499  1.00  0.00     0.012 A 
ATOM     89  C   UNL A   1      42.315  25.334  27.247  1.00  0.00     0.148 A 
ATOM     90  C   UNL A   1      43.980  26.629  25.400  1.00  0.00     0.002 A 
ATOM     91  C   UNL A   1      42.864  24.628  26.186  1.00  0.00     0.091 A 
ATOM     92  F   UNL A   1      41.493  24.753  28.131  1.00  0.00    -0.205 F 
ATOM     93  C   UNL A   1      43.684  25.277  25.250  1.00  0.00     0.022 A 
BRANCH  91  94
ATOM     94  S   UNL A   1      42.647  22.855  25.998  1.00  0.00     0.127 S 
ATOM     95  O   UNL A   1      41.201  22.713  26.145  1.00  0.00    -0.237 OA
ATOM     96  O   UNL A   1      43.155  22.630  24.644  1.00  0.00    -0.237 OA
ATOM     97  O   UNL A   1      43.453  22.247  27.048  1.00  0.00    -0.744 OA
ENDBRANCH  91  94
ENDBRANCH  63  87
BRANCH  75  98
ATOM     98  C   UNL A   1      44.548  27.247  34.122  1.00  0.00     0.023 A 
ATOM     99  C   UNL A   1      45.821  27.848  34.171  1.00  0.00     0.012 A 
ATOM    100  C   UNL A   1      44.307  26.069  34.856  1.00  0.00     0.148 A 
ATOM    101  C   UNL A   1      46.852  27.259  34.899  1.00  0.00     0.002 A 
ATOM    102  C   UNL A   1      45.323  25.520  35.626  1.00  0.00     0.091 A 
ATOM    103  F   UNL A   1      43.092  25.506  34.783  1.00  0.00    -0.205 F 
ATOM    104  C   UNL A   1      46.601  26.103  35.635  1.00  0.00     0.022 A 
BRANCH 102 105
ATOM    105  S   UNL A   1      45.060  24.096  36.686  1.00  0.00     0.127 S 
ATOM    106  O   UNL A   1      46.411  23.839  37.180  1.00  0.00    -0.237 OA
ATOM    107  O   UNL A   1      44.133  24.623  37.688  1.00  0.00    -0.237 OA
ATOM    108  O   UNL A   1      44.499  23.058  35.831  1.00  0.00    -0.744 OA
ENDBRANCH 102 105
ENDBRANCH  75  98
ENDBRANCH  49  50
ENDBRANCH  42  44
ENDBRANCH  41  42
ENDBRANCH  40  41
ENDBRANCH  39  40
ENDBRANCH   1  39
TORSDOF 23
ENDMDL
