MODEL 1
REMARK VINA RESULT:     -10.4      0.000      0.000
REMARK SMILES O=C(OCCOCCOC(=O)[C@@H](Cc1ccccc1Br)CC(F)(F)F)c1ccc(-c2c3nc(c(-c4cccc(S(=O)(=O)[O-])c4F)c4ccc([nH]4)c(-c4cccc(S(=O)(=O)[O-])c4F)c4nc(c(-c5cccc(S(=O)(=O)[O-])c5F)c5ccc2[nH]5)C=C4)C=C3)cc1
REMARK SMILES IDX 5 1 4 2 3 3 2 4 1 5 26 6 27 7 88 8 28 9 87 10 29 11 30 12
REMARK SMILES IDX 31 13 81 14 32 15 86 16 80 17 82 18 33 19 85 20 79 21 78 22
REMARK SMILES IDX 34 24 66 25 46 26 65 27 47 28 50 29 64 30 83 31 48 32 49 33
REMARK SMILES IDX 63 35 84 36 51 37 35 38 36 39 44 40 37 41 39 42 45 43 38 44
REMARK SMILES IDX 40 45 41 46 42 47 43 48 67 49 68 50 76 51 69 52 71 53 77 54
REMARK SMILES IDX 70 55 72 56 73 57 74 58 75 59 52 60 53 61 61 62 54 63 56 64
REMARK SMILES IDX 62 65 55 66 57 67 58 68 59 69 60 70 6 71 7 72 8 73 9 74
REMARK SMILES IDX 10 75 11 76 12 77 13 78 14 79 15 80 19 81 16 82 18 83 20 84
REMARK SMILES IDX 17 85 21 86 22 87 23 88 24 89 25 90
REMARK H PARENT 82 23 50 34
REMARK Flexibility Score: inf
ROOT
ATOM      1  C   UNL A   1      34.999  21.403  24.675  1.00  0.00     0.202 C 
ENDROOT
BRANCH   1   2
ATOM      2  C   UNL A   1      36.335  20.739  25.049  1.00  0.00     0.261 C 
BRANCH   2   3
ATOM      3  O   UNL A   1      37.164  21.636  25.808  1.00  0.00    -0.460 OA
BRANCH   3   4
ATOM      4  C   UNL A   1      38.500  21.547  26.027  1.00  0.00     0.338 C 
ATOM      5  O   UNL A   1      39.033  20.440  25.985  1.00  0.00    -0.246 OA
BRANCH   4   6
ATOM      6  C   UNL A   1      39.338  22.731  26.377  1.00  0.00     0.060 A 
ATOM      7  C   UNL A   1      39.136  23.996  25.839  1.00  0.00     0.016 A 
ATOM      8  C   UNL A   1      40.320  22.601  27.370  1.00  0.00     0.016 A 
ATOM      9  C   UNL A   1      39.804  25.108  26.267  1.00  0.00     0.010 A 
ATOM     10  C   UNL A   1      41.025  23.726  27.820  1.00  0.00     0.010 A 
ATOM     11  C   UNL A   1      40.734  24.980  27.277  1.00  0.00    -0.014 A 
BRANCH  11  12
ATOM     12  C   UNL A   1      41.421  26.226  27.595  1.00  0.00     0.031 A 
ATOM     13  C   UNL A   1      40.703  27.196  28.467  1.00  0.00     0.074 A 
ATOM     14  C   UNL A   1      42.737  26.310  27.332  1.00  0.00     0.049 A 
ATOM     15  N   UNL A   1      41.101  28.355  28.897  1.00  0.00    -0.248 NA
ATOM     16  C   UNL A   1      39.369  26.790  28.953  1.00  0.00     0.031 C 
ATOM     17  C   UNL A   1      43.537  25.263  26.681  1.00  0.00     0.029 A 
ATOM     18  N   UNL A   1      43.642  27.292  27.611  1.00  0.00    -0.354 N 
ATOM     19  C   UNL A   1      40.039  28.857  29.631  1.00  0.00     0.074 A 
ATOM     20  C   UNL A   1      39.001  27.855  29.650  1.00  0.00     0.031 C 
ATOM     21  C   UNL A   1      44.811  25.675  26.591  1.00  0.00     0.029 A 
ATOM     22  C   UNL A   1      44.891  27.037  27.097  1.00  0.00     0.049 A 
ATOM     23  H   UNL A   1      43.422  28.101  28.127  1.00  0.00     0.167 HD
ATOM     24  C   UNL A   1      39.948  30.077  30.199  1.00  0.00     0.034 A 
ATOM     25  C   UNL A   1      45.948  27.860  26.990  1.00  0.00     0.034 A 
ATOM     26  C   UNL A   1      41.018  31.029  30.147  1.00  0.00     0.049 A 
ATOM     27  C   UNL A   1      45.779  29.249  27.544  1.00  0.00     0.074 A 
ATOM     28  C   UNL A   1      41.043  32.326  30.616  1.00  0.00     0.029 A 
ATOM     29  N   UNL A   1      42.256  30.779  29.569  1.00  0.00    -0.354 N 
ATOM     30  N   UNL A   1      44.760  29.752  28.205  1.00  0.00    -0.248 NA
ATOM     31  C   UNL A   1      46.890  30.183  27.345  1.00  0.00     0.031 C 
ATOM     32  C   UNL A   1      42.286  32.873  30.283  1.00  0.00     0.029 A 
ATOM     33  C   UNL A   1      43.051  31.903  29.650  1.00  0.00     0.049 A 
ATOM     34  H   UNL A   1      42.527  29.924  29.161  1.00  0.00     0.167 HD
ATOM     35  C   UNL A   1      45.115  31.054  28.521  1.00  0.00     0.074 A 
ATOM     36  C   UNL A   1      46.459  31.249  28.006  1.00  0.00     0.031 C 
ATOM     37  C   UNL A   1      44.401  32.014  29.158  1.00  0.00     0.034 A 
BRANCH  24  38
ATOM     38  C   UNL A   1      38.632  30.458  30.806  1.00  0.00     0.023 A 
ATOM     39  C   UNL A   1      38.328  30.132  32.141  1.00  0.00     0.012 A 
ATOM     40  C   UNL A   1      37.683  31.144  30.023  1.00  0.00     0.148 A 
ATOM     41  C   UNL A   1      37.087  30.469  32.683  1.00  0.00     0.002 A 
ATOM     42  C   UNL A   1      36.468  31.514  30.582  1.00  0.00     0.091 A 
ATOM     43  F   UNL A   1      37.982  31.403  28.743  1.00  0.00    -0.205 F 
ATOM     44  C   UNL A   1      36.163  31.168  31.908  1.00  0.00     0.022 A 
BRANCH  42  45
ATOM     45  S   UNL A   1      35.240  32.465  29.682  1.00  0.00     0.127 S 
ATOM     46  O   UNL A   1      34.829  31.515  28.648  1.00  0.00    -0.237 OA
ATOM     47  O   UNL A   1      34.237  32.714  30.718  1.00  0.00    -0.237 OA
ATOM     48  O   UNL A   1      35.925  33.652  29.190  1.00  0.00    -0.744 OA
ENDBRANCH  42  45
ENDBRANCH  24  38
BRANCH  25  49
ATOM     49  C   UNL A   1      47.188  27.438  26.278  1.00  0.00     0.023 A 
ATOM     50  C   UNL A   1      47.361  27.747  24.917  1.00  0.00     0.012 A 
ATOM     51  C   UNL A   1      48.194  26.702  26.942  1.00  0.00     0.148 A 
ATOM     52  C   UNL A   1      48.483  27.293  24.219  1.00  0.00     0.002 A 
ATOM     53  C   UNL A   1      49.336  26.304  26.258  1.00  0.00     0.091 A 
ATOM     54  F   UNL A   1      48.011  26.393  28.234  1.00  0.00    -0.205 F 
ATOM     55  C   UNL A   1      49.473  26.579  24.890  1.00  0.00     0.022 A 
BRANCH  53  56
ATOM     56  S   UNL A   1      50.709  25.486  27.080  1.00  0.00     0.127 S 
ATOM     57  O   UNL A   1      51.622  25.243  25.966  1.00  0.00    -0.237 OA
ATOM     58  O   UNL A   1      51.151  26.510  28.027  1.00  0.00    -0.237 OA
ATOM     59  O   UNL A   1      50.138  24.302  27.708  1.00  0.00    -0.744 OA
ENDBRANCH  53  56
ENDBRANCH  25  49
BRANCH  37  60
ATOM     60  C   UNL A   1      45.082  33.335  29.367  1.00  0.00     0.023 A 
ATOM     61  C   UNL A   1      45.871  33.546  30.514  1.00  0.00     0.012 A 
ATOM     62  C   UNL A   1      45.009  34.326  28.372  1.00  0.00     0.148 A 
ATOM     63  C   UNL A   1      46.555  34.746  30.681  1.00  0.00     0.002 A 
ATOM     64  C   UNL A   1      45.742  35.493  28.517  1.00  0.00     0.091 A 
ATOM     65  F   UNL A   1      44.234  34.102  27.300  1.00  0.00    -0.205 F 
ATOM     66  C   UNL A   1      46.504  35.712  29.678  1.00  0.00     0.022 A 
BRANCH  64  67
ATOM     67  S   UNL A   1      45.830  36.732  27.223  1.00  0.00     0.127 S 
ATOM     68  O   UNL A   1      46.291  35.939  26.085  1.00  0.00    -0.237 OA
ATOM     69  O   UNL A   1      44.442  37.183  27.132  1.00  0.00    -0.237 OA
ATOM     70  O   UNL A   1      46.765  37.744  27.697  1.00  0.00    -0.744 OA
ENDBRANCH  64  67
ENDBRANCH  37  60
ENDBRANCH  11  12
ENDBRANCH   4   6
ENDBRANCH   3   4
ENDBRANCH   2   3
ENDBRANCH   1   2
BRANCH   1  71
ATOM     71  O   UNL A   1      33.838  20.580  24.549  1.00  0.00    -0.374 OA
BRANCH  71  72
ATOM     72  C   UNL A   1      32.598  21.204  24.211  1.00  0.00     0.202 C 
BRANCH  72  73
ATOM     73  C   UNL A   1      31.714  21.435  25.448  1.00  0.00     0.261 C 
BRANCH  73  74
ATOM     74  O   UNL A   1      32.241  22.481  26.288  1.00  0.00    -0.463 OA
BRANCH  74  75
ATOM     75  C   UNL A   1      31.392  23.490  26.596  1.00  0.00     0.309 C 
ATOM     76  O   UNL A   1      30.503  23.440  27.427  1.00  0.00    -0.252 OA
BRANCH  75  77
ATOM     77  C   UNL A   1      31.627  24.718  25.731  1.00  0.00     0.112 C 
BRANCH  77  78
ATOM     78  C   UNL A   1      33.054  25.007  25.174  1.00  0.00     0.052 C 
BRANCH  78  79
ATOM     79  C   UNL A   1      33.420  26.245  24.358  1.00  0.00    -0.033 A 
ATOM     80  C   UNL A   1      33.620  27.486  24.978  1.00  0.00     0.005 A 
ATOM     81  C   UNL A   1      33.426  26.276  22.951  1.00  0.00     0.021 A 
ATOM     82  C   UNL A   1      33.913  28.667  24.291  1.00  0.00     0.000 A 
ATOM     83  C   UNL A   1      33.722  27.459  22.244  1.00  0.00     0.016 A 
ATOM     84  Br  UNL A   1      32.965  24.771  21.882  1.00  0.00    -0.051 Br
ATOM     85  C   UNL A   1      33.985  28.649  22.915  1.00  0.00     0.001 A 
ENDBRANCH  78  79
ENDBRANCH  77  78
BRANCH  77  86
ATOM     86  C   UNL A   1      30.519  24.877  24.692  1.00  0.00     0.131 C 
BRANCH  86  87
ATOM     87  C   UNL A   1      29.909  26.269  24.702  1.00  0.00     0.389 C 
ATOM     88  F   UNL A   1      30.371  26.999  25.738  1.00  0.00    -0.171 F 
ATOM     89  F   UNL A   1      30.238  26.926  23.566  1.00  0.00    -0.171 F 
ATOM     90  F   UNL A   1      28.565  26.231  24.771  1.00  0.00    -0.171 F 
ENDBRANCH  86  87
ENDBRANCH  77  86
ENDBRANCH  75  77
ENDBRANCH  74  75
ENDBRANCH  73  74
ENDBRANCH  72  73
ENDBRANCH  71  72
ENDBRANCH   1  71
TORSDOF 21
ENDMDL
MODEL 2
REMARK VINA RESULT:     -10.1      5.279      7.877
REMARK SMILES O=C(OCCOCCOC(=O)[C@@H](Cc1ccccc1Br)CC(F)(F)F)c1ccc(-c2c3nc(c(-c4cccc(S(=O)(=O)[O-])c4F)c4ccc([nH]4)c(-c4cccc(S(=O)(=O)[O-])c4F)c4nc(c(-c5cccc(S(=O)(=O)[O-])c5F)c5ccc2[nH]5)C=C4)C=C3)cc1
REMARK SMILES IDX 5 1 4 2 3 3 2 4 1 5 26 6 27 7 88 8 28 9 87 10 29 11 30 12
REMARK SMILES IDX 31 13 81 14 32 15 86 16 80 17 82 18 33 19 85 20 79 21 78 22
REMARK SMILES IDX 34 24 66 25 46 26 65 27 47 28 50 29 64 30 83 31 48 32 49 33
REMARK SMILES IDX 63 35 84 36 51 37 35 38 36 39 44 40 37 41 39 42 45 43 38 44
REMARK SMILES IDX 40 45 41 46 42 47 43 48 67 49 68 50 76 51 69 52 71 53 77 54
REMARK SMILES IDX 70 55 72 56 73 57 74 58 75 59 52 60 53 61 61 62 54 63 56 64
REMARK SMILES IDX 62 65 55 66 57 67 58 68 59 69 60 70 6 71 7 72 8 73 9 74
REMARK SMILES IDX 10 75 11 76 12 77 13 78 14 79 15 80 19 81 16 82 18 83 20 84
REMARK SMILES IDX 17 85 21 86 22 87 23 88 24 89 25 90
REMARK H PARENT 82 23 50 34
REMARK Flexibility Score: inf
ROOT
ATOM      1  C   UNL A   1      32.481  30.093  25.335  1.00  0.00     0.202 C 
ENDROOT
BRANCH   1   2
ATOM      2  C   UNL A   1      32.888  30.387  26.789  1.00  0.00     0.261 C 
BRANCH   2   3
ATOM      3  O   UNL A   1      32.606  31.754  27.138  1.00  0.00    -0.460 OA
BRANCH   3   4
ATOM      4  C   UNL A   1      33.438  32.649  27.726  1.00  0.00     0.338 C 
ATOM      5  O   UNL A   1      33.159  33.845  27.662  1.00  0.00    -0.246 OA
BRANCH   4   6
ATOM      6  C   UNL A   1      34.712  32.246  28.392  1.00  0.00     0.060 A 
ATOM      7  C   UNL A   1      34.791  31.234  29.340  1.00  0.00     0.016 A 
ATOM      8  C   UNL A   1      35.914  32.841  27.981  1.00  0.00     0.016 A 
ATOM      9  C   UNL A   1      35.973  30.767  29.840  1.00  0.00     0.010 A 
ATOM     10  C   UNL A   1      37.139  32.385  28.487  1.00  0.00     0.010 A 
ATOM     11  C   UNL A   1      37.153  31.325  29.396  1.00  0.00    -0.014 A 
BRANCH  11  12
ATOM     12  C   UNL A   1      38.336  30.782  30.054  1.00  0.00     0.031 A 
ATOM     13  C   UNL A   1      38.564  31.167  31.473  1.00  0.00     0.074 A 
ATOM     14  C   UNL A   1      38.983  29.767  29.455  1.00  0.00     0.049 A 
ATOM     15  N   UNL A   1      39.526  30.811  32.269  1.00  0.00    -0.248 NA
ATOM     16  C   UNL A   1      37.551  32.045  32.094  1.00  0.00     0.031 C 
ATOM     17  C   UNL A   1      38.634  29.196  28.146  1.00  0.00     0.029 A 
ATOM     18  N   UNL A   1      40.037  29.009  29.876  1.00  0.00    -0.354 N 
ATOM     19  C   UNL A   1      39.286  31.484  33.456  1.00  0.00     0.074 A 
ATOM     20  C   UNL A   1      38.053  32.219  33.306  1.00  0.00     0.031 C 
ATOM     21  C   UNL A   1      39.478  28.191  27.866  1.00  0.00     0.029 A 
ATOM     22  C   UNL A   1      40.469  28.111  28.929  1.00  0.00     0.049 A 
ATOM     23  H   UNL A   1      40.445  29.095  30.768  1.00  0.00     0.167 HD
ATOM     24  C   UNL A   1      40.070  31.503  34.554  1.00  0.00     0.034 A 
ATOM     25  C   UNL A   1      41.590  27.371  28.912  1.00  0.00     0.034 A 
ATOM     26  C   UNL A   1      41.285  30.747  34.641  1.00  0.00     0.049 A 
ATOM     27  C   UNL A   1      42.495  27.491  30.109  1.00  0.00     0.074 A 
ATOM     28  C   UNL A   1      42.213  30.722  35.660  1.00  0.00     0.029 A 
ATOM     29  N   UNL A   1      41.742  29.890  33.648  1.00  0.00    -0.354 N 
ATOM     30  N   UNL A   1      42.299  28.160  31.223  1.00  0.00    -0.248 NA
ATOM     31  C   UNL A   1      43.766  26.764  30.056  1.00  0.00     0.031 C 
ATOM     32  C   UNL A   1      43.255  29.878  35.263  1.00  0.00     0.029 A 
ATOM     33  C   UNL A   1      42.952  29.341  34.018  1.00  0.00     0.049 A 
ATOM     34  H   UNL A   1      41.271  29.701  32.803  1.00  0.00     0.167 HD
ATOM     35  C   UNL A   1      43.411  27.917  32.014  1.00  0.00     0.074 A 
ATOM     36  C   UNL A   1      44.260  27.011  31.261  1.00  0.00     0.031 C 
ATOM     37  C   UNL A   1      43.724  28.405  33.240  1.00  0.00     0.034 A 
BRANCH  24  38
ATOM     38  C   UNL A   1      39.685  32.436  35.661  1.00  0.00     0.023 A 
ATOM     39  C   UNL A   1      40.199  33.746  35.716  1.00  0.00     0.012 A 
ATOM     40  C   UNL A   1      38.803  31.991  36.665  1.00  0.00     0.148 A 
ATOM     41  C   UNL A   1      39.854  34.594  36.769  1.00  0.00     0.002 A 
ATOM     42  C   UNL A   1      38.430  32.855  37.685  1.00  0.00     0.091 A 
ATOM     43  F   UNL A   1      38.363  30.727  36.611  1.00  0.00    -0.205 F 
ATOM     44  C   UNL A   1      38.962  34.153  37.745  1.00  0.00     0.022 A 
BRANCH  42  45
ATOM     45  S   UNL A   1      37.246  32.397  38.953  1.00  0.00     0.127 S 
ATOM     46  O   UNL A   1      35.976  32.732  38.309  1.00  0.00    -0.237 OA
ATOM     47  O   UNL A   1      37.500  30.964  39.097  1.00  0.00    -0.237 OA
ATOM     48  O   UNL A   1      37.572  33.201  40.123  1.00  0.00    -0.744 OA
ENDBRANCH  42  45
ENDBRANCH  24  38
BRANCH  25  49
ATOM     49  C   UNL A   1      41.954  26.545  27.725  1.00  0.00     0.023 A 
ATOM     50  C   UNL A   1      42.641  27.126  26.644  1.00  0.00     0.012 A 
ATOM     51  C   UNL A   1      41.596  25.182  27.649  1.00  0.00     0.148 A 
ATOM     52  C   UNL A   1      42.921  26.383  25.494  1.00  0.00     0.002 A 
ATOM     53  C   UNL A   1      41.930  24.432  26.528  1.00  0.00     0.091 A 
ATOM     54  F   UNL A   1      40.922  24.641  28.675  1.00  0.00    -0.205 F 
ATOM     55  C   UNL A   1      42.573  25.036  25.439  1.00  0.00     0.022 A 
BRANCH  53  56
ATOM     56  S   UNL A   1      41.623  22.664  26.432  1.00  0.00     0.127 S 
ATOM     57  O   UNL A   1      42.352  22.299  25.221  1.00  0.00    -0.237 OA
ATOM     58  O   UNL A   1      42.218  22.182  27.679  1.00  0.00    -0.237 OA
ATOM     59  O   UNL A   1      40.174  22.522  26.371  1.00  0.00    -0.744 OA
ENDBRANCH  53  56
ENDBRANCH  25  49
BRANCH  37  60
ATOM     60  C   UNL A   1      45.010  27.931  33.848  1.00  0.00     0.023 A 
ATOM     61  C   UNL A   1      46.186  28.688  33.687  1.00  0.00     0.012 A 
ATOM     62  C   UNL A   1      45.020  26.781  34.658  1.00  0.00     0.148 A 
ATOM     63  C   UNL A   1      47.368  28.286  34.302  1.00  0.00     0.002 A 
ATOM     64  C   UNL A   1      46.186  26.421  35.316  1.00  0.00     0.091 A 
ATOM     65  F   UNL A   1      43.889  26.070  34.776  1.00  0.00    -0.205 F 
ATOM     66  C   UNL A   1      47.364  27.164  35.128  1.00  0.00     0.022 A 
BRANCH  64  67
ATOM     67  S   UNL A   1      46.239  25.066  36.490  1.00  0.00     0.127 S 
ATOM     68  O   UNL A   1      47.600  25.179  37.010  1.00  0.00    -0.237 OA
ATOM     69  O   UNL A   1      45.189  25.438  37.438  1.00  0.00    -0.237 OA
ATOM     70  O   UNL A   1      45.962  23.858  35.724  1.00  0.00    -0.744 OA
ENDBRANCH  64  67
ENDBRANCH  37  60
ENDBRANCH  11  12
ENDBRANCH   4   6
ENDBRANCH   3   4
ENDBRANCH   2   3
ENDBRANCH   1   2
BRANCH   1  71
ATOM     71  O   UNL A   1      32.088  28.762  24.991  1.00  0.00    -0.374 OA
BRANCH  71  72
ATOM     72  C   UNL A   1      31.475  28.545  23.719  1.00  0.00     0.202 C 
BRANCH  72  73
ATOM     73  C   UNL A   1      31.047  27.079  23.531  1.00  0.00     0.261 C 
BRANCH  73  74
ATOM     74  O   UNL A   1      31.586  26.523  22.315  1.00  0.00    -0.463 OA
BRANCH  74  75
ATOM     75  C   UNL A   1      32.918  26.277  22.305  1.00  0.00     0.309 C 
ATOM     76  O   UNL A   1      33.735  26.824  21.587  1.00  0.00    -0.252 OA
BRANCH  75  77
ATOM     77  C   UNL A   1      33.301  25.169  23.274  1.00  0.00     0.112 C 
BRANCH  77  78
ATOM     78  C   UNL A   1      33.912  23.843  22.727  1.00  0.00     0.052 C 
BRANCH  78  79
ATOM     79  C   UNL A   1      34.788  22.901  23.550  1.00  0.00    -0.033 A 
ATOM     80  C   UNL A   1      36.186  22.944  23.452  1.00  0.00     0.005 A 
ATOM     81  C   UNL A   1      34.279  21.840  24.321  1.00  0.00     0.021 A 
ATOM     82  C   UNL A   1      37.046  22.084  24.138  1.00  0.00     0.000 A 
ATOM     83  C   UNL A   1      35.135  20.966  25.021  1.00  0.00     0.016 A 
ATOM     84  Br  UNL A   1      32.422  21.438  24.429  1.00  0.00    -0.051 Br
ATOM     85  C   UNL A   1      36.517  21.100  24.946  1.00  0.00     0.001 A 
ENDBRANCH  78  79
ENDBRANCH  77  78
BRANCH  77  86
ATOM     86  C   UNL A   1      34.041  25.732  24.485  1.00  0.00     0.131 C 
BRANCH  86  87
ATOM     87  C   UNL A   1      33.400  25.321  25.801  1.00  0.00     0.389 C 
ATOM     88  F   UNL A   1      33.183  26.390  26.595  1.00  0.00    -0.171 F 
ATOM     89  F   UNL A   1      32.201  24.741  25.568  1.00  0.00    -0.171 F 
ATOM     90  F   UNL A   1      34.154  24.434  26.475  1.00  0.00    -0.171 F 
ENDBRANCH  86  87
ENDBRANCH  77  86
ENDBRANCH  75  77
ENDBRANCH  74  75
ENDBRANCH  73  74
ENDBRANCH  72  73
ENDBRANCH  71  72
ENDBRANCH   1  71
TORSDOF 21
ENDMDL
MODEL 3
REMARK VINA RESULT:     -10.1      1.891      7.947
REMARK SMILES O=C(OCCOCCOC(=O)[C@@H](Cc1ccccc1Br)CC(F)(F)F)c1ccc(-c2c3nc(c(-c4cccc(S(=O)(=O)[O-])c4F)c4ccc([nH]4)c(-c4cccc(S(=O)(=O)[O-])c4F)c4nc(c(-c5cccc(S(=O)(=O)[O-])c5F)c5ccc2[nH]5)C=C4)C=C3)cc1
REMARK SMILES IDX 5 1 4 2 3 3 2 4 1 5 26 6 27 7 88 8 28 9 87 10 29 11 30 12
REMARK SMILES IDX 31 13 81 14 32 15 86 16 80 17 82 18 33 19 85 20 79 21 78 22
REMARK SMILES IDX 34 24 66 25 46 26 65 27 47 28 50 29 64 30 83 31 48 32 49 33
REMARK SMILES IDX 63 35 84 36 51 37 35 38 36 39 44 40 37 41 39 42 45 43 38 44
REMARK SMILES IDX 40 45 41 46 42 47 43 48 67 49 68 50 76 51 69 52 71 53 77 54
REMARK SMILES IDX 70 55 72 56 73 57 74 58 75 59 52 60 53 61 61 62 54 63 56 64
REMARK SMILES IDX 62 65 55 66 57 67 58 68 59 69 60 70 6 71 7 72 8 73 9 74
REMARK SMILES IDX 10 75 11 76 12 77 13 78 14 79 15 80 19 81 16 82 18 83 20 84
REMARK SMILES IDX 17 85 21 86 22 87 23 88 24 89 25 90
REMARK H PARENT 82 23 50 34
REMARK Flexibility Score: inf
ROOT
ATOM      1  C   UNL A   1      36.010  21.708  25.844  1.00  0.00     0.202 C 
ENDROOT
BRANCH   1   2
ATOM      2  C   UNL A   1      36.857  20.529  25.336  1.00  0.00     0.261 C 
BRANCH   2   3
ATOM      3  O   UNL A   1      38.229  20.920  25.148  1.00  0.00    -0.460 OA
BRANCH   3   4
ATOM      4  C   UNL A   1      39.187  21.064  26.097  1.00  0.00     0.338 C 
ATOM      5  O   UNL A   1      39.632  20.057  26.645  1.00  0.00    -0.246 OA
BRANCH   4   6
ATOM      6  C   UNL A   1      39.681  22.399  26.545  1.00  0.00     0.060 A 
ATOM      7  C   UNL A   1      40.773  22.567  27.387  1.00  0.00     0.016 A 
ATOM      8  C   UNL A   1      39.083  23.556  26.023  1.00  0.00     0.016 A 
ATOM      9  C   UNL A   1      41.314  23.787  27.678  1.00  0.00     0.010 A 
ATOM     10  C   UNL A   1      39.614  24.820  26.316  1.00  0.00     0.010 A 
ATOM     11  C   UNL A   1      40.750  24.917  27.124  1.00  0.00    -0.014 A 
BRANCH  11  12
ATOM     12  C   UNL A   1      41.379  26.156  27.564  1.00  0.00     0.031 A 
ATOM     13  C   UNL A   1      42.737  26.458  27.034  1.00  0.00     0.074 A 
ATOM     14  C   UNL A   1      40.611  27.072  28.180  1.00  0.00     0.049 A 
ATOM     15  N   UNL A   1      43.491  27.489  27.264  1.00  0.00    -0.248 NA
ATOM     16  C   UNL A   1      43.310  25.482  26.085  1.00  0.00     0.031 C 
ATOM     17  C   UNL A   1      39.189  26.900  28.508  1.00  0.00     0.029 A 
ATOM     18  N   UNL A   1      40.897  28.339  28.600  1.00  0.00    -0.354 N 
ATOM     19  C   UNL A   1      44.660  27.251  26.561  1.00  0.00     0.074 A 
ATOM     20  C   UNL A   1      44.498  26.012  25.839  1.00  0.00     0.031 C 
ATOM     21  C   UNL A   1      38.736  28.016  29.102  1.00  0.00     0.029 A 
ATOM     22  C   UNL A   1      39.853  28.934  29.269  1.00  0.00     0.049 A 
ATOM     23  H   UNL A   1      41.762  28.781  28.441  1.00  0.00     0.167 HD
ATOM     24  C   UNL A   1      45.780  28.003  26.567  1.00  0.00     0.034 A 
ATOM     25  C   UNL A   1      39.847  30.064  29.995  1.00  0.00     0.034 A 
ATOM     26  C   UNL A   1      45.878  29.228  27.305  1.00  0.00     0.049 A 
ATOM     27  C   UNL A   1      41.142  30.828  30.065  1.00  0.00     0.074 A 
ATOM     28  C   UNL A   1      46.969  30.057  27.460  1.00  0.00     0.029 A 
ATOM     29  N   UNL A   1      44.832  29.787  28.028  1.00  0.00    -0.354 N 
ATOM     30  N   UNL A   1      42.271  30.589  29.437  1.00  0.00    -0.248 NA
ATOM     31  C   UNL A   1      41.171  32.007  30.933  1.00  0.00     0.031 C 
ATOM     32  C   UNL A   1      46.591  31.098  28.314  1.00  0.00     0.029 A 
ATOM     33  C   UNL A   1      45.253  30.943  28.651  1.00  0.00     0.049 A 
ATOM     34  H   UNL A   1      43.923  29.412  28.088  1.00  0.00     0.167 HD
ATOM     35  C   UNL A   1      43.139  31.601  29.815  1.00  0.00     0.074 A 
ATOM     36  C   UNL A   1      42.391  32.473  30.702  1.00  0.00     0.031 C 
ATOM     37  C   UNL A   1      44.440  31.793  29.484  1.00  0.00     0.034 A 
BRANCH  24  38
ATOM     38  C   UNL A   1      46.981  27.458  25.854  1.00  0.00     0.023 A 
ATOM     39  C   UNL A   1      47.912  26.641  26.524  1.00  0.00     0.012 A 
ATOM     40  C   UNL A   1      47.183  27.777  24.498  1.00  0.00     0.148 A 
ATOM     41  C   UNL A   1      49.040  26.165  25.854  1.00  0.00     0.002 A 
ATOM     42  C   UNL A   1      48.284  27.264  23.827  1.00  0.00     0.091 A 
ATOM     43  F   UNL A   1      46.304  28.591  23.898  1.00  0.00    -0.205 F 
ATOM     44  C   UNL A   1      49.219  26.467  24.505  1.00  0.00     0.022 A 
BRANCH  42  45
ATOM     45  S   UNL A   1      48.569  27.550  22.078  1.00  0.00     0.127 S 
ATOM     46  O   UNL A   1      49.725  28.446  22.109  1.00  0.00    -0.237 OA
ATOM     47  O   UNL A   1      48.856  26.199  21.596  1.00  0.00    -0.237 OA
ATOM     48  O   UNL A   1      47.345  28.143  21.557  1.00  0.00    -0.744 OA
ENDBRANCH  42  45
ENDBRANCH  24  38
BRANCH  25  49
ATOM     49  C   UNL A   1      38.639  30.485  30.761  1.00  0.00     0.023 A 
ATOM     50  C   UNL A   1      38.493  30.114  32.110  1.00  0.00     0.012 A 
ATOM     51  C   UNL A   1      37.611  31.233  30.147  1.00  0.00     0.148 A 
ATOM     52  C   UNL A   1      37.332  30.437  32.818  1.00  0.00     0.002 A 
ATOM     53  C   UNL A   1      36.485  31.602  30.873  1.00  0.00     0.091 A 
ATOM     54  F   UNL A   1      37.747  31.563  28.854  1.00  0.00    -0.205 F 
ATOM     55  C   UNL A   1      36.333  31.186  32.202  1.00  0.00     0.022 A 
BRANCH  53  56
ATOM     56  S   UNL A   1      35.211  32.668  30.188  1.00  0.00     0.127 S 
ATOM     57  O   UNL A   1      34.706  31.858  29.083  1.00  0.00    -0.237 OA
ATOM     58  O   UNL A   1      34.292  32.810  31.317  1.00  0.00    -0.237 OA
ATOM     59  O   UNL A   1      35.891  33.901  29.815  1.00  0.00    -0.744 OA
ENDBRANCH  53  56
ENDBRANCH  25  49
BRANCH  37  60
ATOM     60  C   UNL A   1      45.109  33.011  30.050  1.00  0.00     0.023 A 
ATOM     61  C   UNL A   1      45.824  32.922  31.260  1.00  0.00     0.012 A 
ATOM     62  C   UNL A   1      45.100  34.216  29.325  1.00  0.00     0.148 A 
ATOM     63  C   UNL A   1      46.499  34.033  31.757  1.00  0.00     0.002 A 
ATOM     64  C   UNL A   1      45.825  35.299  29.795  1.00  0.00     0.091 A 
ATOM     65  F   UNL A   1      44.394  34.273  28.186  1.00  0.00    -0.205 F 
ATOM     66  C   UNL A   1      46.513  35.215  31.018  1.00  0.00     0.022 A 
BRANCH  64  67
ATOM     67  S   UNL A   1      45.997  36.814  28.851  1.00  0.00     0.127 S 
ATOM     68  O   UNL A   1      44.612  37.277  28.778  1.00  0.00    -0.237 OA
ATOM     69  O   UNL A   1      46.866  37.617  29.711  1.00  0.00    -0.237 OA
ATOM     70  O   UNL A   1      46.593  36.431  27.578  1.00  0.00    -0.744 OA
ENDBRANCH  64  67
ENDBRANCH  37  60
ENDBRANCH  11  12
ENDBRANCH   4   6
ENDBRANCH   3   4
ENDBRANCH   2   3
ENDBRANCH   1   2
BRANCH   1  71
ATOM     71  O   UNL A   1      34.690  21.446  26.324  1.00  0.00    -0.374 OA
BRANCH  71  72
ATOM     72  C   UNL A   1      33.624  21.390  25.374  1.00  0.00     0.202 C 
BRANCH  72  73
ATOM     73  C   UNL A   1      32.381  22.155  25.860  1.00  0.00     0.261 C 
BRANCH  73  74
ATOM     74  O   UNL A   1      32.651  23.563  26.009  1.00  0.00    -0.463 OA
BRANCH  74  75
ATOM     75  C   UNL A   1      31.609  24.338  26.392  1.00  0.00     0.309 C 
ATOM     76  O   UNL A   1      30.752  24.027  27.199  1.00  0.00    -0.252 OA
BRANCH  75  77
ATOM     77  C   UNL A   1      31.578  25.663  25.645  1.00  0.00     0.112 C 
BRANCH  77  78
ATOM     78  C   UNL A   1      30.928  25.736  24.231  1.00  0.00     0.052 C 
BRANCH  78  79
ATOM     79  C   UNL A   1      30.283  26.992  23.649  1.00  0.00    -0.033 A 
ATOM     80  C   UNL A   1      28.889  27.134  23.604  1.00  0.00     0.005 A 
ATOM     81  C   UNL A   1      31.004  28.001  22.984  1.00  0.00     0.021 A 
ATOM     82  C   UNL A   1      28.230  28.232  23.046  1.00  0.00     0.000 A 
ATOM     83  C   UNL A   1      30.353  29.116  22.418  1.00  0.00     0.016 A 
ATOM     84  Br  UNL A   1      32.886  27.921  22.717  1.00  0.00    -0.051 Br
ATOM     85  C   UNL A   1      28.969  29.241  22.467  1.00  0.00     0.001 A 
ENDBRANCH  78  79
ENDBRANCH  77  78
BRANCH  77  86
ATOM     86  C   UNL A   1      31.162  26.804  26.571  1.00  0.00     0.131 C 
BRANCH  86  87
ATOM     87  C   UNL A   1      32.227  27.885  26.676  1.00  0.00     0.389 C 
ATOM     88  F   UNL A   1      32.458  28.222  27.961  1.00  0.00    -0.171 F 
ATOM     89  F   UNL A   1      33.393  27.435  26.160  1.00  0.00    -0.171 F 
ATOM     90  F   UNL A   1      31.887  28.996  25.997  1.00  0.00    -0.171 F 
ENDBRANCH  86  87
ENDBRANCH  77  86
ENDBRANCH  75  77
ENDBRANCH  74  75
ENDBRANCH  73  74
ENDBRANCH  72  73
ENDBRANCH  71  72
ENDBRANCH   1  71
TORSDOF 21
ENDMDL
