MODEL 1
REMARK VINA RESULT:     -11.0      0.000      0.000
REMARK SMILES CC(=O)c1nnn(-c2ccc(C(=O)OCCOCCOC(=O)c3ccc(-c4c5nc(c(-c6cccc(S(=O)(=O)[O-])c6F)c6ccc([nH]6)c(-c6cccc(S(=O)(=O)[O-])c6F)c6nc(c(-c7cccc(S(=O)(=O)[O-])c7F)c7ccc4[nH]7)C=C6)C=C5)cc3)cc2)c1C
REMARK SMILES IDX 18 1 17 2 16 3 15 4 14 5 12 6 13 7 11 8 8 9 9 10 87 11 10 12
REMARK SMILES IDX 86 13 7 14 4 15 5 16 88 17 6 18 89 19 2 20 1 21 3 22 19 23
REMARK SMILES IDX 20 24 21 25 22 26 23 27 24 28 85 29 25 30 84 31 26 32 27 33
REMARK SMILES IDX 28 34 78 35 29 36 83 37 77 38 79 39 30 40 82 41 76 42 75 43
REMARK SMILES IDX 31 45 63 46 43 47 62 48 44 49 47 50 61 51 80 52 45 53 46 54
REMARK SMILES IDX 60 56 81 57 48 58 32 59 33 60 41 61 34 62 36 63 42 64 35 65
REMARK SMILES IDX 37 66 38 67 39 68 40 69 64 70 65 71 73 72 66 73 68 74 74 75
REMARK SMILES IDX 67 76 69 77 70 78 71 79 72 80 49 81 50 82 58 83 51 84 53 85
REMARK SMILES IDX 59 86 52 87 54 88 55 89 56 90 57 91
REMARK H PARENT 79 44 47 55
REMARK Flexibility Score: inf
ROOT
ATOM      1  C   UNL A   1      36.610  21.999  25.494  1.00  0.00     0.202 C 
ENDROOT
BRANCH   1   2
ATOM      2  O   UNL A   1      35.768  20.983  24.955  1.00  0.00    -0.374 OA
BRANCH   2   3
ATOM      3  C   UNL A   1      34.348  21.107  25.031  1.00  0.00     0.202 C 
BRANCH   3   4
ATOM      4  C   UNL A   1      33.738  22.507  25.074  1.00  0.00     0.261 C 
BRANCH   4   5
ATOM      5  O   UNL A   1      33.212  22.912  23.803  1.00  0.00    -0.460 OA
BRANCH   5   6
ATOM      6  C   UNL A   1      34.059  23.668  23.066  1.00  0.00     0.338 C 
ATOM      7  O   UNL A   1      35.177  23.364  22.684  1.00  0.00    -0.246 OA
BRANCH   6   8
ATOM      8  C   UNL A   1      33.400  24.920  22.644  1.00  0.00     0.060 A 
ATOM      9  C   UNL A   1      31.804  27.137  22.226  1.00  0.00     0.067 A 
ATOM     10  C   UNL A   1      32.725  27.161  23.276  1.00  0.00     0.029 A 
ATOM     11  C   UNL A   1      31.804  26.094  21.290  1.00  0.00     0.029 A 
ATOM     12  C   UNL A   1      33.504  26.029  23.500  1.00  0.00     0.018 A 
ATOM     13  C   UNL A   1      32.612  24.979  21.494  1.00  0.00     0.018 A 
BRANCH   9  14
ATOM     14  N   UNL A   1      30.735  28.060  22.247  1.00  0.00    -0.217 N 
ATOM     15  C   UNL A   1      28.898  29.130  22.741  1.00  0.00     0.151 A 
ATOM     16  N   UNL A   1      29.722  29.958  22.023  1.00  0.00    -0.126 NA
ATOM     17  C   UNL A   1      29.543  27.921  22.952  1.00  0.00     0.073 A 
ATOM     18  N   UNL A   1      30.879  29.338  21.839  1.00  0.00    -0.061 NA
ATOM     19  C   UNL A   1      29.219  26.746  23.799  1.00  0.00     0.069 C 
BRANCH  15  20
ATOM     20  C   UNL A   1      27.611  29.590  23.245  1.00  0.00     0.181 C 
ATOM     21  C   UNL A   1      27.486  31.039  23.650  1.00  0.00     0.095 C 
ATOM     22  O   UNL A   1      26.628  28.852  23.287  1.00  0.00    -0.293 OA
ENDBRANCH  15  20
ENDBRANCH   9  14
ENDBRANCH   6   8
ENDBRANCH   5   6
ENDBRANCH   4   5
ENDBRANCH   3   4
ENDBRANCH   2   3
ENDBRANCH   1   2
BRANCH   1  23
ATOM     23  C   UNL A   1      37.971  21.615  26.051  1.00  0.00     0.261 C 
BRANCH  23  24
ATOM     24  O   UNL A   1      38.827  21.093  25.051  1.00  0.00    -0.460 OA
BRANCH  24  25
ATOM     25  C   UNL A   1      39.703  20.175  25.520  1.00  0.00     0.338 C 
ATOM     26  O   UNL A   1      39.568  18.964  25.529  1.00  0.00    -0.246 OA
BRANCH  25  27
ATOM     27  C   UNL A   1      40.801  20.883  26.182  1.00  0.00     0.060 A 
ATOM     28  C   UNL A   1      40.881  20.697  27.562  1.00  0.00     0.016 A 
ATOM     29  C   UNL A   1      41.423  21.954  25.524  1.00  0.00     0.016 A 
ATOM     30  C   UNL A   1      41.341  21.744  28.318  1.00  0.00     0.010 A 
ATOM     31  C   UNL A   1      41.859  23.009  26.281  1.00  0.00     0.010 A 
ATOM     32  C   UNL A   1      41.716  22.921  27.661  1.00  0.00    -0.014 A 
BRANCH  32  33
ATOM     33  C   UNL A   1      42.042  24.060  28.476  1.00  0.00     0.031 A 
ATOM     34  C   UNL A   1      41.044  25.134  28.339  1.00  0.00     0.074 A 
ATOM     35  C   UNL A   1      43.102  24.084  29.301  1.00  0.00     0.049 A 
ATOM     36  N   UNL A   1      41.154  26.207  27.633  1.00  0.00    -0.248 NA
ATOM     37  C   UNL A   1      39.689  24.868  28.841  1.00  0.00     0.031 C 
ATOM     38  C   UNL A   1      43.955  22.971  29.722  1.00  0.00     0.029 A 
ATOM     39  N   UNL A   1      43.550  25.121  30.050  1.00  0.00    -0.354 N 
ATOM     40  C   UNL A   1      39.954  26.877  27.826  1.00  0.00     0.074 A 
ATOM     41  C   UNL A   1      39.023  25.903  28.329  1.00  0.00     0.031 C 
ATOM     42  C   UNL A   1      44.634  23.341  30.834  1.00  0.00     0.029 A 
ATOM     43  C   UNL A   1      44.358  24.741  31.112  1.00  0.00     0.049 A 
ATOM     44  H   UNL A   1      43.322  26.060  29.858  1.00  0.00     0.167 HD
ATOM     45  C   UNL A   1      39.913  28.234  27.863  1.00  0.00     0.034 A 
ATOM     46  C   UNL A   1      44.665  25.514  32.183  1.00  0.00     0.034 A 
ATOM     47  C   UNL A   1      41.133  28.812  27.356  1.00  0.00     0.049 A 
ATOM     48  C   UNL A   1      44.407  26.926  31.796  1.00  0.00     0.074 A 
ATOM     49  C   UNL A   1      41.822  28.752  26.161  1.00  0.00     0.029 A 
ATOM     50  N   UNL A   1      42.028  29.273  28.293  1.00  0.00    -0.354 N 
ATOM     51  N   UNL A   1      45.104  27.562  30.897  1.00  0.00    -0.248 NA
ATOM     52  C   UNL A   1      43.093  27.485  32.078  1.00  0.00     0.031 C 
ATOM     53  C   UNL A   1      43.199  28.744  26.529  1.00  0.00     0.029 A 
ATOM     54  C   UNL A   1      43.278  28.858  27.919  1.00  0.00     0.049 A 
ATOM     55  H   UNL A   1      41.809  29.805  29.091  1.00  0.00     0.167 HD
ATOM     56  C   UNL A   1      44.162  28.292  30.182  1.00  0.00     0.074 A 
ATOM     57  C   UNL A   1      42.966  28.294  31.023  1.00  0.00     0.031 C 
ATOM     58  C   UNL A   1      44.341  28.561  28.855  1.00  0.00     0.034 A 
BRANCH  45  59
ATOM     59  C   UNL A   1      38.963  29.033  28.719  1.00  0.00     0.023 A 
ATOM     60  C   UNL A   1      38.302  30.115  28.100  1.00  0.00     0.012 A 
ATOM     61  C   UNL A   1      38.889  28.959  30.130  1.00  0.00     0.148 A 
ATOM     62  C   UNL A   1      37.648  31.097  28.848  1.00  0.00     0.002 A 
ATOM     63  C   UNL A   1      38.162  29.886  30.862  1.00  0.00     0.091 A 
ATOM     64  F   UNL A   1      39.635  28.078  30.801  1.00  0.00    -0.205 F 
ATOM     65  C   UNL A   1      37.569  30.978  30.230  1.00  0.00     0.022 A 
BRANCH  63  66
ATOM     66  S   UNL A   1      37.985  29.742  32.645  1.00  0.00     0.127 S 
ATOM     67  O   UNL A   1      37.024  30.803  32.930  1.00  0.00    -0.237 OA
ATOM     68  O   UNL A   1      37.470  28.381  32.784  1.00  0.00    -0.237 OA
ATOM     69  O   UNL A   1      39.325  29.928  33.189  1.00  0.00    -0.744 OA
ENDBRANCH  63  66
ENDBRANCH  45  59
BRANCH  46  70
ATOM     70  C   UNL A   1      44.862  25.120  33.597  1.00  0.00     0.023 A 
ATOM     71  C   UNL A   1      43.740  24.858  34.408  1.00  0.00     0.012 A 
ATOM     72  C   UNL A   1      46.133  24.724  34.071  1.00  0.00     0.148 A 
ATOM     73  C   UNL A   1      43.875  24.194  35.634  1.00  0.00     0.002 A 
ATOM     74  C   UNL A   1      46.263  24.070  35.292  1.00  0.00     0.091 A 
ATOM     75  F   UNL A   1      47.200  24.899  33.281  1.00  0.00    -0.205 F 
ATOM     76  C   UNL A   1      45.134  23.792  36.072  1.00  0.00     0.022 A 
BRANCH  74  77
ATOM     77  S   UNL A   1      47.853  23.495  35.903  1.00  0.00     0.127 S 
ATOM     78  O   UNL A   1      48.255  22.553  34.857  1.00  0.00    -0.237 OA
ATOM     79  O   UNL A   1      48.625  24.734  35.944  1.00  0.00    -0.237 OA
ATOM     80  O   UNL A   1      47.583  22.876  37.195  1.00  0.00    -0.744 OA
ENDBRANCH  74  77
ENDBRANCH  46  70
BRANCH  58  81
ATOM     81  C   UNL A   1      45.696  28.288  28.253  1.00  0.00     0.023 A 
ATOM     82  C   UNL A   1      46.781  29.181  28.388  1.00  0.00     0.012 A 
ATOM     83  C   UNL A   1      45.925  27.020  27.694  1.00  0.00     0.148 A 
ATOM     84  C   UNL A   1      48.060  28.823  27.954  1.00  0.00     0.002 A 
ATOM     85  C   UNL A   1      47.208  26.650  27.308  1.00  0.00     0.091 A 
ATOM     86  F   UNL A   1      44.885  26.182  27.576  1.00  0.00    -0.205 F 
ATOM     87  C   UNL A   1      48.276  27.553  27.427  1.00  0.00     0.022 A 
BRANCH  85  88
ATOM     88  S   UNL A   1      47.569  24.986  26.747  1.00  0.00     0.127 S 
ATOM     89  O   UNL A   1      47.125  25.029  25.356  1.00  0.00    -0.237 OA
ATOM     90  O   UNL A   1      49.020  24.902  26.923  1.00  0.00    -0.237 OA
ATOM     91  O   UNL A   1      46.814  24.096  27.622  1.00  0.00    -0.744 OA
ENDBRANCH  85  88
ENDBRANCH  58  81
ENDBRANCH  32  33
ENDBRANCH  25  27
ENDBRANCH  24  25
ENDBRANCH  23  24
ENDBRANCH   1  23
TORSDOF 19
ENDMDL
MODEL 2
REMARK VINA RESULT:     -10.8      2.142      2.482
REMARK SMILES CC(=O)c1nnn(-c2ccc(C(=O)OCCOCCOC(=O)c3ccc(-c4c5nc(c(-c6cccc(S(=O)(=O)[O-])c6F)c6ccc([nH]6)c(-c6cccc(S(=O)(=O)[O-])c6F)c6nc(c(-c7cccc(S(=O)(=O)[O-])c7F)c7ccc4[nH]7)C=C6)C=C5)cc3)cc2)c1C
REMARK SMILES IDX 18 1 17 2 16 3 15 4 14 5 12 6 13 7 11 8 8 9 9 10 87 11 10 12
REMARK SMILES IDX 86 13 7 14 4 15 5 16 88 17 6 18 89 19 2 20 1 21 3 22 19 23
REMARK SMILES IDX 20 24 21 25 22 26 23 27 24 28 85 29 25 30 84 31 26 32 27 33
REMARK SMILES IDX 28 34 78 35 29 36 83 37 77 38 79 39 30 40 82 41 76 42 75 43
REMARK SMILES IDX 31 45 63 46 43 47 62 48 44 49 47 50 61 51 80 52 45 53 46 54
REMARK SMILES IDX 60 56 81 57 48 58 32 59 33 60 41 61 34 62 36 63 42 64 35 65
REMARK SMILES IDX 37 66 38 67 39 68 40 69 64 70 65 71 73 72 66 73 68 74 74 75
REMARK SMILES IDX 67 76 69 77 70 78 71 79 72 80 49 81 50 82 58 83 51 84 53 85
REMARK SMILES IDX 59 86 52 87 54 88 55 89 56 90 57 91
REMARK H PARENT 79 44 47 55
REMARK Flexibility Score: inf
ROOT
ATOM      1  C   UNL A   1      36.839  21.361  24.458  1.00  0.00     0.202 C 
ENDROOT
BRANCH   1   2
ATOM      2  O   UNL A   1      36.134  22.289  25.276  1.00  0.00    -0.374 OA
BRANCH   2   3
ATOM      3  C   UNL A   1      35.194  21.827  26.246  1.00  0.00     0.202 C 
BRANCH   3   4
ATOM      4  C   UNL A   1      34.055  20.918  25.785  1.00  0.00     0.261 C 
BRANCH   4   5
ATOM      5  O   UNL A   1      32.829  21.635  25.593  1.00  0.00    -0.460 OA
BRANCH   5   6
ATOM      6  C   UNL A   1      32.534  21.897  24.298  1.00  0.00     0.338 C 
ATOM      7  O   UNL A   1      32.558  21.114  23.363  1.00  0.00    -0.246 OA
BRANCH   6   8
ATOM      8  C   UNL A   1      32.033  23.278  24.152  1.00  0.00     0.060 A 
ATOM      9  C   UNL A   1      31.460  25.980  24.249  1.00  0.00     0.067 A 
ATOM     10  C   UNL A   1      32.533  25.548  23.465  1.00  0.00     0.029 A 
ATOM     11  C   UNL A   1      30.577  25.061  24.832  1.00  0.00     0.029 A 
ATOM     12  C   UNL A   1      32.835  24.190  23.446  1.00  0.00     0.018 A 
ATOM     13  C   UNL A   1      30.859  23.698  24.779  1.00  0.00     0.018 A 
BRANCH   9  14
ATOM     14  N   UNL A   1      31.405  27.341  24.624  1.00  0.00    -0.217 N 
ATOM     15  C   UNL A   1      31.838  29.294  25.495  1.00  0.00     0.151 A 
ATOM     16  N   UNL A   1      30.962  29.451  24.451  1.00  0.00    -0.126 NA
ATOM     17  C   UNL A   1      32.188  27.957  25.596  1.00  0.00     0.073 A 
ATOM     18  N   UNL A   1      30.807  28.275  23.858  1.00  0.00    -0.061 NA
ATOM     19  C   UNL A   1      33.214  27.247  26.400  1.00  0.00     0.069 C 
BRANCH  15  20
ATOM     20  C   UNL A   1      32.340  30.439  26.242  1.00  0.00     0.181 C 
ATOM     21  C   UNL A   1      31.402  31.599  26.477  1.00  0.00     0.095 C 
ATOM     22  O   UNL A   1      33.469  30.453  26.730  1.00  0.00    -0.293 OA
ENDBRANCH  15  20
ENDBRANCH   9  14
ENDBRANCH   6   8
ENDBRANCH   5   6
ENDBRANCH   4   5
ENDBRANCH   3   4
ENDBRANCH   2   3
ENDBRANCH   1   2
BRANCH   1  23
ATOM     23  C   UNL A   1      37.870  20.443  25.097  1.00  0.00     0.261 C 
BRANCH  23  24
ATOM     24  O   UNL A   1      39.089  21.114  25.360  1.00  0.00    -0.460 OA
BRANCH  24  25
ATOM     25  C   UNL A   1      40.090  20.281  25.727  1.00  0.00     0.338 C 
ATOM     26  O   UNL A   1      40.111  19.066  25.632  1.00  0.00    -0.246 OA
BRANCH  25  27
ATOM     27  C   UNL A   1      41.111  21.067  26.422  1.00  0.00     0.060 A 
ATOM     28  C   UNL A   1      41.073  20.991  27.814  1.00  0.00     0.016 A 
ATOM     29  C   UNL A   1      41.767  22.101  25.737  1.00  0.00     0.016 A 
ATOM     30  C   UNL A   1      41.444  22.105  28.522  1.00  0.00     0.010 A 
ATOM     31  C   UNL A   1      42.113  23.223  26.443  1.00  0.00     0.010 A 
ATOM     32  C   UNL A   1      41.851  23.237  27.808  1.00  0.00    -0.014 A 
BRANCH  32  33
ATOM     33  C   UNL A   1      42.081  24.444  28.556  1.00  0.00     0.031 A 
ATOM     34  C   UNL A   1      40.997  25.422  28.362  1.00  0.00     0.074 A 
ATOM     35  C   UNL A   1      43.135  24.603  29.373  1.00  0.00     0.049 A 
ATOM     36  N   UNL A   1      41.018  26.458  27.595  1.00  0.00    -0.248 NA
ATOM     37  C   UNL A   1      39.668  25.074  28.884  1.00  0.00     0.031 C 
ATOM     38  C   UNL A   1      44.077  23.591  29.853  1.00  0.00     0.029 A 
ATOM     39  N   UNL A   1      43.495  25.715  30.060  1.00  0.00    -0.354 N 
ATOM     40  C   UNL A   1      39.767  27.037  27.755  1.00  0.00     0.074 A 
ATOM     41  C   UNL A   1      38.919  26.019  28.316  1.00  0.00     0.031 C 
ATOM     42  C   UNL A   1      44.723  24.079  30.939  1.00  0.00     0.029 A 
ATOM     43  C   UNL A   1      44.331  25.465  31.138  1.00  0.00     0.049 A 
ATOM     44  H   UNL A   1      43.189  26.619  29.816  1.00  0.00     0.167 HD
ATOM     45  C   UNL A   1      39.613  28.386  27.714  1.00  0.00     0.034 A 
ATOM     46  C   UNL A   1      44.573  26.321  32.162  1.00  0.00     0.034 A 
ATOM     47  C   UNL A   1      40.780  29.033  27.170  1.00  0.00     0.049 A 
ATOM     48  C   UNL A   1      44.199  27.682  31.697  1.00  0.00     0.074 A 
ATOM     49  C   UNL A   1      41.473  28.961  25.977  1.00  0.00     0.029 A 
ATOM     50  N   UNL A   1      41.634  29.619  28.075  1.00  0.00    -0.354 N 
ATOM     51  N   UNL A   1      44.841  28.321  30.760  1.00  0.00    -0.248 NA
ATOM     52  C   UNL A   1      42.843  28.145  31.951  1.00  0.00     0.031 C 
ATOM     53  C   UNL A   1      42.846  29.089  26.340  1.00  0.00     0.029 A 
ATOM     54  C   UNL A   1      42.914  29.289  27.721  1.00  0.00     0.049 A 
ATOM     55  H   UNL A   1      41.372  30.176  28.843  1.00  0.00     0.167 HD
ATOM     56  C   UNL A   1      43.841  28.928  30.008  1.00  0.00     0.074 A 
ATOM     57  C   UNL A   1      42.649  28.879  30.853  1.00  0.00     0.031 C 
ATOM     58  C   UNL A   1      43.998  29.134  28.667  1.00  0.00     0.034 A 
BRANCH  45  59
ATOM     59  C   UNL A   1      38.599  29.151  28.528  1.00  0.00     0.023 A 
ATOM     60  C   UNL A   1      37.856  30.142  27.853  1.00  0.00     0.012 A 
ATOM     61  C   UNL A   1      38.526  29.145  29.941  1.00  0.00     0.148 A 
ATOM     62  C   UNL A   1      37.124  31.107  28.548  1.00  0.00     0.002 A 
ATOM     63  C   UNL A   1      37.725  30.049  30.623  1.00  0.00     0.091 A 
ATOM     64  F   UNL A   1      39.338  28.363  30.657  1.00  0.00    -0.205 F 
ATOM     65  C   UNL A   1      37.050  31.056  29.934  1.00  0.00     0.022 A 
BRANCH  63  66
ATOM     66  S   UNL A   1      37.555  29.986  32.412  1.00  0.00     0.127 S 
ATOM     67  O   UNL A   1      36.496  30.965  32.639  1.00  0.00    -0.237 OA
ATOM     68  O   UNL A   1      37.171  28.592  32.624  1.00  0.00    -0.237 OA
ATOM     69  O   UNL A   1      38.868  30.329  32.944  1.00  0.00    -0.744 OA
ENDBRANCH  63  66
ENDBRANCH  45  59
BRANCH  46  70
ATOM     70  C   UNL A   1      44.801  26.026  33.595  1.00  0.00     0.023 A 
ATOM     71  C   UNL A   1      46.118  25.976  34.093  1.00  0.00     0.012 A 
ATOM     72  C   UNL A   1      43.739  26.076  34.526  1.00  0.00     0.148 A 
ATOM     73  C   UNL A   1      46.371  26.010  35.471  1.00  0.00     0.002 A 
ATOM     74  C   UNL A   1      43.994  26.102  35.893  1.00  0.00     0.091 A 
ATOM     75  F   UNL A   1      42.486  26.197  34.070  1.00  0.00    -0.205 F 
ATOM     76  C   UNL A   1      45.310  26.081  36.370  1.00  0.00     0.022 A 
BRANCH  74  77
ATOM     77  S   UNL A   1      42.675  26.228  37.109  1.00  0.00     0.127 S 
ATOM     78  O   UNL A   1      41.915  25.003  36.857  1.00  0.00    -0.237 OA
ATOM     79  O   UNL A   1      43.423  26.240  38.364  1.00  0.00    -0.237 OA
ATOM     80  O   UNL A   1      41.956  27.456  36.791  1.00  0.00    -0.744 OA
ENDBRANCH  74  77
ENDBRANCH  46  70
BRANCH  58  81
ATOM     81  C   UNL A   1      45.371  28.941  28.076  1.00  0.00     0.023 A 
ATOM     82  C   UNL A   1      46.361  29.947  28.108  1.00  0.00     0.012 A 
ATOM     83  C   UNL A   1      45.725  27.654  27.639  1.00  0.00     0.148 A 
ATOM     84  C   UNL A   1      47.667  29.679  27.694  1.00  0.00     0.002 A 
ATOM     85  C   UNL A   1      47.037  27.378  27.274  1.00  0.00     0.091 A 
ATOM     86  F   UNL A   1      44.775  26.708  27.618  1.00  0.00    -0.205 F 
ATOM     87  C   UNL A   1      48.009  28.391  27.289  1.00  0.00     0.022 A 
BRANCH  85  88
ATOM     88  S   UNL A   1      47.562  25.712  26.873  1.00  0.00     0.127 S 
ATOM     89  O   UNL A   1      49.011  25.868  26.754  1.00  0.00    -0.237 OA
ATOM     90  O   UNL A   1      47.123  24.952  28.045  1.00  0.00    -0.237 OA
ATOM     91  O   UNL A   1      46.866  25.358  25.642  1.00  0.00    -0.744 OA
ENDBRANCH  85  88
ENDBRANCH  58  81
ENDBRANCH  32  33
ENDBRANCH  25  27
ENDBRANCH  24  25
ENDBRANCH  23  24
ENDBRANCH   1  23
TORSDOF 19
ENDMDL
MODEL 3
REMARK VINA RESULT:     -10.7      3.873      8.239
REMARK SMILES CC(=O)c1nnn(-c2ccc(C(=O)OCCOCCOC(=O)c3ccc(-c4c5nc(c(-c6cccc(S(=O)(=O)[O-])c6F)c6ccc([nH]6)c(-c6cccc(S(=O)(=O)[O-])c6F)c6nc(c(-c7cccc(S(=O)(=O)[O-])c7F)c7ccc4[nH]7)C=C6)C=C5)cc3)cc2)c1C
REMARK SMILES IDX 18 1 17 2 16 3 15 4 14 5 12 6 13 7 11 8 8 9 9 10 87 11 10 12
REMARK SMILES IDX 86 13 7 14 4 15 5 16 88 17 6 18 89 19 2 20 1 21 3 22 19 23
REMARK SMILES IDX 20 24 21 25 22 26 23 27 24 28 85 29 25 30 84 31 26 32 27 33
REMARK SMILES IDX 28 34 78 35 29 36 83 37 77 38 79 39 30 40 82 41 76 42 75 43
REMARK SMILES IDX 31 45 63 46 43 47 62 48 44 49 47 50 61 51 80 52 45 53 46 54
REMARK SMILES IDX 60 56 81 57 48 58 32 59 33 60 41 61 34 62 36 63 42 64 35 65
REMARK SMILES IDX 37 66 38 67 39 68 40 69 64 70 65 71 73 72 66 73 68 74 74 75
REMARK SMILES IDX 67 76 69 77 70 78 71 79 72 80 49 81 50 82 58 83 51 84 53 85
REMARK SMILES IDX 59 86 52 87 54 88 55 89 56 90 57 91
REMARK H PARENT 79 44 47 55
REMARK Flexibility Score: inf
ROOT
ATOM      1  C   UNL A   1      32.421  30.317  26.386  1.00  0.00     0.202 C 
ENDROOT
BRANCH   1   2
ATOM      2  O   UNL A   1      32.879  29.000  26.092  1.00  0.00    -0.374 OA
BRANCH   2   3
ATOM      3  C   UNL A   1      33.627  28.745  24.903  1.00  0.00     0.202 C 
BRANCH   3   4
ATOM      4  C   UNL A   1      33.470  27.387  24.219  1.00  0.00     0.261 C 
BRANCH   4   5
ATOM      5  O   UNL A   1      33.523  26.298  25.150  1.00  0.00    -0.460 OA
BRANCH   5   6
ATOM      6  C   UNL A   1      32.359  25.618  25.277  1.00  0.00     0.338 C 
ATOM      7  O   UNL A   1      31.269  26.072  25.583  1.00  0.00    -0.246 OA
BRANCH   6   8
ATOM      8  C   UNL A   1      32.535  24.212  24.862  1.00  0.00     0.060 A 
ATOM      9  C   UNL A   1      33.184  21.549  24.511  1.00  0.00     0.067 A 
ATOM     10  C   UNL A   1      32.175  21.880  25.419  1.00  0.00     0.029 A 
ATOM     11  C   UNL A   1      33.735  22.517  23.660  1.00  0.00     0.029 A 
ATOM     12  C   UNL A   1      31.876  23.226  25.614  1.00  0.00     0.018 A 
ATOM     13  C   UNL A   1      33.405  23.859  23.830  1.00  0.00     0.018 A 
BRANCH   9  14
ATOM     14  N   UNL A   1      33.791  20.278  24.612  1.00  0.00    -0.217 N 
ATOM     15  C   UNL A   1      34.327  18.181  24.327  1.00  0.00     0.151 A 
ATOM     16  N   UNL A   1      35.359  18.828  24.955  1.00  0.00    -0.126 NA
ATOM     17  C   UNL A   1      33.326  19.097  24.039  1.00  0.00     0.073 A 
ATOM     18  N   UNL A   1      35.071  20.121  25.009  1.00  0.00    -0.061 NA
ATOM     19  C   UNL A   1      32.088  19.008  23.226  1.00  0.00     0.069 C 
BRANCH  15  20
ATOM     20  C   UNL A   1      34.419  16.773  23.968  1.00  0.00     0.181 C 
ATOM     21  C   UNL A   1      34.731  15.782  25.063  1.00  0.00     0.095 C 
ATOM     22  O   UNL A   1      34.190  16.376  22.826  1.00  0.00    -0.293 OA
ENDBRANCH  15  20
ENDBRANCH   9  14
ENDBRANCH   6   8
ENDBRANCH   5   6
ENDBRANCH   4   5
ENDBRANCH   3   4
ENDBRANCH   2   3
ENDBRANCH   1   2
BRANCH   1  23
ATOM     23  C   UNL A   1      33.211  31.175  27.361  1.00  0.00     0.261 C 
BRANCH  23  24
ATOM     24  O   UNL A   1      34.578  30.810  27.406  1.00  0.00    -0.460 OA
BRANCH  24  25
ATOM     25  C   UNL A   1      35.375  31.776  27.917  1.00  0.00     0.338 C 
ATOM     26  O   UNL A   1      35.386  32.957  27.617  1.00  0.00    -0.246 OA
BRANCH  25  27
ATOM     27  C   UNL A   1      36.361  31.143  28.795  1.00  0.00     0.060 A 
ATOM     28  C   UNL A   1      37.455  31.940  29.132  1.00  0.00     0.016 A 
ATOM     29  C   UNL A   1      36.375  29.746  28.917  1.00  0.00     0.016 A 
ATOM     30  C   UNL A   1      38.662  31.317  29.316  1.00  0.00     0.010 A 
ATOM     31  C   UNL A   1      37.586  29.125  29.076  1.00  0.00     0.010 A 
ATOM     32  C   UNL A   1      38.718  29.927  29.172  1.00  0.00    -0.014 A 
BRANCH  32  33
ATOM     33  C   UNL A   1      40.016  29.308  29.209  1.00  0.00     0.031 A 
ATOM     34  C   UNL A   1      40.519  29.176  30.586  1.00  0.00     0.074 A 
ATOM     35  C   UNL A   1      40.639  28.860  28.107  1.00  0.00     0.049 A 
ATOM     36  N   UNL A   1      41.388  29.930  31.169  1.00  0.00    -0.248 NA
ATOM     37  C   UNL A   1      39.801  28.263  31.486  1.00  0.00     0.031 C 
ATOM     38  C   UNL A   1      40.092  28.675  26.761  1.00  0.00     0.029 A 
ATOM     39  N   UNL A   1      41.886  28.337  28.010  1.00  0.00    -0.354 N 
ATOM     40  C   UNL A   1      41.508  29.402  32.446  1.00  0.00     0.074 A 
ATOM     41  C   UNL A   1      40.341  28.589  32.660  1.00  0.00     0.031 C 
ATOM     42  C   UNL A   1      40.912  27.850  26.068  1.00  0.00     0.029 A 
ATOM     43  C   UNL A   1      42.087  27.565  26.875  1.00  0.00     0.049 A 
ATOM     44  H   UNL A   1      42.586  28.491  28.686  1.00  0.00     0.167 HD
ATOM     45  C   UNL A   1      42.701  29.418  33.096  1.00  0.00     0.034 A 
ATOM     46  C   UNL A   1      43.100  26.681  26.693  1.00  0.00     0.034 A 
ATOM     47  C   UNL A   1      43.638  30.307  32.457  1.00  0.00     0.049 A 
ATOM     48  C   UNL A   1      44.171  27.032  27.662  1.00  0.00     0.074 A 
ATOM     49  C   UNL A   1      43.658  31.653  32.152  1.00  0.00     0.029 A 
ATOM     50  N   UNL A   1      44.598  29.720  31.667  1.00  0.00    -0.354 N 
ATOM     51  N   UNL A   1      44.866  28.133  27.595  1.00  0.00    -0.248 NA
ATOM     52  C   UNL A   1      44.160  26.380  28.963  1.00  0.00     0.031 C 
ATOM     53  C   UNL A   1      44.303  31.735  30.883  1.00  0.00     0.029 A 
ATOM     54  C   UNL A   1      44.693  30.446  30.511  1.00  0.00     0.049 A 
ATOM     55  H   UNL A   1      45.124  28.919  31.892  1.00  0.00     0.167 HD
ATOM     56  C   UNL A   1      44.981  28.550  28.915  1.00  0.00     0.074 A 
ATOM     57  C   UNL A   1      44.630  27.378  29.716  1.00  0.00     0.031 C 
ATOM     58  C   UNL A   1      45.052  29.878  29.229  1.00  0.00     0.034 A 
BRANCH  45  59
ATOM     59  C   UNL A   1      43.163  28.344  34.051  1.00  0.00     0.023 A 
ATOM     60  C   UNL A   1      43.603  28.768  35.322  1.00  0.00     0.012 A 
ATOM     61  C   UNL A   1      43.443  27.006  33.688  1.00  0.00     0.148 A 
ATOM     62  C   UNL A   1      44.329  27.922  36.164  1.00  0.00     0.002 A 
ATOM     63  C   UNL A   1      44.084  26.142  34.564  1.00  0.00     0.091 A 
ATOM     64  F   UNL A   1      43.226  26.584  32.440  1.00  0.00    -0.205 F 
ATOM     65  C   UNL A   1      44.561  26.604  35.790  1.00  0.00     0.022 A 
BRANCH  63  66
ATOM     66  S   UNL A   1      44.357  24.415  34.146  1.00  0.00     0.127 S 
ATOM     67  O   UNL A   1      44.892  24.524  32.792  1.00  0.00    -0.237 OA
ATOM     68  O   UNL A   1      45.322  24.012  35.167  1.00  0.00    -0.237 OA
ATOM     69  O   UNL A   1      43.056  23.771  34.270  1.00  0.00    -0.744 OA
ENDBRANCH  63  66
ENDBRANCH  45  59
BRANCH  46  70
ATOM     70  C   UNL A   1      43.093  25.383  25.980  1.00  0.00     0.023 A 
ATOM     71  C   UNL A   1      44.095  25.108  25.028  1.00  0.00     0.012 A 
ATOM     72  C   UNL A   1      42.288  24.312  26.428  1.00  0.00     0.148 A 
ATOM     73  C   UNL A   1      44.311  23.804  24.564  1.00  0.00     0.002 A 
ATOM     74  C   UNL A   1      42.502  23.019  25.960  1.00  0.00     0.091 A 
ATOM     75  F   UNL A   1      41.381  24.542  27.386  1.00  0.00    -0.205 F 
ATOM     76  C   UNL A   1      43.521  22.759  25.036  1.00  0.00     0.022 A 
BRANCH  74  77
ATOM     77  S   UNL A   1      41.542  21.618  26.550  1.00  0.00     0.127 S 
ATOM     78  O   UNL A   1      41.865  21.612  27.978  1.00  0.00    -0.237 OA
ATOM     79  O   UNL A   1      40.178  22.032  26.230  1.00  0.00    -0.237 OA
ATOM     80  O   UNL A   1      42.038  20.459  25.819  1.00  0.00    -0.744 OA
ENDBRANCH  74  77
ENDBRANCH  46  70
BRANCH  58  81
ATOM     81  C   UNL A   1      45.275  30.860  28.108  1.00  0.00     0.023 A 
ATOM     82  C   UNL A   1      44.211  31.478  27.417  1.00  0.00     0.012 A 
ATOM     83  C   UNL A   1      46.587  31.301  27.869  1.00  0.00     0.148 A 
ATOM     84  C   UNL A   1      44.454  32.498  26.493  1.00  0.00     0.002 A 
ATOM     85  C   UNL A   1      46.820  32.348  26.986  1.00  0.00     0.091 A 
ATOM     86  F   UNL A   1      47.586  30.706  28.536  1.00  0.00    -0.205 F 
ATOM     87  C   UNL A   1      45.757  32.943  26.288  1.00  0.00     0.022 A 
BRANCH  85  88
ATOM     88  S   UNL A   1      48.458  33.048  26.782  1.00  0.00     0.127 S 
ATOM     89  O   UNL A   1      48.231  34.064  25.756  1.00  0.00    -0.237 OA
ATOM     90  O   UNL A   1      48.741  33.581  28.117  1.00  0.00    -0.237 OA
ATOM     91  O   UNL A   1      49.321  31.941  26.391  1.00  0.00    -0.744 OA
ENDBRANCH  85  88
ENDBRANCH  58  81
ENDBRANCH  32  33
ENDBRANCH  25  27
ENDBRANCH  24  25
ENDBRANCH  23  24
ENDBRANCH   1  23
TORSDOF 19
ENDMDL
