MODEL 1
REMARK VINA RESULT:      -9.9      0.000      0.000
REMARK SMILES C[C@H]1CN(C(=O)NCCOCC(=O)OCCOCCOC(=O)c2ccc(-c3c4nc(c(-c5cccc(S(=O)(=O)[O-])c5F)c5ccc([nH]5)c(-c5cccc(S(=O)(=O)[O-])c5F)c5nc(c(-c6cccc(S(=O)(=O)[O-])c6F)c6ccc3[nH]6)C=C5)C=C4)cc2)CC[N@@H+]1C
REMARK SMILES IDX 16 1 15 2 14 3 12 4 13 5 11 6 10 7 9 8 8 9 7 10 5 11 6 12
REMARK SMILES IDX 4 14 1 15 2 16 3 17 88 18 87 19 89 20 86 22 17 23 18 24
REMARK SMILES IDX 19 25 20 26 21 27 22 28 23 29 24 30 85 31 25 32 84 33 26 34
REMARK SMILES IDX 27 35 28 36 78 37 29 38 83 39 77 40 79 41 30 42 82 43 76 44
REMARK SMILES IDX 75 45 31 47 63 48 43 49 62 50 44 51 47 52 61 53 80 54 45 55
REMARK SMILES IDX 46 56 60 58 81 59 48 60 32 61 33 62 41 63 34 64 36 65 42 66
REMARK SMILES IDX 35 67 37 68 38 69 39 70 40 71 64 72 65 73 73 74 66 75 68 76
REMARK SMILES IDX 74 77 67 78 69 79 70 80 71 81 72 82 49 83 50 84 58 85 51 86
REMARK SMILES IDX 53 87 59 88 52 89 54 90 55 91 56 92 57 93
REMARK H PARENT 7 13 88 21 79 46 47 57
REMARK Flexibility Score: inf
ROOT
ATOM      1  C   UNL A   1      32.453  30.048  26.382  1.00  0.00     0.202 C 
ENDROOT
BRANCH   1   2
ATOM      2  C   UNL A   1      33.093  29.463  25.121  1.00  0.00     0.261 C 
BRANCH   2   3
ATOM      3  O   UNL A   1      32.480  28.207  24.753  1.00  0.00    -0.462 OA
BRANCH   3   4
ATOM      4  C   UNL A   1      33.183  27.087  25.063  1.00  0.00     0.332 C 
ATOM      5  O   UNL A   1      33.993  26.989  25.978  1.00  0.00    -0.250 OA
BRANCH   4   6
ATOM      6  C   UNL A   1      32.923  25.938  24.078  1.00  0.00     0.282 C 
BRANCH   6   7
ATOM      7  O   UNL A   1      32.062  26.019  22.963  1.00  0.00    -0.368 OA
BRANCH   7   8
ATOM      8  C   UNL A   1      30.839  25.284  23.011  1.00  0.00     0.182 C 
BRANCH   8   9
ATOM      9  C   UNL A   1      30.911  23.913  23.703  1.00  0.00     0.146 C 
BRANCH   9  10
ATOM     10  N   UNL A   1      31.274  22.816  22.812  1.00  0.00    -0.336 N 
ATOM     11  C   UNL A   1      32.169  21.828  22.705  1.00  0.00     0.317 C 
ATOM     12  O   UNL A   1      31.971  21.095  21.729  1.00  0.00    -0.249 OA
ATOM     13  H   UNL A   1      30.662  22.797  22.041  1.00  0.00     0.165 HD
BRANCH  11  14
ATOM     14  N   UNL A   1      33.208  21.605  23.547  1.00  0.00    -0.313 N 
ATOM     15  C   UNL A   1      35.450  23.733  25.772  1.00  0.00     0.077 C 
ATOM     16  C   UNL A   1      34.246  22.845  25.433  1.00  0.00     0.200 C 
ATOM     17  C   UNL A   1      34.343  22.442  23.930  1.00  0.00     0.186 C 
ATOM     18  N   UNL A   1      34.181  21.637  26.305  1.00  0.00    -0.332 N 
ATOM     19  C   UNL A   1      33.080  20.744  25.863  1.00  0.00     0.284 C 
ATOM     20  C   UNL A   1      33.998  21.963  27.721  1.00  0.00     0.333 C 
ATOM     21  H   UNL A   1      35.081  21.166  26.213  1.00  0.00     0.348 HD
ATOM     22  C   UNL A   1      33.166  20.386  24.368  1.00  0.00     0.183 C 
ENDBRANCH  11  14
ENDBRANCH   9  10
ENDBRANCH   8   9
ENDBRANCH   7   8
ENDBRANCH   6   7
ENDBRANCH   4   6
ENDBRANCH   3   4
ENDBRANCH   2   3
ENDBRANCH   1   2
BRANCH   1  23
ATOM     23  O   UNL A   1      31.385  30.976  26.166  1.00  0.00    -0.374 OA
BRANCH  23  24
ATOM     24  C   UNL A   1      31.572  32.290  26.681  1.00  0.00     0.202 C 
BRANCH  24  25
ATOM     25  C   UNL A   1      32.909  32.532  27.395  1.00  0.00     0.261 C 
BRANCH  25  26
ATOM     26  O   UNL A   1      33.068  33.896  27.812  1.00  0.00    -0.460 OA
BRANCH  26  27
ATOM     27  C   UNL A   1      33.690  34.033  29.008  1.00  0.00     0.338 C 
ATOM     28  O   UNL A   1      33.273  34.624  29.990  1.00  0.00    -0.246 OA
BRANCH  27  29
ATOM     29  C   UNL A   1      34.906  33.204  29.054  1.00  0.00     0.060 A 
ATOM     30  C   UNL A   1      34.843  32.048  29.840  1.00  0.00     0.016 A 
ATOM     31  C   UNL A   1      36.101  33.581  28.436  1.00  0.00     0.016 A 
ATOM     32  C   UNL A   1      35.997  31.315  30.090  1.00  0.00     0.010 A 
ATOM     33  C   UNL A   1      37.261  32.840  28.689  1.00  0.00     0.010 A 
ATOM     34  C   UNL A   1      37.224  31.741  29.566  1.00  0.00    -0.014 A 
BRANCH  34  35
ATOM     35  C   UNL A   1      38.461  31.137  30.116  1.00  0.00     0.031 A 
ATOM     36  C   UNL A   1      38.915  31.532  31.496  1.00  0.00     0.074 A 
ATOM     37  C   UNL A   1      39.121  30.180  29.439  1.00  0.00     0.049 A 
ATOM     38  N   UNL A   1      39.871  31.027  32.230  1.00  0.00    -0.248 NA
ATOM     39  C   UNL A   1      38.192  32.644  32.136  1.00  0.00     0.031 C 
ATOM     40  C   UNL A   1      38.790  29.718  28.093  1.00  0.00     0.029 A 
ATOM     41  N   UNL A   1      40.208  29.425  29.800  1.00  0.00    -0.354 N 
ATOM     42  C   UNL A   1      39.879  31.765  33.407  1.00  0.00     0.074 A 
ATOM     43  C   UNL A   1      38.848  32.772  33.280  1.00  0.00     0.031 C 
ATOM     44  C   UNL A   1      39.665  28.763  27.735  1.00  0.00     0.029 A 
ATOM     45  C   UNL A   1      40.615  28.547  28.825  1.00  0.00     0.049 A 
ATOM     46  H   UNL A   1      40.654  29.504  30.674  1.00  0.00     0.167 HD
ATOM     47  C   UNL A   1      40.653  31.608  34.507  1.00  0.00     0.034 A 
ATOM     48  C   UNL A   1      41.635  27.665  28.816  1.00  0.00     0.034 A 
ATOM     49  C   UNL A   1      41.661  30.593  34.644  1.00  0.00     0.049 A 
ATOM     50  C   UNL A   1      42.471  27.491  30.057  1.00  0.00     0.074 A 
ATOM     51  C   UNL A   1      42.463  30.316  35.738  1.00  0.00     0.029 A 
ATOM     52  N   UNL A   1      42.016  29.692  33.651  1.00  0.00    -0.354 N 
ATOM     53  N   UNL A   1      42.368  28.100  31.214  1.00  0.00    -0.248 NA
ATOM     54  C   UNL A   1      43.530  26.473  30.008  1.00  0.00     0.031 C 
ATOM     55  C   UNL A   1      43.318  29.261  35.396  1.00  0.00     0.029 A 
ATOM     56  C   UNL A   1      43.030  28.865  34.100  1.00  0.00     0.049 A 
ATOM     57  H   UNL A   1      41.605  29.647  32.757  1.00  0.00     0.167 HD
ATOM     58  C   UNL A   1      43.325  27.518  32.039  1.00  0.00     0.074 A 
ATOM     59  C   UNL A   1      43.981  26.492  31.255  1.00  0.00     0.031 C 
ATOM     60  C   UNL A   1      43.643  27.816  33.325  1.00  0.00     0.034 A 
BRANCH  47  61
ATOM     61  C   UNL A   1      40.415  32.547  35.659  1.00  0.00     0.023 A 
ATOM     62  C   UNL A   1      41.186  33.723  35.773  1.00  0.00     0.012 A 
ATOM     63  C   UNL A   1      39.415  32.283  36.615  1.00  0.00     0.148 A 
ATOM     64  C   UNL A   1      40.991  34.600  36.839  1.00  0.00     0.002 A 
ATOM     65  C   UNL A   1      39.198  33.184  37.651  1.00  0.00     0.091 A 
ATOM     66  F   UNL A   1      38.712  31.147  36.508  1.00  0.00    -0.205 F 
ATOM     67  C   UNL A   1      39.992  34.336  37.771  1.00  0.00     0.022 A 
BRANCH  65  68
ATOM     68  S   UNL A   1      37.884  32.961  38.856  1.00  0.00     0.127 S 
ATOM     69  O   UNL A   1      38.071  34.130  39.715  1.00  0.00    -0.237 OA
ATOM     70  O   UNL A   1      36.684  33.004  38.020  1.00  0.00    -0.237 OA
ATOM     71  O   UNL A   1      38.136  31.672  39.483  1.00  0.00    -0.744 OA
ENDBRANCH  65  68
ENDBRANCH  47  61
BRANCH  48  72
ATOM     72  C   UNL A   1      41.876  26.836  27.602  1.00  0.00     0.023 A 
ATOM     73  C   UNL A   1      42.508  27.403  26.479  1.00  0.00     0.012 A 
ATOM     74  C   UNL A   1      41.520  25.474  27.576  1.00  0.00     0.148 A 
ATOM     75  C   UNL A   1      42.760  26.634  25.343  1.00  0.00     0.002 A 
ATOM     76  C   UNL A   1      41.825  24.699  26.463  1.00  0.00     0.091 A 
ATOM     77  F   UNL A   1      40.905  24.959  28.650  1.00  0.00    -0.205 F 
ATOM     78  C   UNL A   1      42.429  25.281  25.339  1.00  0.00     0.022 A 
BRANCH  76  79
ATOM     79  S   UNL A   1      41.557  22.924  26.424  1.00  0.00     0.127 S 
ATOM     80  O   UNL A   1      42.249  22.543  25.195  1.00  0.00    -0.237 OA
ATOM     81  O   UNL A   1      42.214  22.495  27.660  1.00  0.00    -0.237 OA
ATOM     82  O   UNL A   1      40.112  22.743  26.419  1.00  0.00    -0.744 OA
ENDBRANCH  76  79
ENDBRANCH  48  72
BRANCH  60  83
ATOM     83  C   UNL A   1      44.734  27.006  33.979  1.00  0.00     0.023 A 
ATOM     84  C   UNL A   1      46.082  27.379  33.808  1.00  0.00     0.012 A 
ATOM     85  C   UNL A   1      44.422  25.910  34.808  1.00  0.00     0.148 A 
ATOM     86  C   UNL A   1      47.103  26.652  34.419  1.00  0.00     0.002 A 
ATOM     87  C   UNL A   1      45.442  25.220  35.452  1.00  0.00     0.091 A 
ATOM     88  F   UNL A   1      43.136  25.554  34.946  1.00  0.00    -0.205 F 
ATOM     89  C   UNL A   1      46.783  25.580  35.248  1.00  0.00     0.022 A 
BRANCH  87  90
ATOM     90  S   UNL A   1      45.104  23.889  36.613  1.00  0.00     0.127 S 
ATOM     91  O   UNL A   1      46.435  23.618  37.153  1.00  0.00    -0.237 OA
ATOM     92  O   UNL A   1      44.180  24.520  37.557  1.00  0.00    -0.237 OA
ATOM     93  O   UNL A   1      44.511  22.820  35.820  1.00  0.00    -0.744 OA
ENDBRANCH  87  90
ENDBRANCH  60  83
ENDBRANCH  34  35
ENDBRANCH  27  29
ENDBRANCH  26  27
ENDBRANCH  25  26
ENDBRANCH  24  25
ENDBRANCH  23  24
ENDBRANCH   1  23
TORSDOF 22
ENDMDL
MODEL 2
REMARK VINA RESULT:      -9.8      2.091      8.053
REMARK SMILES C[C@H]1CN(C(=O)NCCOCC(=O)OCCOCCOC(=O)c2ccc(-c3c4nc(c(-c5cccc(S(=O)(=O)[O-])c5F)c5ccc([nH]5)c(-c5cccc(S(=O)(=O)[O-])c5F)c5nc(c(-c6cccc(S(=O)(=O)[O-])c6F)c6ccc3[nH]6)C=C5)C=C4)cc2)CC[N@@H+]1C
REMARK SMILES IDX 16 1 15 2 14 3 12 4 13 5 11 6 10 7 9 8 8 9 7 10 5 11 6 12
REMARK SMILES IDX 4 14 1 15 2 16 3 17 88 18 87 19 89 20 86 22 17 23 18 24
REMARK SMILES IDX 19 25 20 26 21 27 22 28 23 29 24 30 85 31 25 32 84 33 26 34
REMARK SMILES IDX 27 35 28 36 78 37 29 38 83 39 77 40 79 41 30 42 82 43 76 44
REMARK SMILES IDX 75 45 31 47 63 48 43 49 62 50 44 51 47 52 61 53 80 54 45 55
REMARK SMILES IDX 46 56 60 58 81 59 48 60 32 61 33 62 41 63 34 64 36 65 42 66
REMARK SMILES IDX 35 67 37 68 38 69 39 70 40 71 64 72 65 73 73 74 66 75 68 76
REMARK SMILES IDX 74 77 67 78 69 79 70 80 71 81 72 82 49 83 50 84 58 85 51 86
REMARK SMILES IDX 53 87 59 88 52 89 54 90 55 91 56 92 57 93
REMARK H PARENT 7 13 88 21 79 46 47 57
REMARK Flexibility Score: inf
ROOT
ATOM      1  C   UNL A   1      31.871  26.333  25.718  1.00  0.00     0.202 C 
ENDROOT
BRANCH   1   2
ATOM      2  C   UNL A   1      32.864  25.174  25.831  1.00  0.00     0.261 C 
BRANCH   2   3
ATOM      3  O   UNL A   1      34.152  25.529  25.280  1.00  0.00    -0.462 OA
BRANCH   3   4
ATOM      4  C   UNL A   1      34.929  24.494  24.866  1.00  0.00     0.332 C 
ATOM      5  O   UNL A   1      35.784  23.935  25.543  1.00  0.00    -0.250 OA
BRANCH   4   6
ATOM      6  C   UNL A   1      34.687  24.130  23.394  1.00  0.00     0.282 C 
BRANCH   6   7
ATOM      7  O   UNL A   1      34.252  22.866  22.943  1.00  0.00    -0.368 OA
BRANCH   7   8
ATOM      8  C   UNL A   1      33.444  22.086  23.824  1.00  0.00     0.182 C 
BRANCH   8   9
ATOM      9  C   UNL A   1      32.091  21.626  23.256  1.00  0.00     0.146 C 
BRANCH   9  10
ATOM     10  N   UNL A   1      32.142  20.340  22.569  1.00  0.00    -0.336 N 
ATOM     11  C   UNL A   1      32.385  19.048  22.815  1.00  0.00     0.317 C 
ATOM     12  O   UNL A   1      32.208  18.322  21.829  1.00  0.00    -0.249 OA
ATOM     13  H   UNL A   1      31.926  20.464  21.616  1.00  0.00     0.165 HD
BRANCH  11  14
ATOM     14  N   UNL A   1      32.788  18.529  24.001  1.00  0.00    -0.313 N 
ATOM     15  C   UNL A   1      32.646  15.127  25.706  1.00  0.00     0.077 C 
ATOM     16  C   UNL A   1      33.262  16.246  24.857  1.00  0.00     0.200 C 
ATOM     17  C   UNL A   1      32.258  17.437  24.813  1.00  0.00     0.186 C 
ATOM     18  N   UNL A   1      34.586  16.684  25.388  1.00  0.00    -0.332 N 
ATOM     19  C   UNL A   1      35.088  17.849  24.615  1.00  0.00     0.284 C 
ATOM     20  C   UNL A   1      35.592  15.621  25.364  1.00  0.00     0.333 C 
ATOM     21  H   UNL A   1      34.435  16.942  26.363  1.00  0.00     0.348 HD
ATOM     22  C   UNL A   1      34.070  19.003  24.547  1.00  0.00     0.183 C 
ENDBRANCH  11  14
ENDBRANCH   9  10
ENDBRANCH   8   9
ENDBRANCH   7   8
ENDBRANCH   6   7
ENDBRANCH   4   6
ENDBRANCH   3   4
ENDBRANCH   2   3
ENDBRANCH   1   2
BRANCH   1  23
ATOM     23  O   UNL A   1      32.442  27.623  25.479  1.00  0.00    -0.374 OA
BRANCH  23  24
ATOM     24  C   UNL A   1      31.548  28.731  25.526  1.00  0.00     0.202 C 
BRANCH  24  25
ATOM     25  C   UNL A   1      32.208  30.100  25.744  1.00  0.00     0.261 C 
BRANCH  25  26
ATOM     26  O   UNL A   1      32.358  30.419  27.134  1.00  0.00    -0.460 OA
BRANCH  26  27
ATOM     27  C   UNL A   1      33.091  31.537  27.361  1.00  0.00     0.338 C 
ATOM     28  O   UNL A   1      32.682  32.685  27.416  1.00  0.00    -0.246 OA
BRANCH  27  29
ATOM     29  C   UNL A   1      34.473  31.183  27.723  1.00  0.00     0.060 A 
ATOM     30  C   UNL A   1      34.724  29.830  27.976  1.00  0.00     0.016 A 
ATOM     31  C   UNL A   1      35.474  32.140  27.907  1.00  0.00     0.016 A 
ATOM     32  C   UNL A   1      35.948  29.438  28.505  1.00  0.00     0.010 A 
ATOM     33  C   UNL A   1      36.707  31.743  28.439  1.00  0.00     0.010 A 
ATOM     34  C   UNL A   1      36.924  30.400  28.798  1.00  0.00    -0.014 A 
BRANCH  34  35
ATOM     35  C   UNL A   1      38.065  29.993  29.653  1.00  0.00     0.031 A 
ATOM     36  C   UNL A   1      39.104  29.061  29.087  1.00  0.00     0.074 A 
ATOM     37  C   UNL A   1      38.228  30.516  30.881  1.00  0.00     0.049 A 
ATOM     38  N   UNL A   1      40.251  28.695  29.595  1.00  0.00    -0.248 NA
ATOM     39  C   UNL A   1      38.812  28.466  27.772  1.00  0.00     0.031 C 
ATOM     40  C   UNL A   1      37.289  31.417  31.545  1.00  0.00     0.029 A 
ATOM     41  N   UNL A   1      39.249  30.362  31.785  1.00  0.00    -0.354 N 
ATOM     42  C   UNL A   1      40.811  27.815  28.675  1.00  0.00     0.074 A 
ATOM     43  C   UNL A   1      39.865  27.683  27.589  1.00  0.00     0.031 C 
ATOM     44  C   UNL A   1      37.773  31.730  32.759  1.00  0.00     0.029 A 
ATOM     45  C   UNL A   1      39.053  31.051  32.957  1.00  0.00     0.049 A 
ATOM     46  H   UNL A   1      40.045  29.810  31.611  1.00  0.00     0.167 HD
ATOM     47  C   UNL A   1      42.012  27.192  28.714  1.00  0.00     0.034 A 
ATOM     48  C   UNL A   1      39.823  31.131  34.061  1.00  0.00     0.034 A 
ATOM     49  C   UNL A   1      42.964  27.343  29.780  1.00  0.00     0.049 A 
ATOM     50  C   UNL A   1      41.166  30.448  34.074  1.00  0.00     0.074 A 
ATOM     51  C   UNL A   1      44.231  26.797  29.888  1.00  0.00     0.029 A 
ATOM     52  N   UNL A   1      42.749  28.086  30.932  1.00  0.00    -0.354 N 
ATOM     53  N   UNL A   1      41.741  29.738  33.133  1.00  0.00    -0.248 NA
ATOM     54  C   UNL A   1      41.986  30.619  35.282  1.00  0.00     0.031 C 
ATOM     55  C   UNL A   1      44.773  27.193  31.117  1.00  0.00     0.029 A 
ATOM     56  C   UNL A   1      43.854  28.005  31.761  1.00  0.00     0.049 A 
ATOM     57  H   UNL A   1      41.931  28.595  31.130  1.00  0.00     0.167 HD
ATOM     58  C   UNL A   1      43.000  29.405  33.621  1.00  0.00     0.074 A 
ATOM     59  C   UNL A   1      43.112  30.013  34.931  1.00  0.00     0.031 C 
ATOM     60  C   UNL A   1      43.972  28.653  33.043  1.00  0.00     0.034 A 
BRANCH  47  61
ATOM     61  C   UNL A   1      42.371  26.310  27.547  1.00  0.00     0.023 A 
ATOM     62  C   UNL A   1      43.109  26.842  26.470  1.00  0.00     0.012 A 
ATOM     63  C   UNL A   1      42.002  24.951  27.527  1.00  0.00     0.148 A 
ATOM     64  C   UNL A   1      43.440  26.046  25.374  1.00  0.00     0.002 A 
ATOM     65  C   UNL A   1      42.373  24.154  26.451  1.00  0.00     0.091 A 
ATOM     66  F   UNL A   1      41.276  24.469  28.546  1.00  0.00    -0.205 F 
ATOM     67  C   UNL A   1      43.082  24.702  25.368  1.00  0.00     0.022 A 
BRANCH  65  68
ATOM     68  S   UNL A   1      42.018  22.393  26.393  1.00  0.00     0.127 S 
ATOM     69  O   UNL A   1      42.725  21.989  25.178  1.00  0.00    -0.237 OA
ATOM     70  O   UNL A   1      42.620  21.913  27.637  1.00  0.00    -0.237 OA
ATOM     71  O   UNL A   1      40.567  22.285  26.344  1.00  0.00    -0.744 OA
ENDBRANCH  65  68
ENDBRANCH  47  61
BRANCH  48  72
ATOM     72  C   UNL A   1      39.360  31.943  35.220  1.00  0.00     0.023 A 
ATOM     73  C   UNL A   1      38.519  31.365  36.191  1.00  0.00     0.012 A 
ATOM     74  C   UNL A   1      39.787  33.275  35.385  1.00  0.00     0.148 A 
ATOM     75  C   UNL A   1      38.095  32.107  37.293  1.00  0.00     0.002 A 
ATOM     76  C   UNL A   1      39.407  33.990  36.514  1.00  0.00     0.091 A 
ATOM     77  F   UNL A   1      40.574  33.809  34.441  1.00  0.00    -0.205 F 
ATOM     78  C   UNL A   1      38.547  33.414  37.461  1.00  0.00     0.022 A 
BRANCH  76  79
ATOM     79  S   UNL A   1      40.048  35.627  36.878  1.00  0.00     0.127 S 
ATOM     80  O   UNL A   1      39.402  35.926  38.154  1.00  0.00    -0.237 OA
ATOM     81  O   UNL A   1      41.487  35.373  36.960  1.00  0.00    -0.237 OA
ATOM     82  O   UNL A   1      39.650  36.465  35.756  1.00  0.00    -0.744 OA
ENDBRANCH  76  79
ENDBRANCH  48  72
BRANCH  60  83
ATOM     83  C   UNL A   1      45.255  28.462  33.811  1.00  0.00     0.023 A 
ATOM     84  C   UNL A   1      46.329  29.352  33.613  1.00  0.00     0.012 A 
ATOM     85  C   UNL A   1      45.378  27.437  34.769  1.00  0.00     0.148 A 
ATOM     86  C   UNL A   1      47.518  29.202  34.326  1.00  0.00     0.002 A 
ATOM     87  C   UNL A   1      46.548  27.322  35.511  1.00  0.00     0.091 A 
ATOM     88  F   UNL A   1      44.355  26.584  34.933  1.00  0.00    -0.205 F 
ATOM     89  C   UNL A   1      47.624  28.194  35.281  1.00  0.00     0.022 A 
BRANCH  87  90
ATOM     90  S   UNL A   1      46.724  26.111  36.828  1.00  0.00     0.127 S 
ATOM     91  O   UNL A   1      45.843  26.657  37.857  1.00  0.00    -0.237 OA
ATOM     92  O   UNL A   1      46.236  24.884  36.196  1.00  0.00    -0.237 OA
ATOM     93  O   UNL A   1      48.145  26.091  37.153  1.00  0.00    -0.744 OA
ENDBRANCH  87  90
ENDBRANCH  60  83
ENDBRANCH  34  35
ENDBRANCH  27  29
ENDBRANCH  26  27
ENDBRANCH  25  26
ENDBRANCH  24  25
ENDBRANCH  23  24
ENDBRANCH   1  23
TORSDOF 22
ENDMDL
MODEL 3
REMARK VINA RESULT:      -9.7      5.028     10.328
REMARK SMILES C[C@H]1CN(C(=O)NCCOCC(=O)OCCOCCOC(=O)c2ccc(-c3c4nc(c(-c5cccc(S(=O)(=O)[O-])c5F)c5ccc([nH]5)c(-c5cccc(S(=O)(=O)[O-])c5F)c5nc(c(-c6cccc(S(=O)(=O)[O-])c6F)c6ccc3[nH]6)C=C5)C=C4)cc2)CC[N@@H+]1C
REMARK SMILES IDX 16 1 15 2 14 3 12 4 13 5 11 6 10 7 9 8 8 9 7 10 5 11 6 12
REMARK SMILES IDX 4 14 1 15 2 16 3 17 88 18 87 19 89 20 86 22 17 23 18 24
REMARK SMILES IDX 19 25 20 26 21 27 22 28 23 29 24 30 85 31 25 32 84 33 26 34
REMARK SMILES IDX 27 35 28 36 78 37 29 38 83 39 77 40 79 41 30 42 82 43 76 44
REMARK SMILES IDX 75 45 31 47 63 48 43 49 62 50 44 51 47 52 61 53 80 54 45 55
REMARK SMILES IDX 46 56 60 58 81 59 48 60 32 61 33 62 41 63 34 64 36 65 42 66
REMARK SMILES IDX 35 67 37 68 38 69 39 70 40 71 64 72 65 73 73 74 66 75 68 76
REMARK SMILES IDX 74 77 67 78 69 79 70 80 71 81 72 82 49 83 50 84 58 85 51 86
REMARK SMILES IDX 53 87 59 88 52 89 54 90 55 91 56 92 57 93
REMARK H PARENT 7 13 88 21 79 46 47 57
REMARK Flexibility Score: inf
ROOT
ATOM      1  C   UNL A   1      35.574  21.473  25.900  1.00  0.00     0.202 C 
ENDROOT
BRANCH   1   2
ATOM      2  C   UNL A   1      34.385  22.415  25.698  1.00  0.00     0.261 C 
BRANCH   2   3
ATOM      3  O   UNL A   1      34.149  22.674  24.296  1.00  0.00    -0.462 OA
BRANCH   3   4
ATOM      4  C   UNL A   1      34.911  23.647  23.732  1.00  0.00     0.332 C 
ATOM      5  O   UNL A   1      35.896  23.456  23.027  1.00  0.00    -0.250 OA
BRANCH   4   6
ATOM      6  C   UNL A   1      34.461  25.057  24.140  1.00  0.00     0.282 C 
BRANCH   6   7
ATOM      7  O   UNL A   1      34.405  25.526  25.469  1.00  0.00    -0.368 OA
BRANCH   7   8
ATOM      8  C   UNL A   1      33.521  26.610  25.755  1.00  0.00     0.182 C 
BRANCH   8   9
ATOM      9  C   UNL A   1      32.159  26.220  26.353  1.00  0.00     0.146 C 
BRANCH   9  10
ATOM     10  N   UNL A   1      31.627  24.960  25.847  1.00  0.00    -0.336 N 
ATOM     11  C   UNL A   1      30.960  24.469  24.797  1.00  0.00     0.317 C 
ATOM     12  O   UNL A   1      30.821  23.241  24.837  1.00  0.00    -0.249 OA
ATOM     13  H   UNL A   1      31.824  24.235  26.485  1.00  0.00     0.165 HD
BRANCH  11  14
ATOM     14  N   UNL A   1      30.460  25.195  23.766  1.00  0.00    -0.313 N 
ATOM     15  C   UNL A   1      28.193  28.231  23.385  1.00  0.00     0.077 C 
ATOM     16  C   UNL A   1      29.525  27.483  23.511  1.00  0.00     0.200 C 
ATOM     17  C   UNL A   1      29.222  25.958  23.627  1.00  0.00     0.186 C 
ATOM     18  N   UNL A   1      30.431  27.759  22.358  1.00  0.00    -0.332 N 
ATOM     19  C   UNL A   1      31.654  26.921  22.454  1.00  0.00     0.284 C 
ATOM     20  C   UNL A   1      30.819  29.168  22.261  1.00  0.00     0.333 C 
ATOM     21  H   UNL A   1      29.905  27.526  21.516  1.00  0.00     0.348 HD
ATOM     22  C   UNL A   1      31.339  25.422  22.608  1.00  0.00     0.183 C 
ENDBRANCH  11  14
ENDBRANCH   9  10
ENDBRANCH   8   9
ENDBRANCH   7   8
ENDBRANCH   6   7
ENDBRANCH   4   6
ENDBRANCH   3   4
ENDBRANCH   2   3
ENDBRANCH   1   2
BRANCH   1  23
ATOM     23  O   UNL A   1      36.023  20.777  24.732  1.00  0.00    -0.374 OA
BRANCH  23  24
ATOM     24  C   UNL A   1      36.569  19.478  24.939  1.00  0.00     0.202 C 
BRANCH  24  25
ATOM     25  C   UNL A   1      38.100  19.415  25.032  1.00  0.00     0.261 C 
BRANCH  25  26
ATOM     26  O   UNL A   1      38.678  20.674  25.402  1.00  0.00    -0.460 OA
BRANCH  26  27
ATOM     27  C   UNL A   1      39.843  20.560  26.086  1.00  0.00     0.338 C 
ATOM     28  O   UNL A   1      40.653  19.652  26.011  1.00  0.00    -0.246 OA
BRANCH  27  29
ATOM     29  C   UNL A   1      40.121  21.795  26.839  1.00  0.00     0.060 A 
ATOM     30  C   UNL A   1      39.525  22.966  26.358  1.00  0.00     0.016 A 
ATOM     31  C   UNL A   1      41.008  21.837  27.918  1.00  0.00     0.016 A 
ATOM     32  C   UNL A   1      39.885  24.197  26.892  1.00  0.00     0.010 A 
ATOM     33  C   UNL A   1      41.369  23.079  28.454  1.00  0.00     0.010 A 
ATOM     34  C   UNL A   1      40.855  24.266  27.901  1.00  0.00    -0.014 A 
BRANCH  34  35
ATOM     35  C   UNL A   1      41.445  25.592  28.208  1.00  0.00     0.031 A 
ATOM     36  C   UNL A   1      42.828  25.907  27.705  1.00  0.00     0.074 A 
ATOM     37  C   UNL A   1      40.727  26.536  28.841  1.00  0.00     0.049 A 
ATOM     38  N   UNL A   1      43.477  27.042  27.724  1.00  0.00    -0.248 NA
ATOM     39  C   UNL A   1      43.580  24.797  27.097  1.00  0.00     0.031 C 
ATOM     40  C   UNL A   1      39.385  26.352  29.386  1.00  0.00     0.029 A 
ATOM     41  N   UNL A   1      41.034  27.842  29.129  1.00  0.00    -0.354 N 
ATOM     42  C   UNL A   1      44.716  26.781  27.150  1.00  0.00     0.074 A 
ATOM     43  C   UNL A   1      44.739  25.374  26.815  1.00  0.00     0.031 C 
ATOM     44  C   UNL A   1      38.985  27.503  29.954  1.00  0.00     0.029 A 
ATOM     45  C   UNL A   1      40.042  28.502  29.812  1.00  0.00     0.049 A 
ATOM     46  H   UNL A   1      41.885  28.266  28.871  1.00  0.00     0.167 HD
ATOM     47  C   UNL A   1      45.735  27.636  26.898  1.00  0.00     0.034 A 
ATOM     48  C   UNL A   1      39.990  29.770  30.266  1.00  0.00     0.034 A 
ATOM     49  C   UNL A   1      45.705  29.040  27.207  1.00  0.00     0.049 A 
ATOM     50  C   UNL A   1      41.126  30.711  29.955  1.00  0.00     0.074 A 
ATOM     51  C   UNL A   1      46.664  30.002  26.944  1.00  0.00     0.029 A 
ATOM     52  N   UNL A   1      44.663  29.682  27.860  1.00  0.00    -0.354 N 
ATOM     53  N   UNL A   1      42.227  30.483  29.282  1.00  0.00    -0.248 NA
ATOM     54  C   UNL A   1      40.986  32.097  30.425  1.00  0.00     0.031 C 
ATOM     55  C   UNL A   1      46.211  31.222  27.459  1.00  0.00     0.029 A 
ATOM     56  C   UNL A   1      44.959  31.025  28.018  1.00  0.00     0.049 A 
ATOM     57  H   UNL A   1      43.835  29.247  28.165  1.00  0.00     0.167 HD
ATOM     58  C   UNL A   1      42.897  31.700  29.219  1.00  0.00     0.074 A 
ATOM     59  C   UNL A   1      42.064  32.668  29.902  1.00  0.00     0.031 C 
ATOM     60  C   UNL A   1      44.100  31.989  28.659  1.00  0.00     0.034 A 
BRANCH  47  61
ATOM     61  C   UNL A   1      46.961  27.073  26.229  1.00  0.00     0.023 A 
ATOM     62  C   UNL A   1      47.078  27.129  24.825  1.00  0.00     0.012 A 
ATOM     63  C   UNL A   1      48.006  26.512  26.987  1.00  0.00     0.148 A 
ATOM     64  C   UNL A   1      48.199  26.601  24.184  1.00  0.00     0.002 A 
ATOM     65  C   UNL A   1      49.139  26.027  26.344  1.00  0.00     0.091 A 
ATOM     66  F   UNL A   1      47.866  26.441  28.319  1.00  0.00    -0.205 F 
ATOM     67  C   UNL A   1      49.232  26.060  24.943  1.00  0.00     0.022 A 
BRANCH  65  68
ATOM     68  S   UNL A   1      50.552  25.379  27.246  1.00  0.00     0.127 S 
ATOM     69  O   UNL A   1      50.917  26.520  28.084  1.00  0.00    -0.237 OA
ATOM     70  O   UNL A   1      49.966  24.252  27.973  1.00  0.00    -0.237 OA
ATOM     71  O   UNL A   1      51.527  25.001  26.234  1.00  0.00    -0.744 OA
ENDBRANCH  65  68
ENDBRANCH  47  61
BRANCH  48  72
ATOM     72  C   UNL A   1      38.786  30.235  31.009  1.00  0.00     0.023 A 
ATOM     73  C   UNL A   1      38.690  30.016  32.397  1.00  0.00     0.012 A 
ATOM     74  C   UNL A   1      37.755  30.932  30.350  1.00  0.00     0.148 A 
ATOM     75  C   UNL A   1      37.578  30.464  33.110  1.00  0.00     0.002 A 
ATOM     76  C   UNL A   1      36.677  31.425  31.075  1.00  0.00     0.091 A 
ATOM     77  F   UNL A   1      37.860  31.114  29.026  1.00  0.00    -0.205 F 
ATOM     78  C   UNL A   1      36.578  31.177  32.453  1.00  0.00     0.022 A 
BRANCH  76  79
ATOM     79  S   UNL A   1      35.415  32.466  30.336  1.00  0.00     0.127 S 
ATOM     80  O   UNL A   1      36.186  33.646  29.952  1.00  0.00    -0.237 OA
ATOM     81  O   UNL A   1      34.958  31.637  29.221  1.00  0.00    -0.237 OA
ATOM     82  O   UNL A   1      34.417  32.675  31.377  1.00  0.00    -0.744 OA
ENDBRANCH  76  79
ENDBRANCH  48  72
BRANCH  60  83
ATOM     83  C   UNL A   1      44.581  33.416  28.737  1.00  0.00     0.023 A 
ATOM     84  C   UNL A   1      44.255  34.321  27.708  1.00  0.00     0.012 A 
ATOM     85  C   UNL A   1      45.305  33.874  29.854  1.00  0.00     0.148 A 
ATOM     86  C   UNL A   1      44.677  35.649  27.770  1.00  0.00     0.002 A 
ATOM     87  C   UNL A   1      45.681  35.210  29.933  1.00  0.00     0.091 A 
ATOM     88  F   UNL A   1      45.625  32.996  30.817  1.00  0.00    -0.205 F 
ATOM     89  C   UNL A   1      45.380  36.096  28.886  1.00  0.00     0.022 A 
BRANCH  87  90
ATOM     90  S   UNL A   1      46.504  35.883  31.382  1.00  0.00     0.127 S 
ATOM     91  O   UNL A   1      45.549  35.567  32.443  1.00  0.00    -0.237 OA
ATOM     92  O   UNL A   1      47.746  35.109  31.429  1.00  0.00    -0.237 OA
ATOM     93  O   UNL A   1      46.694  37.301  31.102  1.00  0.00    -0.744 OA
ENDBRANCH  87  90
ENDBRANCH  60  83
ENDBRANCH  34  35
ENDBRANCH  27  29
ENDBRANCH  26  27
ENDBRANCH  25  26
ENDBRANCH  24  25
ENDBRANCH  23  24
ENDBRANCH   1  23
TORSDOF 22
ENDMDL
