MODEL 1
REMARK VINA RESULT:     -11.8      0.000      0.000
REMARK SMILES O=C(OCCOCCOC(=O)c1ccc([C@@H]2CC(O)=Nc3c2ncn3-c2cccc(Cl)c2)cc1)c1ccc(-c2c3nc(c(-c4cccc(S(=O)(=O)[O-])c4F)c4ccc([nH]4)c(-c4cccc(S(=O)(=O)[O-])c4F)c4nc(c(-c5cccc(S(=O)(=O)[O-])c5F)c5ccc2[nH]5)C=C4)C=C3)cc1
REMARK SMILES IDX 5 1 4 2 3 3 2 4 1 5 35 6 36 7 97 8 37 9 96 10 38 11 39 12
REMARK SMILES IDX 40 13 90 14 41 15 95 16 89 17 91 18 42 19 94 20 88 21 87 22
REMARK SMILES IDX 43 24 75 25 55 26 74 27 56 28 59 29 73 30 92 31 57 32 58 33
REMARK SMILES IDX 72 35 93 36 60 37 44 38 45 39 53 40 46 41 48 42 54 43 47 44
REMARK SMILES IDX 49 45 50 46 51 47 52 48 76 49 77 50 85 51 78 52 80 53 86 54
REMARK SMILES IDX 79 55 81 56 82 57 83 58 84 59 61 60 62 61 70 62 63 63 65 64
REMARK SMILES IDX 71 65 64 66 66 67 67 68 68 69 69 70 6 71 7 72 8 73 9 74
REMARK SMILES IDX 10 75 11 76 12 77 13 78 34 79 14 80 33 81 15 82 16 83 17 84
REMARK SMILES IDX 22 85 18 86 21 87 23 88 20 89 25 90 24 91 19 92 26 94 27 95
REMARK SMILES IDX 32 96 28 97 30 98 29 99 31 100
REMARK H PARENT 91 23 59 34 19 93
REMARK Flexibility Score: inf
ROOT
ATOM      1  C   UNL A   1      35.056  30.374  27.591  1.00  0.00     0.202 C 
ENDROOT
BRANCH   1   2
ATOM      2  C   UNL A   1      35.012  31.609  28.487  1.00  0.00     0.261 C 
BRANCH   2   3
ATOM      3  O   UNL A   1      35.166  31.350  29.895  1.00  0.00    -0.460 OA
BRANCH   3   4
ATOM      4  C   UNL A   1      36.319  31.560  30.568  1.00  0.00     0.338 C 
ATOM      5  O   UNL A   1      36.337  32.236  31.592  1.00  0.00    -0.246 OA
BRANCH   4   6
ATOM      6  C   UNL A   1      37.477  30.707  30.202  1.00  0.00     0.060 A 
ATOM      7  C   UNL A   1      37.475  29.317  30.306  1.00  0.00     0.016 A 
ATOM      8  C   UNL A   1      38.672  31.373  29.888  1.00  0.00     0.016 A 
ATOM      9  C   UNL A   1      38.663  28.636  30.405  1.00  0.00     0.010 A 
ATOM     10  C   UNL A   1      39.870  30.682  29.911  1.00  0.00     0.010 A 
ATOM     11  C   UNL A   1      39.852  29.344  30.288  1.00  0.00    -0.014 A 
BRANCH  11  12
ATOM     12  C   UNL A   1      41.064  28.591  30.535  1.00  0.00     0.031 A 
ATOM     13  C   UNL A   1      41.503  28.618  31.951  1.00  0.00     0.074 A 
ATOM     14  C   UNL A   1      41.691  27.934  29.543  1.00  0.00     0.049 A 
ATOM     15  N   UNL A   1      42.579  29.138  32.445  1.00  0.00    -0.248 NA
ATOM     16  C   UNL A   1      40.522  28.187  32.958  1.00  0.00     0.031 C 
ATOM     17  C   UNL A   1      41.192  27.670  28.190  1.00  0.00     0.029 A 
ATOM     18  N   UNL A   1      42.846  27.222  29.593  1.00  0.00    -0.354 N 
ATOM     19  C   UNL A   1      42.513  28.879  33.814  1.00  0.00     0.074 A 
ATOM     20  C   UNL A   1      41.152  28.509  34.086  1.00  0.00     0.031 C 
ATOM     21  C   UNL A   1      41.880  26.630  27.670  1.00  0.00     0.029 A 
ATOM     22  C   UNL A   1      42.936  26.261  28.595  1.00  0.00     0.049 A 
ATOM     23  H   UNL A   1      43.548  27.371  30.268  1.00  0.00     0.167 HD
ATOM     24  C   UNL A   1      43.644  28.716  34.553  1.00  0.00     0.034 A 
ATOM     25  C   UNL A   1      43.741  25.171  28.607  1.00  0.00     0.034 A 
ATOM     26  C   UNL A   1      44.785  29.300  33.891  1.00  0.00     0.049 A 
ATOM     27  C   UNL A   1      44.816  25.423  29.594  1.00  0.00     0.074 A 
ATOM     28  C   UNL A   1      45.124  30.566  33.456  1.00  0.00     0.029 A 
ATOM     29  N   UNL A   1      45.649  28.439  33.259  1.00  0.00    -0.354 N 
ATOM     30  N   UNL A   1      45.738  26.333  29.441  1.00  0.00    -0.248 NA
ATOM     31  C   UNL A   1      44.614  24.963  30.960  1.00  0.00     0.031 C 
ATOM     32  C   UNL A   1      45.858  30.358  32.251  1.00  0.00     0.029 A 
ATOM     33  C   UNL A   1      45.971  28.981  32.047  1.00  0.00     0.049 A 
ATOM     34  H   UNL A   1      45.977  27.582  33.617  1.00  0.00     0.167 HD
ATOM     35  C   UNL A   1      45.899  26.880  30.708  1.00  0.00     0.074 A 
ATOM     36  C   UNL A   1      45.273  25.921  31.617  1.00  0.00     0.031 C 
ATOM     37  C   UNL A   1      46.252  28.191  30.870  1.00  0.00     0.034 A 
BRANCH  24  38
ATOM     38  C   UNL A   1      43.816  27.648  35.625  1.00  0.00     0.023 A 
ATOM     39  C   UNL A   1      44.184  28.102  36.914  1.00  0.00     0.012 A 
ATOM     40  C   UNL A   1      43.956  26.261  35.382  1.00  0.00     0.148 A 
ATOM     41  C   UNL A   1      44.784  27.254  37.851  1.00  0.00     0.002 A 
ATOM     42  C   UNL A   1      44.501  25.411  36.336  1.00  0.00     0.091 A 
ATOM     43  F   UNL A   1      43.664  25.744  34.190  1.00  0.00    -0.205 F 
ATOM     44  C   UNL A   1      44.956  25.909  37.557  1.00  0.00     0.022 A 
BRANCH  42  45
ATOM     45  S   UNL A   1      44.719  23.653  36.015  1.00  0.00     0.127 S 
ATOM     46  O   UNL A   1      43.371  23.266  35.609  1.00  0.00    -0.237 OA
ATOM     47  O   UNL A   1      45.712  23.669  34.942  1.00  0.00    -0.237 OA
ATOM     48  O   UNL A   1      45.200  23.076  37.265  1.00  0.00    -0.744 OA
ENDBRANCH  42  45
ENDBRANCH  24  38
BRANCH  25  49
ATOM     49  C   UNL A   1      43.467  23.822  28.062  1.00  0.00     0.023 A 
ATOM     50  C   UNL A   1      42.312  23.130  28.471  1.00  0.00     0.012 A 
ATOM     51  C   UNL A   1      44.189  23.319  26.955  1.00  0.00     0.148 A 
ATOM     52  C   UNL A   1      41.876  21.989  27.787  1.00  0.00     0.002 A 
ATOM     53  C   UNL A   1      43.761  22.176  26.288  1.00  0.00     0.091 A 
ATOM     54  F   UNL A   1      45.239  24.012  26.496  1.00  0.00    -0.205 F 
ATOM     55  C   UNL A   1      42.597  21.514  26.695  1.00  0.00     0.022 A 
BRANCH  53  56
ATOM     56  S   UNL A   1      44.636  21.516  24.862  1.00  0.00     0.127 S 
ATOM     57  O   UNL A   1      44.001  20.207  24.696  1.00  0.00    -0.237 OA
ATOM     58  O   UNL A   1      44.307  22.491  23.827  1.00  0.00    -0.237 OA
ATOM     59  O   UNL A   1      46.039  21.453  25.250  1.00  0.00    -0.744 OA
ENDBRANCH  53  56
ENDBRANCH  25  49
BRANCH  37  60
ATOM     60  C   UNL A   1      46.724  28.954  29.660  1.00  0.00     0.023 A 
ATOM     61  C   UNL A   1      48.032  28.820  29.149  1.00  0.00     0.012 A 
ATOM     62  C   UNL A   1      45.773  29.672  28.916  1.00  0.00     0.148 A 
ATOM     63  C   UNL A   1      48.388  29.409  27.932  1.00  0.00     0.002 A 
ATOM     64  C   UNL A   1      46.117  30.213  27.683  1.00  0.00     0.091 A 
ATOM     65  F   UNL A   1      44.532  29.784  29.413  1.00  0.00    -0.205 F 
ATOM     66  C   UNL A   1      47.426  30.093  27.192  1.00  0.00     0.022 A 
BRANCH  64  67
ATOM     67  S   UNL A   1      44.888  30.984  26.627  1.00  0.00     0.127 S 
ATOM     68  O   UNL A   1      45.693  31.418  25.488  1.00  0.00    -0.237 OA
ATOM     69  O   UNL A   1      43.975  29.874  26.344  1.00  0.00    -0.237 OA
ATOM     70  O   UNL A   1      44.292  32.051  27.421  1.00  0.00    -0.744 OA
ENDBRANCH  64  67
ENDBRANCH  37  60
ENDBRANCH  11  12
ENDBRANCH   4   6
ENDBRANCH   3   4
ENDBRANCH   2   3
ENDBRANCH   1   2
BRANCH   1  71
ATOM     71  O   UNL A   1      33.898  30.026  26.847  1.00  0.00    -0.374 OA
BRANCH  71  72
ATOM     72  C   UNL A   1      32.720  30.818  27.067  1.00  0.00     0.202 C 
BRANCH  72  73
ATOM     73  C   UNL A   1      31.565  30.776  26.048  1.00  0.00     0.261 C 
BRANCH  73  74
ATOM     74  O   UNL A   1      31.812  29.896  24.933  1.00  0.00    -0.460 OA
BRANCH  74  75
ATOM     75  C   UNL A   1      30.710  29.370  24.346  1.00  0.00     0.338 C 
ATOM     76  O   UNL A   1      29.866  29.963  23.691  1.00  0.00    -0.246 OA
BRANCH  75  77
ATOM     77  C   UNL A   1      30.786  27.896  24.392  1.00  0.00     0.060 A 
ATOM     78  C   UNL A   1      31.688  27.321  25.295  1.00  0.00     0.016 A 
ATOM     79  C   UNL A   1      29.997  27.089  23.577  1.00  0.00     0.016 A 
ATOM     80  C   UNL A   1      31.792  25.937  25.397  1.00  0.00     0.005 A 
ATOM     81  C   UNL A   1      30.145  25.698  23.641  1.00  0.00     0.005 A 
ATOM     82  C   UNL A   1      31.039  25.105  24.555  1.00  0.00    -0.038 A 
BRANCH  82  83
ATOM     83  C   UNL A   1      31.318  23.610  24.603  1.00  0.00     0.081 C 
ATOM     84  C   UNL A   1      31.039  23.051  26.014  1.00  0.00     0.111 C 
ATOM     85  C   UNL A   1      32.726  23.392  24.201  1.00  0.00     0.093 A 
ATOM     86  C   UNL A   1      32.281  22.721  26.824  1.00  0.00     0.188 C 
ATOM     87  C   UNL A   1      33.650  22.876  25.081  1.00  0.00     0.164 A 
ATOM     88  N   UNL A   1      33.292  23.723  23.003  1.00  0.00    -0.238 NA
ATOM     89  N   UNL A   1      33.491  22.571  26.392  1.00  0.00    -0.198 NA
ATOM     90  N   UNL A   1      34.851  22.911  24.398  1.00  0.00    -0.283 N 
ATOM     91  C   UNL A   1      34.576  23.476  23.170  1.00  0.00     0.206 A 
BRANCH  86  92
ATOM     92  O   UNL A   1      32.042  22.512  28.134  1.00  0.00    -0.496 OA
ATOM     93  H   UNL A   1      32.296  21.703  28.534  1.00  0.00     0.294 HD
ENDBRANCH  86  92
BRANCH  90  94
ATOM     94  C   UNL A   1      36.108  22.493  24.882  1.00  0.00     0.050 A 
ATOM     95  C   UNL A   1      36.528  21.172  24.693  1.00  0.00     0.027 A 
ATOM     96  C   UNL A   1      36.939  23.422  25.521  1.00  0.00     0.047 A 
ATOM     97  C   UNL A   1      37.808  20.797  25.105  1.00  0.00     0.004 A 
ATOM     98  C   UNL A   1      38.191  23.020  25.974  1.00  0.00     0.043 A 
ATOM     99  C   UNL A   1      38.636  21.717  25.754  1.00  0.00     0.020 A 
ATOM    100  Cl  UNL A   1      39.192  24.135  26.822  1.00  0.00    -0.084 Cl
ENDBRANCH  90  94
ENDBRANCH  82  83
ENDBRANCH  75  77
ENDBRANCH  74  75
ENDBRANCH  73  74
ENDBRANCH  72  73
ENDBRANCH  71  72
ENDBRANCH   1  71
TORSDOF 20
ENDMDL
MODEL 2
REMARK VINA RESULT:     -11.7      2.254      2.845
REMARK SMILES O=C(OCCOCCOC(=O)c1ccc([C@@H]2CC(O)=Nc3c2ncn3-c2cccc(Cl)c2)cc1)c1ccc(-c2c3nc(c(-c4cccc(S(=O)(=O)[O-])c4F)c4ccc([nH]4)c(-c4cccc(S(=O)(=O)[O-])c4F)c4nc(c(-c5cccc(S(=O)(=O)[O-])c5F)c5ccc2[nH]5)C=C4)C=C3)cc1
REMARK SMILES IDX 5 1 4 2 3 3 2 4 1 5 35 6 36 7 97 8 37 9 96 10 38 11 39 12
REMARK SMILES IDX 40 13 90 14 41 15 95 16 89 17 91 18 42 19 94 20 88 21 87 22
REMARK SMILES IDX 43 24 75 25 55 26 74 27 56 28 59 29 73 30 92 31 57 32 58 33
REMARK SMILES IDX 72 35 93 36 60 37 44 38 45 39 53 40 46 41 48 42 54 43 47 44
REMARK SMILES IDX 49 45 50 46 51 47 52 48 76 49 77 50 85 51 78 52 80 53 86 54
REMARK SMILES IDX 79 55 81 56 82 57 83 58 84 59 61 60 62 61 70 62 63 63 65 64
REMARK SMILES IDX 71 65 64 66 66 67 67 68 68 69 69 70 6 71 7 72 8 73 9 74
REMARK SMILES IDX 10 75 11 76 12 77 13 78 34 79 14 80 33 81 15 82 16 83 17 84
REMARK SMILES IDX 22 85 18 86 21 87 23 88 20 89 25 90 24 91 19 92 26 94 27 95
REMARK SMILES IDX 32 96 28 97 30 98 29 99 31 100
REMARK H PARENT 91 23 59 34 19 93
REMARK Flexibility Score: inf
ROOT
ATOM      1  C   UNL A   1      33.604  32.645  27.648  1.00  0.00     0.202 C 
ENDROOT
BRANCH   1   2
ATOM      2  C   UNL A   1      34.791  32.013  28.370  1.00  0.00     0.261 C 
BRANCH   2   3
ATOM      3  O   UNL A   1      34.743  32.083  29.806  1.00  0.00    -0.460 OA
BRANCH   3   4
ATOM      4  C   UNL A   1      35.841  32.015  30.592  1.00  0.00     0.338 C 
ATOM      5  O   UNL A   1      35.791  32.339  31.774  1.00  0.00    -0.246 OA
BRANCH   4   6
ATOM      6  C   UNL A   1      37.003  31.259  30.061  1.00  0.00     0.060 A 
ATOM      7  C   UNL A   1      36.985  29.887  29.819  1.00  0.00     0.016 A 
ATOM      8  C   UNL A   1      38.213  31.962  29.956  1.00  0.00     0.016 A 
ATOM      9  C   UNL A   1      38.163  29.183  29.782  1.00  0.00     0.010 A 
ATOM     10  C   UNL A   1      39.404  31.267  29.843  1.00  0.00     0.010 A 
ATOM     11  C   UNL A   1      39.362  29.879  29.878  1.00  0.00    -0.014 A 
BRANCH  11  12
ATOM     12  C   UNL A   1      40.558  29.068  29.967  1.00  0.00     0.031 A 
ATOM     13  C   UNL A   1      40.984  28.787  31.359  1.00  0.00     0.074 A 
ATOM     14  C   UNL A   1      41.184  28.625  28.862  1.00  0.00     0.049 A 
ATOM     15  N   UNL A   1      42.064  29.171  31.959  1.00  0.00    -0.248 NA
ATOM     16  C   UNL A   1      39.986  28.171  32.246  1.00  0.00     0.031 C 
ATOM     17  C   UNL A   1      40.694  28.662  27.481  1.00  0.00     0.029 A 
ATOM     18  N   UNL A   1      42.327  27.897  28.768  1.00  0.00    -0.354 N 
ATOM     19  C   UNL A   1      41.980  28.630  33.241  1.00  0.00     0.074 A 
ATOM     20  C   UNL A   1      40.610  28.235  33.421  1.00  0.00     0.031 C 
ATOM     21  C   UNL A   1      41.369  27.743  26.757  1.00  0.00     0.029 A 
ATOM     22  C   UNL A   1      42.411  27.167  27.589  1.00  0.00     0.049 A 
ATOM     23  H   UNL A   1      43.024  27.887  29.463  1.00  0.00     0.167 HD
ATOM     24  C   UNL A   1      43.101  28.293  33.936  1.00  0.00     0.034 A 
ATOM     25  C   UNL A   1      43.196  26.086  27.375  1.00  0.00     0.034 A 
ATOM     26  C   UNL A   1      44.258  28.983  33.419  1.00  0.00     0.049 A 
ATOM     27  C   UNL A   1      44.267  26.103  28.400  1.00  0.00     0.074 A 
ATOM     28  C   UNL A   1      44.622  30.305  33.264  1.00  0.00     0.029 A 
ATOM     29  N   UNL A   1      45.114  28.259  32.625  1.00  0.00    -0.354 N 
ATOM     30  N   UNL A   1      45.205  27.008  28.448  1.00  0.00    -0.248 NA
ATOM     31  C   UNL A   1      44.043  25.368  29.635  1.00  0.00     0.031 C 
ATOM     32  C   UNL A   1      45.364  30.343  32.047  1.00  0.00     0.029 A 
ATOM     33  C   UNL A   1      45.456  29.039  31.557  1.00  0.00     0.049 A 
ATOM     34  H   UNL A   1      45.424  27.340  32.795  1.00  0.00     0.167 HD
ATOM     35  C   UNL A   1      45.362  27.271  29.803  1.00  0.00     0.074 A 
ATOM     36  C   UNL A   1      44.712  26.153  30.485  1.00  0.00     0.031 C 
ATOM     37  C   UNL A   1      45.736  28.511  30.240  1.00  0.00     0.034 A 
BRANCH  24  38
ATOM     38  C   UNL A   1      43.245  27.019  34.758  1.00  0.00     0.023 A 
ATOM     39  C   UNL A   1      43.358  27.183  36.160  1.00  0.00     0.012 A 
ATOM     40  C   UNL A   1      43.592  25.748  34.243  1.00  0.00     0.148 A 
ATOM     41  C   UNL A   1      43.913  26.192  36.976  1.00  0.00     0.002 A 
ATOM     42  C   UNL A   1      44.092  24.746  35.066  1.00  0.00     0.091 A 
ATOM     43  F   UNL A   1      43.547  25.506  32.934  1.00  0.00    -0.205 F 
ATOM     44  C   UNL A   1      44.295  24.976  36.426  1.00  0.00     0.022 A 
BRANCH  42  45
ATOM     45  S   UNL A   1      44.573  23.142  34.407  1.00  0.00     0.127 S 
ATOM     46  O   UNL A   1      45.749  23.496  33.617  1.00  0.00    -0.237 OA
ATOM     47  O   UNL A   1      44.849  22.389  35.630  1.00  0.00    -0.237 OA
ATOM     48  O   UNL A   1      43.421  22.657  33.655  1.00  0.00    -0.744 OA
ENDBRANCH  42  45
ENDBRANCH  24  38
BRANCH  25  49
ATOM     49  C   UNL A   1      42.905  24.887  26.555  1.00  0.00     0.023 A 
ATOM     50  C   UNL A   1      43.816  24.491  25.557  1.00  0.00     0.012 A 
ATOM     51  C   UNL A   1      41.876  23.986  26.915  1.00  0.00     0.148 A 
ATOM     52  C   UNL A   1      43.720  23.232  24.954  1.00  0.00     0.002 A 
ATOM     53  C   UNL A   1      41.775  22.742  26.302  1.00  0.00     0.091 A 
ATOM     54  F   UNL A   1      41.054  24.308  27.922  1.00  0.00    -0.205 F 
ATOM     55  C   UNL A   1      42.704  22.356  25.328  1.00  0.00     0.022 A 
BRANCH  53  56
ATOM     56  S   UNL A   1      40.497  21.557  26.745  1.00  0.00     0.127 S 
ATOM     57  O   UNL A   1      39.283  22.237  26.289  1.00  0.00    -0.237 OA
ATOM     58  O   UNL A   1      40.877  20.391  25.954  1.00  0.00    -0.237 OA
ATOM     59  O   UNL A   1      40.584  21.399  28.191  1.00  0.00    -0.744 OA
ENDBRANCH  53  56
ENDBRANCH  25  49
BRANCH  37  60
ATOM     60  C   UNL A   1      46.232  29.505  29.223  1.00  0.00     0.023 A 
ATOM     61  C   UNL A   1      47.569  29.514  28.770  1.00  0.00     0.012 A 
ATOM     62  C   UNL A   1      45.288  30.316  28.573  1.00  0.00     0.148 A 
ATOM     63  C   UNL A   1      47.957  30.334  27.706  1.00  0.00     0.002 A 
ATOM     64  C   UNL A   1      45.667  31.091  27.484  1.00  0.00     0.091 A 
ATOM     65  F   UNL A   1      44.020  30.290  29.011  1.00  0.00    -0.205 F 
ATOM     66  C   UNL A   1      47.003  31.111  27.053  1.00  0.00     0.022 A 
BRANCH  64  67
ATOM     67  S   UNL A   1      44.459  32.004  26.522  1.00  0.00     0.127 S 
ATOM     68  O   UNL A   1      45.263  32.494  25.405  1.00  0.00    -0.237 OA
ATOM     69  O   UNL A   1      43.488  30.965  26.168  1.00  0.00    -0.237 OA
ATOM     70  O   UNL A   1      43.929  33.028  27.413  1.00  0.00    -0.744 OA
ENDBRANCH  64  67
ENDBRANCH  37  60
ENDBRANCH  11  12
ENDBRANCH   4   6
ENDBRANCH   3   4
ENDBRANCH   2   3
ENDBRANCH   1   2
BRANCH   1  71
ATOM     71  O   UNL A   1      32.494  31.825  27.309  1.00  0.00    -0.374 OA
BRANCH  71  72
ATOM     72  C   UNL A   1      32.759  30.676  26.489  1.00  0.00     0.202 C 
BRANCH  72  73
ATOM     73  C   UNL A   1      31.657  30.121  25.567  1.00  0.00     0.261 C 
BRANCH  73  74
ATOM     74  O   UNL A   1      32.165  29.525  24.356  1.00  0.00    -0.460 OA
BRANCH  74  75
ATOM     75  C   UNL A   1      31.538  28.392  23.953  1.00  0.00     0.338 C 
ATOM     76  O   UNL A   1      30.617  28.300  23.155  1.00  0.00    -0.246 OA
BRANCH  75  77
ATOM     77  C   UNL A   1      32.295  27.218  24.430  1.00  0.00     0.060 A 
ATOM     78  C   UNL A   1      32.005  26.735  25.712  1.00  0.00     0.016 A 
ATOM     79  C   UNL A   1      33.265  26.595  23.649  1.00  0.00     0.016 A 
ATOM     80  C   UNL A   1      32.671  25.620  26.210  1.00  0.00     0.005 A 
ATOM     81  C   UNL A   1      33.975  25.509  24.174  1.00  0.00     0.005 A 
ATOM     82  C   UNL A   1      33.683  25.004  25.458  1.00  0.00    -0.038 A 
BRANCH  82  83
ATOM     83  C   UNL A   1      34.484  23.894  26.123  1.00  0.00     0.081 C 
ATOM     84  C   UNL A   1      35.907  23.824  25.530  1.00  0.00     0.111 C 
ATOM     85  C   UNL A   1      33.753  22.622  25.934  1.00  0.00     0.093 A 
ATOM     86  C   UNL A   1      36.150  22.648  24.598  1.00  0.00     0.188 C 
ATOM     87  C   UNL A   1      34.285  21.593  25.189  1.00  0.00     0.164 A 
ATOM     88  N   UNL A   1      32.493  22.332  26.376  1.00  0.00    -0.238 NA
ATOM     89  N   UNL A   1      35.439  21.574  24.477  1.00  0.00    -0.198 NA
ATOM     90  N   UNL A   1      33.295  20.631  25.152  1.00  0.00    -0.283 N 
ATOM     91  C   UNL A   1      32.224  21.155  25.845  1.00  0.00     0.206 A 
BRANCH  86  92
ATOM     92  O   UNL A   1      37.280  22.750  23.870  1.00  0.00    -0.496 OA
ATOM     93  H   UNL A   1      37.292  23.274  23.093  1.00  0.00     0.294 HD
ENDBRANCH  86  92
BRANCH  90  94
ATOM     94  C   UNL A   1      33.358  19.383  24.497  1.00  0.00     0.050 A 
ATOM     95  C   UNL A   1      32.647  19.177  23.310  1.00  0.00     0.027 A 
ATOM     96  C   UNL A   1      34.164  18.369  25.031  1.00  0.00     0.047 A 
ATOM     97  C   UNL A   1      32.786  17.964  22.632  1.00  0.00     0.004 A 
ATOM     98  C   UNL A   1      34.249  17.147  24.374  1.00  0.00     0.043 A 
ATOM     99  C   UNL A   1      33.579  16.946  23.168  1.00  0.00     0.020 A 
ATOM    100  Cl  UNL A   1      35.182  15.871  25.058  1.00  0.00    -0.084 Cl
ENDBRANCH  90  94
ENDBRANCH  82  83
ENDBRANCH  75  77
ENDBRANCH  74  75
ENDBRANCH  73  74
ENDBRANCH  72  73
ENDBRANCH  71  72
ENDBRANCH   1  71
TORSDOF 20
ENDMDL
MODEL 3
REMARK VINA RESULT:     -11.7      2.414      6.936
REMARK SMILES O=C(OCCOCCOC(=O)c1ccc([C@@H]2CC(O)=Nc3c2ncn3-c2cccc(Cl)c2)cc1)c1ccc(-c2c3nc(c(-c4cccc(S(=O)(=O)[O-])c4F)c4ccc([nH]4)c(-c4cccc(S(=O)(=O)[O-])c4F)c4nc(c(-c5cccc(S(=O)(=O)[O-])c5F)c5ccc2[nH]5)C=C4)C=C3)cc1
REMARK SMILES IDX 5 1 4 2 3 3 2 4 1 5 35 6 36 7 97 8 37 9 96 10 38 11 39 12
REMARK SMILES IDX 40 13 90 14 41 15 95 16 89 17 91 18 42 19 94 20 88 21 87 22
REMARK SMILES IDX 43 24 75 25 55 26 74 27 56 28 59 29 73 30 92 31 57 32 58 33
REMARK SMILES IDX 72 35 93 36 60 37 44 38 45 39 53 40 46 41 48 42 54 43 47 44
REMARK SMILES IDX 49 45 50 46 51 47 52 48 76 49 77 50 85 51 78 52 80 53 86 54
REMARK SMILES IDX 79 55 81 56 82 57 83 58 84 59 61 60 62 61 70 62 63 63 65 64
REMARK SMILES IDX 71 65 64 66 66 67 67 68 68 69 69 70 6 71 7 72 8 73 9 74
REMARK SMILES IDX 10 75 11 76 12 77 13 78 34 79 14 80 33 81 15 82 16 83 17 84
REMARK SMILES IDX 22 85 18 86 21 87 23 88 20 89 25 90 24 91 19 92 26 94 27 95
REMARK SMILES IDX 32 96 28 97 30 98 29 99 31 100
REMARK H PARENT 91 23 59 34 19 93
REMARK Flexibility Score: inf
ROOT
ATOM      1  C   UNL A   1      33.137  29.822  26.916  1.00  0.00     0.202 C 
ENDROOT
BRANCH   1   2
ATOM      2  C   UNL A   1      34.573  29.428  27.253  1.00  0.00     0.261 C 
BRANCH   2   3
ATOM      3  O   UNL A   1      35.403  30.497  27.742  1.00  0.00    -0.460 OA
BRANCH   3   4
ATOM      4  C   UNL A   1      36.225  30.373  28.808  1.00  0.00     0.338 C 
ATOM      5  O   UNL A   1      35.876  30.753  29.921  1.00  0.00    -0.246 OA
BRANCH   4   6
ATOM      6  C   UNL A   1      37.413  29.499  28.643  1.00  0.00     0.060 A 
ATOM      7  C   UNL A   1      37.857  28.607  29.618  1.00  0.00     0.016 A 
ATOM      8  C   UNL A   1      38.198  29.717  27.500  1.00  0.00     0.016 A 
ATOM      9  C   UNL A   1      39.164  28.187  29.617  1.00  0.00     0.010 A 
ATOM     10  C   UNL A   1      39.494  29.235  27.455  1.00  0.00     0.010 A 
ATOM     11  C   UNL A   1      39.992  28.576  28.572  1.00  0.00    -0.014 A 
BRANCH  11  12
ATOM     12  C   UNL A   1      41.387  28.211  28.701  1.00  0.00     0.031 A 
ATOM     13  C   UNL A   1      41.783  27.063  27.850  1.00  0.00     0.074 A 
ATOM     14  C   UNL A   1      42.212  28.887  29.520  1.00  0.00     0.049 A 
ATOM     15  N   UNL A   1      42.182  25.891  28.222  1.00  0.00    -0.248 NA
ATOM     16  C   UNL A   1      41.504  27.178  26.411  1.00  0.00     0.031 C 
ATOM     17  C   UNL A   1      41.953  30.160  30.199  1.00  0.00     0.029 A 
ATOM     18  N   UNL A   1      43.523  28.653  29.787  1.00  0.00    -0.354 N 
ATOM     19  C   UNL A   1      42.435  25.199  27.039  1.00  0.00     0.074 A 
ATOM     20  C   UNL A   1      41.794  25.947  25.993  1.00  0.00     0.031 C 
ATOM     21  C   UNL A   1      43.135  30.720  30.537  1.00  0.00     0.029 A 
ATOM     22  C   UNL A   1      44.201  29.786  30.219  1.00  0.00     0.049 A 
ATOM     23  H   UNL A   1      43.950  27.771  29.685  1.00  0.00     0.167 HD
ATOM     24  C   UNL A   1      43.388  24.228  26.982  1.00  0.00     0.034 A 
ATOM     25  C   UNL A   1      45.541  29.974  30.188  1.00  0.00     0.034 A 
ATOM     26  C   UNL A   1      43.692  23.723  28.299  1.00  0.00     0.049 A 
ATOM     27  C   UNL A   1      46.175  28.639  30.077  1.00  0.00     0.074 A 
ATOM     28  C   UNL A   1      42.972  23.108  29.303  1.00  0.00     0.029 A 
ATOM     29  N   UNL A   1      44.857  24.162  28.882  1.00  0.00    -0.354 N 
ATOM     30  N   UNL A   1      46.134  27.740  31.021  1.00  0.00    -0.248 NA
ATOM     31  C   UNL A   1      46.480  28.135  28.747  1.00  0.00     0.031 C 
ATOM     32  C   UNL A   1      43.528  23.610  30.517  1.00  0.00     0.029 A 
ATOM     33  C   UNL A   1      44.587  24.460  30.187  1.00  0.00     0.049 A 
ATOM     34  H   UNL A   1      45.731  24.246  28.436  1.00  0.00     0.167 HD
ATOM     35  C   UNL A   1      45.950  26.539  30.348  1.00  0.00     0.074 A 
ATOM     36  C   UNL A   1      46.290  26.829  28.956  1.00  0.00     0.031 C 
ATOM     37  C   UNL A   1      45.256  25.510  30.920  1.00  0.00     0.034 A 
BRANCH  24  38
ATOM     38  C   UNL A   1      44.365  24.059  25.827  1.00  0.00     0.023 A 
ATOM     39  C   UNL A   1      44.532  22.744  25.330  1.00  0.00     0.012 A 
ATOM     40  C   UNL A   1      45.336  25.009  25.432  1.00  0.00     0.148 A 
ATOM     41  C   UNL A   1      45.666  22.369  24.602  1.00  0.00     0.002 A 
ATOM     42  C   UNL A   1      46.434  24.645  24.662  1.00  0.00     0.091 A 
ATOM     43  F   UNL A   1      45.282  26.264  25.872  1.00  0.00    -0.205 F 
ATOM     44  C   UNL A   1      46.627  23.318  24.280  1.00  0.00     0.022 A 
BRANCH  42  45
ATOM     45  S   UNL A   1      47.692  25.843  24.191  1.00  0.00     0.127 S 
ATOM     46  O   UNL A   1      48.536  25.856  25.383  1.00  0.00    -0.237 OA
ATOM     47  O   UNL A   1      48.284  25.205  23.016  1.00  0.00    -0.237 OA
ATOM     48  O   UNL A   1      46.977  27.080  23.901  1.00  0.00    -0.744 OA
ENDBRANCH  42  45
ENDBRANCH  24  38
BRANCH  25  49
ATOM     49  C   UNL A   1      46.287  31.227  29.934  1.00  0.00     0.023 A 
ATOM     50  C   UNL A   1      47.139  31.742  30.930  1.00  0.00     0.012 A 
ATOM     51  C   UNL A   1      46.369  31.781  28.635  1.00  0.00     0.148 A 
ATOM     52  C   UNL A   1      48.058  32.756  30.637  1.00  0.00     0.002 A 
ATOM     53  C   UNL A   1      47.273  32.800  28.352  1.00  0.00     0.091 A 
ATOM     54  F   UNL A   1      45.630  31.246  27.654  1.00  0.00    -0.205 F 
ATOM     55  C   UNL A   1      48.129  33.282  29.349  1.00  0.00     0.022 A 
BRANCH  53  56
ATOM     56  S   UNL A   1      47.425  33.515  26.709  1.00  0.00     0.127 S 
ATOM     57  O   UNL A   1      46.089  33.288  26.156  1.00  0.00    -0.237 OA
ATOM     58  O   UNL A   1      47.732  34.910  27.014  1.00  0.00    -0.237 OA
ATOM     59  O   UNL A   1      48.482  32.764  26.044  1.00  0.00    -0.744 OA
ENDBRANCH  53  56
ENDBRANCH  25  49
BRANCH  37  60
ATOM     60  C   UNL A   1      44.928  25.603  32.388  1.00  0.00     0.023 A 
ATOM     61  C   UNL A   1      45.791  25.100  33.385  1.00  0.00     0.012 A 
ATOM     62  C   UNL A   1      43.824  26.381  32.773  1.00  0.00     0.148 A 
ATOM     63  C   UNL A   1      45.542  25.350  34.737  1.00  0.00     0.002 A 
ATOM     64  C   UNL A   1      43.609  26.668  34.115  1.00  0.00     0.091 A 
ATOM     65  F   UNL A   1      43.018  26.857  31.812  1.00  0.00    -0.205 F 
ATOM     66  C   UNL A   1      44.460  26.147  35.102  1.00  0.00     0.022 A 
BRANCH  64  67
ATOM     67  S   UNL A   1      42.314  27.799  34.631  1.00  0.00     0.127 S 
ATOM     68  O   UNL A   1      42.742  28.160  35.980  1.00  0.00    -0.237 OA
ATOM     69  O   UNL A   1      42.424  28.875  33.644  1.00  0.00    -0.237 OA
ATOM     70  O   UNL A   1      41.069  27.045  34.546  1.00  0.00    -0.744 OA
ENDBRANCH  64  67
ENDBRANCH  37  60
ENDBRANCH  11  12
ENDBRANCH   4   6
ENDBRANCH   3   4
ENDBRANCH   2   3
ENDBRANCH   1   2
BRANCH   1  71
ATOM     71  O   UNL A   1      32.719  29.788  25.559  1.00  0.00    -0.374 OA
BRANCH  71  72
ATOM     72  C   UNL A   1      31.784  28.763  25.191  1.00  0.00     0.202 C 
BRANCH  72  73
ATOM     73  C   UNL A   1      30.771  29.018  24.058  1.00  0.00     0.261 C 
BRANCH  73  74
ATOM     74  O   UNL A   1      30.559  27.875  23.206  1.00  0.00    -0.460 OA
BRANCH  74  75
ATOM     75  C   UNL A   1      29.840  26.863  23.749  1.00  0.00     0.338 C 
ATOM     76  O   UNL A   1      28.634  26.832  23.941  1.00  0.00    -0.246 OA
BRANCH  75  77
ATOM     77  C   UNL A   1      30.692  25.662  23.862  1.00  0.00     0.060 A 
ATOM     78  C   UNL A   1      31.445  25.293  22.741  1.00  0.00     0.016 A 
ATOM     79  C   UNL A   1      30.761  24.911  25.032  1.00  0.00     0.016 A 
ATOM     80  C   UNL A   1      32.281  24.182  22.792  1.00  0.00     0.005 A 
ATOM     81  C   UNL A   1      31.557  23.760  25.062  1.00  0.00     0.005 A 
ATOM     82  C   UNL A   1      32.332  23.385  23.945  1.00  0.00    -0.038 A 
BRANCH  82  83
ATOM     83  C   UNL A   1      33.136  22.095  23.880  1.00  0.00     0.081 C 
ATOM     84  C   UNL A   1      32.768  21.166  25.056  1.00  0.00     0.111 C 
ATOM     85  C   UNL A   1      34.574  22.448  23.897  1.00  0.00     0.093 A 
ATOM     86  C   UNL A   1      33.815  21.083  26.153  1.00  0.00     0.188 C 
ATOM     87  C   UNL A   1      35.391  22.074  24.940  1.00  0.00     0.164 A 
ATOM     88  N   UNL A   1      35.236  23.213  22.979  1.00  0.00    -0.238 NA
ATOM     89  N   UNL A   1      35.057  21.441  26.091  1.00  0.00    -0.198 NA
ATOM     90  N   UNL A   1      36.612  22.657  24.661  1.00  0.00    -0.283 N 
ATOM     91  C   UNL A   1      36.440  23.368  23.492  1.00  0.00     0.206 A 
BRANCH  86  92
ATOM     92  O   UNL A   1      33.373  20.511  27.291  1.00  0.00    -0.496 OA
ATOM     93  H   UNL A   1      33.629  20.860  28.122  1.00  0.00     0.294 HD
ENDBRANCH  86  92
BRANCH  90  94
ATOM     94  C   UNL A   1      37.783  22.573  25.444  1.00  0.00     0.050 A 
ATOM     95  C   UNL A   1      38.183  23.662  26.226  1.00  0.00     0.027 A 
ATOM     96  C   UNL A   1      38.518  21.380  25.452  1.00  0.00     0.047 A 
ATOM     97  C   UNL A   1      39.298  23.532  27.057  1.00  0.00     0.004 A 
ATOM     98  C   UNL A   1      39.657  21.285  26.243  1.00  0.00     0.043 A 
ATOM     99  C   UNL A   1      40.041  22.349  27.059  1.00  0.00     0.020 A 
ATOM    100  Cl  UNL A   1      40.605  19.848  26.207  1.00  0.00    -0.084 Cl
ENDBRANCH  90  94
ENDBRANCH  82  83
ENDBRANCH  75  77
ENDBRANCH  74  75
ENDBRANCH  73  74
ENDBRANCH  72  73
ENDBRANCH  71  72
ENDBRANCH   1  71
TORSDOF 20
ENDMDL
