MODEL 1
REMARK VINA RESULT:      -9.5      0.000      0.000
REMARK SMILES CC(C)CC[C@@]1(CC(=O)OCCOCCOC(=O)c2ccc(-c3c4nc(c(-c5cccc(S(=O)(=O)[O-])c5F)c5ccc([nH]5)c(-c5cccc(S(=O)(=O)[O-])c5F)c5nc(c(-c6cccc(S(=O)(=O)[O-])c6F)c6ccc3[nH]6)C=C5)C=C4)cc2)CCOC(C)(C)C1
REMARK SMILES IDX 12 1 11 2 10 3 8 4 9 5 7 6 6 7 82 8 88 9 83 10 85 11 84 12
REMARK SMILES IDX 86 13 87 14 5 15 4 16 2 17 1 18 3 19 13 20 14 21 15 22 16 23
REMARK SMILES IDX 17 24 18 25 19 26 20 27 81 28 21 29 80 30 22 31 23 32 24 33
REMARK SMILES IDX 74 34 25 35 79 36 73 37 75 38 26 39 78 40 72 41 71 42 27 44
REMARK SMILES IDX 59 45 39 46 58 47 40 48 43 49 57 50 76 51 41 52 42 53 56 55
REMARK SMILES IDX 77 56 44 57 28 58 29 59 37 60 30 61 32 62 38 63 31 64 33 65
REMARK SMILES IDX 34 66 35 67 36 68 60 69 61 70 69 71 62 72 64 73 70 74 63 75
REMARK SMILES IDX 65 76 66 77 67 78 68 79 45 80 46 81 54 82 47 83 49 84 55 85
REMARK SMILES IDX 48 86 50 87 51 88 52 89 53 90
REMARK H PARENT 75 43 43 54
REMARK Flexibility Score: inf
ROOT
ATOM      1  C   UNL A   1      33.117  28.262  24.913  1.00  0.00     0.202 C 
ENDROOT
BRANCH   1   2
ATOM      2  C   UNL A   1      33.123  26.717  24.622  1.00  0.00     0.261 C 
BRANCH   2   3
ATOM      3  O   UNL A   1      31.789  26.078  24.547  1.00  0.00    -0.463 OA
BRANCH   3   4
ATOM      4  C   UNL A   1      31.725  24.944  23.787  1.00  0.00     0.306 C 
ATOM      5  O   UNL A   1      31.563  24.996  22.564  1.00  0.00    -0.252 OA
BRANCH   4   6
ATOM      6  C   UNL A   1      31.944  23.534  24.455  1.00  0.00     0.130 C 
BRANCH   6   7
ATOM      7  C   UNL A   1      33.207  22.746  25.035  1.00  0.00    -0.014 C 
ATOM      8  C   UNL A   1      33.832  23.664  26.152  1.00  0.00     0.036 C 
ATOM      9  C   UNL A   1      34.331  22.724  23.931  1.00  0.00     0.042 C 
ATOM     10  C   UNL A   1      35.228  23.196  26.590  1.00  0.00     0.161 C 
ATOM     11  C   UNL A   1      35.787  22.422  24.377  1.00  0.00     0.063 C 
ATOM     12  O   UNL A   1      36.150  23.220  25.509  1.00  0.00    -0.376 OA
ATOM     13  C   UNL A   1      36.089  20.936  24.632  1.00  0.00     0.042 C 
ATOM     14  C   UNL A   1      36.735  22.866  23.244  1.00  0.00     0.042 C 
BRANCH   7  15
ATOM     15  C   UNL A   1      32.987  21.367  25.826  1.00  0.00     0.008 C 
BRANCH  15  16
ATOM     16  C   UNL A   1      32.059  20.223  25.367  1.00  0.00     0.003 C 
BRANCH  16  17
ATOM     17  C   UNL A   1      32.736  19.315  24.377  1.00  0.00    -0.017 C 
ATOM     18  C   UNL A   1      32.462  17.909  24.864  1.00  0.00     0.007 C 
ATOM     19  C   UNL A   1      32.425  19.556  22.911  1.00  0.00     0.007 C 
ENDBRANCH  16  17
ENDBRANCH  15  16
ENDBRANCH   7  15
ENDBRANCH   6   7
ENDBRANCH   4   6
ENDBRANCH   3   4
ENDBRANCH   2   3
ENDBRANCH   1   2
BRANCH   1  20
ATOM     20  O   UNL A   1      31.975  28.731  25.657  1.00  0.00    -0.374 OA
BRANCH  20  21
ATOM     21  C   UNL A   1      32.217  29.676  26.725  1.00  0.00     0.202 C 
BRANCH  21  22
ATOM     22  C   UNL A   1      33.617  30.356  26.804  1.00  0.00     0.261 C 
BRANCH  22  23
ATOM     23  O   UNL A   1      33.807  31.116  28.009  1.00  0.00    -0.460 OA
BRANCH  23  24
ATOM     24  C   UNL A   1      35.027  31.672  28.074  1.00  0.00     0.338 C 
ATOM     25  O   UNL A   1      35.265  32.857  28.335  1.00  0.00    -0.246 OA
BRANCH  24  26
ATOM     26  C   UNL A   1      36.078  30.650  28.083  1.00  0.00     0.060 A 
ATOM     27  C   UNL A   1      36.020  29.747  29.151  1.00  0.00     0.016 A 
ATOM     28  C   UNL A   1      37.142  30.629  27.177  1.00  0.00     0.016 A 
ATOM     29  C   UNL A   1      37.090  28.910  29.404  1.00  0.00     0.010 A 
ATOM     30  C   UNL A   1      38.228  29.786  27.441  1.00  0.00     0.010 A 
ATOM     31  C   UNL A   1      38.234  28.992  28.603  1.00  0.00    -0.014 A 
BRANCH  31  32
ATOM     32  C   UNL A   1      39.488  28.459  29.182  1.00  0.00     0.031 A 
ATOM     33  C   UNL A   1      39.986  29.049  30.475  1.00  0.00     0.074 A 
ATOM     34  C   UNL A   1      40.083  27.376  28.656  1.00  0.00     0.049 A 
ATOM     35  N   UNL A   1      40.990  28.678  31.223  1.00  0.00    -0.248 NA
ATOM     36  C   UNL A   1      39.244  30.209  30.999  1.00  0.00     0.031 C 
ATOM     37  C   UNL A   1      39.659  26.693  27.435  1.00  0.00     0.029 A 
ATOM     38  N   UNL A   1      41.168  26.661  29.089  1.00  0.00    -0.354 N 
ATOM     39  C   UNL A   1      41.025  29.578  32.282  1.00  0.00     0.074 A 
ATOM     40  C   UNL A   1      39.948  30.520  32.076  1.00  0.00     0.031 C 
ATOM     41  C   UNL A   1      40.492  25.665  27.203  1.00  0.00     0.029 A 
ATOM     42  C   UNL A   1      41.516  25.635  28.246  1.00  0.00     0.049 A 
ATOM     43  H   UNL A   1      41.650  26.863  29.922  1.00  0.00     0.167 HD
ATOM     44  C   UNL A   1      41.868  29.611  33.341  1.00  0.00     0.034 A 
ATOM     45  C   UNL A   1      42.558  24.781  28.301  1.00  0.00     0.034 A 
ATOM     46  C   UNL A   1      42.917  28.654  33.558  1.00  0.00     0.049 A 
ATOM     47  C   UNL A   1      43.495  24.845  29.477  1.00  0.00     0.074 A 
ATOM     48  C   UNL A   1      43.799  28.568  34.620  1.00  0.00     0.029 A 
ATOM     49  N   UNL A   1      43.236  27.622  32.687  1.00  0.00    -0.354 N 
ATOM     50  N   UNL A   1      43.459  25.640  30.519  1.00  0.00    -0.248 NA
ATOM     51  C   UNL A   1      44.595  23.870  29.503  1.00  0.00     0.031 C 
ATOM     52  C   UNL A   1      44.675  27.506  34.371  1.00  0.00     0.029 A 
ATOM     53  C   UNL A   1      44.314  26.906  33.175  1.00  0.00     0.049 A 
ATOM     54  H   UNL A   1      42.763  27.429  31.845  1.00  0.00     0.167 HD
ATOM     55  C   UNL A   1      44.512  25.247  31.338  1.00  0.00     0.074 A 
ATOM     56  C   UNL A   1      45.154  24.128  30.677  1.00  0.00     0.031 C 
ATOM     57  C   UNL A   1      44.917  25.771  32.522  1.00  0.00     0.034 A 
BRANCH  44  58
ATOM     58  C   UNL A   1      41.685  30.729  34.335  1.00  0.00     0.023 A 
ATOM     59  C   UNL A   1      40.808  30.572  35.428  1.00  0.00     0.012 A 
ATOM     60  C   UNL A   1      42.388  31.940  34.183  1.00  0.00     0.148 A 
ATOM     61  C   UNL A   1      40.600  31.618  36.328  1.00  0.00     0.002 A 
ATOM     62  C   UNL A   1      42.211  32.959  35.111  1.00  0.00     0.091 A 
ATOM     63  F   UNL A   1      43.195  32.084  33.123  1.00  0.00    -0.205 F 
ATOM     64  C   UNL A   1      41.307  32.807  36.174  1.00  0.00     0.022 A 
BRANCH  62  65
ATOM     65  S   UNL A   1      43.139  34.496  35.036  1.00  0.00     0.127 S 
ATOM     66  O   UNL A   1      42.630  35.207  36.207  1.00  0.00    -0.237 OA
ATOM     67  O   UNL A   1      44.520  34.030  35.158  1.00  0.00    -0.237 OA
ATOM     68  O   UNL A   1      42.816  35.093  33.747  1.00  0.00    -0.744 OA
ENDBRANCH  62  65
ENDBRANCH  44  58
BRANCH  45  69
ATOM     69  C   UNL A   1      42.745  23.794  27.203  1.00  0.00     0.023 A 
ATOM     70  C   UNL A   1      43.603  24.085  26.128  1.00  0.00     0.012 A 
ATOM     71  C   UNL A   1      42.120  22.532  27.266  1.00  0.00     0.148 A 
ATOM     72  C   UNL A   1      43.825  23.140  25.125  1.00  0.00     0.002 A 
ATOM     73  C   UNL A   1      42.391  21.576  26.298  1.00  0.00     0.091 A 
ATOM     74  F   UNL A   1      41.295  22.285  28.295  1.00  0.00    -0.205 F 
ATOM     75  C   UNL A   1      43.232  21.882  25.217  1.00  0.00     0.022 A 
BRANCH  73  76
ATOM     76  S   UNL A   1      41.784  19.889  26.412  1.00  0.00     0.127 S 
ATOM     77  O   UNL A   1      42.321  19.465  27.702  1.00  0.00    -0.237 OA
ATOM     78  O   UNL A   1      40.335  20.092  26.383  1.00  0.00    -0.237 OA
ATOM     79  O   UNL A   1      42.319  19.195  25.249  1.00  0.00    -0.744 OA
ENDBRANCH  73  76
ENDBRANCH  45  69
BRANCH  57  80
ATOM     80  C   UNL A   1      46.098  25.127  33.203  1.00  0.00     0.023 A 
ATOM     81  C   UNL A   1      47.391  25.654  33.016  1.00  0.00     0.012 A 
ATOM     82  C   UNL A   1      45.913  24.049  34.091  1.00  0.00     0.148 A 
ATOM     83  C   UNL A   1      48.486  25.096  33.674  1.00  0.00     0.002 A 
ATOM     84  C   UNL A   1      47.000  23.530  34.782  1.00  0.00     0.091 A 
ATOM     85  F   UNL A   1      44.677  23.549  34.243  1.00  0.00    -0.205 F 
ATOM     86  C   UNL A   1      48.288  24.043  34.566  1.00  0.00     0.022 A 
BRANCH  84  87
ATOM     87  S   UNL A   1      46.824  22.242  36.022  1.00  0.00     0.127 S 
ATOM     88  O   UNL A   1      46.413  21.099  35.209  1.00  0.00    -0.237 OA
ATOM     89  O   UNL A   1      48.180  22.146  36.567  1.00  0.00    -0.237 OA
ATOM     90  O   UNL A   1      45.829  22.729  36.967  1.00  0.00    -0.744 OA
ENDBRANCH  84  87
ENDBRANCH  57  80
ENDBRANCH  31  32
ENDBRANCH  24  26
ENDBRANCH  23  24
ENDBRANCH  22  23
ENDBRANCH  21  22
ENDBRANCH  20  21
ENDBRANCH   1  20
TORSDOF 21
ENDMDL
MODEL 2
REMARK VINA RESULT:      -9.4      5.114      8.749
REMARK SMILES CC(C)CC[C@@]1(CC(=O)OCCOCCOC(=O)c2ccc(-c3c4nc(c(-c5cccc(S(=O)(=O)[O-])c5F)c5ccc([nH]5)c(-c5cccc(S(=O)(=O)[O-])c5F)c5nc(c(-c6cccc(S(=O)(=O)[O-])c6F)c6ccc3[nH]6)C=C5)C=C4)cc2)CCOC(C)(C)C1
REMARK SMILES IDX 12 1 11 2 10 3 8 4 9 5 7 6 6 7 82 8 88 9 83 10 85 11 84 12
REMARK SMILES IDX 86 13 87 14 5 15 4 16 2 17 1 18 3 19 13 20 14 21 15 22 16 23
REMARK SMILES IDX 17 24 18 25 19 26 20 27 81 28 21 29 80 30 22 31 23 32 24 33
REMARK SMILES IDX 74 34 25 35 79 36 73 37 75 38 26 39 78 40 72 41 71 42 27 44
REMARK SMILES IDX 59 45 39 46 58 47 40 48 43 49 57 50 76 51 41 52 42 53 56 55
REMARK SMILES IDX 77 56 44 57 28 58 29 59 37 60 30 61 32 62 38 63 31 64 33 65
REMARK SMILES IDX 34 66 35 67 36 68 60 69 61 70 69 71 62 72 64 73 70 74 63 75
REMARK SMILES IDX 65 76 66 77 67 78 68 79 45 80 46 81 54 82 47 83 49 84 55 85
REMARK SMILES IDX 48 86 50 87 51 88 52 89 53 90
REMARK H PARENT 75 43 43 54
REMARK Flexibility Score: inf
ROOT
ATOM      1  C   UNL A   1      38.615  21.953  26.015  1.00  0.00     0.202 C 
ENDROOT
BRANCH   1   2
ATOM      2  C   UNL A   1      37.597  23.093  25.649  1.00  0.00     0.261 C 
BRANCH   2   3
ATOM      3  O   UNL A   1      37.339  23.275  24.202  1.00  0.00    -0.463 OA
BRANCH   3   4
ATOM      4  C   UNL A   1      36.067  22.985  23.793  1.00  0.00     0.306 C 
ATOM      5  O   UNL A   1      35.684  23.241  22.648  1.00  0.00    -0.252 OA
BRANCH   4   6
ATOM      6  C   UNL A   1      35.080  22.231  24.763  1.00  0.00     0.130 C 
BRANCH   6   7
ATOM      7  C   UNL A   1      33.965  21.101  24.581  1.00  0.00    -0.014 C 
ATOM      8  C   UNL A   1      33.369  20.828  26.013  1.00  0.00     0.036 C 
ATOM      9  C   UNL A   1      34.685  19.742  24.237  1.00  0.00     0.042 C 
ATOM     10  C   UNL A   1      32.511  19.555  26.063  1.00  0.00     0.161 C 
ATOM     11  C   UNL A   1      33.893  18.423  24.445  1.00  0.00     0.063 C 
ATOM     12  O   UNL A   1      33.270  18.400  25.734  1.00  0.00    -0.376 OA
ATOM     13  C   UNL A   1      32.875  18.100  23.337  1.00  0.00     0.042 C 
ATOM     14  C   UNL A   1      34.902  17.257  24.457  1.00  0.00     0.042 C 
BRANCH   7  15
ATOM     15  C   UNL A   1      32.644  21.420  23.728  1.00  0.00     0.008 C 
BRANCH  15  16
ATOM     16  C   UNL A   1      32.567  22.424  22.559  1.00  0.00     0.003 C 
BRANCH  16  17
ATOM     17  C   UNL A   1      32.140  23.790  23.021  1.00  0.00    -0.017 C 
ATOM     18  C   UNL A   1      32.629  24.748  21.956  1.00  0.00     0.007 C 
ATOM     19  C   UNL A   1      30.681  23.952  23.406  1.00  0.00     0.007 C 
ENDBRANCH  16  17
ENDBRANCH  15  16
ENDBRANCH   7  15
ENDBRANCH   6   7
ENDBRANCH   4   6
ENDBRANCH   3   4
ENDBRANCH   2   3
ENDBRANCH   1   2
BRANCH   1  20
ATOM     20  O   UNL A   1      38.123  20.614  25.808  1.00  0.00    -0.374 OA
BRANCH  20  21
ATOM     21  C   UNL A   1      39.039  19.646  25.247  1.00  0.00     0.202 C 
BRANCH  21  22
ATOM     22  C   UNL A   1      40.281  19.230  26.092  1.00  0.00     0.261 C 
BRANCH  22  23
ATOM     23  O   UNL A   1      41.502  19.229  25.335  1.00  0.00    -0.460 OA
BRANCH  23  24
ATOM     24  C   UNL A   1      42.535  19.729  26.033  1.00  0.00     0.338 C 
ATOM     25  O   UNL A   1      43.660  19.222  26.116  1.00  0.00    -0.246 OA
BRANCH  24  26
ATOM     26  C   UNL A   1      42.270  21.104  26.462  1.00  0.00     0.060 A 
ATOM     27  C   UNL A   1      42.066  22.022  25.425  1.00  0.00     0.016 A 
ATOM     28  C   UNL A   1      42.333  21.524  27.794  1.00  0.00     0.016 A 
ATOM     29  C   UNL A   1      42.064  23.378  25.695  1.00  0.00     0.010 A 
ATOM     30  C   UNL A   1      42.338  22.898  28.064  1.00  0.00     0.010 A 
ATOM     31  C   UNL A   1      42.290  23.821  27.002  1.00  0.00    -0.014 A 
BRANCH  31  32
ATOM     32  C   UNL A   1      42.753  25.219  27.157  1.00  0.00     0.031 A 
ATOM     33  C   UNL A   1      41.874  26.185  27.906  1.00  0.00     0.074 A 
ATOM     34  C   UNL A   1      43.990  25.579  26.777  1.00  0.00     0.049 A 
ATOM     35  N   UNL A   1      42.112  27.420  28.260  1.00  0.00    -0.248 NA
ATOM     36  C   UNL A   1      40.551  25.687  28.321  1.00  0.00     0.031 C 
ATOM     37  C   UNL A   1      44.944  24.713  26.088  1.00  0.00     0.029 A 
ATOM     38  N   UNL A   1      44.652  26.769  26.926  1.00  0.00    -0.354 N 
ATOM     39  C   UNL A   1      40.959  27.857  28.902  1.00  0.00     0.074 A 
ATOM     40  C   UNL A   1      40.018  26.761  28.881  1.00  0.00     0.031 C 
ATOM     41  C   UNL A   1      46.068  25.410  25.852  1.00  0.00     0.029 A 
ATOM     42  C   UNL A   1      45.900  26.773  26.354  1.00  0.00     0.049 A 
ATOM     43  H   UNL A   1      44.271  27.545  27.396  1.00  0.00     0.167 HD
ATOM     44  C   UNL A   1      40.710  29.060  29.473  1.00  0.00     0.034 A 
ATOM     45  C   UNL A   1      46.797  27.772  26.232  1.00  0.00     0.034 A 
ATOM     46  C   UNL A   1      41.661  30.136  29.518  1.00  0.00     0.049 A 
ATOM     47  C   UNL A   1      46.494  29.107  26.857  1.00  0.00     0.074 A 
ATOM     48  C   UNL A   1      41.527  31.378  30.110  1.00  0.00     0.029 A 
ATOM     49  N   UNL A   1      42.920  30.101  28.936  1.00  0.00    -0.354 N 
ATOM     50  N   UNL A   1      45.440  29.477  27.544  1.00  0.00    -0.248 NA
ATOM     51  C   UNL A   1      47.520  30.151  26.722  1.00  0.00     0.031 C 
ATOM     52  C   UNL A   1      42.693  32.108  29.853  1.00  0.00     0.029 A 
ATOM     53  C   UNL A   1      43.567  31.307  29.135  1.00  0.00     0.049 A 
ATOM     54  H   UNL A   1      43.296  29.331  28.452  1.00  0.00     0.167 HD
ATOM     55  C   UNL A   1      45.684  30.785  27.945  1.00  0.00     0.074 A 
ATOM     56  C   UNL A   1      46.997  31.136  27.441  1.00  0.00     0.031 C 
ATOM     57  C   UNL A   1      44.890  31.625  28.657  1.00  0.00     0.034 A 
BRANCH  44  58
ATOM     58  C   UNL A   1      39.347  29.266  30.082  1.00  0.00     0.023 A 
ATOM     59  C   UNL A   1      39.047  28.727  31.351  1.00  0.00     0.012 A 
ATOM     60  C   UNL A   1      38.361  29.998  29.392  1.00  0.00     0.148 A 
ATOM     61  C   UNL A   1      37.774  28.876  31.902  1.00  0.00     0.002 A 
ATOM     62  C   UNL A   1      37.111  30.182  29.970  1.00  0.00     0.091 A 
ATOM     63  F   UNL A   1      38.653  30.478  28.175  1.00  0.00    -0.205 F 
ATOM     64  C   UNL A   1      36.810  29.610  31.217  1.00  0.00     0.022 A 
BRANCH  62  65
ATOM     65  S   UNL A   1      35.833  31.179  29.194  1.00  0.00     0.127 S 
ATOM     66  O   UNL A   1      35.098  31.674  30.356  1.00  0.00    -0.237 OA
ATOM     67  O   UNL A   1      36.618  32.195  28.492  1.00  0.00    -0.237 OA
ATOM     68  O   UNL A   1      35.099  30.274  28.322  1.00  0.00    -0.744 OA
ENDBRANCH  62  65
ENDBRANCH  44  58
BRANCH  45  69
ATOM     69  C   UNL A   1      48.064  27.523  25.493  1.00  0.00     0.023 A 
ATOM     70  C   UNL A   1      49.178  26.983  26.159  1.00  0.00     0.012 A 
ATOM     71  C   UNL A   1      48.137  27.759  24.105  1.00  0.00     0.148 A 
ATOM     72  C   UNL A   1      50.350  26.695  25.458  1.00  0.00     0.002 A 
ATOM     73  C   UNL A   1      49.284  27.415  23.403  1.00  0.00     0.091 A 
ATOM     74  F   UNL A   1      47.066  28.287  23.495  1.00  0.00    -0.205 F 
ATOM     75  C   UNL A   1      50.399  26.896  24.080  1.00  0.00     0.022 A 
BRANCH  73  76
ATOM     76  S   UNL A   1      49.384  27.509  21.613  1.00  0.00     0.127 S 
ATOM     77  O   UNL A   1      49.639  28.932  21.401  1.00  0.00    -0.237 OA
ATOM     78  O   UNL A   1      50.519  26.630  21.331  1.00  0.00    -0.237 OA
ATOM     79  O   UNL A   1      48.105  27.019  21.117  1.00  0.00    -0.744 OA
ENDBRANCH  73  76
ENDBRANCH  45  69
BRANCH  57  80
ATOM     80  C   UNL A   1      45.424  33.001  28.962  1.00  0.00     0.023 A 
ATOM     81  C   UNL A   1      46.233  33.205  30.097  1.00  0.00     0.012 A 
ATOM     82  C   UNL A   1      45.190  34.073  28.078  1.00  0.00     0.148 A 
ATOM     83  C   UNL A   1      46.771  34.463  30.367  1.00  0.00     0.002 A 
ATOM     84  C   UNL A   1      45.771  35.310  28.325  1.00  0.00     0.091 A 
ATOM     85  F   UNL A   1      44.404  33.864  27.011  1.00  0.00    -0.205 F 
ATOM     86  C   UNL A   1      46.550  35.511  29.475  1.00  0.00     0.022 A 
BRANCH  84  87
ATOM     87  S   UNL A   1      45.622  36.687  27.181  1.00  0.00     0.127 S 
ATOM     88  O   UNL A   1      46.299  37.757  27.912  1.00  0.00    -0.237 OA
ATOM     89  O   UNL A   1      46.347  36.197  26.007  1.00  0.00    -0.237 OA
ATOM     90  O   UNL A   1      44.194  36.879  26.969  1.00  0.00    -0.744 OA
ENDBRANCH  84  87
ENDBRANCH  57  80
ENDBRANCH  31  32
ENDBRANCH  24  26
ENDBRANCH  23  24
ENDBRANCH  22  23
ENDBRANCH  21  22
ENDBRANCH  20  21
ENDBRANCH   1  20
TORSDOF 21
ENDMDL
MODEL 3
REMARK VINA RESULT:      -9.4      4.946      8.840
REMARK SMILES CC(C)CC[C@@]1(CC(=O)OCCOCCOC(=O)c2ccc(-c3c4nc(c(-c5cccc(S(=O)(=O)[O-])c5F)c5ccc([nH]5)c(-c5cccc(S(=O)(=O)[O-])c5F)c5nc(c(-c6cccc(S(=O)(=O)[O-])c6F)c6ccc3[nH]6)C=C5)C=C4)cc2)CCOC(C)(C)C1
REMARK SMILES IDX 12 1 11 2 10 3 8 4 9 5 7 6 6 7 82 8 88 9 83 10 85 11 84 12
REMARK SMILES IDX 86 13 87 14 5 15 4 16 2 17 1 18 3 19 13 20 14 21 15 22 16 23
REMARK SMILES IDX 17 24 18 25 19 26 20 27 81 28 21 29 80 30 22 31 23 32 24 33
REMARK SMILES IDX 74 34 25 35 79 36 73 37 75 38 26 39 78 40 72 41 71 42 27 44
REMARK SMILES IDX 59 45 39 46 58 47 40 48 43 49 57 50 76 51 41 52 42 53 56 55
REMARK SMILES IDX 77 56 44 57 28 58 29 59 37 60 30 61 32 62 38 63 31 64 33 65
REMARK SMILES IDX 34 66 35 67 36 68 60 69 61 70 69 71 62 72 64 73 70 74 63 75
REMARK SMILES IDX 65 76 66 77 67 78 68 79 45 80 46 81 54 82 47 83 49 84 55 85
REMARK SMILES IDX 48 86 50 87 51 88 52 89 53 90
REMARK H PARENT 75 43 43 54
REMARK Flexibility Score: inf
ROOT
ATOM      1  C   UNL A   1      39.075  21.966  25.935  1.00  0.00     0.202 C 
ENDROOT
BRANCH   1   2
ATOM      2  C   UNL A   1      37.941  23.040  25.761  1.00  0.00     0.261 C 
BRANCH   2   3
ATOM      3  O   UNL A   1      36.998  22.795  24.646  1.00  0.00    -0.463 OA
BRANCH   3   4
ATOM      4  C   UNL A   1      35.821  22.195  24.996  1.00  0.00     0.306 C 
ATOM      5  O   UNL A   1      35.717  21.537  26.035  1.00  0.00    -0.252 OA
BRANCH   4   6
ATOM      6  C   UNL A   1      34.535  22.405  24.110  1.00  0.00     0.130 C 
BRANCH   6   7
ATOM      7  C   UNL A   1      32.963  22.440  24.395  1.00  0.00    -0.014 C 
ATOM      8  C   UNL A   1      32.296  23.105  23.132  1.00  0.00     0.036 C 
ATOM      9  C   UNL A   1      32.687  23.494  25.532  1.00  0.00     0.042 C 
ATOM     10  C   UNL A   1      30.831  23.496  23.376  1.00  0.00     0.161 C 
ATOM     11  C   UNL A   1      31.241  24.038  25.688  1.00  0.00     0.063 C 
ATOM     12  O   UNL A   1      30.711  24.449  24.423  1.00  0.00    -0.376 OA
ATOM     13  C   UNL A   1      30.268  23.089  26.408  1.00  0.00     0.042 C 
ATOM     14  C   UNL A   1      31.303  25.321  26.541  1.00  0.00     0.042 C 
BRANCH   7  15
ATOM     15  C   UNL A   1      32.148  21.063  24.513  1.00  0.00     0.008 C 
BRANCH  15  16
ATOM     16  C   UNL A   1      32.733  19.730  25.024  1.00  0.00     0.003 C 
BRANCH  16  17
ATOM     17  C   UNL A   1      33.279  18.890  23.902  1.00  0.00    -0.017 C 
ATOM     18  C   UNL A   1      34.132  17.832  24.567  1.00  0.00     0.007 C 
ATOM     19  C   UNL A   1      32.272  18.362  22.896  1.00  0.00     0.007 C 
ENDBRANCH  16  17
ENDBRANCH  15  16
ENDBRANCH   7  15
ENDBRANCH   6   7
ENDBRANCH   4   6
ENDBRANCH   3   4
ENDBRANCH   2   3
ENDBRANCH   1   2
BRANCH   1  20
ATOM     20  O   UNL A   1      38.611  20.602  25.995  1.00  0.00    -0.374 OA
BRANCH  20  21
ATOM     21  C   UNL A   1      39.429  19.591  25.365  1.00  0.00     0.202 C 
BRANCH  21  22
ATOM     22  C   UNL A   1      40.718  19.119  26.104  1.00  0.00     0.261 C 
BRANCH  22  23
ATOM     23  O   UNL A   1      41.906  19.257  25.308  1.00  0.00    -0.460 OA
BRANCH  23  24
ATOM     24  C   UNL A   1      42.925  19.793  26.001  1.00  0.00     0.338 C 
ATOM     25  O   UNL A   1      44.069  19.329  26.072  1.00  0.00    -0.246 OA
BRANCH  24  26
ATOM     26  C   UNL A   1      42.610  21.154  26.441  1.00  0.00     0.060 A 
ATOM     27  C   UNL A   1      42.396  22.078  25.410  1.00  0.00     0.016 A 
ATOM     28  C   UNL A   1      42.637  21.560  27.778  1.00  0.00     0.016 A 
ATOM     29  C   UNL A   1      42.347  23.429  25.695  1.00  0.00     0.010 A 
ATOM     30  C   UNL A   1      42.595  22.930  28.063  1.00  0.00     0.010 A 
ATOM     31  C   UNL A   1      42.536  23.864  27.011  1.00  0.00    -0.014 A 
BRANCH  31  32
ATOM     32  C   UNL A   1      42.954  25.273  27.190  1.00  0.00     0.031 A 
ATOM     33  C   UNL A   1      42.006  26.217  27.883  1.00  0.00     0.074 A 
ATOM     34  C   UNL A   1      44.201  25.665  26.883  1.00  0.00     0.049 A 
ATOM     35  N   UNL A   1      42.191  27.458  28.247  1.00  0.00    -0.248 NA
ATOM     36  C   UNL A   1      40.674  25.686  28.219  1.00  0.00     0.031 C 
ATOM     37  C   UNL A   1      45.216  24.824  26.253  1.00  0.00     0.029 A 
ATOM     38  N   UNL A   1      44.822  26.872  27.068  1.00  0.00    -0.354 N 
ATOM     39  C   UNL A   1      40.992  27.866  28.818  1.00  0.00     0.074 A 
ATOM     40  C   UNL A   1      40.082  26.746  28.744  1.00  0.00     0.031 C 
ATOM     41  C   UNL A   1      46.334  25.549  26.084  1.00  0.00     0.029 A 
ATOM     42  C   UNL A   1      46.102  26.908  26.571  1.00  0.00     0.049 A 
ATOM     43  H   UNL A   1      44.394  27.638  27.512  1.00  0.00     0.167 HD
ATOM     44  C   UNL A   1      40.678  29.062  29.370  1.00  0.00     0.034 A 
ATOM     45  C   UNL A   1      46.978  27.930  26.500  1.00  0.00     0.034 A 
ATOM     46  C   UNL A   1      41.596  30.163  29.469  1.00  0.00     0.049 A 
ATOM     47  C   UNL A   1      46.604  29.257  27.102  1.00  0.00     0.074 A 
ATOM     48  C   UNL A   1      41.396  31.402  30.049  1.00  0.00     0.029 A 
ATOM     49  N   UNL A   1      42.888  30.160  28.963  1.00  0.00    -0.354 N 
ATOM     50  N   UNL A   1      45.502  29.600  27.724  1.00  0.00    -0.248 NA
ATOM     51  C   UNL A   1      47.609  30.327  27.026  1.00  0.00     0.031 C 
ATOM     52  C   UNL A   1      42.555  32.162  29.860  1.00  0.00     0.029 A 
ATOM     53  C   UNL A   1      43.491  31.383  29.196  1.00  0.00     0.049 A 
ATOM     54  H   UNL A   1      43.312  29.399  28.504  1.00  0.00     0.167 HD
ATOM     55  C   UNL A   1      45.687  30.915  28.136  1.00  0.00     0.074 A 
ATOM     56  C   UNL A   1      47.018  31.298  27.710  1.00  0.00     0.031 C 
ATOM     57  C   UNL A   1      44.831  31.734  28.798  1.00  0.00     0.034 A 
BRANCH  44  58
ATOM     58  C   UNL A   1      39.276  29.234  29.897  1.00  0.00     0.023 A 
ATOM     59  C   UNL A   1      38.948  28.800  31.198  1.00  0.00     0.012 A 
ATOM     60  C   UNL A   1      38.282  29.829  29.097  1.00  0.00     0.148 A 
ATOM     61  C   UNL A   1      37.643  28.914  31.677  1.00  0.00     0.002 A 
ATOM     62  C   UNL A   1      36.995  29.983  29.599  1.00  0.00     0.091 A 
ATOM     63  F   UNL A   1      38.603  30.209  27.852  1.00  0.00    -0.205 F 
ATOM     64  C   UNL A   1      36.670  29.513  30.882  1.00  0.00     0.022 A 
BRANCH  62  65
ATOM     65  S   UNL A   1      35.698  30.813  28.674  1.00  0.00     0.127 S 
ATOM     66  O   UNL A   1      36.474  31.649  27.761  1.00  0.00    -0.237 OA
ATOM     67  O   UNL A   1      35.007  29.691  28.036  1.00  0.00    -0.237 OA
ATOM     68  O   UNL A   1      34.901  31.528  29.661  1.00  0.00    -0.744 OA
ENDBRANCH  62  65
ENDBRANCH  44  58
BRANCH  45  69
ATOM     69  C   UNL A   1      48.292  27.712  25.838  1.00  0.00     0.023 A 
ATOM     70  C   UNL A   1      49.427  27.392  26.604  1.00  0.00     0.012 A 
ATOM     71  C   UNL A   1      48.398  27.757  24.433  1.00  0.00     0.148 A 
ATOM     72  C   UNL A   1      50.650  27.132  25.983  1.00  0.00     0.002 A 
ATOM     73  C   UNL A   1      49.602  27.439  23.818  1.00  0.00     0.091 A 
ATOM     74  F   UNL A   1      47.306  28.079  23.725  1.00  0.00    -0.205 F 
ATOM     75  C   UNL A   1      50.734  27.141  24.592  1.00  0.00     0.022 A 
BRANCH  73  76
ATOM     76  S   UNL A   1      49.765  27.289  22.036  1.00  0.00     0.127 S 
ATOM     77  O   UNL A   1      51.170  26.918  21.894  1.00  0.00    -0.237 OA
ATOM     78  O   UNL A   1      48.812  26.219  21.740  1.00  0.00    -0.237 OA
ATOM     79  O   UNL A   1      49.399  28.590  21.493  1.00  0.00    -0.744 OA
ENDBRANCH  73  76
ENDBRANCH  45  69
BRANCH  57  80
ATOM     80  C   UNL A   1      45.311  33.124  29.130  1.00  0.00     0.023 A 
ATOM     81  C   UNL A   1      46.158  33.329  30.236  1.00  0.00     0.012 A 
ATOM     82  C   UNL A   1      44.986  34.213  28.297  1.00  0.00     0.148 A 
ATOM     83  C   UNL A   1      46.646  34.602  30.530  1.00  0.00     0.002 A 
ATOM     84  C   UNL A   1      45.515  35.469  28.565  1.00  0.00     0.091 A 
ATOM     85  F   UNL A   1      44.164  34.002  27.258  1.00  0.00    -0.205 F 
ATOM     86  C   UNL A   1      46.335  35.668  29.688  1.00  0.00     0.022 A 
BRANCH  84  87
ATOM     87  S   UNL A   1      45.249  36.875  27.480  1.00  0.00     0.127 S 
ATOM     88  O   UNL A   1      45.472  37.999  28.388  1.00  0.00    -0.237 OA
ATOM     89  O   UNL A   1      46.293  36.692  26.470  1.00  0.00    -0.237 OA
ATOM     90  O   UNL A   1      43.891  36.739  26.973  1.00  0.00    -0.744 OA
ENDBRANCH  84  87
ENDBRANCH  57  80
ENDBRANCH  31  32
ENDBRANCH  24  26
ENDBRANCH  23  24
ENDBRANCH  22  23
ENDBRANCH  21  22
ENDBRANCH  20  21
ENDBRANCH   1  20
TORSDOF 21
ENDMDL
