MODEL 1
REMARK VINA RESULT:     -10.8      0.000      0.000
REMARK SMILES CCc1ccc(C(=O)[C@@H](Br)CC(=O)OCCOCCOC(=O)c2ccc(-c3c4nc(c(-c5cccc(S(=O)(=O)[O-])c5F)c5ccc([nH]5)c(-c5cccc(S(=O)(=O)[O-])c5F)c5nc(c(-c6cccc(S(=O)(=O)[O-])c6F)c6ccc3[nH]6)C=C5)C=C4)cc2)cc1
REMARK SMILES IDX 16 1 15 2 14 3 12 4 13 5 11 6 9 7 10 8 7 9 8 10 6 11 3 12
REMARK SMILES IDX 4 13 87 14 5 15 86 16 2 17 1 18 17 19 18 20 19 21 20 22
REMARK SMILES IDX 21 23 22 24 23 25 24 26 85 27 25 28 84 29 26 30 27 31 28 32
REMARK SMILES IDX 78 33 29 34 83 35 77 36 79 37 30 38 82 39 76 40 75 41 31 43
REMARK SMILES IDX 63 44 43 45 62 46 44 47 47 48 61 49 80 50 45 51 46 52 60 54
REMARK SMILES IDX 81 55 48 56 32 57 33 58 41 59 34 60 36 61 42 62 35 63 37 64
REMARK SMILES IDX 38 65 39 66 40 67 64 68 65 69 73 70 66 71 68 72 74 73 67 74
REMARK SMILES IDX 69 75 70 76 71 77 72 78 49 79 50 80 58 81 51 82 53 83 59 84
REMARK SMILES IDX 52 85 54 86 55 87 56 88 57 89
REMARK H PARENT 79 42 47 53
REMARK Flexibility Score: inf
ROOT
ATOM      1  C   UNL A   1      33.856  20.527  24.507  1.00  0.00     0.202 C 
ENDROOT
BRANCH   1   2
ATOM      2  C   UNL A   1      32.942  21.527  23.792  1.00  0.00     0.261 C 
BRANCH   2   3
ATOM      3  O   UNL A   1      33.693  22.415  22.941  1.00  0.00    -0.463 OA
BRANCH   3   4
ATOM      4  C   UNL A   1      33.252  23.693  22.887  1.00  0.00     0.307 C 
ATOM      5  O   UNL A   1      33.683  24.559  22.135  1.00  0.00    -0.252 OA
BRANCH   4   6
ATOM      6  C   UNL A   1      32.154  23.992  23.876  1.00  0.00     0.146 C 
BRANCH   6   7
ATOM      7  C   UNL A   1      32.027  25.427  24.352  1.00  0.00     0.140 C 
ATOM      8  Br  UNL A   1      33.130  25.693  25.962  1.00  0.00    -0.080 Br
BRANCH   7   9
ATOM      9  C   UNL A   1      30.664  26.031  24.659  1.00  0.00     0.177 C 
ATOM     10  O   UNL A   1      29.869  25.393  25.357  1.00  0.00    -0.293 OA
BRANCH   9  11
ATOM     11  C   UNL A   1      30.233  27.362  24.132  1.00  0.00     0.019 A 
ATOM     12  C   UNL A   1      29.282  29.816  23.125  1.00  0.00    -0.048 A 
ATOM     13  C   UNL A   1      28.517  28.653  22.993  1.00  0.00     0.004 A 
ATOM     14  C   UNL A   1      30.532  29.739  23.745  1.00  0.00     0.004 A 
ATOM     15  C   UNL A   1      28.988  27.437  23.492  1.00  0.00     0.012 A 
ATOM     16  C   UNL A   1      31.013  28.518  24.224  1.00  0.00     0.012 A 
BRANCH  12  17
ATOM     17  C   UNL A   1      28.753  31.139  22.628  1.00  0.00     0.032 C 
ATOM     18  C   UNL A   1      27.551  31.603  23.435  1.00  0.00     0.009 C 
ENDBRANCH  12  17
ENDBRANCH   9  11
ENDBRANCH   7   9
ENDBRANCH   6   7
ENDBRANCH   4   6
ENDBRANCH   3   4
ENDBRANCH   2   3
ENDBRANCH   1   2
BRANCH   1  19
ATOM     19  O   UNL A   1      34.371  20.934  25.776  1.00  0.00    -0.374 OA
BRANCH  19  20
ATOM     20  C   UNL A   1      35.685  21.487  25.798  1.00  0.00     0.202 C 
BRANCH  20  21
ATOM     21  C   UNL A   1      36.810  20.647  25.177  1.00  0.00     0.261 C 
BRANCH  21  22
ATOM     22  O   UNL A   1      38.015  21.402  24.976  1.00  0.00    -0.460 OA
BRANCH  22  23
ATOM     23  C   UNL A   1      39.007  21.134  25.855  1.00  0.00     0.338 C 
ATOM     24  O   UNL A   1      39.593  20.067  25.996  1.00  0.00    -0.246 OA
BRANCH  23  25
ATOM     25  C   UNL A   1      39.455  22.367  26.532  1.00  0.00     0.060 A 
ATOM     26  C   UNL A   1      38.821  23.561  26.162  1.00  0.00     0.016 A 
ATOM     27  C   UNL A   1      40.515  22.381  27.440  1.00  0.00     0.016 A 
ATOM     28  C   UNL A   1      39.288  24.780  26.646  1.00  0.00     0.010 A 
ATOM     29  C   UNL A   1      40.990  23.610  27.917  1.00  0.00     0.010 A 
ATOM     30  C   UNL A   1      40.406  24.817  27.490  1.00  0.00    -0.014 A 
BRANCH  30  31
ATOM     31  C   UNL A   1      41.034  26.126  27.802  1.00  0.00     0.031 A 
ATOM     32  C   UNL A   1      42.432  26.405  27.319  1.00  0.00     0.074 A 
ATOM     33  C   UNL A   1      40.361  27.065  28.491  1.00  0.00     0.049 A 
ATOM     34  N   UNL A   1      43.155  27.485  27.458  1.00  0.00    -0.248 NA
ATOM     35  C   UNL A   1      43.105  25.324  26.579  1.00  0.00     0.031 C 
ATOM     36  C   UNL A   1      39.006  26.915  29.019  1.00  0.00     0.029 A 
ATOM     37  N   UNL A   1      40.738  28.325  28.884  1.00  0.00    -0.354 N 
ATOM     38  C   UNL A   1      44.376  27.206  26.857  1.00  0.00     0.074 A 
ATOM     39  C   UNL A   1      44.299  25.853  26.351  1.00  0.00     0.031 C 
ATOM     40  C   UNL A   1      38.679  28.028  29.699  1.00  0.00     0.029 A 
ATOM     41  C   UNL A   1      39.804  28.961  29.666  1.00  0.00     0.049 A 
ATOM     42  H   UNL A   1      41.597  28.735  28.628  1.00  0.00     0.167 HD
ATOM     43  C   UNL A   1      45.459  28.008  26.724  1.00  0.00     0.034 A 
ATOM     44  C   UNL A   1      39.859  30.149  30.301  1.00  0.00     0.034 A 
ATOM     45  C   UNL A   1      45.525  29.365  27.195  1.00  0.00     0.049 A 
ATOM     46  C   UNL A   1      41.076  31.023  30.132  1.00  0.00     0.074 A 
ATOM     47  C   UNL A   1      46.550  30.281  27.034  1.00  0.00     0.029 A 
ATOM     48  N   UNL A   1      44.537  29.996  27.933  1.00  0.00    -0.354 N 
ATOM     49  N   UNL A   1      42.157  30.806  29.423  1.00  0.00    -0.248 NA
ATOM     50  C   UNL A   1      41.065  32.323  30.820  1.00  0.00     0.031 C 
ATOM     51  C   UNL A   1      46.194  31.457  27.701  1.00  0.00     0.029 A 
ATOM     52  C   UNL A   1      44.936  31.282  28.254  1.00  0.00     0.049 A 
ATOM     53  H   UNL A   1      43.678  29.590  28.191  1.00  0.00     0.167 HD
ATOM     54  C   UNL A   1      42.936  31.952  29.551  1.00  0.00     0.074 A 
ATOM     55  C   UNL A   1      42.193  32.870  30.388  1.00  0.00     0.031 C 
ATOM     56  C   UNL A   1      44.164  32.213  29.037  1.00  0.00     0.034 A 
BRANCH  43  57
ATOM     57  C   UNL A   1      46.664  27.453  26.016  1.00  0.00     0.023 A 
ATOM     58  C   UNL A   1      46.817  27.658  24.630  1.00  0.00     0.012 A 
ATOM     59  C   UNL A   1      47.684  26.802  26.737  1.00  0.00     0.148 A 
ATOM     60  C   UNL A   1      47.958  27.204  23.968  1.00  0.00     0.002 A 
ATOM     61  C   UNL A   1      48.837  26.388  26.079  1.00  0.00     0.091 A 
ATOM     62  F   UNL A   1      47.508  26.598  28.051  1.00  0.00    -0.205 F 
ATOM     63  C   UNL A   1      48.971  26.582  24.693  1.00  0.00     0.022 A 
BRANCH  61  64
ATOM     64  S   UNL A   1      50.229  25.648  26.937  1.00  0.00     0.127 S 
ATOM     65  O   UNL A   1      51.186  25.467  25.846  1.00  0.00    -0.237 OA
ATOM     66  O   UNL A   1      50.590  26.692  27.897  1.00  0.00    -0.237 OA
ATOM     67  O   UNL A   1      49.727  24.420  27.536  1.00  0.00    -0.744 OA
ENDBRANCH  61  64
ENDBRANCH  43  57
BRANCH  44  68
ATOM     68  C   UNL A   1      38.709  30.598  31.138  1.00  0.00     0.023 A 
ATOM     69  C   UNL A   1      38.716  30.354  32.524  1.00  0.00     0.012 A 
ATOM     70  C   UNL A   1      37.615  31.274  30.565  1.00  0.00     0.148 A 
ATOM     71  C   UNL A   1      37.636  30.745  33.319  1.00  0.00     0.002 A 
ATOM     72  C   UNL A   1      36.572  31.715  31.371  1.00  0.00     0.091 A 
ATOM     73  F   UNL A   1      37.614  31.476  29.239  1.00  0.00    -0.205 F 
ATOM     74  C   UNL A   1      36.571  31.435  32.745  1.00  0.00     0.022 A 
BRANCH  72  75
ATOM     75  S   UNL A   1      35.238  32.733  30.727  1.00  0.00     0.127 S 
ATOM     76  O   UNL A   1      34.369  32.862  31.893  1.00  0.00    -0.237 OA
ATOM     77  O   UNL A   1      35.943  33.957  30.345  1.00  0.00    -0.237 OA
ATOM     78  O   UNL A   1      34.690  31.989  29.600  1.00  0.00    -0.744 OA
ENDBRANCH  72  75
ENDBRANCH  44  68
BRANCH  56  79
ATOM     79  C   UNL A   1      44.781  33.556  29.330  1.00  0.00     0.023 A 
ATOM     80  C   UNL A   1      45.540  33.737  30.504  1.00  0.00     0.012 A 
ATOM     81  C   UNL A   1      44.679  34.613  28.404  1.00  0.00     0.148 A 
ATOM     82  C   UNL A   1      46.161  34.957  30.765  1.00  0.00     0.002 A 
ATOM     83  C   UNL A   1      45.341  35.811  28.648  1.00  0.00     0.091 A 
ATOM     84  F   UNL A   1      43.939  34.429  27.301  1.00  0.00    -0.205 F 
ATOM     85  C   UNL A   1      46.073  35.989  29.833  1.00  0.00     0.022 A 
BRANCH  83  86
ATOM     86  S   UNL A   1      45.362  37.158  27.459  1.00  0.00     0.127 S 
ATOM     87  O   UNL A   1      43.935  37.387  27.243  1.00  0.00    -0.237 OA
ATOM     88  O   UNL A   1      46.044  38.220  28.200  1.00  0.00    -0.237 OA
ATOM     89  O   UNL A   1      46.099  36.660  26.306  1.00  0.00    -0.744 OA
ENDBRANCH  83  86
ENDBRANCH  56  79
ENDBRANCH  30  31
ENDBRANCH  23  25
ENDBRANCH  22  23
ENDBRANCH  21  22
ENDBRANCH  20  21
ENDBRANCH  19  20
ENDBRANCH   1  19
TORSDOF 21
ENDMDL
MODEL 2
REMARK VINA RESULT:     -10.2      4.765      9.941
REMARK SMILES CCc1ccc(C(=O)[C@@H](Br)CC(=O)OCCOCCOC(=O)c2ccc(-c3c4nc(c(-c5cccc(S(=O)(=O)[O-])c5F)c5ccc([nH]5)c(-c5cccc(S(=O)(=O)[O-])c5F)c5nc(c(-c6cccc(S(=O)(=O)[O-])c6F)c6ccc3[nH]6)C=C5)C=C4)cc2)cc1
REMARK SMILES IDX 16 1 15 2 14 3 12 4 13 5 11 6 9 7 10 8 7 9 8 10 6 11 3 12
REMARK SMILES IDX 4 13 87 14 5 15 86 16 2 17 1 18 17 19 18 20 19 21 20 22
REMARK SMILES IDX 21 23 22 24 23 25 24 26 85 27 25 28 84 29 26 30 27 31 28 32
REMARK SMILES IDX 78 33 29 34 83 35 77 36 79 37 30 38 82 39 76 40 75 41 31 43
REMARK SMILES IDX 63 44 43 45 62 46 44 47 47 48 61 49 80 50 45 51 46 52 60 54
REMARK SMILES IDX 81 55 48 56 32 57 33 58 41 59 34 60 36 61 42 62 35 63 37 64
REMARK SMILES IDX 38 65 39 66 40 67 64 68 65 69 73 70 66 71 68 72 74 73 67 74
REMARK SMILES IDX 69 75 70 76 71 77 72 78 49 79 50 80 58 81 51 82 53 83 59 84
REMARK SMILES IDX 52 85 54 86 55 87 56 88 57 89
REMARK H PARENT 79 42 47 53
REMARK Flexibility Score: inf
ROOT
ATOM      1  C   UNL A   1      30.970  28.922  23.907  1.00  0.00     0.202 C 
ENDROOT
BRANCH   1   2
ATOM      2  C   UNL A   1      30.135  28.194  22.850  1.00  0.00     0.261 C 
BRANCH   2   3
ATOM      3  O   UNL A   1      30.239  26.763  22.986  1.00  0.00    -0.463 OA
BRANCH   3   4
ATOM      4  C   UNL A   1      31.260  26.180  22.317  1.00  0.00     0.307 C 
ATOM      5  O   UNL A   1      31.481  26.301  21.118  1.00  0.00    -0.252 OA
BRANCH   4   6
ATOM      6  C   UNL A   1      32.137  25.319  23.191  1.00  0.00     0.146 C 
BRANCH   6   7
ATOM      7  C   UNL A   1      31.636  23.923  23.508  1.00  0.00     0.140 C 
ATOM      8  Br  UNL A   1      31.212  23.788  25.426  1.00  0.00    -0.080 Br
BRANCH   7   9
ATOM      9  C   UNL A   1      32.470  22.697  23.165  1.00  0.00     0.177 C 
ATOM     10  O   UNL A   1      31.967  21.803  22.476  1.00  0.00    -0.293 OA
BRANCH   9  11
ATOM     11  C   UNL A   1      33.874  22.513  23.646  1.00  0.00     0.019 A 
ATOM     12  C   UNL A   1      36.477  22.040  24.616  1.00  0.00    -0.048 A 
ATOM     13  C   UNL A   1      35.392  21.313  25.117  1.00  0.00     0.004 A 
ATOM     14  C   UNL A   1      36.248  23.016  23.643  1.00  0.00     0.004 A 
ATOM     15  C   UNL A   1      34.102  21.548  24.636  1.00  0.00     0.012 A 
ATOM     16  C   UNL A   1      34.954  23.267  23.179  1.00  0.00     0.012 A 
BRANCH  12  17
ATOM     17  C   UNL A   1      37.877  21.754  25.101  1.00  0.00     0.032 C 
ATOM     18  C   UNL A   1      38.391  22.855  26.015  1.00  0.00     0.009 C 
ENDBRANCH  12  17
ENDBRANCH   9  11
ENDBRANCH   7   9
ENDBRANCH   6   7
ENDBRANCH   4   6
ENDBRANCH   3   4
ENDBRANCH   2   3
ENDBRANCH   1   2
BRANCH   1  19
ATOM     19  O   UNL A   1      32.343  29.148  23.584  1.00  0.00    -0.374 OA
BRANCH  19  20
ATOM     20  C   UNL A   1      33.308  28.822  24.582  1.00  0.00     0.202 C 
BRANCH  20  21
ATOM     21  C   UNL A   1      33.098  29.418  25.981  1.00  0.00     0.261 C 
BRANCH  21  22
ATOM     22  O   UNL A   1      34.231  29.217  26.841  1.00  0.00    -0.460 OA
BRANCH  22  23
ATOM     23  C   UNL A   1      34.589  30.297  27.572  1.00  0.00     0.338 C 
ATOM     24  O   UNL A   1      33.900  31.284  27.806  1.00  0.00    -0.246 OA
BRANCH  23  25
ATOM     25  C   UNL A   1      35.884  30.072  28.242  1.00  0.00     0.060 A 
ATOM     26  C   UNL A   1      37.040  30.295  27.481  1.00  0.00     0.016 A 
ATOM     27  C   UNL A   1      35.980  29.580  29.544  1.00  0.00     0.016 A 
ATOM     28  C   UNL A   1      38.291  29.964  27.995  1.00  0.00     0.010 A 
ATOM     29  C   UNL A   1      37.239  29.237  30.056  1.00  0.00     0.010 A 
ATOM     30  C   UNL A   1      38.396  29.388  29.267  1.00  0.00    -0.014 A 
BRANCH  30  31
ATOM     31  C   UNL A   1      39.698  28.824  29.702  1.00  0.00     0.031 A 
ATOM     32  C   UNL A   1      40.453  29.493  30.819  1.00  0.00     0.074 A 
ATOM     33  C   UNL A   1      40.195  27.716  29.124  1.00  0.00     0.049 A 
ATOM     34  N   UNL A   1      41.590  29.153  31.368  1.00  0.00    -0.248 NA
ATOM     35  C   UNL A   1      39.848  30.706  31.395  1.00  0.00     0.031 C 
ATOM     36  C   UNL A   1      39.565  26.980  28.029  1.00  0.00     0.029 A 
ATOM     37  N   UNL A   1      41.360  27.030  29.364  1.00  0.00    -0.354 N 
ATOM     38  C   UNL A   1      41.855  30.123  32.328  1.00  0.00     0.074 A 
ATOM     39  C   UNL A   1      40.760  31.068  32.286  1.00  0.00     0.031 C 
ATOM     40  C   UNL A   1      40.368  25.964  27.668  1.00  0.00     0.029 A 
ATOM     41  C   UNL A   1      41.574  25.988  28.495  1.00  0.00     0.049 A 
ATOM     42  H   UNL A   1      41.982  27.263  30.091  1.00  0.00     0.167 HD
ATOM     43  C   UNL A   1      42.905  30.212  33.177  1.00  0.00     0.034 A 
ATOM     44  C   UNL A   1      42.632  25.161  28.366  1.00  0.00     0.034 A 
ATOM     45  C   UNL A   1      43.976  29.255  33.244  1.00  0.00     0.049 A 
ATOM     46  C   UNL A   1      43.787  25.280  29.328  1.00  0.00     0.074 A 
ATOM     47  C   UNL A   1      45.041  29.218  34.127  1.00  0.00     0.029 A 
ATOM     48  N   UNL A   1      44.131  28.178  32.386  1.00  0.00    -0.354 N 
ATOM     49  N   UNL A   1      43.941  26.105  30.334  1.00  0.00    -0.248 NA
ATOM     50  C   UNL A   1      44.896  24.328  29.161  1.00  0.00     0.031 C 
ATOM     51  C   UNL A   1      45.857  28.135  33.784  1.00  0.00     0.029 A 
ATOM     52  C   UNL A   1      45.284  27.482  32.704  1.00  0.00     0.049 A 
ATOM     53  H   UNL A   1      43.511  27.942  31.658  1.00  0.00     0.167 HD
ATOM     54  C   UNL A   1      45.143  25.752  30.939  1.00  0.00     0.074 A 
ATOM     55  C   UNL A   1      45.666  24.622  30.200  1.00  0.00     0.031 C 
ATOM     56  C   UNL A   1      45.767  26.322  32.000  1.00  0.00     0.034 A 
BRANCH  43  57
ATOM     57  C   UNL A   1      42.944  31.374  34.131  1.00  0.00     0.023 A 
ATOM     58  C   UNL A   1      43.657  32.540  33.786  1.00  0.00     0.012 A 
ATOM     59  C   UNL A   1      42.205  31.344  35.330  1.00  0.00     0.148 A 
ATOM     60  C   UNL A   1      43.652  33.650  34.630  1.00  0.00     0.002 A 
ATOM     61  C   UNL A   1      42.171  32.468  36.147  1.00  0.00     0.091 A 
ATOM     62  F   UNL A   1      41.551  30.216  35.650  1.00  0.00    -0.205 F 
ATOM     63  C   UNL A   1      42.901  33.618  35.802  1.00  0.00     0.022 A 
BRANCH  61  64
ATOM     64  S   UNL A   1      41.172  32.552  37.636  1.00  0.00     0.127 S 
ATOM     65  O   UNL A   1      41.961  31.747  38.568  1.00  0.00    -0.237 OA
ATOM     66  O   UNL A   1      41.168  33.987  37.924  1.00  0.00    -0.237 OA
ATOM     67  O   UNL A   1      39.872  32.001  37.281  1.00  0.00    -0.744 OA
ENDBRANCH  61  64
ENDBRANCH  43  57
BRANCH  44  68
ATOM     68  C   UNL A   1      42.637  24.123  27.295  1.00  0.00     0.023 A 
ATOM     69  C   UNL A   1      43.175  24.425  26.030  1.00  0.00     0.012 A 
ATOM     70  C   UNL A   1      42.119  22.834  27.531  1.00  0.00     0.148 A 
ATOM     71  C   UNL A   1      43.165  23.473  25.008  1.00  0.00     0.002 A 
ATOM     72  C   UNL A   1      42.168  21.872  26.529  1.00  0.00     0.091 A 
ATOM     73  F   UNL A   1      41.589  22.571  28.734  1.00  0.00    -0.205 F 
ATOM     74  C   UNL A   1      42.673  22.195  25.261  1.00  0.00     0.022 A 
BRANCH  72  75
ATOM     75  S   UNL A   1      41.686  20.166  26.824  1.00  0.00     0.127 S 
ATOM     76  O   UNL A   1      40.289  20.313  27.222  1.00  0.00    -0.237 OA
ATOM     77  O   UNL A   1      41.893  19.556  25.510  1.00  0.00    -0.237 OA
ATOM     78  O   UNL A   1      42.596  19.678  27.853  1.00  0.00    -0.744 OA
ENDBRANCH  72  75
ENDBRANCH  44  68
BRANCH  56  79
ATOM     79  C   UNL A   1      47.072  25.723  32.457  1.00  0.00     0.023 A 
ATOM     80  C   UNL A   1      48.282  26.149  31.871  1.00  0.00     0.012 A 
ATOM     81  C   UNL A   1      47.108  24.801  33.523  1.00  0.00     0.148 A 
ATOM     82  C   UNL A   1      49.502  25.644  32.319  1.00  0.00     0.002 A 
ATOM     83  C   UNL A   1      48.331  24.338  33.995  1.00  0.00     0.091 A 
ATOM     84  F   UNL A   1      45.947  24.394  34.056  1.00  0.00    -0.205 F 
ATOM     85  C   UNL A   1      49.529  24.750  33.387  1.00  0.00     0.022 A 
BRANCH  83  86
ATOM     86  S   UNL A   1      48.465  23.261  35.427  1.00  0.00     0.127 S 
ATOM     87  O   UNL A   1      47.775  22.059  34.961  1.00  0.00    -0.237 OA
ATOM     88  O   UNL A   1      49.913  23.114  35.574  1.00  0.00    -0.237 OA
ATOM     89  O   UNL A   1      47.817  23.971  36.521  1.00  0.00    -0.744 OA
ENDBRANCH  83  86
ENDBRANCH  56  79
ENDBRANCH  30  31
ENDBRANCH  23  25
ENDBRANCH  22  23
ENDBRANCH  21  22
ENDBRANCH  20  21
ENDBRANCH  19  20
ENDBRANCH   1  19
TORSDOF 21
ENDMDL
MODEL 3
REMARK VINA RESULT:     -10.2      1.685      2.074
REMARK SMILES CCc1ccc(C(=O)[C@@H](Br)CC(=O)OCCOCCOC(=O)c2ccc(-c3c4nc(c(-c5cccc(S(=O)(=O)[O-])c5F)c5ccc([nH]5)c(-c5cccc(S(=O)(=O)[O-])c5F)c5nc(c(-c6cccc(S(=O)(=O)[O-])c6F)c6ccc3[nH]6)C=C5)C=C4)cc2)cc1
REMARK SMILES IDX 16 1 15 2 14 3 12 4 13 5 11 6 9 7 10 8 7 9 8 10 6 11 3 12
REMARK SMILES IDX 4 13 87 14 5 15 86 16 2 17 1 18 17 19 18 20 19 21 20 22
REMARK SMILES IDX 21 23 22 24 23 25 24 26 85 27 25 28 84 29 26 30 27 31 28 32
REMARK SMILES IDX 78 33 29 34 83 35 77 36 79 37 30 38 82 39 76 40 75 41 31 43
REMARK SMILES IDX 63 44 43 45 62 46 44 47 47 48 61 49 80 50 45 51 46 52 60 54
REMARK SMILES IDX 81 55 48 56 32 57 33 58 41 59 34 60 36 61 42 62 35 63 37 64
REMARK SMILES IDX 38 65 39 66 40 67 64 68 65 69 73 70 66 71 68 72 74 73 67 74
REMARK SMILES IDX 69 75 70 76 71 77 72 78 49 79 50 80 58 81 51 82 53 83 59 84
REMARK SMILES IDX 52 85 54 86 55 87 56 88 57 89
REMARK H PARENT 79 42 47 53
REMARK Flexibility Score: inf
ROOT
ATOM      1  C   UNL A   1      33.937  20.652  24.592  1.00  0.00     0.202 C 
ENDROOT
BRANCH   1   2
ATOM      2  C   UNL A   1      33.021  21.622  23.841  1.00  0.00     0.261 C 
BRANCH   2   3
ATOM      3  O   UNL A   1      33.694  22.860  23.539  1.00  0.00    -0.463 OA
BRANCH   3   4
ATOM      4  C   UNL A   1      32.928  23.974  23.579  1.00  0.00     0.307 C 
ATOM      5  O   UNL A   1      33.242  25.066  23.119  1.00  0.00    -0.252 OA
BRANCH   4   6
ATOM      6  C   UNL A   1      31.608  23.769  24.277  1.00  0.00     0.146 C 
BRANCH   6   7
ATOM      7  C   UNL A   1      31.517  24.215  25.725  1.00  0.00     0.140 C 
ATOM      8  Br  UNL A   1      31.030  22.683  26.863  1.00  0.00    -0.080 Br
BRANCH   7   9
ATOM      9  C   UNL A   1      30.604  25.362  26.134  1.00  0.00     0.177 C 
ATOM     10  O   UNL A   1      29.442  25.113  26.472  1.00  0.00    -0.293 OA
BRANCH   9  11
ATOM     11  C   UNL A   1      31.047  26.790  26.124  1.00  0.00     0.019 A 
ATOM     12  C   UNL A   1      31.920  29.467  26.248  1.00  0.00    -0.048 A 
ATOM     13  C   UNL A   1      31.719  28.733  27.422  1.00  0.00     0.004 A 
ATOM     14  C   UNL A   1      31.663  28.860  25.016  1.00  0.00     0.004 A 
ATOM     15  C   UNL A   1      31.286  27.407  27.360  1.00  0.00     0.012 A 
ATOM     16  C   UNL A   1      31.208  27.540  24.955  1.00  0.00     0.012 A 
BRANCH  12  17
ATOM     17  C   UNL A   1      32.433  30.884  26.312  1.00  0.00     0.032 C 
ATOM     18  C   UNL A   1      31.298  31.887  26.439  1.00  0.00     0.009 C 
ENDBRANCH  12  17
ENDBRANCH   9  11
ENDBRANCH   7   9
ENDBRANCH   6   7
ENDBRANCH   4   6
ENDBRANCH   3   4
ENDBRANCH   2   3
ENDBRANCH   1   2
BRANCH   1  19
ATOM     19  O   UNL A   1      34.486  21.123  25.824  1.00  0.00    -0.374 OA
BRANCH  19  20
ATOM     20  C   UNL A   1      35.816  21.635  25.790  1.00  0.00     0.202 C 
BRANCH  20  21
ATOM     21  C   UNL A   1      36.916  20.694  25.280  1.00  0.00     0.261 C 
BRANCH  21  22
ATOM     22  O   UNL A   1      38.148  21.382  25.011  1.00  0.00    -0.460 OA
BRANCH  22  23
ATOM     23  C   UNL A   1      39.149  21.116  25.880  1.00  0.00     0.338 C 
ATOM     24  O   UNL A   1      39.755  20.057  25.999  1.00  0.00    -0.246 OA
BRANCH  23  25
ATOM     25  C   UNL A   1      39.580  22.345  26.576  1.00  0.00     0.060 A 
ATOM     26  C   UNL A   1      38.974  23.545  26.180  1.00  0.00     0.016 A 
ATOM     27  C   UNL A   1      40.600  22.349  27.529  1.00  0.00     0.016 A 
ATOM     28  C   UNL A   1      39.431  24.760  26.684  1.00  0.00     0.010 A 
ATOM     29  C   UNL A   1      41.065  23.573  28.027  1.00  0.00     0.010 A 
ATOM     30  C   UNL A   1      40.512  24.786  27.575  1.00  0.00    -0.014 A 
BRANCH  30  31
ATOM     31  C   UNL A   1      41.138  26.088  27.915  1.00  0.00     0.031 A 
ATOM     32  C   UNL A   1      42.543  26.371  27.454  1.00  0.00     0.074 A 
ATOM     33  C   UNL A   1      40.458  27.019  28.608  1.00  0.00     0.049 A 
ATOM     34  N   UNL A   1      43.266  27.448  27.619  1.00  0.00    -0.248 NA
ATOM     35  C   UNL A   1      43.224  25.299  26.707  1.00  0.00     0.031 C 
ATOM     36  C   UNL A   1      39.096  26.864  29.116  1.00  0.00     0.029 A 
ATOM     37  N   UNL A   1      40.833  28.273  29.024  1.00  0.00    -0.354 N 
ATOM     38  C   UNL A   1      44.495  27.175  27.029  1.00  0.00     0.074 A 
ATOM     39  C   UNL A   1      44.422  25.829  26.504  1.00  0.00     0.031 C 
ATOM     40  C   UNL A   1      38.762  27.968  29.808  1.00  0.00     0.029 A 
ATOM     41  C   UNL A   1      39.890  28.899  29.803  1.00  0.00     0.049 A 
ATOM     42  H   UNL A   1      41.696  28.684  28.786  1.00  0.00     0.167 HD
ATOM     43  C   UNL A   1      45.581  27.976  26.923  1.00  0.00     0.034 A 
ATOM     44  C   UNL A   1      39.939  30.078  30.456  1.00  0.00     0.034 A 
ATOM     45  C   UNL A   1      45.644  29.325  27.414  1.00  0.00     0.049 A 
ATOM     46  C   UNL A   1      41.160  30.952  30.316  1.00  0.00     0.074 A 
ATOM     47  C   UNL A   1      46.673  30.241  27.280  1.00  0.00     0.029 A 
ATOM     48  N   UNL A   1      44.647  29.949  28.148  1.00  0.00    -0.354 N 
ATOM     49  N   UNL A   1      42.250  30.742  29.618  1.00  0.00    -0.248 NA
ATOM     50  C   UNL A   1      41.142  32.242  31.023  1.00  0.00     0.031 C 
ATOM     51  C   UNL A   1      46.310  31.409  27.960  1.00  0.00     0.029 A 
ATOM     52  C   UNL A   1      45.045  31.229  28.493  1.00  0.00     0.049 A 
ATOM     53  H   UNL A   1      43.784  29.540  28.389  1.00  0.00     0.167 HD
ATOM     54  C   UNL A   1      43.030  31.884  29.773  1.00  0.00     0.074 A 
ATOM     55  C   UNL A   1      42.278  32.792  30.613  1.00  0.00     0.031 C 
ATOM     56  C   UNL A   1      44.265  32.149  29.279  1.00  0.00     0.034 A 
BRANCH  43  57
ATOM     57  C   UNL A   1      46.795  27.428  26.223  1.00  0.00     0.023 A 
ATOM     58  C   UNL A   1      47.611  26.481  26.874  1.00  0.00     0.012 A 
ATOM     59  C   UNL A   1      47.078  27.787  24.890  1.00  0.00     0.148 A 
ATOM     60  C   UNL A   1      48.703  25.917  26.217  1.00  0.00     0.002 A 
ATOM     61  C   UNL A   1      48.144  27.190  24.228  1.00  0.00     0.091 A 
ATOM     62  F   UNL A   1      46.301  28.706  24.297  1.00  0.00    -0.205 F 
ATOM     63  C   UNL A   1      48.962  26.261  24.893  1.00  0.00     0.022 A 
BRANCH  61  64
ATOM     64  S   UNL A   1      48.511  27.510  22.499  1.00  0.00     0.127 S 
ATOM     65  O   UNL A   1      47.333  28.268  22.082  1.00  0.00    -0.237 OA
ATOM     66  O   UNL A   1      49.743  28.296  22.586  1.00  0.00    -0.237 OA
ATOM     67  O   UNL A   1      48.669  26.205  21.873  1.00  0.00    -0.744 OA
ENDBRANCH  61  64
ENDBRANCH  43  57
BRANCH  44  68
ATOM     68  C   UNL A   1      38.779  30.517  31.284  1.00  0.00     0.023 A 
ATOM     69  C   UNL A   1      38.780  30.280  32.672  1.00  0.00     0.012 A 
ATOM     70  C   UNL A   1      37.680  31.178  30.701  1.00  0.00     0.148 A 
ATOM     71  C   UNL A   1      37.691  30.662  33.458  1.00  0.00     0.002 A 
ATOM     72  C   UNL A   1      36.627  31.611  31.499  1.00  0.00     0.091 A 
ATOM     73  F   UNL A   1      37.685  31.374  29.375  1.00  0.00    -0.205 F 
ATOM     74  C   UNL A   1      36.622  31.336  32.874  1.00  0.00     0.022 A 
BRANCH  72  75
ATOM     75  S   UNL A   1      35.286  32.611  30.843  1.00  0.00     0.127 S 
ATOM     76  O   UNL A   1      35.935  33.906  30.667  1.00  0.00    -0.237 OA
ATOM     77  O   UNL A   1      34.960  31.910  29.600  1.00  0.00    -0.237 OA
ATOM     78  O   UNL A   1      34.232  32.554  31.848  1.00  0.00    -0.744 OA
ENDBRANCH  72  75
ENDBRANCH  44  68
BRANCH  56  79
ATOM     79  C   UNL A   1      44.880  33.487  29.600  1.00  0.00     0.023 A 
ATOM     80  C   UNL A   1      45.900  33.574  30.570  1.00  0.00     0.012 A 
ATOM     81  C   UNL A   1      44.509  34.641  28.883  1.00  0.00     0.148 A 
ATOM     82  C   UNL A   1      46.517  34.795  30.841  1.00  0.00     0.002 A 
ATOM     83  C   UNL A   1      45.162  35.845  29.126  1.00  0.00     0.091 A 
ATOM     84  F   UNL A   1      43.525  34.544  27.977  1.00  0.00    -0.205 F 
ATOM     85  C   UNL A   1      46.158  35.926  30.112  1.00  0.00     0.022 A 
BRANCH  83  86
ATOM     86  S   UNL A   1      44.831  37.329  28.168  1.00  0.00     0.127 S 
ATOM     87  O   UNL A   1      46.145  37.970  28.148  1.00  0.00    -0.237 OA
ATOM     88  O   UNL A   1      44.401  36.781  26.880  1.00  0.00    -0.237 OA
ATOM     89  O   UNL A   1      43.793  38.049  28.893  1.00  0.00    -0.744 OA
ENDBRANCH  83  86
ENDBRANCH  56  79
ENDBRANCH  30  31
ENDBRANCH  23  25
ENDBRANCH  22  23
ENDBRANCH  21  22
ENDBRANCH  20  21
ENDBRANCH  19  20
ENDBRANCH   1  19
TORSDOF 21
ENDMDL
