MODEL 1
REMARK VINA RESULT:     -11.3      0.000      0.000
REMARK SMILES CC(=O)c1ccccc1S(=O)(=O)N1CCC(C(=O)OCCOCCOC(=O)c2ccc(-c3c4nc(c(-c5cccc(S(=O)(=O)[O-])c5F)c5ccc([nH]5)c(-c5cccc(S(=O)(=O)[O-])c5F)c5nc(c(-c6cccc(S(=O)(=O)[O-])c6F)c6ccc3[nH]6)C=C5)C=C4)cc2)CC1
REMARK SMILES IDX 22 1 21 2 20 3 19 4 17 5 18 6 16 7 13 8 14 9 92 10 15 11
REMARK SMILES IDX 91 12 10 13 11 14 12 15 9 16 4 17 5 18 6 19 8 20 7 21 2 22
REMARK SMILES IDX 1 23 3 24 23 25 24 26 25 27 26 28 27 29 28 30 29 31 90 32
REMARK SMILES IDX 30 33 89 34 31 35 32 36 33 37 83 38 34 39 88 40 82 41 84 42
REMARK SMILES IDX 35 43 87 44 81 45 80 46 36 48 68 49 48 50 67 51 49 52 52 53
REMARK SMILES IDX 66 54 85 55 50 56 51 57 65 59 86 60 53 61 37 62 38 63 46 64
REMARK SMILES IDX 39 65 41 66 47 67 40 68 42 69 43 70 44 71 45 72 69 73 70 74
REMARK SMILES IDX 78 75 71 76 73 77 79 78 72 79 74 80 75 81 76 82 77 83 54 84
REMARK SMILES IDX 55 85 63 86 56 87 58 88 64 89 57 90 59 91 60 92 61 93 62 94
REMARK H PARENT 84 47 52 58
REMARK Flexibility Score: inf
ROOT
ATOM      1  O   UNL A   1      32.536  30.700  26.459  1.00  0.00    -0.374 OA
ENDROOT
BRANCH   1   2
ATOM      2  C   UNL A   1      32.463  29.736  25.409  1.00  0.00     0.202 C 
BRANCH   2   3
ATOM      3  C   UNL A   1      31.061  29.251  25.038  1.00  0.00     0.261 C 
BRANCH   3   4
ATOM      4  O   UNL A   1      30.955  29.023  23.622  1.00  0.00    -0.463 OA
BRANCH   4   5
ATOM      5  C   UNL A   1      30.185  27.972  23.244  1.00  0.00     0.309 C 
ATOM      6  O   UNL A   1      29.002  28.044  22.932  1.00  0.00    -0.252 OA
BRANCH   5   7
ATOM      7  C   UNL A   1      30.946  26.661  23.224  1.00  0.00     0.102 C 
ATOM      8  N   UNL A   1      32.276  24.308  22.971  1.00  0.00    -0.198 NA
ATOM      9  C   UNL A   1      30.830  24.110  23.262  1.00  0.00     0.103 C 
ATOM     10  C   UNL A   1      32.503  25.258  21.833  1.00  0.00     0.103 C 
ATOM     11  C   UNL A   1      30.210  25.422  23.755  1.00  0.00     0.032 C 
ATOM     12  C   UNL A   1      31.466  26.384  21.821  1.00  0.00     0.032 C 
BRANCH   8  13
ATOM     13  S   UNL A   1      33.189  22.869  22.912  1.00  0.00     0.243 S 
ATOM     14  O   UNL A   1      34.473  23.186  22.333  1.00  0.00    -0.207 OA
ATOM     15  O   UNL A   1      32.354  21.820  22.358  1.00  0.00    -0.207 OA
BRANCH  13  16
ATOM     16  C   UNL A   1      33.481  22.359  24.585  1.00  0.00     0.093 A 
ATOM     17  C   UNL A   1      33.898  23.211  25.606  1.00  0.00     0.037 A 
ATOM     18  C   UNL A   1      34.054  22.714  26.911  1.00  0.00     0.013 A 
ATOM     19  C   UNL A   1      33.749  21.387  27.206  1.00  0.00     0.001 A 
ATOM     20  C   UNL A   1      33.189  21.016  24.887  1.00  0.00     0.022 A 
ATOM     21  C   UNL A   1      33.310  20.539  26.193  1.00  0.00     0.001 A 
BRANCH  17  22
ATOM     22  C   UNL A   1      34.172  24.648  25.453  1.00  0.00     0.161 C 
ATOM     23  C   UNL A   1      33.209  25.620  26.075  1.00  0.00     0.093 C 
ATOM     24  O   UNL A   1      35.249  24.990  24.973  1.00  0.00    -0.294 OA
ENDBRANCH  17  22
ENDBRANCH  13  16
ENDBRANCH   8  13
ENDBRANCH   5   7
ENDBRANCH   4   5
ENDBRANCH   3   4
ENDBRANCH   2   3
ENDBRANCH   1   2
BRANCH   1  25
ATOM     25  C   UNL A   1      31.517  31.699  26.507  1.00  0.00     0.202 C 
BRANCH  25  26
ATOM     26  C   UNL A   1      31.977  33.120  26.858  1.00  0.00     0.261 C 
BRANCH  26  27
ATOM     27  O   UNL A   1      32.609  33.177  28.150  1.00  0.00    -0.460 OA
BRANCH  27  28
ATOM     28  C   UNL A   1      33.685  34.000  28.219  1.00  0.00     0.338 C 
ATOM     29  O   UNL A   1      33.680  35.219  28.222  1.00  0.00    -0.246 OA
BRANCH  28  30
ATOM     30  C   UNL A   1      34.907  33.218  28.487  1.00  0.00     0.060 A 
ATOM     31  C   UNL A   1      34.745  31.959  29.082  1.00  0.00     0.016 A 
ATOM     32  C   UNL A   1      36.182  33.732  28.250  1.00  0.00     0.016 A 
ATOM     33  C   UNL A   1      35.860  31.233  29.492  1.00  0.00     0.010 A 
ATOM     34  C   UNL A   1      37.302  33.003  28.670  1.00  0.00     0.010 A 
ATOM     35  C   UNL A   1      37.144  31.771  29.329  1.00  0.00    -0.014 A 
BRANCH  35  36
ATOM     36  C   UNL A   1      38.295  31.096  29.977  1.00  0.00     0.031 A 
ATOM     37  C   UNL A   1      38.652  31.450  31.395  1.00  0.00     0.074 A 
ATOM     38  C   UNL A   1      38.993  30.149  29.325  1.00  0.00     0.049 A 
ATOM     39  N   UNL A   1      39.576  30.941  32.168  1.00  0.00    -0.248 NA
ATOM     40  C   UNL A   1      37.862  32.519  32.026  1.00  0.00     0.031 C 
ATOM     41  C   UNL A   1      38.742  29.714  27.953  1.00  0.00     0.029 A 
ATOM     42  N   UNL A   1      40.059  29.390  29.732  1.00  0.00    -0.354 N 
ATOM     43  C   UNL A   1      39.495  31.638  33.368  1.00  0.00     0.074 A 
ATOM     44  C   UNL A   1      38.444  32.622  33.212  1.00  0.00     0.031 C 
ATOM     45  C   UNL A   1      39.637  28.766  27.628  1.00  0.00     0.029 A 
ATOM     46  C   UNL A   1      40.532  28.541  28.762  1.00  0.00     0.049 A 
ATOM     47  H   UNL A   1      40.449  29.447  30.636  1.00  0.00     0.167 HD
ATOM     48  C   UNL A   1      40.211  31.465  34.504  1.00  0.00     0.034 A 
ATOM     49  C   UNL A   1      41.571  27.681  28.784  1.00  0.00     0.034 A 
ATOM     50  C   UNL A   1      41.244  30.477  34.665  1.00  0.00     0.049 A 
ATOM     51  C   UNL A   1      42.375  27.527  30.048  1.00  0.00     0.074 A 
ATOM     52  C   UNL A   1      41.991  30.186  35.794  1.00  0.00     0.029 A 
ATOM     53  N   UNL A   1      41.692  29.628  33.662  1.00  0.00    -0.354 N 
ATOM     54  N   UNL A   1      42.199  28.100  31.214  1.00  0.00    -0.248 NA
ATOM     55  C   UNL A   1      43.501  26.582  30.007  1.00  0.00     0.031 C 
ATOM     56  C   UNL A   1      42.907  29.179  35.464  1.00  0.00     0.029 A 
ATOM     57  C   UNL A   1      42.716  28.828  34.137  1.00  0.00     0.049 A 
ATOM     58  H   UNL A   1      41.333  29.601  32.746  1.00  0.00     0.167 HD
ATOM     59  C   UNL A   1      43.170  27.563  32.055  1.00  0.00     0.074 A 
ATOM     60  C   UNL A   1      43.916  26.603  31.267  1.00  0.00     0.031 C 
ATOM     61  C   UNL A   1      43.427  27.846  33.357  1.00  0.00     0.034 A 
BRANCH  48  62
ATOM     62  C   UNL A   1      39.876  32.354  35.673  1.00  0.00     0.023 A 
ATOM     63  C   UNL A   1      40.566  33.572  35.843  1.00  0.00     0.012 A 
ATOM     64  C   UNL A   1      38.869  31.998  36.590  1.00  0.00     0.148 A 
ATOM     65  C   UNL A   1      40.289  34.400  36.931  1.00  0.00     0.002 A 
ATOM     66  C   UNL A   1      38.570  32.849  37.649  1.00  0.00     0.091 A 
ATOM     67  F   UNL A   1      38.241  30.823  36.432  1.00  0.00    -0.205 F 
ATOM     68  C   UNL A   1      39.286  34.043  37.828  1.00  0.00     0.022 A 
BRANCH  66  69
ATOM     69  S   UNL A   1      37.244  32.502  38.810  1.00  0.00     0.127 S 
ATOM     70  O   UNL A   1      36.066  32.901  38.043  1.00  0.00    -0.237 OA
ATOM     71  O   UNL A   1      37.377  31.059  39.015  1.00  0.00    -0.237 OA
ATOM     72  O   UNL A   1      37.533  33.306  39.991  1.00  0.00    -0.744 OA
ENDBRANCH  66  69
ENDBRANCH  48  62
BRANCH  49  73
ATOM     73  C   UNL A   1      41.867  26.852  27.582  1.00  0.00     0.023 A 
ATOM     74  C   UNL A   1      42.498  27.445  26.473  1.00  0.00     0.012 A 
ATOM     75  C   UNL A   1      41.569  25.475  27.551  1.00  0.00     0.148 A 
ATOM     76  C   UNL A   1      42.812  26.686  25.344  1.00  0.00     0.002 A 
ATOM     77  C   UNL A   1      41.932  24.715  26.446  1.00  0.00     0.091 A 
ATOM     78  F   UNL A   1      40.956  24.936  28.615  1.00  0.00    -0.205 F 
ATOM     79  C   UNL A   1      42.540  25.321  25.336  1.00  0.00     0.022 A 
BRANCH  77  80
ATOM     80  S   UNL A   1      41.739  22.930  26.396  1.00  0.00     0.127 S 
ATOM     81  O   UNL A   1      42.370  22.597  25.120  1.00  0.00    -0.237 OA
ATOM     82  O   UNL A   1      42.487  22.516  27.582  1.00  0.00    -0.237 OA
ATOM     83  O   UNL A   1      40.306  22.684  26.470  1.00  0.00    -0.744 OA
ENDBRANCH  77  80
ENDBRANCH  49  73
BRANCH  61  84
ATOM     84  C   UNL A   1      44.554  27.099  34.024  1.00  0.00     0.023 A 
ATOM     85  C   UNL A   1      45.871  27.592  33.930  1.00  0.00     0.012 A 
ATOM     86  C   UNL A   1      44.302  25.946  34.794  1.00  0.00     0.148 A 
ATOM     87  C   UNL A   1      46.923  26.930  34.563  1.00  0.00     0.002 A 
ATOM     88  C   UNL A   1      45.349  25.319  35.461  1.00  0.00     0.091 A 
ATOM     89  F   UNL A   1      43.047  25.479  34.857  1.00  0.00    -0.205 F 
ATOM     90  C   UNL A   1      46.662  25.802  35.337  1.00  0.00     0.022 A 
BRANCH  88  91
ATOM     91  S   UNL A   1      45.088  23.915  36.553  1.00  0.00     0.127 S 
ATOM     92  O   UNL A   1      46.459  23.549  36.901  1.00  0.00    -0.237 OA
ATOM     93  O   UNL A   1      44.319  24.510  37.648  1.00  0.00    -0.237 OA
ATOM     94  O   UNL A   1      44.353  22.933  35.768  1.00  0.00    -0.744 OA
ENDBRANCH  88  91
ENDBRANCH  61  84
ENDBRANCH  35  36
ENDBRANCH  28  30
ENDBRANCH  27  28
ENDBRANCH  26  27
ENDBRANCH  25  26
ENDBRANCH   1  25
TORSDOF 20
ENDMDL
MODEL 2
REMARK VINA RESULT:     -11.2      4.902     10.287
REMARK SMILES CC(=O)c1ccccc1S(=O)(=O)N1CCC(C(=O)OCCOCCOC(=O)c2ccc(-c3c4nc(c(-c5cccc(S(=O)(=O)[O-])c5F)c5ccc([nH]5)c(-c5cccc(S(=O)(=O)[O-])c5F)c5nc(c(-c6cccc(S(=O)(=O)[O-])c6F)c6ccc3[nH]6)C=C5)C=C4)cc2)CC1
REMARK SMILES IDX 22 1 21 2 20 3 19 4 17 5 18 6 16 7 13 8 14 9 92 10 15 11
REMARK SMILES IDX 91 12 10 13 11 14 12 15 9 16 4 17 5 18 6 19 8 20 7 21 2 22
REMARK SMILES IDX 1 23 3 24 23 25 24 26 25 27 26 28 27 29 28 30 29 31 90 32
REMARK SMILES IDX 30 33 89 34 31 35 32 36 33 37 83 38 34 39 88 40 82 41 84 42
REMARK SMILES IDX 35 43 87 44 81 45 80 46 36 48 68 49 48 50 67 51 49 52 52 53
REMARK SMILES IDX 66 54 85 55 50 56 51 57 65 59 86 60 53 61 37 62 38 63 46 64
REMARK SMILES IDX 39 65 41 66 47 67 40 68 42 69 43 70 44 71 45 72 69 73 70 74
REMARK SMILES IDX 78 75 71 76 73 77 79 78 72 79 74 80 75 81 76 82 77 83 54 84
REMARK SMILES IDX 55 85 63 86 56 87 58 88 64 89 57 90 59 91 60 92 61 93 62 94
REMARK H PARENT 84 47 52 58
REMARK Flexibility Score: inf
ROOT
ATOM      1  O   UNL A   1      35.207  22.327  26.346  1.00  0.00    -0.374 OA
ENDROOT
BRANCH   1   2
ATOM      2  C   UNL A   1      34.214  21.411  26.807  1.00  0.00     0.202 C 
BRANCH   2   3
ATOM      3  C   UNL A   1      32.932  21.335  25.976  1.00  0.00     0.261 C 
BRANCH   3   4
ATOM      4  O   UNL A   1      33.089  20.430  24.870  1.00  0.00    -0.463 OA
BRANCH   4   5
ATOM      5  C   UNL A   1      32.553  20.832  23.691  1.00  0.00     0.309 C 
ATOM      6  O   UNL A   1      32.194  20.080  22.792  1.00  0.00    -0.252 OA
BRANCH   5   7
ATOM      7  C   UNL A   1      32.415  22.337  23.588  1.00  0.00     0.102 C 
ATOM      8  N   UNL A   1      32.005  25.001  23.262  1.00  0.00    -0.198 NA
ATOM      9  C   UNL A   1      33.018  24.467  22.312  1.00  0.00     0.103 C 
ATOM     10  C   UNL A   1      30.744  24.189  23.265  1.00  0.00     0.103 C 
ATOM     11  C   UNL A   1      33.482  23.078  22.767  1.00  0.00     0.032 C 
ATOM     12  C   UNL A   1      31.030  22.698  23.070  1.00  0.00     0.032 C 
BRANCH   8  13
ATOM     13  S   UNL A   1      31.784  26.690  23.184  1.00  0.00     0.243 S 
ATOM     14  O   UNL A   1      30.364  26.949  23.188  1.00  0.00    -0.207 OA
ATOM     15  O   UNL A   1      32.639  27.215  22.135  1.00  0.00    -0.207 OA
BRANCH  13  16
ATOM     16  C   UNL A   1      32.446  27.380  24.676  1.00  0.00     0.093 A 
ATOM     17  C   UNL A   1      32.151  26.916  25.957  1.00  0.00     0.037 A 
ATOM     18  C   UNL A   1      32.769  27.504  27.073  1.00  0.00     0.013 A 
ATOM     19  C   UNL A   1      33.713  28.516  26.910  1.00  0.00     0.001 A 
ATOM     20  C   UNL A   1      33.391  28.411  24.520  1.00  0.00     0.022 A 
ATOM     21  C   UNL A   1      34.029  28.965  25.631  1.00  0.00     0.001 A 
BRANCH  17  22
ATOM     22  C   UNL A   1      31.239  25.804  26.266  1.00  0.00     0.161 C 
ATOM     23  C   UNL A   1      31.842  24.504  26.721  1.00  0.00     0.093 C 
ATOM     24  O   UNL A   1      30.033  26.028  26.300  1.00  0.00    -0.294 OA
ENDBRANCH  17  22
ENDBRANCH  13  16
ENDBRANCH   8  13
ENDBRANCH   5   7
ENDBRANCH   4   5
ENDBRANCH   3   4
ENDBRANCH   2   3
ENDBRANCH   1   2
BRANCH   1  25
ATOM     25  C   UNL A   1      35.942  21.966  25.176  1.00  0.00     0.202 C 
BRANCH  25  26
ATOM     26  C   UNL A   1      37.018  20.887  25.359  1.00  0.00     0.261 C 
BRANCH  26  27
ATOM     27  O   UNL A   1      38.334  21.380  25.042  1.00  0.00    -0.460 OA
BRANCH  27  28
ATOM     28  C   UNL A   1      39.277  21.123  25.983  1.00  0.00     0.338 C 
ATOM     29  O   UNL A   1      39.852  20.066  26.178  1.00  0.00    -0.246 OA
BRANCH  28  30
ATOM     30  C   UNL A   1      39.678  22.373  26.655  1.00  0.00     0.060 A 
ATOM     31  C   UNL A   1      39.081  23.560  26.211  1.00  0.00     0.016 A 
ATOM     32  C   UNL A   1      40.676  22.402  27.630  1.00  0.00     0.016 A 
ATOM     33  C   UNL A   1      39.519  24.787  26.702  1.00  0.00     0.010 A 
ATOM     34  C   UNL A   1      41.120  23.638  28.117  1.00  0.00     0.010 A 
ATOM     35  C   UNL A   1      40.572  24.836  27.626  1.00  0.00    -0.014 A 
BRANCH  35  36
ATOM     36  C   UNL A   1      41.178  26.148  27.958  1.00  0.00     0.031 A 
ATOM     37  C   UNL A   1      42.572  26.457  27.483  1.00  0.00     0.074 A 
ATOM     38  C   UNL A   1      40.482  27.073  28.643  1.00  0.00     0.049 A 
ATOM     39  N   UNL A   1      43.265  27.558  27.610  1.00  0.00    -0.248 NA
ATOM     40  C   UNL A   1      43.278  25.381  26.771  1.00  0.00     0.031 C 
ATOM     41  C   UNL A   1      39.123  26.898  29.153  1.00  0.00     0.029 A 
ATOM     42  N   UNL A   1      40.829  28.341  29.032  1.00  0.00    -0.354 N 
ATOM     43  C   UNL A   1      44.494  27.305  27.013  1.00  0.00     0.074 A 
ATOM     44  C   UNL A   1      44.460  25.936  26.543  1.00  0.00     0.031 C 
ATOM     45  C   UNL A   1      38.753  28.018  29.795  1.00  0.00     0.029 A 
ATOM     46  C   UNL A   1      39.852  28.980  29.757  1.00  0.00     0.049 A 
ATOM     47  H   UNL A   1      41.695  28.755  28.812  1.00  0.00     0.167 HD
ATOM     48  C   UNL A   1      45.549  28.138  26.849  1.00  0.00     0.034 A 
ATOM     49  C   UNL A   1      39.847  30.202  30.327  1.00  0.00     0.034 A 
ATOM     50  C   UNL A   1      45.579  29.503  27.300  1.00  0.00     0.049 A 
ATOM     51  C   UNL A   1      41.044  31.100  30.160  1.00  0.00     0.074 A 
ATOM     52  C   UNL A   1      46.580  30.445  27.135  1.00  0.00     0.029 A 
ATOM     53  N   UNL A   1      44.568  30.120  28.025  1.00  0.00    -0.354 N 
ATOM     54  N   UNL A   1      42.145  30.892  29.479  1.00  0.00    -0.248 NA
ATOM     55  C   UNL A   1      40.982  32.417  30.812  1.00  0.00     0.031 C 
ATOM     56  C   UNL A   1      46.184  31.622  27.782  1.00  0.00     0.029 A 
ATOM     57  C   UNL A   1      44.928  31.421  28.331  1.00  0.00     0.049 A 
ATOM     58  H   UNL A   1      43.720  29.693  28.284  1.00  0.00     0.167 HD
ATOM     59  C   UNL A   1      42.893  32.060  29.594  1.00  0.00     0.074 A 
ATOM     60  C   UNL A   1      42.108  32.979  30.393  1.00  0.00     0.031 C 
ATOM     61  C   UNL A   1      44.122  32.342  29.093  1.00  0.00     0.034 A 
BRANCH  48  62
ATOM     62  C   UNL A   1      46.751  27.593  26.123  1.00  0.00     0.023 A 
ATOM     63  C   UNL A   1      46.877  27.794  24.732  1.00  0.00     0.012 A 
ATOM     64  C   UNL A   1      47.763  26.899  26.813  1.00  0.00     0.148 A 
ATOM     65  C   UNL A   1      47.969  27.278  24.035  1.00  0.00     0.002 A 
ATOM     66  C   UNL A   1      48.870  26.423  26.117  1.00  0.00     0.091 A 
ATOM     67  F   UNL A   1      47.616  26.690  28.130  1.00  0.00    -0.205 F 
ATOM     68  C   UNL A   1      48.969  26.601  24.728  1.00  0.00     0.022 A 
BRANCH  66  69
ATOM     69  S   UNL A   1      50.239  25.604  26.942  1.00  0.00     0.127 S 
ATOM     70  O   UNL A   1      51.174  25.404  25.836  1.00  0.00    -0.237 OA
ATOM     71  O   UNL A   1      50.660  26.606  27.921  1.00  0.00    -0.237 OA
ATOM     72  O   UNL A   1      49.680  24.391  27.526  1.00  0.00    -0.744 OA
ENDBRANCH  66  69
ENDBRANCH  48  62
BRANCH  49  73
ATOM     73  C   UNL A   1      38.635  30.669  31.057  1.00  0.00     0.023 A 
ATOM     74  C   UNL A   1      38.573  30.522  32.455  1.00  0.00     0.012 A 
ATOM     75  C   UNL A   1      37.570  31.297  30.382  1.00  0.00     0.148 A 
ATOM     76  C   UNL A   1      37.461  30.975  33.169  1.00  0.00     0.002 A 
ATOM     77  C   UNL A   1      36.491  31.792  31.104  1.00  0.00     0.091 A 
ATOM     78  F   UNL A   1      37.647  31.413  29.048  1.00  0.00    -0.205 F 
ATOM     79  C   UNL A   1      36.427  31.620  32.495  1.00  0.00     0.022 A 
BRANCH  77  80
ATOM     80  S   UNL A   1      35.175  32.748  30.341  1.00  0.00     0.127 S 
ATOM     81  O   UNL A   1      34.304  33.021  31.482  1.00  0.00    -0.237 OA
ATOM     82  O   UNL A   1      35.907  33.908  29.831  1.00  0.00    -0.237 OA
ATOM     83  O   UNL A   1      34.609  31.891  29.309  1.00  0.00    -0.744 OA
ENDBRANCH  77  80
ENDBRANCH  49  73
BRANCH  61  84
ATOM     84  C   UNL A   1      44.695  33.708  29.378  1.00  0.00     0.023 A 
ATOM     85  C   UNL A   1      45.487  33.907  30.526  1.00  0.00     0.012 A 
ATOM     86  C   UNL A   1      44.502  34.776  28.479  1.00  0.00     0.148 A 
ATOM     87  C   UNL A   1      46.048  35.156  30.794  1.00  0.00     0.002 A 
ATOM     88  C   UNL A   1      45.104  36.004  28.728  1.00  0.00     0.091 A 
ATOM     89  F   UNL A   1      43.730  34.575  27.402  1.00  0.00    -0.205 F 
ATOM     90  C   UNL A   1      45.867  36.200  29.890  1.00  0.00     0.022 A 
BRANCH  88  91
ATOM     91  S   UNL A   1      44.999  37.376  27.571  1.00  0.00     0.127 S 
ATOM     92  O   UNL A   1      45.464  38.494  28.390  1.00  0.00    -0.237 OA
ATOM     93  O   UNL A   1      45.927  36.967  26.516  1.00  0.00    -0.237 OA
ATOM     94  O   UNL A   1      43.606  37.438  27.154  1.00  0.00    -0.744 OA
ENDBRANCH  88  91
ENDBRANCH  61  84
ENDBRANCH  35  36
ENDBRANCH  28  30
ENDBRANCH  27  28
ENDBRANCH  26  27
ENDBRANCH  25  26
ENDBRANCH   1  25
TORSDOF 20
ENDMDL
MODEL 3
REMARK VINA RESULT:     -11.1      1.615      2.163
REMARK SMILES CC(=O)c1ccccc1S(=O)(=O)N1CCC(C(=O)OCCOCCOC(=O)c2ccc(-c3c4nc(c(-c5cccc(S(=O)(=O)[O-])c5F)c5ccc([nH]5)c(-c5cccc(S(=O)(=O)[O-])c5F)c5nc(c(-c6cccc(S(=O)(=O)[O-])c6F)c6ccc3[nH]6)C=C5)C=C4)cc2)CC1
REMARK SMILES IDX 22 1 21 2 20 3 19 4 17 5 18 6 16 7 13 8 14 9 92 10 15 11
REMARK SMILES IDX 91 12 10 13 11 14 12 15 9 16 4 17 5 18 6 19 8 20 7 21 2 22
REMARK SMILES IDX 1 23 3 24 23 25 24 26 25 27 26 28 27 29 28 30 29 31 90 32
REMARK SMILES IDX 30 33 89 34 31 35 32 36 33 37 83 38 34 39 88 40 82 41 84 42
REMARK SMILES IDX 35 43 87 44 81 45 80 46 36 48 68 49 48 50 67 51 49 52 52 53
REMARK SMILES IDX 66 54 85 55 50 56 51 57 65 59 86 60 53 61 37 62 38 63 46 64
REMARK SMILES IDX 39 65 41 66 47 67 40 68 42 69 43 70 44 71 45 72 69 73 70 74
REMARK SMILES IDX 78 75 71 76 73 77 79 78 72 79 74 80 75 81 76 82 77 83 54 84
REMARK SMILES IDX 55 85 63 86 56 87 58 88 64 89 57 90 59 91 60 92 61 93 62 94
REMARK H PARENT 84 47 52 58
REMARK Flexibility Score: inf
ROOT
ATOM      1  O   UNL A   1      32.861  30.399  26.319  1.00  0.00    -0.374 OA
ENDROOT
BRANCH   1   2
ATOM      2  C   UNL A   1      32.963  29.576  25.158  1.00  0.00     0.202 C 
BRANCH   2   3
ATOM      3  C   UNL A   1      31.755  29.583  24.220  1.00  0.00     0.261 C 
BRANCH   3   4
ATOM      4  O   UNL A   1      31.981  28.731  23.084  1.00  0.00    -0.463 OA
BRANCH   4   5
ATOM      5  C   UNL A   1      31.007  27.826  22.815  1.00  0.00     0.309 C 
ATOM      6  O   UNL A   1      30.163  27.945  21.934  1.00  0.00    -0.252 OA
BRANCH   5   7
ATOM      7  C   UNL A   1      31.067  26.610  23.716  1.00  0.00     0.102 C 
ATOM      8  N   UNL A   1      31.347  24.361  25.212  1.00  0.00    -0.198 NA
ATOM      9  C   UNL A   1      30.404  24.169  24.077  1.00  0.00     0.103 C 
ATOM     10  C   UNL A   1      32.649  24.964  24.775  1.00  0.00     0.103 C 
ATOM     11  C   UNL A   1      29.998  25.529  23.497  1.00  0.00     0.032 C 
ATOM     12  C   UNL A   1      32.451  25.980  23.647  1.00  0.00     0.032 C 
BRANCH   8  13
ATOM     13  S   UNL A   1      31.479  23.019  26.256  1.00  0.00     0.243 S 
ATOM     14  O   UNL A   1      30.523  22.028  25.823  1.00  0.00    -0.207 OA
ATOM     15  O   UNL A   1      31.491  23.503  27.624  1.00  0.00    -0.207 OA
BRANCH  13  16
ATOM     16  C   UNL A   1      33.094  22.326  26.022  1.00  0.00     0.093 A 
ATOM     17  C   UNL A   1      33.404  21.356  25.069  1.00  0.00     0.037 A 
ATOM     18  C   UNL A   1      34.729  20.908  24.934  1.00  0.00     0.013 A 
ATOM     19  C   UNL A   1      35.746  21.457  25.711  1.00  0.00     0.001 A 
ATOM     20  C   UNL A   1      34.125  22.866  26.812  1.00  0.00     0.022 A 
ATOM     21  C   UNL A   1      35.445  22.443  26.647  1.00  0.00     0.001 A 
BRANCH  17  22
ATOM     22  C   UNL A   1      32.445  20.753  24.130  1.00  0.00     0.161 C 
ATOM     23  C   UNL A   1      32.229  21.435  22.808  1.00  0.00     0.093 C 
ATOM     24  O   UNL A   1      31.991  19.643  24.391  1.00  0.00    -0.294 OA
ENDBRANCH  17  22
ENDBRANCH  13  16
ENDBRANCH   8  13
ENDBRANCH   5   7
ENDBRANCH   4   5
ENDBRANCH   3   4
ENDBRANCH   2   3
ENDBRANCH   1   2
BRANCH   1  25
ATOM     25  C   UNL A   1      31.576  30.939  26.631  1.00  0.00     0.202 C 
BRANCH  25  26
ATOM     26  C   UNL A   1      31.501  32.464  26.781  1.00  0.00     0.261 C 
BRANCH  26  27
ATOM     27  O   UNL A   1      32.803  33.076  26.728  1.00  0.00    -0.460 OA
BRANCH  27  28
ATOM     28  C   UNL A   1      33.277  33.505  27.924  1.00  0.00     0.338 C 
ATOM     29  O   UNL A   1      32.700  34.212  28.732  1.00  0.00    -0.246 OA
BRANCH  28  30
ATOM     30  C   UNL A   1      34.557  32.840  28.233  1.00  0.00     0.060 A 
ATOM     31  C   UNL A   1      34.499  31.516  28.687  1.00  0.00     0.016 A 
ATOM     32  C   UNL A   1      35.777  33.516  28.169  1.00  0.00     0.016 A 
ATOM     33  C   UNL A   1      35.655  30.880  29.132  1.00  0.00     0.010 A 
ATOM     34  C   UNL A   1      36.937  32.876  28.623  1.00  0.00     0.010 A 
ATOM     35  C   UNL A   1      36.874  31.572  29.144  1.00  0.00    -0.014 A 
BRANCH  35  36
ATOM     36  C   UNL A   1      38.039  30.965  29.833  1.00  0.00     0.031 A 
ATOM     37  C   UNL A   1      38.337  31.353  31.256  1.00  0.00     0.074 A 
ATOM     38  C   UNL A   1      38.803  30.048  29.213  1.00  0.00     0.049 A 
ATOM     39  N   UNL A   1      39.264  30.903  32.060  1.00  0.00    -0.248 NA
ATOM     40  C   UNL A   1      37.476  32.388  31.850  1.00  0.00     0.031 C 
ATOM     41  C   UNL A   1      38.614  29.584  27.840  1.00  0.00     0.029 A 
ATOM     42  N   UNL A   1      39.895  29.349  29.660  1.00  0.00    -0.354 N 
ATOM     43  C   UNL A   1      39.112  31.609  33.248  1.00  0.00     0.074 A 
ATOM     44  C   UNL A   1      38.017  32.535  33.051  1.00  0.00     0.031 C 
ATOM     45  C   UNL A   1      39.565  28.680  27.553  1.00  0.00     0.029 A 
ATOM     46  C   UNL A   1      40.438  28.515  28.714  1.00  0.00     0.049 A 
ATOM     47  H   UNL A   1      40.255  29.438  30.573  1.00  0.00     0.167 HD
ATOM     48  C   UNL A   1      39.804  31.486  34.406  1.00  0.00     0.034 A 
ATOM     49  C   UNL A   1      41.519  27.710  28.777  1.00  0.00     0.034 A 
ATOM     50  C   UNL A   1      40.882  30.555  34.609  1.00  0.00     0.049 A 
ATOM     51  C   UNL A   1      42.293  27.614  30.064  1.00  0.00     0.074 A 
ATOM     52  C   UNL A   1      41.609  30.316  35.762  1.00  0.00     0.029 A 
ATOM     53  N   UNL A   1      41.400  29.719  33.630  1.00  0.00    -0.354 N 
ATOM     54  N   UNL A   1      42.055  28.190  31.218  1.00  0.00    -0.248 NA
ATOM     55  C   UNL A   1      43.467  26.727  30.068  1.00  0.00     0.031 C 
ATOM     56  C   UNL A   1      42.586  29.354  35.471  1.00  0.00     0.029 A 
ATOM     57  C   UNL A   1      42.451  28.978  34.144  1.00  0.00     0.049 A 
ATOM     58  H   UNL A   1      41.070  29.662  32.705  1.00  0.00     0.167 HD
ATOM     59  C   UNL A   1      43.028  27.714  32.092  1.00  0.00     0.074 A 
ATOM     60  C   UNL A   1      43.844  26.785  31.338  1.00  0.00     0.031 C 
ATOM     61  C   UNL A   1      43.233  28.025  33.397  1.00  0.00     0.034 A 
BRANCH  48  62
ATOM     62  C   UNL A   1      39.390  32.370  35.553  1.00  0.00     0.023 A 
ATOM     63  C   UNL A   1      38.504  31.874  36.532  1.00  0.00     0.012 A 
ATOM     64  C   UNL A   1      39.889  33.682  35.675  1.00  0.00     0.148 A 
ATOM     65  C   UNL A   1      38.089  32.683  37.589  1.00  0.00     0.002 A 
ATOM     66  C   UNL A   1      39.501  34.468  36.756  1.00  0.00     0.091 A 
ATOM     67  F   UNL A   1      40.707  34.149  34.722  1.00  0.00    -0.205 F 
ATOM     68  C   UNL A   1      38.593  33.975  37.706  1.00  0.00     0.022 A 
BRANCH  66  69
ATOM     69  S   UNL A   1      40.159  36.118  37.023  1.00  0.00     0.127 S 
ATOM     70  O   UNL A   1      39.369  36.569  38.167  1.00  0.00    -0.237 OA
ATOM     71  O   UNL A   1      41.566  35.849  37.322  1.00  0.00    -0.237 OA
ATOM     72  O   UNL A   1      39.936  36.838  35.776  1.00  0.00    -0.744 OA
ENDBRANCH  66  69
ENDBRANCH  48  62
BRANCH  49  73
ATOM     73  C   UNL A   1      41.891  26.884  27.595  1.00  0.00     0.023 A 
ATOM     74  C   UNL A   1      42.582  27.482  26.525  1.00  0.00     0.012 A 
ATOM     75  C   UNL A   1      41.606  25.505  27.547  1.00  0.00     0.148 A 
ATOM     76  C   UNL A   1      42.968  26.725  25.417  1.00  0.00     0.002 A 
ATOM     77  C   UNL A   1      42.038  24.747  26.465  1.00  0.00     0.091 A 
ATOM     78  F   UNL A   1      40.934  24.961  28.572  1.00  0.00    -0.205 F 
ATOM     79  C   UNL A   1      42.706  25.357  25.393  1.00  0.00     0.022 A 
BRANCH  77  80
ATOM     80  S   UNL A   1      41.861  22.961  26.404  1.00  0.00     0.127 S 
ATOM     81  O   UNL A   1      42.528  22.637  25.145  1.00  0.00    -0.237 OA
ATOM     82  O   UNL A   1      42.581  22.549  27.609  1.00  0.00    -0.237 OA
ATOM     83  O   UNL A   1      40.429  22.703  26.440  1.00  0.00    -0.744 OA
ENDBRANCH  77  80
ENDBRANCH  49  73
BRANCH  61  84
ATOM     84  C   UNL A   1      44.377  27.345  34.106  1.00  0.00     0.023 A 
ATOM     85  C   UNL A   1      45.653  27.944  34.106  1.00  0.00     0.012 A 
ATOM     86  C   UNL A   1      44.177  26.148  34.820  1.00  0.00     0.148 A 
ATOM     87  C   UNL A   1      46.718  27.345  34.778  1.00  0.00     0.002 A 
ATOM     88  C   UNL A   1      45.232  25.581  35.527  1.00  0.00     0.091 A 
ATOM     89  F   UNL A   1      42.962  25.580  34.792  1.00  0.00    -0.205 F 
ATOM     90  C   UNL A   1      46.506  26.171  35.498  1.00  0.00     0.022 A 
BRANCH  88  91
ATOM     91  S   UNL A   1      45.025  24.121  36.555  1.00  0.00     0.127 S 
ATOM     92  O   UNL A   1      44.221  23.259  35.691  1.00  0.00    -0.237 OA
ATOM     93  O   UNL A   1      46.405  23.675  36.747  1.00  0.00    -0.237 OA
ATOM     94  O   UNL A   1      44.368  24.582  37.770  1.00  0.00    -0.744 OA
ENDBRANCH  88  91
ENDBRANCH  61  84
ENDBRANCH  35  36
ENDBRANCH  28  30
ENDBRANCH  27  28
ENDBRANCH  26  27
ENDBRANCH  25  26
ENDBRANCH   1  25
TORSDOF 20
ENDMDL
