MODEL 1
REMARK VINA RESULT:     -11.0      0.000      0.000
REMARK SMILES O=C(Cc1ccccc1Nc1c(Cl)cccc1C(F)(F)F)OCCOCCOC(=O)c1ccc(-c2c3nc(c(-c4cccc(S(=O)(=O)[O-])c4F)c4ccc([nH]4)c(-c4cccc(S(=O)(=O)[O-])c4F)c4nc(c(-c5cccc(S(=O)(=O)[O-])c5F)c5ccc2[nH]5)C=C4)C=C3)cc1
REMARK SMILES IDX 24 1 23 2 22 3 2 4 1 5 3 6 4 7 5 8 9 9 6 10 8 11 7 12 10 13
REMARK SMILES IDX 11 15 12 16 17 17 13 18 14 19 16 20 15 21 18 22 19 23 20 24
REMARK SMILES IDX 21 25 25 26 26 27 27 28 28 29 29 30 30 31 31 32 32 33 93 34
REMARK SMILES IDX 33 35 92 36 34 37 35 38 36 39 86 40 37 41 91 42 85 43 87 44
REMARK SMILES IDX 38 45 90 46 84 47 83 48 39 50 71 51 51 52 70 53 52 54 55 55
REMARK SMILES IDX 69 56 88 57 53 58 54 59 68 61 89 62 56 63 40 64 41 65 49 66
REMARK SMILES IDX 42 67 44 68 50 69 43 70 45 71 46 72 47 73 48 74 72 75 73 76
REMARK SMILES IDX 81 77 74 78 76 79 82 80 75 81 77 82 78 83 79 84 80 85 57 86
REMARK SMILES IDX 58 87 66 88 59 89 61 90 67 91 60 92 62 93 63 94 64 95 65 96
REMARK H PARENT 10 14 87 49 55 60
REMARK Flexibility Score: inf
ROOT
ATOM      1  C   UNL A   1      31.719  29.352  25.792  1.00  0.00     0.202 C 
ENDROOT
BRANCH   1   2
ATOM      2  C   UNL A   1      32.730  28.390  25.163  1.00  0.00     0.261 C 
BRANCH   2   3
ATOM      3  O   UNL A   1      32.753  27.035  25.645  1.00  0.00    -0.463 OA
BRANCH   3   4
ATOM      4  C   UNL A   1      31.692  26.272  25.994  1.00  0.00     0.310 C 
ATOM      5  O   UNL A   1      31.279  26.312  27.153  1.00  0.00    -0.252 OA
BRANCH   4   6
ATOM      6  C   UNL A   1      31.078  25.340  24.994  1.00  0.00     0.160 C 
BRANCH   6   7
ATOM      7  C   UNL A   1      31.810  25.015  23.710  1.00  0.00    -0.013 A 
ATOM      8  C   UNL A   1      31.407  25.766  22.583  1.00  0.00     0.006 A 
ATOM      9  C   UNL A   1      32.877  24.095  23.587  1.00  0.00     0.042 A 
ATOM     10  C   UNL A   1      32.027  25.606  21.349  1.00  0.00     0.000 A 
ATOM     11  C   UNL A   1      33.489  23.957  22.330  1.00  0.00     0.026 A 
ATOM     12  C   UNL A   1      33.069  24.700  21.223  1.00  0.00     0.002 A 
BRANCH   9  13
ATOM     13  N   UNL A   1      33.300  23.309  24.682  1.00  0.00    -0.354 N 
ATOM     14  H   UNL A   1      32.907  23.564  25.547  1.00  0.00     0.167 HD
BRANCH  13  15
ATOM     15  C   UNL A   1      34.199  22.215  24.741  1.00  0.00     0.070 A 
ATOM     16  C   UNL A   1      35.570  22.476  25.001  1.00  0.00     0.065 A 
ATOM     17  C   UNL A   1      33.785  20.880  24.589  1.00  0.00     0.080 A 
ATOM     18  Cl  UNL A   1      36.142  24.103  25.184  1.00  0.00    -0.082 Cl
ATOM     19  C   UNL A   1      36.500  21.446  25.128  1.00  0.00     0.023 A 
ATOM     20  C   UNL A   1      34.739  19.849  24.744  1.00  0.00     0.015 A 
ATOM     21  C   UNL A   1      36.080  20.129  25.008  1.00  0.00     0.002 A 
BRANCH  17  22
ATOM     22  C   UNL A   1      32.371  20.493  24.232  1.00  0.00     0.418 C 
ATOM     23  F   UNL A   1      31.451  21.061  25.074  1.00  0.00    -0.166 F 
ATOM     24  F   UNL A   1      32.007  20.916  22.988  1.00  0.00    -0.166 F 
ATOM     25  F   UNL A   1      32.098  19.160  24.281  1.00  0.00    -0.166 F 
ENDBRANCH  17  22
ENDBRANCH  13  15
ENDBRANCH   9  13
ENDBRANCH   6   7
ENDBRANCH   4   6
ENDBRANCH   3   4
ENDBRANCH   2   3
ENDBRANCH   1   2
BRANCH   1  26
ATOM     26  O   UNL A   1      32.007  30.738  25.811  1.00  0.00    -0.374 OA
BRANCH  26  27
ATOM     27  C   UNL A   1      31.446  31.558  26.835  1.00  0.00     0.202 C 
BRANCH  27  28
ATOM     28  C   UNL A   1      31.564  33.080  26.734  1.00  0.00     0.261 C 
BRANCH  28  29
ATOM     29  O   UNL A   1      32.924  33.546  26.803  1.00  0.00    -0.460 OA
BRANCH  29  30
ATOM     30  C   UNL A   1      33.448  33.584  28.048  1.00  0.00     0.338 C 
ATOM     31  O   UNL A   1      32.934  34.081  29.044  1.00  0.00    -0.246 OA
BRANCH  30  32
ATOM     32  C   UNL A   1      34.709  32.831  28.124  1.00  0.00     0.060 A 
ATOM     33  C   UNL A   1      34.634  31.474  28.465  1.00  0.00     0.016 A 
ATOM     34  C   UNL A   1      35.942  33.482  28.043  1.00  0.00     0.016 A 
ATOM     35  C   UNL A   1      35.789  30.785  28.823  1.00  0.00     0.010 A 
ATOM     36  C   UNL A   1      37.099  32.789  28.409  1.00  0.00     0.010 A 
ATOM     37  C   UNL A   1      37.016  31.461  28.861  1.00  0.00    -0.014 A 
BRANCH  37  38
ATOM     38  C   UNL A   1      38.153  30.847  29.587  1.00  0.00     0.031 A 
ATOM     39  C   UNL A   1      38.393  31.250  31.019  1.00  0.00     0.074 A 
ATOM     40  C   UNL A   1      38.944  29.939  28.994  1.00  0.00     0.049 A 
ATOM     41  N   UNL A   1      39.309  30.835  31.855  1.00  0.00    -0.248 NA
ATOM     42  C   UNL A   1      37.480  32.258  31.583  1.00  0.00     0.031 C 
ATOM     43  C   UNL A   1      38.805  29.469  27.618  1.00  0.00     0.029 A 
ATOM     44  N   UNL A   1      40.035  29.261  29.477  1.00  0.00    -0.354 N 
ATOM     45  C   UNL A   1      39.104  31.552  33.028  1.00  0.00     0.074 A 
ATOM     46  C   UNL A   1      37.984  32.438  32.794  1.00  0.00     0.031 C 
ATOM     47  C   UNL A   1      39.789  28.590  27.358  1.00  0.00     0.029 A 
ATOM     48  C   UNL A   1      40.632  28.447  28.544  1.00  0.00     0.049 A 
ATOM     49  H   UNL A   1      40.358  29.348  30.403  1.00  0.00     0.167 HD
ATOM     50  C   UNL A   1      39.775  31.472  34.203  1.00  0.00     0.034 A 
ATOM     51  C   UNL A   1      41.736  27.681  28.641  1.00  0.00     0.034 A 
ATOM     52  C   UNL A   1      40.868  30.571  34.440  1.00  0.00     0.049 A 
ATOM     53  C   UNL A   1      42.466  27.606  29.958  1.00  0.00     0.074 A 
ATOM     54  C   UNL A   1      41.581  30.370  35.608  1.00  0.00     0.029 A 
ATOM     55  N   UNL A   1      41.414  29.725  33.487  1.00  0.00    -0.354 N 
ATOM     56  N   UNL A   1      42.181  28.193  31.096  1.00  0.00    -0.248 NA
ATOM     57  C   UNL A   1      43.646  26.731  30.016  1.00  0.00     0.031 C 
ATOM     58  C   UNL A   1      42.572  29.415  35.355  1.00  0.00     0.029 A 
ATOM     59  C   UNL A   1      42.460  29.005  34.036  1.00  0.00     0.049 A 
ATOM     60  H   UNL A   1      41.103  29.648  32.556  1.00  0.00     0.167 HD
ATOM     61  C   UNL A   1      43.114  27.723  32.015  1.00  0.00     0.074 A 
ATOM     62  C   UNL A   1      43.967  26.794  31.302  1.00  0.00     0.031 C 
ATOM     63  C   UNL A   1      43.257  28.036  33.327  1.00  0.00     0.034 A 
BRANCH  50  64
ATOM     64  C   UNL A   1      39.322  32.370  35.325  1.00  0.00     0.023 A 
ATOM     65  C   UNL A   1      38.368  31.903  36.252  1.00  0.00     0.012 A 
ATOM     66  C   UNL A   1      39.860  33.662  35.478  1.00  0.00     0.148 A 
ATOM     67  C   UNL A   1      37.929  32.722  37.292  1.00  0.00     0.002 A 
ATOM     68  C   UNL A   1      39.448  34.457  36.543  1.00  0.00     0.091 A 
ATOM     69  F   UNL A   1      40.744  34.101  34.571  1.00  0.00    -0.205 F 
ATOM     70  C   UNL A   1      38.474  33.994  37.443  1.00  0.00     0.022 A 
BRANCH  68  71
ATOM     71  S   UNL A   1      40.152  36.079  36.858  1.00  0.00     0.127 S 
ATOM     72  O   UNL A   1      39.406  36.502  38.042  1.00  0.00    -0.237 OA
ATOM     73  O   UNL A   1      41.561  35.763  37.107  1.00  0.00    -0.237 OA
ATOM     74  O   UNL A   1      39.915  36.856  35.650  1.00  0.00    -0.744 OA
ENDBRANCH  68  71
ENDBRANCH  50  64
BRANCH  51  75
ATOM     75  C   UNL A   1      42.174  26.864  27.475  1.00  0.00     0.023 A 
ATOM     76  C   UNL A   1      42.906  27.476  26.439  1.00  0.00     0.012 A 
ATOM     77  C   UNL A   1      41.903  25.483  27.402  1.00  0.00     0.148 A 
ATOM     78  C   UNL A   1      43.338  26.734  25.339  1.00  0.00     0.002 A 
ATOM     79  C   UNL A   1      42.385  24.739  26.332  1.00  0.00     0.091 A 
ATOM     80  F   UNL A   1      41.193  24.923  28.392  1.00  0.00    -0.205 F 
ATOM     81  C   UNL A   1      43.088  25.365  25.290  1.00  0.00     0.022 A 
BRANCH  79  82
ATOM     82  S   UNL A   1      42.231  22.951  26.250  1.00  0.00     0.127 S 
ATOM     83  O   UNL A   1      40.783  22.771  26.304  1.00  0.00    -0.237 OA
ATOM     84  O   UNL A   1      42.843  22.656  24.953  1.00  0.00    -0.237 OA
ATOM     85  O   UNL A   1      42.975  22.437  27.392  1.00  0.00    -0.744 OA
ENDBRANCH  79  82
ENDBRANCH  51  75
BRANCH  63  86
ATOM     86  C   UNL A   1      44.345  27.335  34.100  1.00  0.00     0.023 A 
ATOM     87  C   UNL A   1      45.606  27.945  34.252  1.00  0.00     0.012 A 
ATOM     88  C   UNL A   1      44.089  26.107  34.742  1.00  0.00     0.148 A 
ATOM     89  C   UNL A   1      46.606  27.326  35.003  1.00  0.00     0.002 A 
ATOM     90  C   UNL A   1      45.074  25.520  35.528  1.00  0.00     0.091 A 
ATOM     91  F   UNL A   1      42.890  25.531  34.570  1.00  0.00    -0.205 F 
ATOM     92  C   UNL A   1      46.336  26.122  35.649  1.00  0.00     0.022 A 
BRANCH  90  93
ATOM     93  S   UNL A   1      44.772  24.022  36.472  1.00  0.00     0.127 S 
ATOM     94  O   UNL A   1      46.107  23.432  36.533  1.00  0.00    -0.237 OA
ATOM     95  O   UNL A   1      44.280  24.548  37.748  1.00  0.00    -0.237 OA
ATOM     96  O   UNL A   1      43.782  23.269  35.714  1.00  0.00    -0.744 OA
ENDBRANCH  90  93
ENDBRANCH  63  86
ENDBRANCH  37  38
ENDBRANCH  30  32
ENDBRANCH  29  30
ENDBRANCH  28  29
ENDBRANCH  27  28
ENDBRANCH  26  27
ENDBRANCH   1  26
TORSDOF 21
ENDMDL
MODEL 2
REMARK VINA RESULT:     -10.7      1.334      7.731
REMARK SMILES O=C(Cc1ccccc1Nc1c(Cl)cccc1C(F)(F)F)OCCOCCOC(=O)c1ccc(-c2c3nc(c(-c4cccc(S(=O)(=O)[O-])c4F)c4ccc([nH]4)c(-c4cccc(S(=O)(=O)[O-])c4F)c4nc(c(-c5cccc(S(=O)(=O)[O-])c5F)c5ccc2[nH]5)C=C4)C=C3)cc1
REMARK SMILES IDX 24 1 23 2 22 3 2 4 1 5 3 6 4 7 5 8 9 9 6 10 8 11 7 12 10 13
REMARK SMILES IDX 11 15 12 16 17 17 13 18 14 19 16 20 15 21 18 22 19 23 20 24
REMARK SMILES IDX 21 25 25 26 26 27 27 28 28 29 29 30 30 31 31 32 32 33 93 34
REMARK SMILES IDX 33 35 92 36 34 37 35 38 36 39 86 40 37 41 91 42 85 43 87 44
REMARK SMILES IDX 38 45 90 46 84 47 83 48 39 50 71 51 51 52 70 53 52 54 55 55
REMARK SMILES IDX 69 56 88 57 53 58 54 59 68 61 89 62 56 63 40 64 41 65 49 66
REMARK SMILES IDX 42 67 44 68 50 69 43 70 45 71 46 72 47 73 48 74 72 75 73 76
REMARK SMILES IDX 81 77 74 78 76 79 82 80 75 81 77 82 78 83 79 84 80 85 57 86
REMARK SMILES IDX 58 87 66 88 59 89 61 90 67 91 60 92 62 93 63 94 64 95 65 96
REMARK H PARENT 10 14 87 49 55 60
REMARK Flexibility Score: inf
ROOT
ATOM      1  C   UNL A   1      32.350  29.796  25.468  1.00  0.00     0.202 C 
ENDROOT
BRANCH   1   2
ATOM      2  C   UNL A   1      33.351  28.646  25.602  1.00  0.00     0.261 C 
BRANCH   2   3
ATOM      3  O   UNL A   1      33.014  27.565  26.489  1.00  0.00    -0.463 OA
BRANCH   3   4
ATOM      4  C   UNL A   1      31.782  27.064  26.738  1.00  0.00     0.310 C 
ATOM      5  O   UNL A   1      31.103  27.560  27.637  1.00  0.00    -0.252 OA
BRANCH   4   6
ATOM      6  C   UNL A   1      31.287  25.876  25.971  1.00  0.00     0.160 C 
BRANCH   6   7
ATOM      7  C   UNL A   1      31.756  25.641  24.551  1.00  0.00    -0.013 A 
ATOM      8  C   UNL A   1      31.157  26.470  23.576  1.00  0.00     0.006 A 
ATOM      9  C   UNL A   1      32.765  24.731  24.162  1.00  0.00     0.042 A 
ATOM     10  C   UNL A   1      31.526  26.396  22.238  1.00  0.00     0.000 A 
ATOM     11  C   UNL A   1      33.124  24.680  22.805  1.00  0.00     0.026 A 
ATOM     12  C   UNL A   1      32.512  25.500  21.853  1.00  0.00     0.002 A 
BRANCH   9  13
ATOM     13  N   UNL A   1      33.379  23.868  25.099  1.00  0.00    -0.354 N 
ATOM     14  H   UNL A   1      33.712  24.315  25.910  1.00  0.00     0.167 HD
BRANCH  13  15
ATOM     15  C   UNL A   1      33.594  22.469  25.063  1.00  0.00     0.070 A 
ATOM     16  C   UNL A   1      32.505  21.606  25.354  1.00  0.00     0.065 A 
ATOM     17  C   UNL A   1      34.831  21.897  24.716  1.00  0.00     0.080 A 
ATOM     18  Cl  UNL A   1      30.959  22.254  25.801  1.00  0.00    -0.082 Cl
ATOM     19  C   UNL A   1      32.629  20.220  25.284  1.00  0.00     0.023 A 
ATOM     20  C   UNL A   1      34.930  20.490  24.629  1.00  0.00     0.015 A 
ATOM     21  C   UNL A   1      33.844  19.662  24.911  1.00  0.00     0.002 A 
BRANCH  17  22
ATOM     22  C   UNL A   1      36.073  22.715  24.466  1.00  0.00     0.418 C 
ATOM     23  F   UNL A   1      37.203  21.941  24.425  1.00  0.00    -0.166 F 
ATOM     24  F   UNL A   1      36.050  23.354  23.262  1.00  0.00    -0.166 F 
ATOM     25  F   UNL A   1      36.347  23.666  25.402  1.00  0.00    -0.166 F 
ENDBRANCH  17  22
ENDBRANCH  13  15
ENDBRANCH   9  13
ENDBRANCH   6   7
ENDBRANCH   4   6
ENDBRANCH   3   4
ENDBRANCH   2   3
ENDBRANCH   1   2
BRANCH   1  26
ATOM     26  O   UNL A   1      32.420  30.879  26.378  1.00  0.00    -0.374 OA
BRANCH  26  27
ATOM     27  C   UNL A   1      31.310  31.767  26.499  1.00  0.00     0.202 C 
BRANCH  27  28
ATOM     28  C   UNL A   1      31.554  33.241  26.832  1.00  0.00     0.261 C 
BRANCH  28  29
ATOM     29  O   UNL A   1      32.947  33.598  26.824  1.00  0.00    -0.460 OA
BRANCH  29  30
ATOM     30  C   UNL A   1      33.482  33.824  28.044  1.00  0.00     0.338 C 
ATOM     31  O   UNL A   1      33.013  34.528  28.930  1.00  0.00    -0.246 OA
BRANCH  30  32
ATOM     32  C   UNL A   1      34.688  33.010  28.262  1.00  0.00     0.060 A 
ATOM     33  C   UNL A   1      34.515  31.724  28.791  1.00  0.00     0.016 A 
ATOM     34  C   UNL A   1      35.964  33.561  28.124  1.00  0.00     0.016 A 
ATOM     35  C   UNL A   1      35.613  31.020  29.275  1.00  0.00     0.010 A 
ATOM     36  C   UNL A   1      37.064  32.855  28.617  1.00  0.00     0.010 A 
ATOM     37  C   UNL A   1      36.882  31.614  29.251  1.00  0.00    -0.014 A 
BRANCH  37  38
ATOM     38  C   UNL A   1      37.961  31.039  30.090  1.00  0.00     0.031 A 
ATOM     39  C   UNL A   1      38.888  30.024  29.473  1.00  0.00     0.074 A 
ATOM     40  C   UNL A   1      38.126  31.424  31.366  1.00  0.00     0.049 A 
ATOM     41  N   UNL A   1      39.909  29.403  30.002  1.00  0.00    -0.248 NA
ATOM     42  C   UNL A   1      38.625  29.658  28.071  1.00  0.00     0.031 C 
ATOM     43  C   UNL A   1      37.296  32.401  32.067  1.00  0.00     0.029 A 
ATOM     44  N   UNL A   1      39.045  31.023  32.303  1.00  0.00    -0.354 N 
ATOM     45  C   UNL A   1      40.389  28.551  29.014  1.00  0.00     0.074 A 
ATOM     46  C   UNL A   1      39.541  28.725  27.855  1.00  0.00     0.031 C 
ATOM     47  C   UNL A   1      37.733  32.511  33.334  1.00  0.00     0.029 A 
ATOM     48  C   UNL A   1      38.861  31.603  33.535  1.00  0.00     0.049 A 
ATOM     49  H   UNL A   1      39.767  30.383  32.110  1.00  0.00     0.167 HD
ATOM     50  C   UNL A   1      41.450  27.710  29.058  1.00  0.00     0.034 A 
ATOM     51  C   UNL A   1      39.527  31.415  34.691  1.00  0.00     0.034 A 
ATOM     52  C   UNL A   1      42.307  27.561  30.200  1.00  0.00     0.049 A 
ATOM     53  C   UNL A   1      40.706  30.475  34.715  1.00  0.00     0.074 A 
ATOM     54  C   UNL A   1      43.440  26.779  30.332  1.00  0.00     0.029 A 
ATOM     55  N   UNL A   1      42.120  28.202  31.415  1.00  0.00    -0.354 N 
ATOM     56  N   UNL A   1      41.225  29.774  33.735  1.00  0.00    -0.248 NA
ATOM     57  C   UNL A   1      41.415  30.330  35.995  1.00  0.00     0.031 C 
ATOM     58  C   UNL A   1      43.927  26.933  31.635  1.00  0.00     0.029 A 
ATOM     59  C   UNL A   1      43.110  27.829  32.306  1.00  0.00     0.049 A 
ATOM     60  H   UNL A   1      41.389  28.831  31.615  1.00  0.00     0.167 HD
ATOM     61  C   UNL A   1      42.348  29.146  34.266  1.00  0.00     0.074 A 
ATOM     62  C   UNL A   1      42.437  29.557  35.652  1.00  0.00     0.031 C 
ATOM     63  C   UNL A   1      43.221  28.299  33.664  1.00  0.00     0.034 A 
BRANCH  50  64
ATOM     64  C   UNL A   1      41.752  26.907  27.819  1.00  0.00     0.023 A 
ATOM     65  C   UNL A   1      42.366  27.531  26.714  1.00  0.00     0.012 A 
ATOM     66  C   UNL A   1      41.455  25.532  27.759  1.00  0.00     0.148 A 
ATOM     67  C   UNL A   1      42.645  26.808  25.554  1.00  0.00     0.002 A 
ATOM     68  C   UNL A   1      41.775  24.808  26.615  1.00  0.00     0.091 A 
ATOM     69  F   UNL A   1      40.846  24.961  28.808  1.00  0.00    -0.205 F 
ATOM     70  C   UNL A   1      42.358  25.446  25.508  1.00  0.00     0.022 A 
BRANCH  68  71
ATOM     71  S   UNL A   1      41.511  23.035  26.497  1.00  0.00     0.127 S 
ATOM     72  O   UNL A   1      42.228  22.711  25.265  1.00  0.00    -0.237 OA
ATOM     73  O   UNL A   1      42.149  22.543  27.720  1.00  0.00    -0.237 OA
ATOM     74  O   UNL A   1      40.067  22.851  26.456  1.00  0.00    -0.744 OA
ENDBRANCH  68  71
ENDBRANCH  50  64
BRANCH  51  75
ATOM     75  C   UNL A   1      39.140  32.190  35.902  1.00  0.00     0.023 A 
ATOM     76  C   UNL A   1      38.272  31.609  36.846  1.00  0.00     0.012 A 
ATOM     77  C   UNL A   1      39.652  33.480  36.143  1.00  0.00     0.148 A 
ATOM     78  C   UNL A   1      37.901  32.308  37.995  1.00  0.00     0.002 A 
ATOM     79  C   UNL A   1      39.323  34.148  37.317  1.00  0.00     0.091 A 
ATOM     80  F   UNL A   1      40.467  34.021  35.225  1.00  0.00    -0.205 F 
ATOM     81  C   UNL A   1      38.433  33.571  38.236  1.00  0.00     0.022 A 
BRANCH  79  82
ATOM     82  S   UNL A   1      40.066  35.717  37.777  1.00  0.00     0.127 S 
ATOM     83  O   UNL A   1      39.265  36.100  38.938  1.00  0.00    -0.237 OA
ATOM     84  O   UNL A   1      41.442  35.319  38.080  1.00  0.00    -0.237 OA
ATOM     85  O   UNL A   1      39.936  36.576  36.608  1.00  0.00    -0.744 OA
ENDBRANCH  79  82
ENDBRANCH  51  75
BRANCH  63  86
ATOM     86  C   UNL A   1      44.382  27.795  34.480  1.00  0.00     0.023 A 
ATOM     87  C   UNL A   1      45.577  28.539  34.539  1.00  0.00     0.012 A 
ATOM     88  C   UNL A   1      44.260  26.621  35.251  1.00  0.00     0.148 A 
ATOM     89  C   UNL A   1      46.644  28.104  35.327  1.00  0.00     0.002 A 
ATOM     90  C   UNL A   1      45.309  26.221  36.070  1.00  0.00     0.091 A 
ATOM     91  F   UNL A   1      43.123  25.914  35.167  1.00  0.00    -0.205 F 
ATOM     92  C   UNL A   1      46.506  26.954  36.100  1.00  0.00     0.022 A 
BRANCH  90  93
ATOM     93  S   UNL A   1      45.172  24.808  37.171  1.00  0.00     0.127 S 
ATOM     94  O   UNL A   1      46.488  24.792  37.804  1.00  0.00    -0.237 OA
ATOM     95  O   UNL A   1      44.075  25.205  38.057  1.00  0.00    -0.237 OA
ATOM     96  O   UNL A   1      44.868  23.668  36.316  1.00  0.00    -0.744 OA
ENDBRANCH  90  93
ENDBRANCH  63  86
ENDBRANCH  37  38
ENDBRANCH  30  32
ENDBRANCH  29  30
ENDBRANCH  28  29
ENDBRANCH  27  28
ENDBRANCH  26  27
ENDBRANCH   1  26
TORSDOF 21
ENDMDL
MODEL 3
REMARK VINA RESULT:     -10.5      2.013      7.723
REMARK SMILES O=C(Cc1ccccc1Nc1c(Cl)cccc1C(F)(F)F)OCCOCCOC(=O)c1ccc(-c2c3nc(c(-c4cccc(S(=O)(=O)[O-])c4F)c4ccc([nH]4)c(-c4cccc(S(=O)(=O)[O-])c4F)c4nc(c(-c5cccc(S(=O)(=O)[O-])c5F)c5ccc2[nH]5)C=C4)C=C3)cc1
REMARK SMILES IDX 24 1 23 2 22 3 2 4 1 5 3 6 4 7 5 8 9 9 6 10 8 11 7 12 10 13
REMARK SMILES IDX 11 15 12 16 17 17 13 18 14 19 16 20 15 21 18 22 19 23 20 24
REMARK SMILES IDX 21 25 25 26 26 27 27 28 28 29 29 30 30 31 31 32 32 33 93 34
REMARK SMILES IDX 33 35 92 36 34 37 35 38 36 39 86 40 37 41 91 42 85 43 87 44
REMARK SMILES IDX 38 45 90 46 84 47 83 48 39 50 71 51 51 52 70 53 52 54 55 55
REMARK SMILES IDX 69 56 88 57 53 58 54 59 68 61 89 62 56 63 40 64 41 65 49 66
REMARK SMILES IDX 42 67 44 68 50 69 43 70 45 71 46 72 47 73 48 74 72 75 73 76
REMARK SMILES IDX 81 77 74 78 76 79 82 80 75 81 77 82 78 83 79 84 80 85 57 86
REMARK SMILES IDX 58 87 66 88 59 89 61 90 67 91 60 92 62 93 63 94 64 95 65 96
REMARK H PARENT 10 14 87 49 55 60
REMARK Flexibility Score: inf
ROOT
ATOM      1  C   UNL A   1      32.168  29.241  25.110  1.00  0.00     0.202 C 
ENDROOT
BRANCH   1   2
ATOM      2  C   UNL A   1      33.229  29.125  24.013  1.00  0.00     0.261 C 
BRANCH   2   3
ATOM      3  O   UNL A   1      33.739  27.814  23.712  1.00  0.00    -0.463 OA
BRANCH   3   4
ATOM      4  C   UNL A   1      33.529  27.092  22.588  1.00  0.00     0.310 C 
ATOM      5  O   UNL A   1      33.988  27.497  21.520  1.00  0.00    -0.252 OA
BRANCH   4   6
ATOM      6  C   UNL A   1      32.688  25.853  22.639  1.00  0.00     0.160 C 
BRANCH   6   7
ATOM      7  C   UNL A   1      31.637  25.693  23.716  1.00  0.00    -0.013 A 
ATOM      8  C   UNL A   1      30.511  26.537  23.585  1.00  0.00     0.006 A 
ATOM      9  C   UNL A   1      31.675  24.743  24.763  1.00  0.00     0.042 A 
ATOM     10  C   UNL A   1      29.446  26.465  24.477  1.00  0.00     0.000 A 
ATOM     11  C   UNL A   1      30.584  24.687  25.646  1.00  0.00     0.026 A 
ATOM     12  C   UNL A   1      29.484  25.538  25.508  1.00  0.00     0.002 A 
BRANCH   9  13
ATOM     13  N   UNL A   1      32.789  23.893  24.944  1.00  0.00    -0.354 N 
ATOM     14  H   UNL A   1      33.628  24.357  25.162  1.00  0.00     0.167 HD
BRANCH  13  15
ATOM     15  C   UNL A   1      32.898  22.483  24.861  1.00  0.00     0.070 A 
ATOM     16  C   UNL A   1      32.338  21.823  23.735  1.00  0.00     0.065 A 
ATOM     17  C   UNL A   1      33.568  21.712  25.827  1.00  0.00     0.080 A 
ATOM     18  Cl  UNL A   1      31.487  22.720  22.517  1.00  0.00    -0.082 Cl
ATOM     19  C   UNL A   1      32.455  20.446  23.559  1.00  0.00     0.023 A 
ATOM     20  C   UNL A   1      33.696  20.320  25.620  1.00  0.00     0.015 A 
ATOM     21  C   UNL A   1      33.144  19.694  24.501  1.00  0.00     0.002 A 
BRANCH  17  22
ATOM     22  C   UNL A   1      34.131  22.296  27.099  1.00  0.00     0.418 C 
ATOM     23  F   UNL A   1      34.433  21.331  28.023  1.00  0.00    -0.166 F 
ATOM     24  F   UNL A   1      35.304  22.962  26.900  1.00  0.00    -0.166 F 
ATOM     25  F   UNL A   1      33.308  23.156  27.762  1.00  0.00    -0.166 F 
ENDBRANCH  17  22
ENDBRANCH  13  15
ENDBRANCH   9  13
ENDBRANCH   6   7
ENDBRANCH   4   6
ENDBRANCH   3   4
ENDBRANCH   2   3
ENDBRANCH   1   2
BRANCH   1  26
ATOM     26  O   UNL A   1      31.605  30.509  25.393  1.00  0.00    -0.374 OA
BRANCH  26  27
ATOM     27  C   UNL A   1      31.775  31.080  26.689  1.00  0.00     0.202 C 
BRANCH  27  28
ATOM     28  C   UNL A   1      31.599  32.588  26.880  1.00  0.00     0.261 C 
BRANCH  28  29
ATOM     29  O   UNL A   1      32.840  33.313  26.828  1.00  0.00    -0.460 OA
BRANCH  29  30
ATOM     30  C   UNL A   1      33.389  33.584  28.033  1.00  0.00     0.338 C 
ATOM     31  O   UNL A   1      32.900  34.270  28.923  1.00  0.00    -0.246 OA
BRANCH  30  32
ATOM     32  C   UNL A   1      34.644  32.844  28.231  1.00  0.00     0.060 A 
ATOM     33  C   UNL A   1      34.551  31.498  28.608  1.00  0.00     0.016 A 
ATOM     34  C   UNL A   1      35.877  33.502  28.227  1.00  0.00     0.016 A 
ATOM     35  C   UNL A   1      35.678  30.829  29.076  1.00  0.00     0.010 A 
ATOM     36  C   UNL A   1      37.006  32.830  28.704  1.00  0.00     0.010 A 
ATOM     37  C   UNL A   1      36.894  31.516  29.189  1.00  0.00    -0.014 A 
BRANCH  37  38
ATOM     38  C   UNL A   1      37.974  30.934  30.021  1.00  0.00     0.031 A 
ATOM     39  C   UNL A   1      38.902  29.926  29.395  1.00  0.00     0.074 A 
ATOM     40  C   UNL A   1      38.139  31.307  31.301  1.00  0.00     0.049 A 
ATOM     41  N   UNL A   1      39.924  29.301  29.917  1.00  0.00    -0.248 NA
ATOM     42  C   UNL A   1      38.639  29.573  27.989  1.00  0.00     0.031 C 
ATOM     43  C   UNL A   1      37.308  32.276  32.012  1.00  0.00     0.029 A 
ATOM     44  N   UNL A   1      39.059  30.898  32.234  1.00  0.00    -0.354 N 
ATOM     45  C   UNL A   1      40.404  28.459  28.920  1.00  0.00     0.074 A 
ATOM     46  C   UNL A   1      39.556  28.644  27.764  1.00  0.00     0.031 C 
ATOM     47  C   UNL A   1      37.745  32.373  33.280  1.00  0.00     0.029 A 
ATOM     48  C   UNL A   1      38.875  31.465  33.472  1.00  0.00     0.049 A 
ATOM     49  H   UNL A   1      39.782  30.259  32.034  1.00  0.00     0.167 HD
ATOM     50  C   UNL A   1      41.467  27.619  28.955  1.00  0.00     0.034 A 
ATOM     51  C   UNL A   1      39.541  31.266  34.626  1.00  0.00     0.034 A 
ATOM     52  C   UNL A   1      42.324  27.460  30.097  1.00  0.00     0.049 A 
ATOM     53  C   UNL A   1      40.721  30.327  34.640  1.00  0.00     0.074 A 
ATOM     54  C   UNL A   1      43.458  26.677  30.220  1.00  0.00     0.029 A 
ATOM     55  N   UNL A   1      42.137  28.089  31.318  1.00  0.00    -0.354 N 
ATOM     56  N   UNL A   1      41.241  29.637  33.653  1.00  0.00    -0.248 NA
ATOM     57  C   UNL A   1      41.431  30.170  35.918  1.00  0.00     0.031 C 
ATOM     58  C   UNL A   1      43.946  26.819  31.525  1.00  0.00     0.029 A 
ATOM     59  C   UNL A   1      43.128  27.708  32.205  1.00  0.00     0.049 A 
ATOM     60  H   UNL A   1      41.405  28.714  31.524  1.00  0.00     0.167 HD
ATOM     61  C   UNL A   1      42.364  29.004  34.177  1.00  0.00     0.074 A 
ATOM     62  C   UNL A   1      42.453  29.402  35.568  1.00  0.00     0.031 C 
ATOM     63  C   UNL A   1      43.238  28.165  33.567  1.00  0.00     0.034 A 
BRANCH  50  64
ATOM     64  C   UNL A   1      41.769  26.829  27.709  1.00  0.00     0.023 A 
ATOM     65  C   UNL A   1      42.330  27.476  26.589  1.00  0.00     0.012 A 
ATOM     66  C   UNL A   1      41.525  25.443  27.655  1.00  0.00     0.148 A 
ATOM     67  C   UNL A   1      42.608  26.765  25.423  1.00  0.00     0.002 A 
ATOM     68  C   UNL A   1      41.845  24.732  26.503  1.00  0.00     0.091 A 
ATOM     69  F   UNL A   1      40.965  24.848  28.718  1.00  0.00    -0.205 F 
ATOM     70  C   UNL A   1      42.375  25.393  25.382  1.00  0.00     0.022 A 
BRANCH  68  71
ATOM     71  S   UNL A   1      41.648  22.950  26.389  1.00  0.00     0.127 S 
ATOM     72  O   UNL A   1      42.386  22.648  25.163  1.00  0.00    -0.237 OA
ATOM     73  O   UNL A   1      42.295  22.487  27.619  1.00  0.00    -0.237 OA
ATOM     74  O   UNL A   1      40.213  22.712  26.338  1.00  0.00    -0.744 OA
ENDBRANCH  68  71
ENDBRANCH  50  64
BRANCH  51  75
ATOM     75  C   UNL A   1      39.154  32.029  35.845  1.00  0.00     0.023 A 
ATOM     76  C   UNL A   1      39.619  33.347  36.011  1.00  0.00     0.012 A 
ATOM     77  C   UNL A   1      38.301  31.473  36.819  1.00  0.00     0.148 A 
ATOM     78  C   UNL A   1      39.264  34.090  37.137  1.00  0.00     0.002 A 
ATOM     79  C   UNL A   1      37.906  32.238  37.910  1.00  0.00     0.091 A 
ATOM     80  F   UNL A   1      37.880  30.211  36.648  1.00  0.00    -0.205 F 
ATOM     81  C   UNL A   1      38.400  33.541  38.081  1.00  0.00     0.022 A 
BRANCH  79  82
ATOM     82  S   UNL A   1      36.691  31.666  39.102  1.00  0.00     0.127 S 
ATOM     83  O   UNL A   1      37.435  31.754  40.356  1.00  0.00    -0.237 OA
ATOM     84  O   UNL A   1      35.626  32.658  38.945  1.00  0.00    -0.237 OA
ATOM     85  O   UNL A   1      36.322  30.322  38.679  1.00  0.00    -0.744 OA
ENDBRANCH  79  82
ENDBRANCH  51  75
BRANCH  63  86
ATOM     86  C   UNL A   1      44.401  27.654  34.377  1.00  0.00     0.023 A 
ATOM     87  C   UNL A   1      45.599  28.391  34.433  1.00  0.00     0.012 A 
ATOM     88  C   UNL A   1      44.275  26.479  35.148  1.00  0.00     0.148 A 
ATOM     89  C   UNL A   1      46.667  27.951  35.216  1.00  0.00     0.002 A 
ATOM     90  C   UNL A   1      45.326  26.073  35.962  1.00  0.00     0.091 A 
ATOM     91  F   UNL A   1      43.135  25.778  35.067  1.00  0.00    -0.205 F 
ATOM     92  C   UNL A   1      46.526  26.800  35.988  1.00  0.00     0.022 A 
BRANCH  90  93
ATOM     93  S   UNL A   1      45.186  24.659  37.062  1.00  0.00     0.127 S 
ATOM     94  O   UNL A   1      44.053  25.044  37.900  1.00  0.00    -0.237 OA
ATOM     95  O   UNL A   1      44.910  23.562  36.131  1.00  0.00    -0.237 OA
ATOM     96  O   UNL A   1      46.470  24.558  37.742  1.00  0.00    -0.744 OA
ENDBRANCH  90  93
ENDBRANCH  63  86
ENDBRANCH  37  38
ENDBRANCH  30  32
ENDBRANCH  29  30
ENDBRANCH  28  29
ENDBRANCH  27  28
ENDBRANCH  26  27
ENDBRANCH   1  26
TORSDOF 21
ENDMDL
