MODEL 1
REMARK VINA RESULT:      -9.1      0.000      0.000
REMARK SMILES CCOc1c(F)cccc1C(=O)OCCOCCOC(=O)c1ccc(-c2c3nc(c(-c4cccc(S(=O)(=O)[O-])c4F)c4ccc([nH]4)c(-c4cccc(S(=O)(=O)[O-])c4F)c4nc(c(-c5cccc(S(=O)(=O)[O-])c5F)c5ccc2[nH]5)C=C4)C=C3)cc1
REMARK SMILES IDX 17 1 16 2 15 3 14 4 13 5 11 6 12 7 10 8 4 9 5 10 6 11 7 12
REMARK SMILES IDX 9 13 8 14 3 15 2 16 1 17 18 18 19 19 20 20 21 21 22 22 23 23
REMARK SMILES IDX 84 24 24 25 83 26 25 27 26 28 27 29 77 30 28 31 82 32 76 33
REMARK SMILES IDX 78 34 29 35 81 36 75 37 74 38 30 40 62 41 42 42 61 43 43 44
REMARK SMILES IDX 46 45 60 46 79 47 44 48 45 49 59 51 80 52 47 53 31 54 32 55
REMARK SMILES IDX 40 56 33 57 35 58 41 59 34 60 36 61 37 62 38 63 39 64 63 65
REMARK SMILES IDX 64 66 72 67 65 68 67 69 73 70 66 71 68 72 69 73 70 74 71 75
REMARK SMILES IDX 48 76 49 77 57 78 50 79 52 80 58 81 51 82 53 83 54 84 55 85
REMARK SMILES IDX 56 86
REMARK H PARENT 78 39 46 50
REMARK Flexibility Score: inf
ROOT
ATOM      1  C   UNL A   1      33.606  34.901  28.702  1.00  0.00     0.202 C 
ENDROOT
BRANCH   1   2
ATOM      2  O   UNL A   1      32.931  34.609  29.926  1.00  0.00    -0.374 OA
BRANCH   2   3
ATOM      3  C   UNL A   1      32.935  35.627  30.931  1.00  0.00     0.202 C 
BRANCH   3   4
ATOM      4  C   UNL A   1      34.191  35.716  31.802  1.00  0.00     0.261 C 
BRANCH   4   5
ATOM      5  O   UNL A   1      34.264  34.615  32.724  1.00  0.00    -0.460 OA
BRANCH   5   6
ATOM      6  C   UNL A   1      34.967  33.546  32.278  1.00  0.00     0.342 C 
ATOM      7  O   UNL A   1      34.515  32.450  31.974  1.00  0.00    -0.246 OA
BRANCH   6   8
ATOM      8  C   UNL A   1      36.355  33.922  31.939  1.00  0.00     0.105 A 
ATOM      9  C   UNL A   1      37.309  34.354  32.864  1.00  0.00     0.169 A 
ATOM     10  C   UNL A   1      38.628  34.508  32.423  1.00  0.00     0.165 A 
ATOM     11  F   UNL A   1      39.613  34.771  33.292  1.00  0.00    -0.203 F 
ATOM     12  C   UNL A   1      38.980  34.346  31.084  1.00  0.00     0.043 A 
ATOM     13  C   UNL A   1      36.707  33.765  30.583  1.00  0.00     0.020 A 
ATOM     14  C   UNL A   1      38.012  33.994  30.153  1.00  0.00     0.004 A 
BRANCH   9  15
ATOM     15  O   UNL A   1      36.997  34.496  34.188  1.00  0.00    -0.490 OA
BRANCH  15  16
ATOM     16  C   UNL A   1      37.576  33.472  35.014  1.00  0.00     0.226 C 
ATOM     17  C   UNL A   1      37.200  33.641  36.479  1.00  0.00     0.049 C 
ENDBRANCH  15  16
ENDBRANCH   9  15
ENDBRANCH   6   8
ENDBRANCH   5   6
ENDBRANCH   4   5
ENDBRANCH   3   4
ENDBRANCH   2   3
ENDBRANCH   1   2
BRANCH   1  18
ATOM     18  C   UNL A   1      34.398  33.756  28.060  1.00  0.00     0.261 C 
BRANCH  18  19
ATOM     19  O   UNL A   1      34.206  32.503  28.739  1.00  0.00    -0.460 OA
BRANCH  19  20
ATOM     20  C   UNL A   1      34.292  31.409  27.947  1.00  0.00     0.338 C 
ATOM     21  O   UNL A   1      33.578  31.134  26.991  1.00  0.00    -0.246 OA
BRANCH  20  22
ATOM     22  C   UNL A   1      35.506  30.639  28.273  1.00  0.00     0.060 A 
ATOM     23  C   UNL A   1      35.566  30.029  29.533  1.00  0.00     0.016 A 
ATOM     24  C   UNL A   1      36.590  30.564  27.395  1.00  0.00     0.016 A 
ATOM     25  C   UNL A   1      36.732  29.384  29.941  1.00  0.00     0.010 A 
ATOM     26  C   UNL A   1      37.762  29.923  27.811  1.00  0.00     0.010 A 
ATOM     27  C   UNL A   1      37.850  29.363  29.098  1.00  0.00    -0.014 A 
BRANCH  27  28
ATOM     28  C   UNL A   1      39.149  28.866  29.614  1.00  0.00     0.031 A 
ATOM     29  C   UNL A   1      39.757  29.524  30.822  1.00  0.00     0.074 A 
ATOM     30  C   UNL A   1      39.776  27.838  29.016  1.00  0.00     0.049 A 
ATOM     31  N   UNL A   1      40.889  29.263  31.421  1.00  0.00    -0.248 NA
ATOM     32  C   UNL A   1      38.988  30.619  31.438  1.00  0.00     0.031 C 
ATOM     33  C   UNL A   1      39.282  27.117  27.845  1.00  0.00     0.029 A 
ATOM     34  N   UNL A   1      40.976  27.236  29.303  1.00  0.00    -0.354 N 
ATOM     35  C   UNL A   1      40.983  30.174  32.467  1.00  0.00     0.074 A 
ATOM     36  C   UNL A   1      39.798  31.003  32.415  1.00  0.00     0.031 C 
ATOM     37  C   UNL A   1      40.182  26.182  27.499  1.00  0.00     0.029 A 
ATOM     38  C   UNL A   1      41.326  26.254  28.407  1.00  0.00     0.049 A 
ATOM     39  H   UNL A   1      41.532  27.484  30.075  1.00  0.00     0.167 HD
ATOM     40  C   UNL A   1      41.957  30.295  33.397  1.00  0.00     0.034 A 
ATOM     41  C   UNL A   1      42.446  25.509  28.319  1.00  0.00     0.034 A 
ATOM     42  C   UNL A   1      43.119  29.451  33.464  1.00  0.00     0.049 A 
ATOM     43  C   UNL A   1      43.529  25.679  29.353  1.00  0.00     0.074 A 
ATOM     44  C   UNL A   1      44.137  29.469  34.401  1.00  0.00     0.029 A 
ATOM     45  N   UNL A   1      43.423  28.447  32.559  1.00  0.00    -0.354 N 
ATOM     46  N   UNL A   1      43.553  26.471  30.398  1.00  0.00    -0.248 NA
ATOM     47  C   UNL A   1      44.725  24.836  29.215  1.00  0.00     0.031 C 
ATOM     48  C   UNL A   1      45.071  28.490  34.048  1.00  0.00     0.029 A 
ATOM     49  C   UNL A   1      44.620  27.845  32.907  1.00  0.00     0.049 A 
ATOM     50  H   UNL A   1      42.870  28.198  31.784  1.00  0.00     0.167 HD
ATOM     51  C   UNL A   1      44.747  26.200  31.058  1.00  0.00     0.074 A 
ATOM     52  C   UNL A   1      45.413  25.159  30.304  1.00  0.00     0.031 C 
ATOM     53  C   UNL A   1      45.249  26.773  32.179  1.00  0.00     0.034 A 
BRANCH  40  54
ATOM     54  C   UNL A   1      41.798  31.357  34.453  1.00  0.00     0.023 A 
ATOM     55  C   UNL A   1      41.152  31.037  35.664  1.00  0.00     0.012 A 
ATOM     56  C   UNL A   1      42.365  32.635  34.285  1.00  0.00     0.148 A 
ATOM     57  C   UNL A   1      41.055  31.980  36.686  1.00  0.00     0.002 A 
ATOM     58  C   UNL A   1      42.302  33.556  35.324  1.00  0.00     0.091 A 
ATOM     59  F   UNL A   1      42.954  32.923  33.116  1.00  0.00    -0.205 F 
ATOM     60  C   UNL A   1      41.642  33.234  36.521  1.00  0.00     0.022 A 
BRANCH  58  61
ATOM     61  S   UNL A   1      43.094  35.166  35.242  1.00  0.00     0.127 S 
ATOM     62  O   UNL A   1      44.495  34.796  35.044  1.00  0.00    -0.237 OA
ATOM     63  O   UNL A   1      42.451  35.765  34.071  1.00  0.00    -0.237 OA
ATOM     64  O   UNL A   1      42.796  35.827  36.505  1.00  0.00    -0.744 OA
ENDBRANCH  58  61
ENDBRANCH  40  54
BRANCH  41  65
ATOM     65  C   UNL A   1      42.572  24.499  27.231  1.00  0.00     0.023 A 
ATOM     66  C   UNL A   1      43.313  24.812  26.076  1.00  0.00     0.012 A 
ATOM     67  C   UNL A   1      42.013  23.212  27.362  1.00  0.00     0.148 A 
ATOM     68  C   UNL A   1      43.485  23.867  25.064  1.00  0.00     0.002 A 
ATOM     69  C   UNL A   1      42.235  22.258  26.377  1.00  0.00     0.091 A 
ATOM     70  F   UNL A   1      41.296  22.941  28.463  1.00  0.00    -0.205 F 
ATOM     71  C   UNL A   1      42.958  22.587  25.221  1.00  0.00     0.022 A 
BRANCH  69  72
ATOM     72  S   UNL A   1      41.712  20.548  26.554  1.00  0.00     0.127 S 
ATOM     73  O   UNL A   1      40.262  20.664  26.431  1.00  0.00    -0.237 OA
ATOM     74  O   UNL A   1      42.380  19.912  25.416  1.00  0.00    -0.237 OA
ATOM     75  O   UNL A   1      42.202  20.118  27.856  1.00  0.00    -0.744 OA
ENDBRANCH  69  72
ENDBRANCH  41  65
BRANCH  53  76
ATOM     76  C   UNL A   1      46.581  26.286  32.693  1.00  0.00     0.023 A 
ATOM     77  C   UNL A   1      47.750  27.012  32.393  1.00  0.00     0.012 A 
ATOM     78  C   UNL A   1      46.654  25.191  33.578  1.00  0.00     0.148 A 
ATOM     79  C   UNL A   1      48.974  26.646  32.951  1.00  0.00     0.002 A 
ATOM     80  C   UNL A   1      47.868  24.861  34.169  1.00  0.00     0.091 A 
ATOM     81  F   UNL A   1      45.532  24.505  33.840  1.00  0.00    -0.205 F 
ATOM     82  C   UNL A   1      49.031  25.582  33.850  1.00  0.00     0.022 A 
BRANCH  80  83
ATOM     83  S   UNL A   1      48.019  23.575  35.415  1.00  0.00     0.127 S 
ATOM     84  O   UNL A   1      47.550  22.398  34.685  1.00  0.00    -0.237 OA
ATOM     85  O   UNL A   1      49.454  23.584  35.699  1.00  0.00    -0.237 OA
ATOM     86  O   UNL A   1      47.179  23.994  36.529  1.00  0.00    -0.744 OA
ENDBRANCH  80  83
ENDBRANCH  53  76
ENDBRANCH  27  28
ENDBRANCH  20  22
ENDBRANCH  19  20
ENDBRANCH  18  19
ENDBRANCH   1  18
TORSDOF 19
ENDMDL
MODEL 2
REMARK VINA RESULT:      -9.0      3.572      6.264
REMARK SMILES CCOc1c(F)cccc1C(=O)OCCOCCOC(=O)c1ccc(-c2c3nc(c(-c4cccc(S(=O)(=O)[O-])c4F)c4ccc([nH]4)c(-c4cccc(S(=O)(=O)[O-])c4F)c4nc(c(-c5cccc(S(=O)(=O)[O-])c5F)c5ccc2[nH]5)C=C4)C=C3)cc1
REMARK SMILES IDX 17 1 16 2 15 3 14 4 13 5 11 6 12 7 10 8 4 9 5 10 6 11 7 12
REMARK SMILES IDX 9 13 8 14 3 15 2 16 1 17 18 18 19 19 20 20 21 21 22 22 23 23
REMARK SMILES IDX 84 24 24 25 83 26 25 27 26 28 27 29 77 30 28 31 82 32 76 33
REMARK SMILES IDX 78 34 29 35 81 36 75 37 74 38 30 40 62 41 42 42 61 43 43 44
REMARK SMILES IDX 46 45 60 46 79 47 44 48 45 49 59 51 80 52 47 53 31 54 32 55
REMARK SMILES IDX 40 56 33 57 35 58 41 59 34 60 36 61 37 62 38 63 39 64 63 65
REMARK SMILES IDX 64 66 72 67 65 68 67 69 73 70 66 71 68 72 69 73 70 74 71 75
REMARK SMILES IDX 48 76 49 77 57 78 50 79 52 80 58 81 51 82 53 83 54 84 55 85
REMARK SMILES IDX 56 86
REMARK H PARENT 78 39 46 50
REMARK Flexibility Score: inf
ROOT
ATOM      1  C   UNL A   1      31.920  29.246  25.528  1.00  0.00     0.202 C 
ENDROOT
BRANCH   1   2
ATOM      2  O   UNL A   1      31.378  28.838  24.271  1.00  0.00    -0.374 OA
BRANCH   2   3
ATOM      3  C   UNL A   1      32.098  27.838  23.545  1.00  0.00     0.202 C 
BRANCH   3   4
ATOM      4  C   UNL A   1      31.533  26.415  23.608  1.00  0.00     0.261 C 
BRANCH   4   5
ATOM      5  O   UNL A   1      31.792  25.808  24.886  1.00  0.00    -0.460 OA
BRANCH   5   6
ATOM      6  C   UNL A   1      31.507  24.487  24.955  1.00  0.00     0.342 C 
ATOM      7  O   UNL A   1      30.650  23.890  24.318  1.00  0.00    -0.246 OA
BRANCH   6   8
ATOM      8  C   UNL A   1      32.538  23.756  25.720  1.00  0.00     0.105 A 
ATOM      9  C   UNL A   1      33.875  23.632  25.331  1.00  0.00     0.169 A 
ATOM     10  C   UNL A   1      34.772  23.058  26.239  1.00  0.00     0.165 A 
ATOM     11  F   UNL A   1      36.088  23.050  25.989  1.00  0.00    -0.203 F 
ATOM     12  C   UNL A   1      34.348  22.524  27.455  1.00  0.00     0.043 A 
ATOM     13  C   UNL A   1      32.106  23.208  26.944  1.00  0.00     0.020 A 
ATOM     14  C   UNL A   1      33.004  22.578  27.802  1.00  0.00     0.004 A 
BRANCH   9  15
ATOM     15  O   UNL A   1      34.324  24.169  24.157  1.00  0.00    -0.490 OA
BRANCH  15  16
ATOM     16  C   UNL A   1      34.458  23.195  23.108  1.00  0.00     0.226 C 
ATOM     17  C   UNL A   1      33.360  23.328  22.063  1.00  0.00     0.049 C 
ENDBRANCH  15  16
ENDBRANCH   9  15
ENDBRANCH   6   8
ENDBRANCH   5   6
ENDBRANCH   4   5
ENDBRANCH   3   4
ENDBRANCH   2   3
ENDBRANCH   1   2
BRANCH   1  18
ATOM     18  C   UNL A   1      31.825  30.738  25.869  1.00  0.00     0.261 C 
BRANCH  18  19
ATOM     19  O   UNL A   1      32.238  31.022  27.217  1.00  0.00    -0.460 OA
BRANCH  19  20
ATOM     20  C   UNL A   1      33.100  32.058  27.339  1.00  0.00     0.338 C 
ATOM     21  O   UNL A   1      32.836  33.251  27.252  1.00  0.00    -0.246 OA
BRANCH  20  22
ATOM     22  C   UNL A   1      34.420  31.573  27.780  1.00  0.00     0.060 A 
ATOM     23  C   UNL A   1      34.553  30.201  28.035  1.00  0.00     0.016 A 
ATOM     24  C   UNL A   1      35.490  32.443  28.001  1.00  0.00     0.016 A 
ATOM     25  C   UNL A   1      35.742  29.701  28.563  1.00  0.00     0.010 A 
ATOM     26  C   UNL A   1      36.679  31.939  28.539  1.00  0.00     0.010 A 
ATOM     27  C   UNL A   1      36.798  30.574  28.855  1.00  0.00    -0.014 A 
BRANCH  27  28
ATOM     28  C   UNL A   1      37.974  30.076  29.608  1.00  0.00     0.031 A 
ATOM     29  C   UNL A   1      38.216  30.578  31.006  1.00  0.00     0.074 A 
ATOM     30  C   UNL A   1      38.814  29.183  29.056  1.00  0.00     0.049 A 
ATOM     31  N   UNL A   1      39.191  30.292  31.828  1.00  0.00    -0.248 NA
ATOM     32  C   UNL A   1      37.229  31.527  31.548  1.00  0.00     0.031 C 
ATOM     33  C   UNL A   1      38.678  28.618  27.715  1.00  0.00     0.029 A 
ATOM     34  N   UNL A   1      39.958  28.609  29.551  1.00  0.00    -0.354 N 
ATOM     35  C   UNL A   1      38.952  31.041  32.974  1.00  0.00     0.074 A 
ATOM     36  C   UNL A   1      37.746  31.805  32.737  1.00  0.00     0.031 C 
ATOM     37  C   UNL A   1      39.714  27.793  27.484  1.00  0.00     0.029 A 
ATOM     38  C   UNL A   1      40.597  27.791  28.651  1.00  0.00     0.049 A 
ATOM     39  H   UNL A   1      40.290  28.769  30.464  1.00  0.00     0.167 HD
ATOM     40  C   UNL A   1      39.661  31.075  34.125  1.00  0.00     0.034 A 
ATOM     41  C   UNL A   1      41.767  27.128  28.747  1.00  0.00     0.034 A 
ATOM     42  C   UNL A   1      40.843  30.293  34.367  1.00  0.00     0.049 A 
ATOM     43  C   UNL A   1      42.552  27.199  30.031  1.00  0.00     0.074 A 
ATOM     44  C   UNL A   1      41.602  30.225  35.522  1.00  0.00     0.029 A 
ATOM     45  N   UNL A   1      41.441  29.452  33.443  1.00  0.00    -0.354 N 
ATOM     46  N   UNL A   1      42.256  27.828  31.143  1.00  0.00    -0.248 NA
ATOM     47  C   UNL A   1      43.816  26.450  30.086  1.00  0.00     0.031 C 
ATOM     48  C   UNL A   1      42.676  29.361  35.288  1.00  0.00     0.029 A 
ATOM     49  C   UNL A   1      42.569  28.869  33.996  1.00  0.00     0.049 A 
ATOM     50  H   UNL A   1      41.114  29.291  32.529  1.00  0.00     0.167 HD
ATOM     51  C   UNL A   1      43.277  27.526  32.038  1.00  0.00     0.074 A 
ATOM     52  C   UNL A   1      44.193  26.645  31.344  1.00  0.00     0.031 C 
ATOM     53  C   UNL A   1      43.445  27.951  33.315  1.00  0.00     0.034 A 
BRANCH  40  54
ATOM     54  C   UNL A   1      39.162  31.958  35.237  1.00  0.00     0.023 A 
ATOM     55  C   UNL A   1      38.203  31.458  36.142  1.00  0.00     0.012 A 
ATOM     56  C   UNL A   1      39.705  33.241  35.441  1.00  0.00     0.148 A 
ATOM     57  C   UNL A   1      37.779  32.229  37.222  1.00  0.00     0.002 A 
ATOM     58  C   UNL A   1      39.308  33.987  36.545  1.00  0.00     0.091 A 
ATOM     59  F   UNL A   1      40.598  33.705  34.556  1.00  0.00    -0.205 F 
ATOM     60  C   UNL A   1      38.340  33.487  37.431  1.00  0.00     0.022 A 
BRANCH  58  61
ATOM     61  S   UNL A   1      40.029  35.582  36.946  1.00  0.00     0.127 S 
ATOM     62  O   UNL A   1      39.652  36.379  35.780  1.00  0.00    -0.237 OA
ATOM     63  O   UNL A   1      39.326  35.937  38.179  1.00  0.00    -0.237 OA
ATOM     64  O   UNL A   1      41.458  35.350  37.106  1.00  0.00    -0.744 OA
ENDBRANCH  58  61
ENDBRANCH  40  54
BRANCH  41  65
ATOM     65  C   UNL A   1      42.237  26.298  27.602  1.00  0.00     0.023 A 
ATOM     66  C   UNL A   1      43.121  26.855  26.660  1.00  0.00     0.012 A 
ATOM     67  C   UNL A   1      41.860  24.946  27.478  1.00  0.00     0.148 A 
ATOM     68  C   UNL A   1      43.612  26.084  25.605  1.00  0.00     0.002 A 
ATOM     69  C   UNL A   1      42.396  24.169  26.458  1.00  0.00     0.091 A 
ATOM     70  F   UNL A   1      41.002  24.441  28.377  1.00  0.00    -0.205 F 
ATOM     71  C   UNL A   1      43.261  24.740  25.513  1.00  0.00     0.022 A 
BRANCH  69  72
ATOM     72  S   UNL A   1      42.109  22.400  26.339  1.00  0.00     0.127 S 
ATOM     73  O   UNL A   1      42.659  21.922  27.604  1.00  0.00    -0.237 OA
ATOM     74  O   UNL A   1      40.649  22.341  26.238  1.00  0.00    -0.237 OA
ATOM     75  O   UNL A   1      42.813  21.965  25.141  1.00  0.00    -0.744 OA
ENDBRANCH  69  72
ENDBRANCH  41  65
BRANCH  53  76
ATOM     76  C   UNL A   1      44.653  27.465  34.075  1.00  0.00     0.023 A 
ATOM     77  C   UNL A   1      45.825  28.246  34.092  1.00  0.00     0.012 A 
ATOM     78  C   UNL A   1      44.580  26.307  34.876  1.00  0.00     0.148 A 
ATOM     79  C   UNL A   1      46.912  27.873  34.881  1.00  0.00     0.002 A 
ATOM     80  C   UNL A   1      45.650  25.968  35.696  1.00  0.00     0.091 A 
ATOM     81  F   UNL A   1      43.461  25.570  34.834  1.00  0.00    -0.205 F 
ATOM     82  C   UNL A   1      46.820  26.745  35.694  1.00  0.00     0.022 A 
BRANCH  80  83
ATOM     83  S   UNL A   1      45.583  24.593  36.852  1.00  0.00     0.127 S 
ATOM     84  O   UNL A   1      45.481  23.449  35.947  1.00  0.00    -0.237 OA
ATOM     85  O   UNL A   1      46.866  24.709  37.547  1.00  0.00    -0.237 OA
ATOM     86  O   UNL A   1      44.416  24.830  37.692  1.00  0.00    -0.744 OA
ENDBRANCH  80  83
ENDBRANCH  53  76
ENDBRANCH  27  28
ENDBRANCH  20  22
ENDBRANCH  19  20
ENDBRANCH  18  19
ENDBRANCH   1  18
TORSDOF 19
ENDMDL
MODEL 3
REMARK VINA RESULT:      -8.8      3.755      6.331
REMARK SMILES CCOc1c(F)cccc1C(=O)OCCOCCOC(=O)c1ccc(-c2c3nc(c(-c4cccc(S(=O)(=O)[O-])c4F)c4ccc([nH]4)c(-c4cccc(S(=O)(=O)[O-])c4F)c4nc(c(-c5cccc(S(=O)(=O)[O-])c5F)c5ccc2[nH]5)C=C4)C=C3)cc1
REMARK SMILES IDX 17 1 16 2 15 3 14 4 13 5 11 6 12 7 10 8 4 9 5 10 6 11 7 12
REMARK SMILES IDX 9 13 8 14 3 15 2 16 1 17 18 18 19 19 20 20 21 21 22 22 23 23
REMARK SMILES IDX 84 24 24 25 83 26 25 27 26 28 27 29 77 30 28 31 82 32 76 33
REMARK SMILES IDX 78 34 29 35 81 36 75 37 74 38 30 40 62 41 42 42 61 43 43 44
REMARK SMILES IDX 46 45 60 46 79 47 44 48 45 49 59 51 80 52 47 53 31 54 32 55
REMARK SMILES IDX 40 56 33 57 35 58 41 59 34 60 36 61 37 62 38 63 39 64 63 65
REMARK SMILES IDX 64 66 72 67 65 68 67 69 73 70 66 71 68 72 69 73 70 74 71 75
REMARK SMILES IDX 48 76 49 77 57 78 50 79 52 80 58 81 51 82 53 83 54 84 55 85
REMARK SMILES IDX 56 86
REMARK H PARENT 78 39 46 50
REMARK Flexibility Score: inf
ROOT
ATOM      1  C   UNL A   1      31.655  31.008  26.498  1.00  0.00     0.202 C 
ENDROOT
BRANCH   1   2
ATOM      2  O   UNL A   1      32.913  30.435  26.139  1.00  0.00    -0.374 OA
BRANCH   2   3
ATOM      3  C   UNL A   1      32.953  29.018  25.951  1.00  0.00     0.202 C 
BRANCH   3   4
ATOM      4  C   UNL A   1      31.609  28.329  25.696  1.00  0.00     0.261 C 
BRANCH   4   5
ATOM      5  O   UNL A   1      31.759  27.206  24.811  1.00  0.00    -0.460 OA
BRANCH   5   6
ATOM      6  C   UNL A   1      31.853  26.004  25.428  1.00  0.00     0.342 C 
ATOM      7  O   UNL A   1      31.376  25.701  26.514  1.00  0.00    -0.246 OA
BRANCH   6   8
ATOM      8  C   UNL A   1      32.393  24.975  24.517  1.00  0.00     0.105 A 
ATOM      9  C   UNL A   1      32.736  23.676  24.901  1.00  0.00     0.169 A 
ATOM     10  C   UNL A   1      33.072  22.761  23.896  1.00  0.00     0.165 A 
ATOM     11  F   UNL A   1      33.261  21.467  24.185  1.00  0.00    -0.203 F 
ATOM     12  C   UNL A   1      33.172  23.141  22.559  1.00  0.00     0.043 A 
ATOM     13  C   UNL A   1      32.502  25.363  23.166  1.00  0.00     0.020 A 
ATOM     14  C   UNL A   1      32.908  24.454  22.191  1.00  0.00     0.004 A 
BRANCH   9  15
ATOM     15  O   UNL A   1      32.622  23.269  26.201  1.00  0.00    -0.490 OA
BRANCH  15  16
ATOM     16  C   UNL A   1      33.888  23.195  26.879  1.00  0.00     0.226 C 
ATOM     17  C   UNL A   1      34.141  21.812  27.463  1.00  0.00     0.049 C 
ENDBRANCH  15  16
ENDBRANCH   9  15
ENDBRANCH   6   8
ENDBRANCH   5   6
ENDBRANCH   4   5
ENDBRANCH   3   4
ENDBRANCH   2   3
ENDBRANCH   1   2
BRANCH   1  18
ATOM     18  C   UNL A   1      31.681  32.435  27.058  1.00  0.00     0.261 C 
BRANCH  18  19
ATOM     19  O   UNL A   1      32.956  33.075  26.878  1.00  0.00    -0.460 OA
BRANCH  19  20
ATOM     20  C   UNL A   1      33.495  33.593  28.007  1.00  0.00     0.338 C 
ATOM     21  O   UNL A   1      32.991  34.431  28.746  1.00  0.00    -0.246 OA
BRANCH  20  22
ATOM     22  C   UNL A   1      34.735  32.878  28.354  1.00  0.00     0.060 A 
ATOM     23  C   UNL A   1      34.616  31.556  28.806  1.00  0.00     0.016 A 
ATOM     24  C   UNL A   1      35.985  33.500  28.302  1.00  0.00     0.016 A 
ATOM     25  C   UNL A   1      35.740  30.868  29.257  1.00  0.00     0.010 A 
ATOM     26  C   UNL A   1      37.111  32.809  28.764  1.00  0.00     0.010 A 
ATOM     27  C   UNL A   1      36.988  31.505  29.275  1.00  0.00    -0.014 A 
BRANCH  27  28
ATOM     28  C   UNL A   1      38.136  30.850  29.948  1.00  0.00     0.031 A 
ATOM     29  C   UNL A   1      38.494  31.260  31.351  1.00  0.00     0.074 A 
ATOM     30  C   UNL A   1      38.847  29.898  29.319  1.00  0.00     0.049 A 
ATOM     31  N   UNL A   1      39.468  30.834  32.111  1.00  0.00    -0.248 NA
ATOM     32  C   UNL A   1      37.642  32.284  31.980  1.00  0.00     0.031 C 
ATOM     33  C   UNL A   1      38.590  29.413  27.965  1.00  0.00     0.029 A 
ATOM     34  N   UNL A   1      39.943  29.184  29.733  1.00  0.00    -0.354 N 
ATOM     35  C   UNL A   1      39.364  31.552  33.297  1.00  0.00     0.074 A 
ATOM     36  C   UNL A   1      38.239  32.450  33.152  1.00  0.00     0.031 C 
ATOM     37  C   UNL A   1      39.518  28.494  27.650  1.00  0.00     0.029 A 
ATOM     38  C   UNL A   1      40.447  28.344  28.770  1.00  0.00     0.049 A 
ATOM     39  H   UNL A   1      40.332  29.266  30.634  1.00  0.00     0.167 HD
ATOM     40  C   UNL A   1      40.124  31.457  34.411  1.00  0.00     0.034 A 
ATOM     41  C   UNL A   1      41.541  27.556  28.781  1.00  0.00     0.034 A 
ATOM     42  C   UNL A   1      41.224  30.543  34.563  1.00  0.00     0.049 A 
ATOM     43  C   UNL A   1      42.387  27.484  30.026  1.00  0.00     0.074 A 
ATOM     44  C   UNL A   1      42.023  30.342  35.675  1.00  0.00     0.029 A 
ATOM     45  N   UNL A   1      41.684  29.686  33.577  1.00  0.00    -0.354 N 
ATOM     46  N   UNL A   1      42.212  28.090  31.176  1.00  0.00    -0.248 NA
ATOM     47  C   UNL A   1      43.563  26.603  29.987  1.00  0.00     0.031 C 
ATOM     48  C   UNL A   1      42.984  29.379  35.352  1.00  0.00     0.029 A 
ATOM     49  C   UNL A   1      42.765  28.961  34.049  1.00  0.00     0.049 A 
ATOM     50  H   UNL A   1      41.300  29.603  32.675  1.00  0.00     0.167 HD
ATOM     51  C   UNL A   1      43.233  27.640  32.006  1.00  0.00     0.074 A 
ATOM     52  C   UNL A   1      44.015  26.698  31.232  1.00  0.00     0.031 C 
ATOM     53  C   UNL A   1      43.505  27.987  33.288  1.00  0.00     0.034 A 
BRANCH  40  54
ATOM     54  C   UNL A   1      39.775  32.337  35.582  1.00  0.00     0.023 A 
ATOM     55  C   UNL A   1      40.294  33.646  35.643  1.00  0.00     0.012 A 
ATOM     56  C   UNL A   1      38.867  31.904  36.567  1.00  0.00     0.148 A 
ATOM     57  C   UNL A   1      39.930  34.505  36.678  1.00  0.00     0.002 A 
ATOM     58  C   UNL A   1      38.474  32.781  37.572  1.00  0.00     0.091 A 
ATOM     59  F   UNL A   1      38.404  30.648  36.501  1.00  0.00    -0.205 F 
ATOM     60  C   UNL A   1      39.010  34.078  37.634  1.00  0.00     0.022 A 
BRANCH  58  61
ATOM     61  S   UNL A   1      37.238  32.353  38.802  1.00  0.00     0.127 S 
ATOM     62  O   UNL A   1      37.682  33.138  39.953  1.00  0.00    -0.237 OA
ATOM     63  O   UNL A   1      36.004  32.832  38.178  1.00  0.00    -0.237 OA
ATOM     64  O   UNL A   1      37.316  30.908  38.967  1.00  0.00    -0.744 OA
ENDBRANCH  58  61
ENDBRANCH  40  54
BRANCH  41  65
ATOM     65  C   UNL A   1      41.866  26.733  27.582  1.00  0.00     0.023 A 
ATOM     66  C   UNL A   1      42.541  27.324  26.498  1.00  0.00     0.012 A 
ATOM     67  C   UNL A   1      41.562  25.358  27.536  1.00  0.00     0.148 A 
ATOM     68  C   UNL A   1      42.898  26.564  25.383  1.00  0.00     0.002 A 
ATOM     69  C   UNL A   1      41.969  24.595  26.448  1.00  0.00     0.091 A 
ATOM     70  F   UNL A   1      40.902  24.819  28.572  1.00  0.00    -0.205 F 
ATOM     71  C   UNL A   1      42.624  25.199  25.365  1.00  0.00     0.022 A 
BRANCH  69  72
ATOM     72  S   UNL A   1      41.781  22.809  26.397  1.00  0.00     0.127 S 
ATOM     73  O   UNL A   1      42.455  22.473  25.146  1.00  0.00    -0.237 OA
ATOM     74  O   UNL A   1      42.491  22.399  27.610  1.00  0.00    -0.237 OA
ATOM     75  O   UNL A   1      40.347  22.562  26.426  1.00  0.00    -0.744 OA
ENDBRANCH  69  72
ENDBRANCH  41  65
BRANCH  53  76
ATOM     76  C   UNL A   1      44.685  27.340  33.967  1.00  0.00     0.023 A 
ATOM     77  C   UNL A   1      45.948  27.961  33.907  1.00  0.00     0.012 A 
ATOM     78  C   UNL A   1      44.514  26.194  34.772  1.00  0.00     0.148 A 
ATOM     79  C   UNL A   1      47.027  27.442  34.622  1.00  0.00     0.002 A 
ATOM     80  C   UNL A   1      45.582  25.711  35.520  1.00  0.00     0.091 A 
ATOM     81  F   UNL A   1      43.307  25.611  34.804  1.00  0.00    -0.205 F 
ATOM     82  C   UNL A   1      46.841  26.328  35.439  1.00  0.00     0.022 A 
BRANCH  80  83
ATOM     83  S   UNL A   1      45.410  24.348  36.677  1.00  0.00     0.127 S 
ATOM     84  O   UNL A   1      46.774  24.221  37.191  1.00  0.00    -0.237 OA
ATOM     85  O   UNL A   1      44.444  24.878  37.640  1.00  0.00    -0.237 OA
ATOM     86  O   UNL A   1      44.929  23.216  35.898  1.00  0.00    -0.744 OA
ENDBRANCH  80  83
ENDBRANCH  53  76
ENDBRANCH  27  28
ENDBRANCH  20  22
ENDBRANCH  19  20
ENDBRANCH  18  19
ENDBRANCH   1  18
TORSDOF 19
ENDMDL
