MODEL 1
REMARK VINA RESULT:     -10.1      0.000      0.000
REMARK SMILES CCCCc1nc(C[N@H+]2CC[NH2+][C@H](C(=O)OCCOCCOC(=O)c3ccc(-c4c5nc(c(-c6cccc(S(=O)(=O)[O-])c6F)c6ccc([nH]6)c(-c6cccc(S(=O)(=O)[O-])c6F)c6nc(c(-c7cccc(S(=O)(=O)[O-])c7F)c7ccc4[nH]7)C=C6)C=C5)cc3)C2)c(Cl)[nH]1
REMARK SMILES IDX 18 1 17 2 16 3 14 4 15 5 13 6 9 7 10 8 88 9 11 11 12 12 8 15
REMARK SMILES IDX 7 16 5 17 6 18 91 19 89 20 90 22 4 23 3 24 2 25 1 26 19 27
REMARK SMILES IDX 20 28 21 29 22 30 23 31 24 32 25 33 26 34 87 35 27 36 86 37
REMARK SMILES IDX 28 38 29 39 30 40 80 41 31 42 85 43 79 44 81 45 32 46 84 47
REMARK SMILES IDX 78 48 77 49 33 51 65 52 45 53 64 54 46 55 49 56 63 57 82 58
REMARK SMILES IDX 47 59 48 60 62 62 83 63 50 64 34 65 35 66 43 67 36 68 38 69
REMARK SMILES IDX 44 70 37 71 39 72 40 73 41 74 42 75 66 76 67 77 75 78 68 79
REMARK SMILES IDX 70 80 76 81 69 82 71 83 72 84 73 85 74 86 51 87 52 88 60 89
REMARK SMILES IDX 53 90 55 91 61 92 54 93 56 94 57 95 58 96 59 97
REMARK H PARENT 9 10 12 13 12 14 91 21 81 50 49 61
REMARK Flexibility Score: inf
ROOT
ATOM      1  C   UNL A   1      33.729  31.831  27.622  1.00  0.00     0.202 C 
ENDROOT
BRANCH   1   2
ATOM      2  C   UNL A   1      34.191  30.408  27.285  1.00  0.00     0.261 C 
BRANCH   2   3
ATOM      3  O   UNL A   1      33.587  29.994  26.047  1.00  0.00    -0.459 OA
BRANCH   3   4
ATOM      4  C   UNL A   1      33.221  28.685  25.887  1.00  0.00     0.371 C 
ATOM      5  O   UNL A   1      33.657  27.743  26.536  1.00  0.00    -0.245 OA
BRANCH   4   6
ATOM      6  C   UNL A   1      32.168  28.594  24.773  1.00  0.00     0.348 C 
ATOM      7  N   UNL A   1      31.733  28.230  22.285  1.00  0.00    -0.320 N 
ATOM      8  C   UNL A   1      30.722  29.299  22.388  1.00  0.00     0.324 C 
ATOM      9  C   UNL A   1      32.738  28.313  23.372  1.00  0.00     0.341 C 
ATOM     10  H   UNL A   1      32.250  28.407  21.424  1.00  0.00     0.348 HD
ATOM     11  C   UNL A   1      30.219  29.627  23.813  1.00  0.00     0.323 C 
ATOM     12  N   UNL A   1      31.305  29.808  24.791  1.00  0.00    -0.325 N 
ATOM     13  H   UNL A   1      30.911  29.936  25.723  1.00  0.00     0.347 HD
ATOM     14  H   UNL A   1      31.857  30.632  24.550  1.00  0.00     0.347 HD
BRANCH   7  15
ATOM     15  C   UNL A   1      31.181  26.878  22.029  1.00  0.00     0.323 C 
BRANCH  15  16
ATOM     16  C   UNL A   1      31.551  25.821  23.020  1.00  0.00     0.132 A 
ATOM     17  C   UNL A   1      32.858  24.411  23.983  1.00  0.00     0.107 A 
ATOM     18  N   UNL A   1      32.649  25.012  22.827  1.00  0.00    -0.231 NA
ATOM     19  N   UNL A   1      31.785  24.579  24.822  1.00  0.00    -0.333 N 
ATOM     20  C   UNL A   1      30.972  25.493  24.222  1.00  0.00     0.135 A 
ATOM     21  H   UNL A   1      31.633  24.130  25.684  1.00  0.00     0.169 HD
ATOM     22  Cl  UNL A   1      29.615  26.047  25.064  1.00  0.00    -0.062 Cl
BRANCH  17  23
ATOM     23  C   UNL A   1      34.108  23.713  24.380  1.00  0.00     0.075 C 
BRANCH  23  24
ATOM     24  C   UNL A   1      34.101  22.238  23.947  1.00  0.00     0.008 C 
BRANCH  24  25
ATOM     25  C   UNL A   1      32.794  21.446  23.859  1.00  0.00    -0.003 C 
ATOM     26  C   UNL A   1      32.131  21.326  22.505  1.00  0.00     0.004 C 
ENDBRANCH  24  25
ENDBRANCH  23  24
ENDBRANCH  17  23
ENDBRANCH  15  16
ENDBRANCH   7  15
ENDBRANCH   4   6
ENDBRANCH   3   4
ENDBRANCH   2   3
ENDBRANCH   1   2
BRANCH   1  27
ATOM     27  O   UNL A   1      34.812  32.760  27.499  1.00  0.00    -0.374 OA
BRANCH  27  28
ATOM     28  C   UNL A   1      34.574  34.030  28.105  1.00  0.00     0.202 C 
BRANCH  28  29
ATOM     29  C   UNL A   1      34.846  33.996  29.610  1.00  0.00     0.261 C 
BRANCH  29  30
ATOM     30  O   UNL A   1      34.714  32.668  30.134  1.00  0.00    -0.460 OA
BRANCH  30  31
ATOM     31  C   UNL A   1      35.194  32.355  31.356  1.00  0.00     0.338 C 
ATOM     32  O   UNL A   1      34.743  32.723  32.437  1.00  0.00    -0.246 OA
BRANCH  31  33
ATOM     33  C   UNL A   1      36.391  31.489  31.177  1.00  0.00     0.060 A 
ATOM     34  C   UNL A   1      36.287  30.102  31.066  1.00  0.00     0.016 A 
ATOM     35  C   UNL A   1      37.659  32.074  31.135  1.00  0.00     0.016 A 
ATOM     36  C   UNL A   1      37.452  29.334  30.930  1.00  0.00     0.010 A 
ATOM     37  C   UNL A   1      38.797  31.334  30.902  1.00  0.00     0.010 A 
ATOM     38  C   UNL A   1      38.711  29.956  30.859  1.00  0.00    -0.014 A 
BRANCH  38  39
ATOM     39  C   UNL A   1      39.942  29.188  30.693  1.00  0.00     0.031 A 
ATOM     40  C   UNL A   1      40.697  28.903  31.934  1.00  0.00     0.074 A 
ATOM     41  C   UNL A   1      40.345  28.606  29.540  1.00  0.00     0.049 A 
ATOM     42  N   UNL A   1      41.754  29.517  32.346  1.00  0.00    -0.248 NA
ATOM     43  C   UNL A   1      40.182  27.897  32.869  1.00  0.00     0.031 C 
ATOM     44  C   UNL A   1      39.605  28.471  28.281  1.00  0.00     0.029 A 
ATOM     45  N   UNL A   1      41.492  27.906  29.292  1.00  0.00    -0.354 N 
ATOM     46  C   UNL A   1      42.200  28.795  33.447  1.00  0.00     0.074 A 
ATOM     47  C   UNL A   1      41.094  27.960  33.843  1.00  0.00     0.031 C 
ATOM     48  C   UNL A   1      40.215  27.558  27.494  1.00  0.00     0.029 A 
ATOM     49  C   UNL A   1      41.473  27.177  28.109  1.00  0.00     0.049 A 
ATOM     50  H   UNL A   1      42.268  27.919  29.898  1.00  0.00     0.167 HD
ATOM     51  C   UNL A   1      43.525  28.754  33.762  1.00  0.00     0.034 A 
ATOM     52  C   UNL A   1      42.416  26.315  27.660  1.00  0.00     0.034 A 
ATOM     53  C   UNL A   1      44.277  29.737  33.010  1.00  0.00     0.049 A 
ATOM     54  C   UNL A   1      43.690  26.683  28.316  1.00  0.00     0.074 A 
ATOM     55  C   UNL A   1      44.167  31.096  32.778  1.00  0.00     0.029 A 
ATOM     56  N   UNL A   1      45.128  29.265  32.040  1.00  0.00    -0.354 N 
ATOM     57  N   UNL A   1      44.352  27.773  28.045  1.00  0.00    -0.248 NA
ATOM     58  C   UNL A   1      44.066  26.011  29.547  1.00  0.00     0.031 C 
ATOM     59  C   UNL A   1      44.548  31.266  31.413  1.00  0.00     0.029 A 
ATOM     60  C   UNL A   1      44.933  30.021  30.918  1.00  0.00     0.049 A 
ATOM     61  H   UNL A   1      45.762  28.518  32.135  1.00  0.00     0.167 HD
ATOM     62  C   UNL A   1      44.867  28.170  29.271  1.00  0.00     0.074 A 
ATOM     63  C   UNL A   1      44.787  26.981  30.114  1.00  0.00     0.031 C 
ATOM     64  C   UNL A   1      45.023  29.494  29.572  1.00  0.00     0.034 A 
BRANCH  51  65
ATOM     65  C   UNL A   1      44.242  27.602  34.439  1.00  0.00     0.023 A 
ATOM     66  C   UNL A   1      45.250  27.942  35.375  1.00  0.00     0.012 A 
ATOM     67  C   UNL A   1      44.198  26.257  34.013  1.00  0.00     0.148 A 
ATOM     68  C   UNL A   1      46.216  27.020  35.788  1.00  0.00     0.002 A 
ATOM     69  C   UNL A   1      45.107  25.321  34.498  1.00  0.00     0.091 A 
ATOM     70  F   UNL A   1      43.373  25.885  33.033  1.00  0.00    -0.205 F 
ATOM     71  C   UNL A   1      46.143  25.705  35.353  1.00  0.00     0.022 A 
BRANCH  69  72
ATOM     72  S   UNL A   1      45.013  23.590  34.023  1.00  0.00     0.127 S 
ATOM     73  O   UNL A   1      43.753  23.187  34.639  1.00  0.00    -0.237 OA
ATOM     74  O   UNL A   1      44.992  23.680  32.562  1.00  0.00    -0.237 OA
ATOM     75  O   UNL A   1      46.221  22.977  34.562  1.00  0.00    -0.744 OA
ENDBRANCH  69  72
ENDBRANCH  51  65
BRANCH  52  76
ATOM     76  C   UNL A   1      42.313  25.140  26.766  1.00  0.00     0.023 A 
ATOM     77  C   UNL A   1      43.264  24.957  25.742  1.00  0.00     0.012 A 
ATOM     78  C   UNL A   1      41.460  24.060  27.082  1.00  0.00     0.148 A 
ATOM     79  C   UNL A   1      43.395  23.727  25.086  1.00  0.00     0.002 A 
ATOM     80  C   UNL A   1      41.588  22.841  26.422  1.00  0.00     0.091 A 
ATOM     81  F   UNL A   1      40.589  24.197  28.092  1.00  0.00    -0.205 F 
ATOM     82  C   UNL A   1      42.563  22.666  25.433  1.00  0.00     0.022 A 
BRANCH  80  83
ATOM     83  S   UNL A   1      40.555  21.427  26.835  1.00  0.00     0.127 S 
ATOM     84  O   UNL A   1      41.128  20.372  25.998  1.00  0.00    -0.237 OA
ATOM     85  O   UNL A   1      40.804  21.277  28.266  1.00  0.00    -0.237 OA
ATOM     86  O   UNL A   1      39.197  21.810  26.464  1.00  0.00    -0.744 OA
ENDBRANCH  80  83
ENDBRANCH  52  76
BRANCH  64  87
ATOM     87  C   UNL A   1      44.990  30.508  28.457  1.00  0.00     0.023 A 
ATOM     88  C   UNL A   1      43.787  31.004  27.916  1.00  0.00     0.012 A 
ATOM     89  C   UNL A   1      46.204  31.102  28.063  1.00  0.00     0.148 A 
ATOM     90  C   UNL A   1      43.796  32.044  26.981  1.00  0.00     0.002 A 
ATOM     91  C   UNL A   1      46.205  32.174  27.178  1.00  0.00     0.091 A 
ATOM     92  F   UNL A   1      47.346  30.622  28.580  1.00  0.00    -0.205 F 
ATOM     93  C   UNL A   1      45.003  32.640  26.625  1.00  0.00     0.022 A 
BRANCH  91  94
ATOM     94  S   UNL A   1      47.716  33.066  26.800  1.00  0.00     0.127 S 
ATOM     95  O   UNL A   1      48.040  33.678  28.087  1.00  0.00    -0.237 OA
ATOM     96  O   UNL A   1      48.625  31.995  26.386  1.00  0.00    -0.237 OA
ATOM     97  O   UNL A   1      47.367  33.992  25.729  1.00  0.00    -0.744 OA
ENDBRANCH  91  94
ENDBRANCH  64  87
ENDBRANCH  38  39
ENDBRANCH  31  33
ENDBRANCH  30  31
ENDBRANCH  29  30
ENDBRANCH  28  29
ENDBRANCH  27  28
ENDBRANCH   1  27
TORSDOF 22
ENDMDL
MODEL 2
REMARK VINA RESULT:      -9.7      1.633      3.098
REMARK SMILES CCCCc1nc(C[N@H+]2CC[NH2+][C@H](C(=O)OCCOCCOC(=O)c3ccc(-c4c5nc(c(-c6cccc(S(=O)(=O)[O-])c6F)c6ccc([nH]6)c(-c6cccc(S(=O)(=O)[O-])c6F)c6nc(c(-c7cccc(S(=O)(=O)[O-])c7F)c7ccc4[nH]7)C=C6)C=C5)cc3)C2)c(Cl)[nH]1
REMARK SMILES IDX 18 1 17 2 16 3 14 4 15 5 13 6 9 7 10 8 88 9 11 11 12 12 8 15
REMARK SMILES IDX 7 16 5 17 6 18 91 19 89 20 90 22 4 23 3 24 2 25 1 26 19 27
REMARK SMILES IDX 20 28 21 29 22 30 23 31 24 32 25 33 26 34 87 35 27 36 86 37
REMARK SMILES IDX 28 38 29 39 30 40 80 41 31 42 85 43 79 44 81 45 32 46 84 47
REMARK SMILES IDX 78 48 77 49 33 51 65 52 45 53 64 54 46 55 49 56 63 57 82 58
REMARK SMILES IDX 47 59 48 60 62 62 83 63 50 64 34 65 35 66 43 67 36 68 38 69
REMARK SMILES IDX 44 70 37 71 39 72 40 73 41 74 42 75 66 76 67 77 75 78 68 79
REMARK SMILES IDX 70 80 76 81 69 82 71 83 72 84 73 85 74 86 51 87 52 88 60 89
REMARK SMILES IDX 53 90 55 91 61 92 54 93 56 94 57 95 58 96 59 97
REMARK H PARENT 9 10 12 13 12 14 91 21 81 50 49 61
REMARK Flexibility Score: inf
ROOT
ATOM      1  C   UNL A   1      33.730  30.769  27.519  1.00  0.00     0.202 C 
ENDROOT
BRANCH   1   2
ATOM      2  C   UNL A   1      34.615  29.551  27.223  1.00  0.00     0.261 C 
BRANCH   2   3
ATOM      3  O   UNL A   1      33.779  28.422  26.917  1.00  0.00    -0.459 OA
BRANCH   3   4
ATOM      4  C   UNL A   1      33.633  28.032  25.612  1.00  0.00     0.371 C 
ATOM      5  O   UNL A   1      34.121  28.600  24.645  1.00  0.00    -0.245 OA
BRANCH   4   6
ATOM      6  C   UNL A   1      32.769  26.764  25.565  1.00  0.00     0.348 C 
ATOM      7  N   UNL A   1      30.535  25.689  26.174  1.00  0.00    -0.320 N 
ATOM      8  C   UNL A   1      31.304  24.480  26.523  1.00  0.00     0.324 C 
ATOM      9  C   UNL A   1      31.378  26.909  26.207  1.00  0.00     0.341 C 
ATOM     10  H   UNL A   1      29.848  25.816  26.917  1.00  0.00     0.348 HD
ATOM     11  C   UNL A   1      32.733  24.388  25.936  1.00  0.00     0.323 C 
ATOM     12  N   UNL A   1      33.526  25.612  26.129  1.00  0.00    -0.325 N 
ATOM     13  H   UNL A   1      34.422  25.522  25.649  1.00  0.00     0.347 HD
ATOM     14  H   UNL A   1      33.700  25.763  27.123  1.00  0.00     0.347 HD
BRANCH   7  15
ATOM     15  C   UNL A   1      29.665  25.548  24.982  1.00  0.00     0.323 C 
BRANCH  15  16
ATOM     16  C   UNL A   1      30.038  26.379  23.797  1.00  0.00     0.132 A 
ATOM     17  C   UNL A   1      30.178  28.185  22.638  1.00  0.00     0.107 A 
ATOM     18  N   UNL A   1      29.441  27.599  23.562  1.00  0.00    -0.231 NA
ATOM     19  N   UNL A   1      31.049  27.292  22.068  1.00  0.00    -0.333 N 
ATOM     20  C   UNL A   1      30.978  26.159  22.820  1.00  0.00     0.135 A 
ATOM     21  H   UNL A   1      31.613  27.439  21.275  1.00  0.00     0.169 HD
ATOM     22  Cl  UNL A   1      32.044  24.891  22.480  1.00  0.00    -0.062 Cl
BRANCH  17  23
ATOM     23  C   UNL A   1      30.148  29.632  22.299  1.00  0.00     0.075 C 
BRANCH  23  24
ATOM     24  C   UNL A   1      28.830  30.293  22.734  1.00  0.00     0.008 C 
BRANCH  24  25
ATOM     25  C   UNL A   1      28.825  31.543  23.617  1.00  0.00    -0.003 C 
ATOM     26  C   UNL A   1      28.755  32.890  22.933  1.00  0.00     0.004 C 
ENDBRANCH  24  25
ENDBRANCH  23  24
ENDBRANCH  17  23
ENDBRANCH  15  16
ENDBRANCH   7  15
ENDBRANCH   4   6
ENDBRANCH   3   4
ENDBRANCH   2   3
ENDBRANCH   1   2
BRANCH   1  27
ATOM     27  O   UNL A   1      34.466  31.985  27.342  1.00  0.00    -0.374 OA
BRANCH  27  28
ATOM     28  C   UNL A   1      34.144  33.013  28.280  1.00  0.00     0.202 C 
BRANCH  28  29
ATOM     29  C   UNL A   1      35.141  33.049  29.440  1.00  0.00     0.261 C 
BRANCH  29  30
ATOM     30  O   UNL A   1      34.755  32.151  30.488  1.00  0.00    -0.460 OA
BRANCH  30  31
ATOM     31  C   UNL A   1      35.367  32.187  31.691  1.00  0.00     0.338 C 
ATOM     32  O   UNL A   1      34.976  32.775  32.695  1.00  0.00    -0.246 OA
BRANCH  31  33
ATOM     33  C   UNL A   1      36.625  31.397  31.595  1.00  0.00     0.060 A 
ATOM     34  C   UNL A   1      37.879  32.009  31.576  1.00  0.00     0.016 A 
ATOM     35  C   UNL A   1      36.554  30.005  31.504  1.00  0.00     0.016 A 
ATOM     36  C   UNL A   1      39.029  31.216  31.453  1.00  0.00     0.010 A 
ATOM     37  C   UNL A   1      37.684  29.216  31.482  1.00  0.00     0.010 A 
ATOM     38  C   UNL A   1      38.926  29.816  31.395  1.00  0.00    -0.014 A 
BRANCH  38  39
ATOM     39  C   UNL A   1      40.104  28.959  31.291  1.00  0.00     0.031 A 
ATOM     40  C   UNL A   1      40.896  28.798  32.532  1.00  0.00     0.074 A 
ATOM     41  C   UNL A   1      40.424  28.204  30.215  1.00  0.00     0.049 A 
ATOM     42  N   UNL A   1      42.003  29.397  32.818  1.00  0.00    -0.248 NA
ATOM     43  C   UNL A   1      40.368  27.960  33.614  1.00  0.00     0.031 C 
ATOM     44  C   UNL A   1      39.623  27.947  29.014  1.00  0.00     0.029 A 
ATOM     45  N   UNL A   1      41.519  27.410  30.024  1.00  0.00    -0.354 N 
ATOM     46  C   UNL A   1      42.456  28.804  33.990  1.00  0.00     0.074 A 
ATOM     47  C   UNL A   1      41.325  28.098  34.537  1.00  0.00     0.031 C 
ATOM     48  C   UNL A   1      40.146  26.901  28.338  1.00  0.00     0.029 A 
ATOM     49  C   UNL A   1      41.407  26.530  28.953  1.00  0.00     0.049 A 
ATOM     50  H   UNL A   1      42.320  27.457  30.594  1.00  0.00     0.167 HD
ATOM     51  C   UNL A   1      43.790  28.725  34.260  1.00  0.00     0.034 A 
ATOM     52  C   UNL A   1      42.280  25.560  28.593  1.00  0.00     0.034 A 
ATOM     53  C   UNL A   1      44.560  29.551  33.354  1.00  0.00     0.049 A 
ATOM     54  C   UNL A   1      43.601  25.936  29.146  1.00  0.00     0.074 A 
ATOM     55  C   UNL A   1      44.516  30.871  32.943  1.00  0.00     0.029 A 
ATOM     56  N   UNL A   1      45.341  28.902  32.427  1.00  0.00    -0.354 N 
ATOM     57  N   UNL A   1      44.309  26.937  28.705  1.00  0.00    -0.248 NA
ATOM     58  C   UNL A   1      43.992  25.413  30.443  1.00  0.00     0.031 C 
ATOM     59  C   UNL A   1      44.845  30.833  31.555  1.00  0.00     0.029 A 
ATOM     60  C   UNL A   1      45.138  29.511  31.220  1.00  0.00     0.049 A 
ATOM     61  H   UNL A   1      45.936  28.138  32.601  1.00  0.00     0.167 HD
ATOM     62  C   UNL A   1      44.898  27.463  29.845  1.00  0.00     0.074 A 
ATOM     63  C   UNL A   1      44.790  26.406  30.845  1.00  0.00     0.031 C 
ATOM     64  C   UNL A   1      45.141  28.804  29.957  1.00  0.00     0.034 A 
BRANCH  51  65
ATOM     65  C   UNL A   1      44.471  27.634  35.062  1.00  0.00     0.023 A 
ATOM     66  C   UNL A   1      45.495  28.042  35.952  1.00  0.00     0.012 A 
ATOM     67  C   UNL A   1      44.379  26.251  34.791  1.00  0.00     0.148 A 
ATOM     68  C   UNL A   1      46.432  27.140  36.465  1.00  0.00     0.002 A 
ATOM     69  C   UNL A   1      45.259  25.346  35.377  1.00  0.00     0.091 A 
ATOM     70  F   UNL A   1      43.537  25.799  33.861  1.00  0.00    -0.205 F 
ATOM     71  C   UNL A   1      46.312  25.788  36.181  1.00  0.00     0.022 A 
BRANCH  69  72
ATOM     72  S   UNL A   1      45.105  23.577  35.101  1.00  0.00     0.127 S 
ATOM     73  O   UNL A   1      43.723  23.473  34.641  1.00  0.00    -0.237 OA
ATOM     74  O   UNL A   1      46.122  23.343  34.075  1.00  0.00    -0.237 OA
ATOM     75  O   UNL A   1      45.404  22.959  36.386  1.00  0.00    -0.744 OA
ENDBRANCH  69  72
ENDBRANCH  51  65
BRANCH  52  76
ATOM     76  C   UNL A   1      42.073  24.285  27.872  1.00  0.00     0.023 A 
ATOM     77  C   UNL A   1      40.770  23.763  27.736  1.00  0.00     0.012 A 
ATOM     78  C   UNL A   1      43.101  23.720  27.085  1.00  0.00     0.148 A 
ATOM     79  C   UNL A   1      40.489  22.749  26.813  1.00  0.00     0.002 A 
ATOM     80  C   UNL A   1      42.818  22.706  26.174  1.00  0.00     0.091 A 
ATOM     81  F   UNL A   1      44.333  24.241  27.159  1.00  0.00    -0.205 F 
ATOM     82  C   UNL A   1      41.511  22.227  26.025  1.00  0.00     0.022 A 
BRANCH  80  83
ATOM     83  S   UNL A   1      44.090  22.001  25.116  1.00  0.00     0.127 S 
ATOM     84  O   UNL A   1      45.296  22.173  25.927  1.00  0.00    -0.237 OA
ATOM     85  O   UNL A   1      43.638  20.619  24.976  1.00  0.00    -0.237 OA
ATOM     86  O   UNL A   1      44.074  22.800  23.896  1.00  0.00    -0.744 OA
ENDBRANCH  80  83
ENDBRANCH  52  76
BRANCH  64  87
ATOM     87  C   UNL A   1      45.114  29.659  28.716  1.00  0.00     0.023 A 
ATOM     88  C   UNL A   1      43.928  29.932  28.005  1.00  0.00     0.012 A 
ATOM     89  C   UNL A   1      46.290  30.345  28.356  1.00  0.00     0.148 A 
ATOM     90  C   UNL A   1      43.922  30.839  26.942  1.00  0.00     0.002 A 
ATOM     91  C   UNL A   1      46.267  31.289  27.338  1.00  0.00     0.091 A 
ATOM     92  F   UNL A   1      47.417  30.077  29.035  1.00  0.00    -0.205 F 
ATOM     93  C   UNL A   1      45.087  31.531  26.619  1.00  0.00     0.022 A 
BRANCH  91  94
ATOM     94  S   UNL A   1      47.702  32.307  26.980  1.00  0.00     0.127 S 
ATOM     95  O   UNL A   1      48.667  31.320  26.502  1.00  0.00    -0.237 OA
ATOM     96  O   UNL A   1      47.198  33.218  25.950  1.00  0.00    -0.237 OA
ATOM     97  O   UNL A   1      48.038  32.966  28.236  1.00  0.00    -0.744 OA
ENDBRANCH  91  94
ENDBRANCH  64  87
ENDBRANCH  38  39
ENDBRANCH  31  33
ENDBRANCH  30  31
ENDBRANCH  29  30
ENDBRANCH  28  29
ENDBRANCH  27  28
ENDBRANCH   1  27
TORSDOF 22
ENDMDL
MODEL 3
REMARK VINA RESULT:      -8.8      5.228     12.340
REMARK SMILES CCCCc1nc(C[N@H+]2CC[NH2+][C@H](C(=O)OCCOCCOC(=O)c3ccc(-c4c5nc(c(-c6cccc(S(=O)(=O)[O-])c6F)c6ccc([nH]6)c(-c6cccc(S(=O)(=O)[O-])c6F)c6nc(c(-c7cccc(S(=O)(=O)[O-])c7F)c7ccc4[nH]7)C=C6)C=C5)cc3)C2)c(Cl)[nH]1
REMARK SMILES IDX 18 1 17 2 16 3 14 4 15 5 13 6 9 7 10 8 88 9 11 11 12 12 8 15
REMARK SMILES IDX 7 16 5 17 6 18 91 19 89 20 90 22 4 23 3 24 2 25 1 26 19 27
REMARK SMILES IDX 20 28 21 29 22 30 23 31 24 32 25 33 26 34 87 35 27 36 86 37
REMARK SMILES IDX 28 38 29 39 30 40 80 41 31 42 85 43 79 44 81 45 32 46 84 47
REMARK SMILES IDX 78 48 77 49 33 51 65 52 45 53 64 54 46 55 49 56 63 57 82 58
REMARK SMILES IDX 47 59 48 60 62 62 83 63 50 64 34 65 35 66 43 67 36 68 38 69
REMARK SMILES IDX 44 70 37 71 39 72 40 73 41 74 42 75 66 76 67 77 75 78 68 79
REMARK SMILES IDX 70 80 76 81 69 82 71 83 72 84 73 85 74 86 51 87 52 88 60 89
REMARK SMILES IDX 53 90 55 91 61 92 54 93 56 94 57 95 58 96 59 97
REMARK H PARENT 9 10 12 13 12 14 91 21 81 50 49 61
REMARK Flexibility Score: inf
ROOT
ATOM      1  C   UNL A   1      43.975  25.680  25.392  1.00  0.00     0.202 C 
ENDROOT
BRANCH   1   2
ATOM      2  C   UNL A   1      45.273  26.459  25.143  1.00  0.00     0.261 C 
BRANCH   2   3
ATOM      3  O   UNL A   1      46.374  25.747  25.734  1.00  0.00    -0.459 OA
BRANCH   3   4
ATOM      4  C   UNL A   1      47.602  25.794  25.130  1.00  0.00     0.371 C 
ATOM      5  O   UNL A   1      47.803  25.698  23.927  1.00  0.00    -0.245 OA
BRANCH   4   6
ATOM      6  C   UNL A   1      48.679  25.999  26.204  1.00  0.00     0.348 C 
ATOM      7  N   UNL A   1      49.563  27.503  28.068  1.00  0.00    -0.320 N 
ATOM      8  C   UNL A   1      50.914  27.194  27.566  1.00  0.00     0.324 C 
ATOM      9  C   UNL A   1      48.525  27.289  27.030  1.00  0.00     0.341 C 
ATOM     10  H   UNL A   1      49.551  28.505  28.259  1.00  0.00     0.348 HD
ATOM     11  C   UNL A   1      51.038  25.941  26.668  1.00  0.00     0.323 C 
ATOM     12  N   UNL A   1      50.033  25.887  25.594  1.00  0.00    -0.325 N 
ATOM     13  H   UNL A   1      50.111  25.001  25.093  1.00  0.00     0.347 HD
ATOM     14  H   UNL A   1      50.184  26.652  24.936  1.00  0.00     0.347 HD
BRANCH   7  15
ATOM     15  C   UNL A   1      49.254  26.939  29.404  1.00  0.00     0.323 C 
BRANCH  15  16
ATOM     16  C   UNL A   1      49.265  27.908  30.542  1.00  0.00     0.132 A 
ATOM     17  C   UNL A   1      49.271  29.854  31.458  1.00  0.00     0.107 A 
ATOM     18  N   UNL A   1      49.642  29.221  30.361  1.00  0.00    -0.231 NA
ATOM     19  N   UNL A   1      48.931  28.964  32.445  1.00  0.00    -0.333 N 
ATOM     20  C   UNL A   1      48.902  27.736  31.856  1.00  0.00     0.135 A 
ATOM     21  H   UNL A   1      48.745  29.170  33.389  1.00  0.00     0.169 HD
ATOM     22  Cl  UNL A   1      48.368  26.414  32.764  1.00  0.00    -0.062 Cl
BRANCH  17  23
ATOM     23  C   UNL A   1      49.148  31.328  31.604  1.00  0.00     0.075 C 
BRANCH  23  24
ATOM     24  C   UNL A   1      49.541  31.796  33.015  1.00  0.00     0.008 C 
BRANCH  24  25
ATOM     25  C   UNL A   1      48.520  32.460  33.942  1.00  0.00    -0.003 C 
ATOM     26  C   UNL A   1      47.058  32.360  33.568  1.00  0.00     0.004 C 
ENDBRANCH  24  25
ENDBRANCH  23  24
ENDBRANCH  17  23
ENDBRANCH  15  16
ENDBRANCH   7  15
ENDBRANCH   4   6
ENDBRANCH   3   4
ENDBRANCH   2   3
ENDBRANCH   1   2
BRANCH   1  27
ATOM     27  O   UNL A   1      44.253  24.295  25.629  1.00  0.00    -0.374 OA
BRANCH  27  28
ATOM     28  C   UNL A   1      43.410  23.392  24.912  1.00  0.00     0.202 C 
BRANCH  28  29
ATOM     29  C   UNL A   1      43.031  22.179  25.765  1.00  0.00     0.261 C 
BRANCH  29  30
ATOM     30  O   UNL A   1      41.635  22.186  26.090  1.00  0.00    -0.460 OA
BRANCH  30  31
ATOM     31  C   UNL A   1      41.223  22.291  27.371  1.00  0.00     0.338 C 
ATOM     32  O   UNL A   1      40.807  21.381  28.083  1.00  0.00    -0.246 OA
BRANCH  31  33
ATOM     33  C   UNL A   1      41.339  23.717  27.780  1.00  0.00     0.060 A 
ATOM     34  C   UNL A   1      42.284  24.140  28.716  1.00  0.00     0.016 A 
ATOM     35  C   UNL A   1      40.468  24.661  27.229  1.00  0.00     0.016 A 
ATOM     36  C   UNL A   1      42.327  25.491  29.087  1.00  0.00     0.010 A 
ATOM     37  C   UNL A   1      40.571  26.004  27.516  1.00  0.00     0.010 A 
ATOM     38  C   UNL A   1      41.458  26.421  28.490  1.00  0.00    -0.014 A 
BRANCH  38  39
ATOM     39  C   UNL A   1      41.493  27.840  28.836  1.00  0.00     0.031 A 
ATOM     40  C   UNL A   1      42.475  28.661  28.093  1.00  0.00     0.074 A 
ATOM     41  C   UNL A   1      40.611  28.463  29.650  1.00  0.00     0.049 A 
ATOM     42  N   UNL A   1      43.621  29.065  28.527  1.00  0.00    -0.248 NA
ATOM     43  C   UNL A   1      42.211  28.997  26.689  1.00  0.00     0.031 C 
ATOM     44  C   UNL A   1      39.372  27.931  30.226  1.00  0.00     0.029 A 
ATOM     45  N   UNL A   1      40.593  29.769  30.051  1.00  0.00    -0.354 N 
ATOM     46  C   UNL A   1      44.102  29.938  27.558  1.00  0.00     0.074 A 
ATOM     47  C   UNL A   1      43.311  29.690  26.379  1.00  0.00     0.031 C 
ATOM     48  C   UNL A   1      38.622  28.948  30.705  1.00  0.00     0.029 A 
ATOM     49  C   UNL A   1      39.396  30.173  30.631  1.00  0.00     0.049 A 
ATOM     50  H   UNL A   1      41.363  30.372  29.941  1.00  0.00     0.167 HD
ATOM     51  C   UNL A   1      44.924  30.970  27.899  1.00  0.00     0.034 A 
ATOM     52  C   UNL A   1      39.055  31.424  31.022  1.00  0.00     0.034 A 
ATOM     53  C   UNL A   1      45.406  30.836  29.257  1.00  0.00     0.049 A 
ATOM     54  C   UNL A   1      40.314  32.166  31.258  1.00  0.00     0.074 A 
ATOM     55  C   UNL A   1      46.022  29.839  29.991  1.00  0.00     0.029 A 
ATOM     56  N   UNL A   1      44.923  31.730  30.183  1.00  0.00    -0.354 N 
ATOM     57  N   UNL A   1      41.120  31.920  32.252  1.00  0.00    -0.248 NA
ATOM     58  C   UNL A   1      40.872  32.961  30.179  1.00  0.00     0.031 C 
ATOM     59  C   UNL A   1      45.447  29.934  31.293  1.00  0.00     0.029 A 
ATOM     60  C   UNL A   1      44.572  31.020  31.297  1.00  0.00     0.049 A 
ATOM     61  H   UNL A   1      44.844  32.704  30.065  1.00  0.00     0.167 HD
ATOM     62  C   UNL A   1      42.385  32.109  31.716  1.00  0.00     0.074 A 
ATOM     63  C   UNL A   1      42.166  32.885  30.500  1.00  0.00     0.031 C 
ATOM     64  C   UNL A   1      43.448  31.363  32.142  1.00  0.00     0.034 A 
BRANCH  51  65
ATOM     65  C   UNL A   1      45.010  32.307  27.188  1.00  0.00     0.023 A 
ATOM     66  C   UNL A   1      43.918  32.658  26.357  1.00  0.00     0.012 A 
ATOM     67  C   UNL A   1      46.184  33.080  27.054  1.00  0.00     0.148 A 
ATOM     68  C   UNL A   1      44.020  33.656  25.383  1.00  0.00     0.002 A 
ATOM     69  C   UNL A   1      46.250  34.133  26.145  1.00  0.00     0.091 A 
ATOM     70  F   UNL A   1      47.300  32.731  27.696  1.00  0.00    -0.205 F 
ATOM     71  C   UNL A   1      45.187  34.398  25.279  1.00  0.00     0.022 A 
BRANCH  69  72
ATOM     72  S   UNL A   1      47.710  35.171  26.020  1.00  0.00     0.127 S 
ATOM     73  O   UNL A   1      47.129  36.443  25.601  1.00  0.00    -0.237 OA
ATOM     74  O   UNL A   1      48.220  35.142  27.392  1.00  0.00    -0.237 OA
ATOM     75  O   UNL A   1      48.573  34.507  25.052  1.00  0.00    -0.744 OA
ENDBRANCH  69  72
ENDBRANCH  51  65
BRANCH  52  76
ATOM     76  C   UNL A   1      37.733  32.078  31.143  1.00  0.00     0.023 A 
ATOM     77  C   UNL A   1      37.456  32.893  32.261  1.00  0.00     0.012 A 
ATOM     78  C   UNL A   1      36.846  32.132  30.046  1.00  0.00     0.148 A 
ATOM     79  C   UNL A   1      36.364  33.767  32.267  1.00  0.00     0.002 A 
ATOM     80  C   UNL A   1      35.756  32.998  30.059  1.00  0.00     0.091 A 
ATOM     81  F   UNL A   1      37.125  31.409  28.953  1.00  0.00    -0.205 F 
ATOM     82  C   UNL A   1      35.519  33.827  31.162  1.00  0.00     0.022 A 
BRANCH  80  83
ATOM     83  S   UNL A   1      34.637  33.134  28.658  1.00  0.00     0.127 S 
ATOM     84  O   UNL A   1      35.545  33.507  27.573  1.00  0.00    -0.237 OA
ATOM     85  O   UNL A   1      34.097  31.780  28.567  1.00  0.00    -0.237 OA
ATOM     86  O   UNL A   1      33.680  34.175  29.018  1.00  0.00    -0.744 OA
ENDBRANCH  80  83
ENDBRANCH  52  76
BRANCH  64  87
ATOM     87  C   UNL A   1      43.336  30.602  33.440  1.00  0.00     0.023 A 
ATOM     88  C   UNL A   1      43.642  31.179  34.689  1.00  0.00     0.012 A 
ATOM     89  C   UNL A   1      42.743  29.326  33.413  1.00  0.00     0.148 A 
ATOM     90  C   UNL A   1      43.393  30.488  35.878  1.00  0.00     0.002 A 
ATOM     91  C   UNL A   1      42.444  28.666  34.598  1.00  0.00     0.091 A 
ATOM     92  F   UNL A   1      42.458  28.781  32.219  1.00  0.00    -0.205 F 
ATOM     93  C   UNL A   1      42.778  29.239  35.834  1.00  0.00     0.022 A 
BRANCH  91  94
ATOM     94  S   UNL A   1      41.525  27.125  34.599  1.00  0.00     0.127 S 
ATOM     95  O   UNL A   1      40.400  27.438  33.720  1.00  0.00    -0.237 OA
ATOM     96  O   UNL A   1      42.491  26.176  34.040  1.00  0.00    -0.237 OA
ATOM     97  O   UNL A   1      41.187  26.870  35.994  1.00  0.00    -0.744 OA
ENDBRANCH  91  94
ENDBRANCH  64  87
ENDBRANCH  38  39
ENDBRANCH  31  33
ENDBRANCH  30  31
ENDBRANCH  29  30
ENDBRANCH  28  29
ENDBRANCH  27  28
ENDBRANCH   1  27
TORSDOF 22
ENDMDL
