MODEL 1
REMARK VINA RESULT:     -11.6      0.000      0.000
REMARK SMILES CC(C)(O)C#Cc1ccc(C(=O)N[C@@H](CC2=c3ccccc3=NC2)C(=O)OCCOCCOC(=O)c2ccc(-c3c4nc(c(-c5cccc(S(=O)(=O)[O-])c5F)c5ccc([nH]5)c(-c5cccc(S(=O)(=O)[O-])c5F)c5nc(c(-c6cccc(S(=O)(=O)[O-])c6F)c6ccc3[nH]6)C=C5)C=C4)cc2)s1
REMARK SMILES IDX 29 1 28 2 27 3 25 4 26 5 14 6 13 7 11 8 12 9 10 11 7 12 8 13
REMARK SMILES IDX 99 14 9 15 6 16 5 17 2 18 1 19 3 20 4 21 15 23 16 24 17 25
REMARK SMILES IDX 24 26 18 27 22 28 23 29 19 30 21 31 20 32 30 33 31 34 32 35
REMARK SMILES IDX 33 36 34 37 35 38 36 39 37 40 98 41 38 42 97 43 39 44 40 45
REMARK SMILES IDX 41 46 91 47 42 48 96 49 90 50 92 51 43 52 95 53 89 54 88 55
REMARK SMILES IDX 44 57 76 58 56 59 75 60 57 61 60 62 74 63 93 64 58 65 59 66
REMARK SMILES IDX 73 68 94 69 61 70 45 71 46 72 54 73 47 74 49 75 55 76 48 77
REMARK SMILES IDX 50 78 51 79 52 80 53 81 77 82 78 83 86 84 79 85 81 86 87 87
REMARK SMILES IDX 80 88 82 89 83 90 84 91 85 92 62 93 63 94 71 95 64 96 66 97
REMARK SMILES IDX 72 98 65 99 67 100 68 101 69 102 70 103
REMARK H PARENT 13 10 4 22 92 56 60 67
REMARK Flexibility Score: inf
ROOT
ATOM      1  C   UNL A   1      37.027  22.359  24.229  1.00  0.00     0.202 C 
ENDROOT
BRANCH   1   2
ATOM      2  C   UNL A   1      35.603  22.790  24.590  1.00  0.00     0.261 C 
BRANCH   2   3
ATOM      3  O   UNL A   1      35.531  24.198  24.837  1.00  0.00    -0.462 OA
BRANCH   3   4
ATOM      4  C   UNL A   1      34.375  24.594  25.422  1.00  0.00     0.329 C 
ATOM      5  O   UNL A   1      33.683  23.910  26.170  1.00  0.00    -0.250 OA
BRANCH   4   6
ATOM      6  C   UNL A   1      34.000  26.028  25.062  1.00  0.00     0.196 C 
BRANCH   6   7
ATOM      7  N   UNL A   1      33.904  26.386  23.627  1.00  0.00    -0.338 N 
ATOM      8  C   UNL A   1      33.444  25.716  22.514  1.00  0.00     0.262 C 
ATOM      9  O   UNL A   1      33.649  26.251  21.422  1.00  0.00    -0.268 OA
ATOM     10  H   UNL A   1      34.237  27.290  23.427  1.00  0.00     0.164 HD
BRANCH   8  11
ATOM     11  C   UNL A   1      32.620  24.530  22.622  1.00  0.00     0.093 A 
ATOM     12  C   UNL A   1      32.179  22.325  23.408  1.00  0.00     0.078 A 
ATOM     13  C   UNL A   1      31.079  23.122  23.630  1.00  0.00     0.030 A 
ATOM     14  S   UNL A   1      33.066  22.965  22.100  1.00  0.00    -0.121 S 
ATOM     15  C   UNL A   1      31.325  24.440  23.119  1.00  0.00     0.027 A 
BRANCH  12  16
ATOM     16  C   UNL A   1      32.539  21.117  24.047  1.00  0.00    -0.053 C 
ATOM     17  C   UNL A   1      32.790  19.916  24.486  1.00  0.00    -0.063 C 
BRANCH  17  18
ATOM     18  C   UNL A   1      33.082  18.514  24.998  1.00  0.00     0.120 C 
ATOM     19  C   UNL A   1      34.547  18.165  24.742  1.00  0.00     0.056 C 
ATOM     20  C   UNL A   1      32.147  17.512  24.324  1.00  0.00     0.056 C 
BRANCH  18  21
ATOM     21  O   UNL A   1      32.834  18.501  26.398  1.00  0.00    -0.378 OA
ATOM     22  H   UNL A   1      33.620  18.822  26.868  1.00  0.00     0.212 HD
ENDBRANCH  18  21
ENDBRANCH  17  18
ENDBRANCH  12  16
ENDBRANCH   8  11
ENDBRANCH   6   7
BRANCH   6  23
ATOM     23  C   UNL A   1      32.699  26.409  25.794  1.00  0.00     0.070 C 
BRANCH  23  24
ATOM     24  C   UNL A   1      32.323  27.843  25.563  1.00  0.00    -0.037 C 
ATOM     25  C   UNL A   1      31.434  28.324  24.697  1.00  0.00     0.001 A 
ATOM     26  C   UNL A   1      32.878  28.946  26.422  1.00  0.00     0.174 C 
ATOM     27  C   UNL A   1      30.581  27.759  23.702  1.00  0.00     0.010 A 
ATOM     28  C   UNL A   1      31.339  29.738  25.085  1.00  0.00     0.065 A 
ATOM     29  N   UNL A   1      32.118  30.156  26.031  1.00  0.00    -0.280 NA
ATOM     30  C   UNL A   1      29.647  28.537  23.134  1.00  0.00     0.001 A 
ATOM     31  C   UNL A   1      30.314  30.541  24.388  1.00  0.00     0.028 A 
ATOM     32  C   UNL A   1      29.521  29.942  23.484  1.00  0.00     0.002 A 
ENDBRANCH  23  24
ENDBRANCH   6  23
ENDBRANCH   4   6
ENDBRANCH   3   4
ENDBRANCH   2   3
ENDBRANCH   1   2
BRANCH   1  33
ATOM     33  O   UNL A   1      37.791  21.688  25.229  1.00  0.00    -0.374 OA
BRANCH  33  34
ATOM     34  C   UNL A   1      38.601  22.482  26.100  1.00  0.00     0.202 C 
BRANCH  34  35
ATOM     35  C   UNL A   1      40.040  22.015  26.395  1.00  0.00     0.261 C 
BRANCH  35  36
ATOM     36  O   UNL A   1      40.955  23.116  26.476  1.00  0.00    -0.460 OA
BRANCH  36  37
ATOM     37  C   UNL A   1      41.420  23.395  27.727  1.00  0.00     0.338 C 
ATOM     38  O   UNL A   1      41.840  22.606  28.555  1.00  0.00    -0.246 OA
BRANCH  37  39
ATOM     39  C   UNL A   1      41.687  24.847  27.724  1.00  0.00     0.060 A 
ATOM     40  C   UNL A   1      42.659  25.381  28.574  1.00  0.00     0.016 A 
ATOM     41  C   UNL A   1      40.703  25.659  27.135  1.00  0.00     0.016 A 
ATOM     42  C   UNL A   1      42.567  26.719  28.929  1.00  0.00     0.010 A 
ATOM     43  C   UNL A   1      40.591  26.986  27.527  1.00  0.00     0.010 A 
ATOM     44  C   UNL A   1      41.493  27.499  28.460  1.00  0.00    -0.014 A 
BRANCH  44  45
ATOM     45  C   UNL A   1      41.442  28.899  28.878  1.00  0.00     0.031 A 
ATOM     46  C   UNL A   1      42.610  29.690  28.408  1.00  0.00     0.074 A 
ATOM     47  C   UNL A   1      40.409  29.493  29.512  1.00  0.00     0.049 A 
ATOM     48  N   UNL A   1      43.519  30.286  29.109  1.00  0.00    -0.248 NA
ATOM     49  C   UNL A   1      42.852  29.705  26.957  1.00  0.00     0.031 C 
ATOM     50  C   UNL A   1      39.062  28.970  29.742  1.00  0.00     0.029 A 
ATOM     51  N   UNL A   1      40.323  30.771  29.990  1.00  0.00    -0.354 N 
ATOM     52  C   UNL A   1      44.355  30.902  28.180  1.00  0.00     0.074 A 
ATOM     53  C   UNL A   1      43.986  30.398  26.883  1.00  0.00     0.031 C 
ATOM     54  C   UNL A   1      38.242  29.981  30.112  1.00  0.00     0.029 A 
ATOM     55  C   UNL A   1      39.024  31.195  30.252  1.00  0.00     0.049 A 
ATOM     56  H   UNL A   1      41.112  31.341  30.136  1.00  0.00     0.167 HD
ATOM     57  C   UNL A   1      45.174  31.938  28.495  1.00  0.00     0.034 A 
ATOM     58  C   UNL A   1      38.623  32.473  30.468  1.00  0.00     0.034 A 
ATOM     59  C   UNL A   1      45.365  32.090  29.906  1.00  0.00     0.049 A 
ATOM     60  C   UNL A   1      39.822  33.241  30.867  1.00  0.00     0.074 A 
ATOM     61  C   UNL A   1      45.964  31.355  30.906  1.00  0.00     0.029 A 
ATOM     62  N   UNL A   1      44.567  33.012  30.532  1.00  0.00    -0.354 N 
ATOM     63  N   UNL A   1      40.484  33.049  31.972  1.00  0.00    -0.248 NA
ATOM     64  C   UNL A   1      40.505  34.028  29.853  1.00  0.00     0.031 C 
ATOM     65  C   UNL A   1      45.170  31.587  32.069  1.00  0.00     0.029 A 
ATOM     66  C   UNL A   1      44.144  32.468  31.716  1.00  0.00     0.049 A 
ATOM     67  H   UNL A   1      44.340  33.908  30.191  1.00  0.00     0.167 HD
ATOM     68  C   UNL A   1      41.803  33.320  31.638  1.00  0.00     0.074 A 
ATOM     69  C   UNL A   1      41.733  34.039  30.371  1.00  0.00     0.031 C 
ATOM     70  C   UNL A   1      42.831  32.692  32.279  1.00  0.00     0.034 A 
BRANCH  57  71
ATOM     71  C   UNL A   1      45.552  33.013  27.513  1.00  0.00     0.023 A 
ATOM     72  C   UNL A   1      44.553  33.548  26.677  1.00  0.00     0.012 A 
ATOM     73  C   UNL A   1      46.895  33.349  27.222  1.00  0.00     0.148 A 
ATOM     74  C   UNL A   1      44.878  34.393  25.609  1.00  0.00     0.002 A 
ATOM     75  C   UNL A   1      47.206  34.250  26.212  1.00  0.00     0.091 A 
ATOM     76  F   UNL A   1      47.888  32.704  27.849  1.00  0.00    -0.205 F 
ATOM     77  C   UNL A   1      46.201  34.760  25.388  1.00  0.00     0.022 A 
BRANCH  75  78
ATOM     78  S   UNL A   1      48.893  34.790  25.921  1.00  0.00     0.127 S 
ATOM     79  O   UNL A   1      49.492  33.588  25.349  1.00  0.00    -0.237 OA
ATOM     80  O   UNL A   1      48.698  35.894  24.980  1.00  0.00    -0.237 OA
ATOM     81  O   UNL A   1      49.393  35.204  27.226  1.00  0.00    -0.744 OA
ENDBRANCH  75  78
ENDBRANCH  57  71
BRANCH  58  82
ATOM     82  C   UNL A   1      37.378  33.172  30.050  1.00  0.00     0.023 A 
ATOM     83  C   UNL A   1      36.938  33.050  28.713  1.00  0.00     0.012 A 
ATOM     84  C   UNL A   1      36.460  33.671  31.001  1.00  0.00     0.148 A 
ATOM     85  C   UNL A   1      35.617  33.346  28.351  1.00  0.00     0.002 A 
ATOM     86  C   UNL A   1      35.152  33.976  30.633  1.00  0.00     0.091 A 
ATOM     87  F   UNL A   1      36.834  33.748  32.284  1.00  0.00    -0.205 F 
ATOM     88  C   UNL A   1      34.721  33.795  29.314  1.00  0.00     0.022 A 
BRANCH  86  89
ATOM     89  S   UNL A   1      33.939  34.553  31.829  1.00  0.00     0.127 S 
ATOM     90  O   UNL A   1      33.804  33.394  32.711  1.00  0.00    -0.237 OA
ATOM     91  O   UNL A   1      34.621  35.698  32.424  1.00  0.00    -0.237 OA
ATOM     92  O   UNL A   1      32.740  34.857  31.058  1.00  0.00    -0.744 OA
ENDBRANCH  86  89
ENDBRANCH  58  82
BRANCH  70  93
ATOM     93  C   UNL A   1      42.505  31.944  33.547  1.00  0.00     0.023 A 
ATOM     94  C   UNL A   1      42.305  32.606  34.778  1.00  0.00     0.012 A 
ATOM     95  C   UNL A   1      42.247  30.567  33.464  1.00  0.00     0.148 A 
ATOM     96  C   UNL A   1      41.869  31.903  35.905  1.00  0.00     0.002 A 
ATOM     97  C   UNL A   1      41.781  29.878  34.577  1.00  0.00     0.091 A 
ATOM     98  F   UNL A   1      42.434  29.961  32.282  1.00  0.00    -0.205 F 
ATOM     99  C   UNL A   1      41.596  30.541  35.801  1.00  0.00     0.022 A 
BRANCH  97 100
ATOM    100  S   UNL A   1      41.320  28.145  34.495  1.00  0.00     0.127 S 
ATOM    101  O   UNL A   1      40.093  28.191  33.701  1.00  0.00    -0.237 OA
ATOM    102  O   UNL A   1      42.467  27.547  33.812  1.00  0.00    -0.237 OA
ATOM    103  O   UNL A   1      41.149  27.705  35.874  1.00  0.00    -0.744 OA
ENDBRANCH  97 100
ENDBRANCH  70  93
ENDBRANCH  44  45
ENDBRANCH  37  39
ENDBRANCH  36  37
ENDBRANCH  35  36
ENDBRANCH  34  35
ENDBRANCH  33  34
ENDBRANCH   1  33
TORSDOF 24
ENDMDL
MODEL 2
REMARK VINA RESULT:     -11.3      3.506      7.586
REMARK SMILES CC(C)(O)C#Cc1ccc(C(=O)N[C@@H](CC2=c3ccccc3=NC2)C(=O)OCCOCCOC(=O)c2ccc(-c3c4nc(c(-c5cccc(S(=O)(=O)[O-])c5F)c5ccc([nH]5)c(-c5cccc(S(=O)(=O)[O-])c5F)c5nc(c(-c6cccc(S(=O)(=O)[O-])c6F)c6ccc3[nH]6)C=C5)C=C4)cc2)s1
REMARK SMILES IDX 29 1 28 2 27 3 25 4 26 5 14 6 13 7 11 8 12 9 10 11 7 12 8 13
REMARK SMILES IDX 99 14 9 15 6 16 5 17 2 18 1 19 3 20 4 21 15 23 16 24 17 25
REMARK SMILES IDX 24 26 18 27 22 28 23 29 19 30 21 31 20 32 30 33 31 34 32 35
REMARK SMILES IDX 33 36 34 37 35 38 36 39 37 40 98 41 38 42 97 43 39 44 40 45
REMARK SMILES IDX 41 46 91 47 42 48 96 49 90 50 92 51 43 52 95 53 89 54 88 55
REMARK SMILES IDX 44 57 76 58 56 59 75 60 57 61 60 62 74 63 93 64 58 65 59 66
REMARK SMILES IDX 73 68 94 69 61 70 45 71 46 72 54 73 47 74 49 75 55 76 48 77
REMARK SMILES IDX 50 78 51 79 52 80 53 81 77 82 78 83 86 84 79 85 81 86 87 87
REMARK SMILES IDX 80 88 82 89 83 90 84 91 85 92 62 93 63 94 71 95 64 96 66 97
REMARK SMILES IDX 72 98 65 99 67 100 68 101 69 102 70 103
REMARK H PARENT 13 10 4 22 92 56 60 67
REMARK Flexibility Score: inf
ROOT
ATOM      1  C   UNL A   1      36.164  21.984  26.136  1.00  0.00     0.202 C 
ENDROOT
BRANCH   1   2
ATOM      2  C   UNL A   1      34.780  22.466  26.580  1.00  0.00     0.261 C 
BRANCH   2   3
ATOM      3  O   UNL A   1      34.168  23.289  25.582  1.00  0.00    -0.462 OA
BRANCH   3   4
ATOM      4  C   UNL A   1      34.984  24.251  25.088  1.00  0.00     0.329 C 
ATOM      5  O   UNL A   1      36.155  24.094  24.759  1.00  0.00    -0.250 OA
BRANCH   4   6
ATOM      6  C   UNL A   1      34.285  25.601  24.962  1.00  0.00     0.196 C 
BRANCH   6   7
ATOM      7  N   UNL A   1      34.062  26.148  23.602  1.00  0.00    -0.338 N 
ATOM      8  C   UNL A   1      33.479  25.640  22.463  1.00  0.00     0.262 C 
ATOM      9  O   UNL A   1      33.594  26.312  21.435  1.00  0.00    -0.268 OA
ATOM     10  H   UNL A   1      34.402  27.066  23.491  1.00  0.00     0.164 HD
BRANCH   8  11
ATOM     11  C   UNL A   1      32.635  24.464  22.494  1.00  0.00     0.093 A 
ATOM     12  C   UNL A   1      32.163  22.216  23.124  1.00  0.00     0.078 A 
ATOM     13  C   UNL A   1      31.080  23.014  23.418  1.00  0.00     0.030 A 
ATOM     14  S   UNL A   1      33.045  22.934  21.855  1.00  0.00    -0.121 S 
ATOM     15  C   UNL A   1      31.344  24.361  23.001  1.00  0.00     0.027 A 
BRANCH  12  16
ATOM     16  C   UNL A   1      32.508  20.958  23.669  1.00  0.00    -0.053 C 
ATOM     17  C   UNL A   1      32.920  19.769  24.007  1.00  0.00    -0.063 C 
BRANCH  17  18
ATOM     18  C   UNL A   1      33.401  18.381  24.401  1.00  0.00     0.120 C 
ATOM     19  C   UNL A   1      33.401  17.468  23.178  1.00  0.00     0.056 C 
ATOM     20  C   UNL A   1      32.513  17.822  25.511  1.00  0.00     0.056 C 
BRANCH  18  21
ATOM     21  O   UNL A   1      34.728  18.504  24.896  1.00  0.00    -0.378 OA
ATOM     22  H   UNL A   1      35.013  17.656  25.270  1.00  0.00     0.212 HD
ENDBRANCH  18  21
ENDBRANCH  17  18
ENDBRANCH  12  16
ENDBRANCH   8  11
ENDBRANCH   6   7
BRANCH   6  23
ATOM     23  C   UNL A   1      32.957  25.557  25.742  1.00  0.00     0.070 C 
BRANCH  23  24
ATOM     24  C   UNL A   1      32.246  26.878  25.716  1.00  0.00    -0.037 C 
ATOM     25  C   UNL A   1      32.607  28.011  26.315  1.00  0.00     0.001 A 
ATOM     26  C   UNL A   1      31.026  27.094  24.864  1.00  0.00     0.174 C 
ATOM     27  C   UNL A   1      33.678  28.406  27.173  1.00  0.00     0.010 A 
ATOM     28  C   UNL A   1      31.668  28.988  25.749  1.00  0.00     0.065 A 
ATOM     29  N   UNL A   1      30.757  28.549  24.941  1.00  0.00    -0.280 NA
ATOM     30  C   UNL A   1      33.845  29.711  27.438  1.00  0.00     0.001 A 
ATOM     31  C   UNL A   1      31.892  30.401  26.118  1.00  0.00     0.028 A 
ATOM     32  C   UNL A   1      32.936  30.712  26.903  1.00  0.00     0.002 A 
ENDBRANCH  23  24
ENDBRANCH   6  23
ENDBRANCH   4   6
ENDBRANCH   3   4
ENDBRANCH   2   3
ENDBRANCH   1   2
BRANCH   1  33
ATOM     33  O   UNL A   1      36.238  20.755  25.416  1.00  0.00    -0.374 OA
BRANCH  33  34
ATOM     34  C   UNL A   1      37.439  20.473  24.692  1.00  0.00     0.202 C 
BRANCH  34  35
ATOM     35  C   UNL A   1      38.534  19.636  25.381  1.00  0.00     0.261 C 
BRANCH  35  36
ATOM     36  O   UNL A   1      39.816  20.278  25.324  1.00  0.00    -0.460 OA
BRANCH  36  37
ATOM     37  C   UNL A   1      40.824  19.621  25.964  1.00  0.00     0.338 C 
ATOM     38  O   UNL A   1      41.228  18.492  25.749  1.00  0.00    -0.246 OA
BRANCH  37  39
ATOM     39  C   UNL A   1      41.578  20.673  26.676  1.00  0.00     0.060 A 
ATOM     40  C   UNL A   1      41.482  20.784  28.065  1.00  0.00     0.016 A 
ATOM     41  C   UNL A   1      42.063  21.730  25.889  1.00  0.00     0.016 A 
ATOM     42  C   UNL A   1      41.761  22.009  28.654  1.00  0.00     0.010 A 
ATOM     43  C   UNL A   1      42.300  22.965  26.478  1.00  0.00     0.010 A 
ATOM     44  C   UNL A   1      42.101  23.113  27.852  1.00  0.00    -0.014 A 
BRANCH  44  45
ATOM     45  C   UNL A   1      42.372  24.381  28.527  1.00  0.00     0.031 A 
ATOM     46  C   UNL A   1      41.279  25.376  28.359  1.00  0.00     0.074 A 
ATOM     47  C   UNL A   1      43.422  24.633  29.337  1.00  0.00     0.049 A 
ATOM     48  N   UNL A   1      41.317  26.530  27.776  1.00  0.00    -0.248 NA
ATOM     49  C   UNL A   1      39.937  24.958  28.796  1.00  0.00     0.031 C 
ATOM     50  C   UNL A   1      44.394  23.686  29.885  1.00  0.00     0.029 A 
ATOM     51  N   UNL A   1      43.771  25.808  29.941  1.00  0.00    -0.354 N 
ATOM     52  C   UNL A   1      40.038  27.062  27.929  1.00  0.00     0.074 A 
ATOM     53  C   UNL A   1      39.200  26.005  28.432  1.00  0.00     0.031 C 
ATOM     54  C   UNL A   1      45.077  24.273  30.895  1.00  0.00     0.029 A 
ATOM     55  C   UNL A   1      44.672  25.663  30.992  1.00  0.00     0.049 A 
ATOM     56  H   UNL A   1      43.416  26.681  29.657  1.00  0.00     0.167 HD
ATOM     57  C   UNL A   1      39.772  28.389  27.824  1.00  0.00     0.034 A 
ATOM     58  C   UNL A   1      44.975  26.600  31.926  1.00  0.00     0.034 A 
ATOM     59  C   UNL A   1      40.830  29.124  27.197  1.00  0.00     0.049 A 
ATOM     60  C   UNL A   1      44.590  27.912  31.363  1.00  0.00     0.074 A 
ATOM     61  C   UNL A   1      41.388  29.169  25.937  1.00  0.00     0.029 A 
ATOM     62  N   UNL A   1      41.720  29.744  28.034  1.00  0.00    -0.354 N 
ATOM     63  N   UNL A   1      45.160  28.466  30.331  1.00  0.00    -0.248 NA
ATOM     64  C   UNL A   1      43.313  28.481  31.758  1.00  0.00     0.031 C 
ATOM     65  C   UNL A   1      42.774  29.431  26.151  1.00  0.00     0.029 A 
ATOM     66  C   UNL A   1      42.978  29.551  27.527  1.00  0.00     0.049 A 
ATOM     67  H   UNL A   1      41.494  30.241  28.854  1.00  0.00     0.167 HD
ATOM     68  C   UNL A   1      44.137  29.156  29.699  1.00  0.00     0.074 A 
ATOM     69  C   UNL A   1      43.067  29.237  30.687  1.00  0.00     0.031 C 
ATOM     70  C   UNL A   1      44.152  29.349  28.348  1.00  0.00     0.034 A 
BRANCH  57  71
ATOM     71  C   UNL A   1      38.667  29.067  28.586  1.00  0.00     0.023 A 
ATOM     72  C   UNL A   1      37.747  29.866  27.879  1.00  0.00     0.012 A 
ATOM     73  C   UNL A   1      38.637  29.134  29.999  1.00  0.00     0.148 A 
ATOM     74  C   UNL A   1      36.830  30.682  28.550  1.00  0.00     0.002 A 
ATOM     75  C   UNL A   1      37.675  29.885  30.661  1.00  0.00     0.091 A 
ATOM     76  F   UNL A   1      39.620  28.564  30.708  1.00  0.00    -0.205 F 
ATOM     77  C   UNL A   1      36.780  30.678  29.941  1.00  0.00     0.022 A 
BRANCH  75  78
ATOM     78  S   UNL A   1      37.541  29.872  32.451  1.00  0.00     0.127 S 
ATOM     79  O   UNL A   1      38.792  30.514  32.844  1.00  0.00    -0.237 OA
ATOM     80  O   UNL A   1      36.336  30.674  32.669  1.00  0.00    -0.237 OA
ATOM     81  O   UNL A   1      37.392  28.468  32.814  1.00  0.00    -0.744 OA
ENDBRANCH  75  78
ENDBRANCH  57  71
BRANCH  58  82
ATOM     82  C   UNL A   1      45.260  26.449  33.378  1.00  0.00     0.023 A 
ATOM     83  C   UNL A   1      46.461  26.978  33.900  1.00  0.00     0.012 A 
ATOM     84  C   UNL A   1      44.244  26.096  34.293  1.00  0.00     0.148 A 
ATOM     85  C   UNL A   1      46.618  27.212  35.273  1.00  0.00     0.002 A 
ATOM     86  C   UNL A   1      44.410  26.319  35.659  1.00  0.00     0.091 A 
ATOM     87  F   UNL A   1      43.076  25.642  33.823  1.00  0.00    -0.205 F 
ATOM     88  C   UNL A   1      45.587  26.895  36.150  1.00  0.00     0.022 A 
BRANCH  86  89
ATOM     89  S   UNL A   1      43.114  25.942  36.847  1.00  0.00     0.127 S 
ATOM     90  O   UNL A   1      42.437  27.232  36.981  1.00  0.00    -0.237 OA
ATOM     91  O   UNL A   1      42.346  24.919  36.143  1.00  0.00    -0.237 OA
ATOM     92  O   UNL A   1      43.802  25.502  38.054  1.00  0.00    -0.744 OA
ENDBRANCH  86  89
ENDBRANCH  58  82
BRANCH  70  93
ATOM     93  C   UNL A   1      45.443  29.067  27.621  1.00  0.00     0.023 A 
ATOM     94  C   UNL A   1      46.502  29.999  27.583  1.00  0.00     0.012 A 
ATOM     95  C   UNL A   1      45.647  27.780  27.096  1.00  0.00     0.148 A 
ATOM     96  C   UNL A   1      47.735  29.657  27.021  1.00  0.00     0.002 A 
ATOM     97  C   UNL A   1      46.884  27.433  26.569  1.00  0.00     0.091 A 
ATOM     98  F   UNL A   1      44.630  26.908  27.152  1.00  0.00    -0.205 F 
ATOM     99  C   UNL A   1      47.930  28.369  26.525  1.00  0.00     0.022 A 
BRANCH  97 100
ATOM    100  S   UNL A   1      47.238  25.768  25.998  1.00  0.00     0.127 S 
ATOM    101  O   UNL A   1      46.611  25.757  24.677  1.00  0.00    -0.237 OA
ATOM    102  O   UNL A   1      48.701  25.748  25.979  1.00  0.00    -0.237 OA
ATOM    103  O   UNL A   1      46.640  24.868  26.976  1.00  0.00    -0.744 OA
ENDBRANCH  97 100
ENDBRANCH  70  93
ENDBRANCH  44  45
ENDBRANCH  37  39
ENDBRANCH  36  37
ENDBRANCH  35  36
ENDBRANCH  34  35
ENDBRANCH  33  34
ENDBRANCH   1  33
TORSDOF 24
ENDMDL
MODEL 3
REMARK VINA RESULT:     -11.2      3.221      8.540
REMARK SMILES CC(C)(O)C#Cc1ccc(C(=O)N[C@@H](CC2=c3ccccc3=NC2)C(=O)OCCOCCOC(=O)c2ccc(-c3c4nc(c(-c5cccc(S(=O)(=O)[O-])c5F)c5ccc([nH]5)c(-c5cccc(S(=O)(=O)[O-])c5F)c5nc(c(-c6cccc(S(=O)(=O)[O-])c6F)c6ccc3[nH]6)C=C5)C=C4)cc2)s1
REMARK SMILES IDX 29 1 28 2 27 3 25 4 26 5 14 6 13 7 11 8 12 9 10 11 7 12 8 13
REMARK SMILES IDX 99 14 9 15 6 16 5 17 2 18 1 19 3 20 4 21 15 23 16 24 17 25
REMARK SMILES IDX 24 26 18 27 22 28 23 29 19 30 21 31 20 32 30 33 31 34 32 35
REMARK SMILES IDX 33 36 34 37 35 38 36 39 37 40 98 41 38 42 97 43 39 44 40 45
REMARK SMILES IDX 41 46 91 47 42 48 96 49 90 50 92 51 43 52 95 53 89 54 88 55
REMARK SMILES IDX 44 57 76 58 56 59 75 60 57 61 60 62 74 63 93 64 58 65 59 66
REMARK SMILES IDX 73 68 94 69 61 70 45 71 46 72 54 73 47 74 49 75 55 76 48 77
REMARK SMILES IDX 50 78 51 79 52 80 53 81 77 82 78 83 86 84 79 85 81 86 87 87
REMARK SMILES IDX 80 88 82 89 83 90 84 91 85 92 62 93 63 94 71 95 64 96 66 97
REMARK SMILES IDX 72 98 65 99 67 100 68 101 69 102 70 103
REMARK H PARENT 13 10 4 22 92 56 60 67
REMARK Flexibility Score: inf
ROOT
ATOM      1  C   UNL A   1      32.448  30.174  26.899  1.00  0.00     0.202 C 
ENDROOT
BRANCH   1   2
ATOM      2  C   UNL A   1      31.863  28.804  27.254  1.00  0.00     0.261 C 
BRANCH   2   3
ATOM      3  O   UNL A   1      32.773  27.747  26.930  1.00  0.00    -0.462 OA
BRANCH   3   4
ATOM      4  C   UNL A   1      32.206  26.726  26.244  1.00  0.00     0.329 C 
ATOM      5  O   UNL A   1      31.384  25.934  26.694  1.00  0.00    -0.250 OA
BRANCH   4   6
ATOM      6  C   UNL A   1      32.693  26.650  24.800  1.00  0.00     0.196 C 
BRANCH   6   7
ATOM      7  N   UNL A   1      33.958  25.928  24.526  1.00  0.00    -0.338 N 
ATOM      8  C   UNL A   1      34.464  24.717  24.942  1.00  0.00     0.262 C 
ATOM      9  O   UNL A   1      35.636  24.475  24.645  1.00  0.00    -0.268 OA
ATOM     10  H   UNL A   1      34.561  26.415  23.920  1.00  0.00     0.164 HD
BRANCH   8  11
ATOM     11  C   UNL A   1      33.626  23.707  25.555  1.00  0.00     0.093 A 
ATOM     12  C   UNL A   1      32.932  21.453  25.891  1.00  0.00     0.078 A 
ATOM     13  C   UNL A   1      33.097  22.072  27.110  1.00  0.00     0.030 A 
ATOM     14  S   UNL A   1      32.589  22.639  24.716  1.00  0.00    -0.121 S 
ATOM     15  C   UNL A   1      33.473  23.441  26.911  1.00  0.00     0.027 A 
BRANCH  12  16
ATOM     16  C   UNL A   1      32.940  20.072  25.592  1.00  0.00    -0.053 C 
ATOM     17  C   UNL A   1      32.953  18.852  25.133  1.00  0.00    -0.063 C 
BRANCH  17  18
ATOM     18  C   UNL A   1      32.969  17.430  24.597  1.00  0.00     0.120 C 
ATOM     19  C   UNL A   1      34.105  16.644  25.248  1.00  0.00     0.056 C 
ATOM     20  C   UNL A   1      33.110  17.452  23.076  1.00  0.00     0.056 C 
BRANCH  18  21
ATOM     21  O   UNL A   1      31.727  16.824  24.931  1.00  0.00    -0.378 OA
ATOM     22  H   UNL A   1      31.113  17.502  25.253  1.00  0.00     0.212 HD
ENDBRANCH  18  21
ENDBRANCH  17  18
ENDBRANCH  12  16
ENDBRANCH   8  11
ENDBRANCH   6   7
BRANCH   6  23
ATOM     23  C   UNL A   1      31.561  26.097  23.913  1.00  0.00     0.070 C 
BRANCH  23  24
ATOM     24  C   UNL A   1      30.779  27.192  23.251  1.00  0.00    -0.037 C 
ATOM     25  C   UNL A   1      29.462  27.383  23.274  1.00  0.00     0.001 A 
ATOM     26  C   UNL A   1      31.466  28.321  22.533  1.00  0.00     0.174 C 
ATOM     27  C   UNL A   1      28.348  26.691  23.838  1.00  0.00     0.010 A 
ATOM     28  C   UNL A   1      29.318  28.709  22.658  1.00  0.00     0.065 A 
ATOM     29  N   UNL A   1      30.389  29.287  22.216  1.00  0.00    -0.280 NA
ATOM     30  C   UNL A   1      27.146  27.287  23.831  1.00  0.00     0.001 A 
ATOM     31  C   UNL A   1      27.957  29.284  22.653  1.00  0.00     0.028 A 
ATOM     32  C   UNL A   1      26.957  28.596  23.228  1.00  0.00     0.002 A 
ENDBRANCH  23  24
ENDBRANCH   6  23
ENDBRANCH   4   6
ENDBRANCH   3   4
ENDBRANCH   2   3
ENDBRANCH   1   2
BRANCH   1  33
ATOM     33  O   UNL A   1      33.742  30.494  27.407  1.00  0.00    -0.374 OA
BRANCH  33  34
ATOM     34  C   UNL A   1      34.031  31.865  27.689  1.00  0.00     0.202 C 
BRANCH  34  35
ATOM     35  C   UNL A   1      35.482  32.257  28.028  1.00  0.00     0.261 C 
BRANCH  35  36
ATOM     36  O   UNL A   1      35.751  32.158  29.433  1.00  0.00    -0.460 OA
BRANCH  36  37
ATOM     37  C   UNL A   1      36.744  32.969  29.894  1.00  0.00     0.338 C 
ATOM     38  O   UNL A   1      36.656  34.142  30.215  1.00  0.00    -0.246 OA
BRANCH  37  39
ATOM     39  C   UNL A   1      37.830  32.056  30.304  1.00  0.00     0.060 A 
ATOM     40  C   UNL A   1      39.151  32.508  30.332  1.00  0.00     0.016 A 
ATOM     41  C   UNL A   1      37.525  30.684  30.292  1.00  0.00     0.016 A 
ATOM     42  C   UNL A   1      40.174  31.576  30.225  1.00  0.00     0.010 A 
ATOM     43  C   UNL A   1      38.550  29.760  30.144  1.00  0.00     0.010 A 
ATOM     44  C   UNL A   1      39.868  30.213  30.061  1.00  0.00    -0.014 A 
BRANCH  44  45
ATOM     45  C   UNL A   1      40.987  29.279  29.941  1.00  0.00     0.031 A 
ATOM     46  C   UNL A   1      41.551  28.875  31.256  1.00  0.00     0.074 A 
ATOM     47  C   UNL A   1      41.420  28.713  28.795  1.00  0.00     0.049 A 
ATOM     48  N   UNL A   1      42.738  29.080  31.726  1.00  0.00    -0.248 NA
ATOM     49  C   UNL A   1      40.613  28.268  32.214  1.00  0.00     0.031 C 
ATOM     50  C   UNL A   1      40.781  28.723  27.478  1.00  0.00     0.029 A 
ATOM     51  N   UNL A   1      42.496  27.892  28.603  1.00  0.00    -0.354 N 
ATOM     52  C   UNL A   1      42.749  28.470  32.979  1.00  0.00     0.074 A 
ATOM     53  C   UNL A   1      41.388  28.115  33.286  1.00  0.00     0.031 C 
ATOM     54  C   UNL A   1      41.353  27.782  26.691  1.00  0.00     0.029 A 
ATOM     55  C   UNL A   1      42.465  27.183  27.405  1.00  0.00     0.049 A 
ATOM     56  H   UNL A   1      43.228  27.809  29.255  1.00  0.00     0.167 HD
ATOM     57  C   UNL A   1      43.892  28.109  33.616  1.00  0.00     0.034 A 
ATOM     58  C   UNL A   1      43.240  26.117  27.081  1.00  0.00     0.034 A 
ATOM     59  C   UNL A   1      45.059  28.729  33.063  1.00  0.00     0.049 A 
ATOM     60  C   UNL A   1      44.420  26.154  27.971  1.00  0.00     0.074 A 
ATOM     61  C   UNL A   1      45.549  30.015  32.982  1.00  0.00     0.029 A 
ATOM     62  N   UNL A   1      45.768  27.988  32.154  1.00  0.00    -0.354 N 
ATOM     63  N   UNL A   1      45.334  27.082  27.943  1.00  0.00    -0.248 NA
ATOM     64  C   UNL A   1      44.417  25.310  29.155  1.00  0.00     0.031 C 
ATOM     65  C   UNL A   1      46.229  30.077  31.728  1.00  0.00     0.029 A 
ATOM     66  C   UNL A   1      46.133  28.819  31.128  1.00  0.00     0.049 A 
ATOM     67  H   UNL A   1      45.980  27.029  32.227  1.00  0.00     0.167 HD
ATOM     68  C   UNL A   1      45.737  27.213  29.263  1.00  0.00     0.074 A 
ATOM     69  C   UNL A   1      45.239  26.016  29.932  1.00  0.00     0.031 C 
ATOM     70  C   UNL A   1      46.192  28.406  29.742  1.00  0.00     0.034 A 
BRANCH  57  71
ATOM     71  C   UNL A   1      43.973  26.935  34.553  1.00  0.00     0.023 A 
ATOM     72  C   UNL A   1      44.147  27.179  35.930  1.00  0.00     0.012 A 
ATOM     73  C   UNL A   1      44.118  25.602  34.103  1.00  0.00     0.148 A 
ATOM     74  C   UNL A   1      44.437  26.137  36.819  1.00  0.00     0.002 A 
ATOM     75  C   UNL A   1      44.327  24.562  34.999  1.00  0.00     0.091 A 
ATOM     76  F   UNL A   1      44.172  25.351  32.788  1.00  0.00    -0.205 F 
ATOM     77  C   UNL A   1      44.507  24.826  36.358  1.00  0.00     0.022 A 
BRANCH  75  78
ATOM     78  S   UNL A   1      44.377  22.851  34.457  1.00  0.00     0.127 S 
ATOM     79  O   UNL A   1      43.081  22.713  33.798  1.00  0.00    -0.237 OA
ATOM     80  O   UNL A   1      45.532  22.853  33.558  1.00  0.00    -0.237 OA
ATOM     81  O   UNL A   1      44.572  22.069  35.672  1.00  0.00    -0.744 OA
ENDBRANCH  75  78
ENDBRANCH  57  71
BRANCH  58  82
ATOM     82  C   UNL A   1      42.908  24.890  26.309  1.00  0.00     0.023 A 
ATOM     83  C   UNL A   1      43.756  24.494  25.251  1.00  0.00     0.012 A 
ATOM     84  C   UNL A   1      41.979  23.943  26.797  1.00  0.00     0.148 A 
ATOM     85  C   UNL A   1      43.730  23.188  24.746  1.00  0.00     0.002 A 
ATOM     86  C   UNL A   1      41.948  22.649  26.281  1.00  0.00     0.091 A 
ATOM     87  F   UNL A   1      41.199  24.274  27.833  1.00  0.00    -0.205 F 
ATOM     88  C   UNL A   1      42.835  22.262  25.271  1.00  0.00     0.022 A 
BRANCH  86  89
ATOM     89  S   UNL A   1      40.824  21.400  26.920  1.00  0.00     0.127 S 
ATOM     90  O   UNL A   1      41.499  20.158  26.543  1.00  0.00    -0.237 OA
ATOM     91  O   UNL A   1      40.832  21.688  28.351  1.00  0.00    -0.237 OA
ATOM     92  O   UNL A   1      39.557  21.621  26.233  1.00  0.00    -0.744 OA
ENDBRANCH  86  89
ENDBRANCH  58  82
BRANCH  70  93
ATOM     93  C   UNL A   1      46.529  29.476  28.734  1.00  0.00     0.023 A 
ATOM     94  C   UNL A   1      47.815  29.590  28.163  1.00  0.00     0.012 A 
ATOM     95  C   UNL A   1      45.491  30.284  28.243  1.00  0.00     0.148 A 
ATOM     96  C   UNL A   1      48.061  30.501  27.132  1.00  0.00     0.002 A 
ATOM     97  C   UNL A   1      45.731  31.163  27.195  1.00  0.00     0.091 A 
ATOM     98  F   UNL A   1      44.275  30.152  28.794  1.00  0.00    -0.205 F 
ATOM     99  C   UNL A   1      47.016  31.279  26.640  1.00  0.00     0.022 A 
BRANCH  97 100
ATOM    100  S   UNL A   1      44.415  32.129  26.447  1.00  0.00     0.127 S 
ATOM    101  O   UNL A   1      45.087  32.720  25.291  1.00  0.00    -0.237 OA
ATOM    102  O   UNL A   1      43.423  31.105  26.119  1.00  0.00    -0.237 OA
ATOM    103  O   UNL A   1      43.980  33.079  27.464  1.00  0.00    -0.744 OA
ENDBRANCH  97 100
ENDBRANCH  70  93
ENDBRANCH  44  45
ENDBRANCH  37  39
ENDBRANCH  36  37
ENDBRANCH  35  36
ENDBRANCH  34  35
ENDBRANCH  33  34
ENDBRANCH   1  33
TORSDOF 24
ENDMDL
