MODEL 1
REMARK VINA RESULT:     -11.9      0.000      0.000
REMARK SMILES Cc1ccccc1NC(=O)CSc1nc(C(=O)OCCOCCOC(=O)c2ccc(-c3c4nc(c(-c5cccc(S(=O)(=O)[O-])c5F)c5ccc([nH]5)c(-c5cccc(S(=O)(=O)[O-])c5F)c5nc(c(-c6cccc(S(=O)(=O)[O-])c6F)c6ccc3[nH]6)C=C5)C=C4)cc2)c2ccccc2n1
REMARK SMILES IDX 20 1 19 2 18 3 16 4 17 5 15 6 13 7 14 8 96 9 95 10 90 11
REMARK SMILES IDX 94 12 91 13 93 14 92 15 12 16 11 17 9 18 8 19 10 21 7 22
REMARK SMILES IDX 1 23 2 24 3 25 4 26 6 27 5 28 21 29 22 30 23 31 24 32 25 33
REMARK SMILES IDX 26 34 27 35 28 36 89 37 29 38 88 39 30 40 31 41 32 42 82 43
REMARK SMILES IDX 33 44 87 45 81 46 83 47 34 48 86 49 80 50 79 51 35 53 67 54
REMARK SMILES IDX 47 55 66 56 48 57 51 58 65 59 84 60 49 61 50 62 64 64 85 65
REMARK SMILES IDX 52 66 36 67 37 68 45 69 38 70 40 71 46 72 39 73 41 74 42 75
REMARK SMILES IDX 43 76 44 77 68 78 69 79 77 80 70 81 72 82 78 83 71 84 73 85
REMARK SMILES IDX 74 86 75 87 76 88 53 89 54 90 62 91 55 92 57 93 63 94 56 95
REMARK SMILES IDX 58 96 59 97 60 98 61 99
REMARK H PARENT 8 20 83 52 51 63
REMARK Flexibility Score: inf
ROOT
ATOM      1  C   UNL A   1      32.170  28.427  27.578  1.00  0.00     0.202 C 
ENDROOT
BRANCH   1   2
ATOM      2  C   UNL A   1      31.488  27.203  27.053  1.00  0.00     0.261 C 
BRANCH   2   3
ATOM      3  O   UNL A   1      32.463  26.319  26.462  1.00  0.00    -0.458 OA
BRANCH   3   4
ATOM      4  C   UNL A   1      32.329  24.967  26.409  1.00  0.00     0.357 C 
ATOM      5  O   UNL A   1      31.656  24.244  27.104  1.00  0.00    -0.244 OA
BRANCH   4   6
ATOM      6  C   UNL A   1      32.996  24.471  25.171  1.00  0.00     0.160 A 
ATOM      7  C   UNL A   1      32.875  24.664  22.909  1.00  0.00     0.189 A 
ATOM      8  N   UNL A   1      32.277  24.793  24.075  1.00  0.00    -0.215 NA
ATOM      9  N   UNL A   1      34.124  24.213  22.741  1.00  0.00    -0.222 NA
ATOM     10  C   UNL A   1      34.814  23.865  23.835  1.00  0.00     0.076 A 
ATOM     11  C   UNL A   1      34.308  23.968  25.131  1.00  0.00     0.034 A 
ATOM     12  C   UNL A   1      36.128  23.435  23.676  1.00  0.00     0.029 A 
ATOM     13  C   UNL A   1      35.156  23.614  26.229  1.00  0.00     0.013 A 
ATOM     14  C   UNL A   1      36.965  23.145  24.760  1.00  0.00     0.002 A 
ATOM     15  C   UNL A   1      36.479  23.247  26.048  1.00  0.00     0.001 A 
BRANCH   7  16
ATOM     16  S   UNL A   1      32.083  25.456  21.548  1.00  0.00    -0.076 SA
BRANCH  16  17
ATOM     17  C   UNL A   1      32.827  27.120  21.679  1.00  0.00     0.178 C 
BRANCH  17  18
ATOM     18  C   UNL A   1      32.810  27.672  23.091  1.00  0.00     0.234 C 
ATOM     19  N   UNL A   1      31.678  27.987  23.787  1.00  0.00    -0.325 N 
ATOM     20  H   UNL A   1      31.867  28.377  24.671  1.00  0.00     0.169 HD
ATOM     21  O   UNL A   1      33.872  27.862  23.695  1.00  0.00    -0.274 OA
BRANCH  19  22
ATOM     22  C   UNL A   1      30.301  27.877  23.517  1.00  0.00     0.044 A 
ATOM     23  C   UNL A   1      30.374  30.002  22.044  1.00  0.00     0.046 C 
ATOM     24  C   UNL A   1      29.662  28.891  22.771  1.00  0.00    -0.027 A 
ATOM     25  C   UNL A   1      28.255  28.897  22.691  1.00  0.00     0.005 A 
ATOM     26  C   UNL A   1      27.491  27.906  23.301  1.00  0.00     0.000 A 
ATOM     27  C   UNL A   1      29.522  26.819  23.996  1.00  0.00     0.026 A 
ATOM     28  C   UNL A   1      28.129  26.849  23.928  1.00  0.00     0.002 A 
ENDBRANCH  19  22
ENDBRANCH  17  18
ENDBRANCH  16  17
ENDBRANCH   7  16
ENDBRANCH   4   6
ENDBRANCH   3   4
ENDBRANCH   2   3
ENDBRANCH   1   2
BRANCH   1  29
ATOM     29  O   UNL A   1      32.240  29.303  26.475  1.00  0.00    -0.374 OA
BRANCH  29  30
ATOM     30  C   UNL A   1      32.375  30.676  26.726  1.00  0.00     0.202 C 
BRANCH  30  31
ATOM     31  C   UNL A   1      33.632  30.944  27.545  1.00  0.00     0.261 C 
BRANCH  31  32
ATOM     32  O   UNL A   1      34.134  32.270  27.252  1.00  0.00    -0.460 OA
BRANCH  32  33
ATOM     33  C   UNL A   1      34.040  33.177  28.272  1.00  0.00     0.338 C 
ATOM     34  O   UNL A   1      33.151  34.010  28.356  1.00  0.00    -0.246 OA
BRANCH  33  35
ATOM     35  C   UNL A   1      35.277  33.155  29.117  1.00  0.00     0.060 A 
ATOM     36  C   UNL A   1      36.537  33.399  28.540  1.00  0.00     0.016 A 
ATOM     37  C   UNL A   1      35.210  32.567  30.376  1.00  0.00     0.016 A 
ATOM     38  C   UNL A   1      37.702  32.865  29.121  1.00  0.00     0.010 A 
ATOM     39  C   UNL A   1      36.341  31.946  30.872  1.00  0.00     0.010 A 
ATOM     40  C   UNL A   1      37.588  32.026  30.216  1.00  0.00    -0.014 A 
BRANCH  40  41
ATOM     41  C   UNL A   1      38.659  31.224  30.833  1.00  0.00     0.031 A 
ATOM     42  C   UNL A   1      38.868  29.896  30.216  1.00  0.00     0.074 A 
ATOM     43  C   UNL A   1      39.663  31.752  31.586  1.00  0.00     0.049 A 
ATOM     44  N   UNL A   1      39.866  29.129  30.464  1.00  0.00    -0.248 NA
ATOM     45  C   UNL A   1      37.925  29.305  29.265  1.00  0.00     0.031 C 
ATOM     46  C   UNL A   1      41.098  31.452  31.438  1.00  0.00     0.029 A 
ATOM     47  N   UNL A   1      39.667  32.721  32.586  1.00  0.00    -0.354 N 
ATOM     48  C   UNL A   1      39.906  28.186  29.468  1.00  0.00     0.074 A 
ATOM     49  C   UNL A   1      38.608  28.235  28.852  1.00  0.00     0.031 C 
ATOM     50  C   UNL A   1      41.807  32.079  32.389  1.00  0.00     0.029 A 
ATOM     51  C   UNL A   1      40.862  32.666  33.315  1.00  0.00     0.049 A 
ATOM     52  H   UNL A   1      38.934  33.356  32.757  1.00  0.00     0.167 HD
ATOM     53  C   UNL A   1      41.102  27.596  29.209  1.00  0.00     0.034 A 
ATOM     54  C   UNL A   1      40.846  32.522  34.669  1.00  0.00     0.034 A 
ATOM     55  C   UNL A   1      42.076  27.924  30.274  1.00  0.00     0.049 A 
ATOM     56  C   UNL A   1      41.397  31.169  35.040  1.00  0.00     0.074 A 
ATOM     57  C   UNL A   1      43.195  28.736  30.346  1.00  0.00     0.029 A 
ATOM     58  N   UNL A   1      41.747  27.607  31.595  1.00  0.00    -0.354 N 
ATOM     59  N   UNL A   1      41.695  30.272  34.142  1.00  0.00    -0.248 NA
ATOM     60  C   UNL A   1      41.729  30.714  36.384  1.00  0.00     0.031 C 
ATOM     61  C   UNL A   1      43.488  28.954  31.729  1.00  0.00     0.029 A 
ATOM     62  C   UNL A   1      42.580  28.243  32.502  1.00  0.00     0.049 A 
ATOM     63  H   UNL A   1      41.013  27.003  31.851  1.00  0.00     0.167 HD
ATOM     64  C   UNL A   1      42.166  29.137  34.711  1.00  0.00     0.074 A 
ATOM     65  C   UNL A   1      42.212  29.481  36.126  1.00  0.00     0.031 C 
ATOM     66  C   UNL A   1      42.422  28.026  33.950  1.00  0.00     0.034 A 
BRANCH  53  67
ATOM     67  C   UNL A   1      41.459  26.829  27.945  1.00  0.00     0.023 A 
ATOM     68  C   UNL A   1      41.621  27.593  26.768  1.00  0.00     0.012 A 
ATOM     69  C   UNL A   1      41.584  25.422  27.787  1.00  0.00     0.148 A 
ATOM     70  C   UNL A   1      41.903  27.012  25.524  1.00  0.00     0.002 A 
ATOM     71  C   UNL A   1      41.931  24.845  26.558  1.00  0.00     0.091 A 
ATOM     72  F   UNL A   1      41.289  24.599  28.794  1.00  0.00    -0.205 F 
ATOM     73  C   UNL A   1      42.079  25.640  25.422  1.00  0.00     0.022 A 
BRANCH  71  74
ATOM     74  S   UNL A   1      42.218  23.075  26.351  1.00  0.00     0.127 S 
ATOM     75  O   UNL A   1      42.944  22.733  27.575  1.00  0.00    -0.237 OA
ATOM     76  O   UNL A   1      40.856  22.542  26.288  1.00  0.00    -0.237 OA
ATOM     77  O   UNL A   1      42.982  22.918  25.120  1.00  0.00    -0.744 OA
ENDBRANCH  71  74
ENDBRANCH  53  67
BRANCH  54  78
ATOM     78  C   UNL A   1      39.745  33.328  35.290  1.00  0.00     0.023 A 
ATOM     79  C   UNL A   1      38.528  32.621  35.500  1.00  0.00     0.012 A 
ATOM     80  C   UNL A   1      40.053  34.402  36.148  1.00  0.00     0.148 A 
ATOM     81  C   UNL A   1      37.738  32.859  36.629  1.00  0.00     0.002 A 
ATOM     82  C   UNL A   1      39.283  34.602  37.296  1.00  0.00     0.091 A 
ATOM     83  F   UNL A   1      41.154  35.122  35.896  1.00  0.00    -0.205 F 
ATOM     84  C   UNL A   1      38.147  33.814  37.552  1.00  0.00     0.022 A 
BRANCH  82  85
ATOM     85  S   UNL A   1      39.805  35.700  38.624  1.00  0.00     0.127 S 
ATOM     86  O   UNL A   1      39.625  37.013  38.010  1.00  0.00    -0.237 OA
ATOM     87  O   UNL A   1      38.835  35.384  39.676  1.00  0.00    -0.237 OA
ATOM     88  O   UNL A   1      41.174  35.324  38.932  1.00  0.00    -0.744 OA
ENDBRANCH  82  85
ENDBRANCH  54  78
BRANCH  66  89
ATOM     89  C   UNL A   1      42.542  26.623  34.514  1.00  0.00     0.023 A 
ATOM     90  C   UNL A   1      41.528  26.044  35.301  1.00  0.00     0.012 A 
ATOM     91  C   UNL A   1      43.615  25.770  34.147  1.00  0.00     0.148 A 
ATOM     92  C   UNL A   1      41.602  24.731  35.768  1.00  0.00     0.002 A 
ATOM     93  C   UNL A   1      43.615  24.425  34.497  1.00  0.00     0.091 A 
ATOM     94  F   UNL A   1      44.665  26.254  33.471  1.00  0.00    -0.205 F 
ATOM     95  C   UNL A   1      42.633  23.911  35.345  1.00  0.00     0.022 A 
BRANCH  93  96
ATOM     96  S   UNL A   1      44.770  23.261  33.763  1.00  0.00     0.127 S 
ATOM     97  O   UNL A   1      46.047  23.745  34.280  1.00  0.00    -0.237 OA
ATOM     98  O   UNL A   1      44.322  21.989  34.335  1.00  0.00    -0.237 OA
ATOM     99  O   UNL A   1      44.578  23.371  32.324  1.00  0.00    -0.744 OA
ENDBRANCH  93  96
ENDBRANCH  66  89
ENDBRANCH  40  41
ENDBRANCH  33  35
ENDBRANCH  32  33
ENDBRANCH  31  32
ENDBRANCH  30  31
ENDBRANCH  29  30
ENDBRANCH   1  29
TORSDOF 21
ENDMDL
MODEL 2
REMARK VINA RESULT:     -11.2      1.309      3.880
REMARK SMILES Cc1ccccc1NC(=O)CSc1nc(C(=O)OCCOCCOC(=O)c2ccc(-c3c4nc(c(-c5cccc(S(=O)(=O)[O-])c5F)c5ccc([nH]5)c(-c5cccc(S(=O)(=O)[O-])c5F)c5nc(c(-c6cccc(S(=O)(=O)[O-])c6F)c6ccc3[nH]6)C=C5)C=C4)cc2)c2ccccc2n1
REMARK SMILES IDX 20 1 19 2 18 3 16 4 17 5 15 6 13 7 14 8 96 9 95 10 90 11
REMARK SMILES IDX 94 12 91 13 93 14 92 15 12 16 11 17 9 18 8 19 10 21 7 22
REMARK SMILES IDX 1 23 2 24 3 25 4 26 6 27 5 28 21 29 22 30 23 31 24 32 25 33
REMARK SMILES IDX 26 34 27 35 28 36 89 37 29 38 88 39 30 40 31 41 32 42 82 43
REMARK SMILES IDX 33 44 87 45 81 46 83 47 34 48 86 49 80 50 79 51 35 53 67 54
REMARK SMILES IDX 47 55 66 56 48 57 51 58 65 59 84 60 49 61 50 62 64 64 85 65
REMARK SMILES IDX 52 66 36 67 37 68 45 69 38 70 40 71 46 72 39 73 41 74 42 75
REMARK SMILES IDX 43 76 44 77 68 78 69 79 77 80 70 81 72 82 78 83 71 84 73 85
REMARK SMILES IDX 74 86 75 87 76 88 53 89 54 90 62 91 55 92 57 93 63 94 56 95
REMARK SMILES IDX 58 96 59 97 60 98 61 99
REMARK H PARENT 8 20 83 52 51 63
REMARK Flexibility Score: inf
ROOT
ATOM      1  C   UNL A   1      34.894  28.911  26.929  1.00  0.00     0.202 C 
ENDROOT
BRANCH   1   2
ATOM      2  C   UNL A   1      33.648  28.358  26.310  1.00  0.00     0.261 C 
BRANCH   2   3
ATOM      3  O   UNL A   1      33.116  29.304  25.359  1.00  0.00    -0.458 OA
BRANCH   3   4
ATOM      4  C   UNL A   1      31.858  29.815  25.420  1.00  0.00     0.357 C 
ATOM      5  O   UNL A   1      31.408  30.632  26.188  1.00  0.00    -0.244 OA
BRANCH   4   6
ATOM      6  C   UNL A   1      31.106  29.373  24.211  1.00  0.00     0.160 A 
ATOM      7  C   UNL A   1      30.737  27.518  22.950  1.00  0.00     0.189 A 
ATOM      8  N   UNL A   1      31.499  28.141  23.824  1.00  0.00    -0.215 NA
ATOM      9  N   UNL A   1      29.627  28.033  22.405  1.00  0.00    -0.222 NA
ATOM     10  C   UNL A   1      29.268  29.270  22.773  1.00  0.00     0.076 A 
ATOM     11  C   UNL A   1      29.975  30.034  23.702  1.00  0.00     0.034 A 
ATOM     12  C   UNL A   1      28.094  29.798  22.246  1.00  0.00     0.029 A 
ATOM     13  C   UNL A   1      29.468  31.325  24.056  1.00  0.00     0.013 A 
ATOM     14  C   UNL A   1      27.578  31.038  22.642  1.00  0.00     0.002 A 
ATOM     15  C   UNL A   1      28.264  31.803  23.564  1.00  0.00     0.001 A 
BRANCH   7  16
ATOM     16  S   UNL A   1      31.034  25.790  22.766  1.00  0.00    -0.076 SA
BRANCH  16  17
ATOM     17  C   UNL A   1      32.524  25.617  23.810  1.00  0.00     0.178 C 
BRANCH  17  18
ATOM     18  C   UNL A   1      33.676  24.937  23.096  1.00  0.00     0.234 C 
ATOM     19  N   UNL A   1      34.393  23.890  23.601  1.00  0.00    -0.325 N 
ATOM     20  H   UNL A   1      35.133  23.613  23.015  1.00  0.00     0.169 HD
ATOM     21  O   UNL A   1      34.024  25.324  21.973  1.00  0.00    -0.274 OA
BRANCH  19  22
ATOM     22  C   UNL A   1      34.304  23.121  24.776  1.00  0.00     0.044 A 
ATOM     23  C   UNL A   1      32.920  21.316  23.545  1.00  0.00     0.046 C 
ATOM     24  C   UNL A   1      33.519  21.949  24.775  1.00  0.00    -0.027 A 
ATOM     25  C   UNL A   1      33.249  21.304  25.999  1.00  0.00     0.005 A 
ATOM     26  C   UNL A   1      33.770  21.782  27.198  1.00  0.00     0.000 A 
ATOM     27  C   UNL A   1      34.930  23.495  25.969  1.00  0.00     0.026 A 
ATOM     28  C   UNL A   1      34.638  22.862  27.178  1.00  0.00     0.002 A 
ENDBRANCH  19  22
ENDBRANCH  17  18
ENDBRANCH  16  17
ENDBRANCH   7  16
ENDBRANCH   4   6
ENDBRANCH   3   4
ENDBRANCH   2   3
ENDBRANCH   1   2
BRANCH   1  29
ATOM     29  O   UNL A   1      34.439  29.876  27.851  1.00  0.00    -0.374 OA
BRANCH  29  30
ATOM     30  C   UNL A   1      35.020  31.152  27.817  1.00  0.00     0.202 C 
BRANCH  30  31
ATOM     31  C   UNL A   1      33.945  32.220  27.656  1.00  0.00     0.261 C 
BRANCH  31  32
ATOM     32  O   UNL A   1      33.839  32.995  28.875  1.00  0.00    -0.460 OA
BRANCH  32  33
ATOM     33  C   UNL A   1      34.509  34.187  28.879  1.00  0.00     0.338 C 
ATOM     34  O   UNL A   1      34.154  35.164  28.237  1.00  0.00    -0.246 OA
BRANCH  33  35
ATOM     35  C   UNL A   1      35.829  34.051  29.575  1.00  0.00     0.060 A 
ATOM     36  C   UNL A   1      37.025  34.021  28.835  1.00  0.00     0.016 A 
ATOM     37  C   UNL A   1      35.839  33.621  30.898  1.00  0.00     0.016 A 
ATOM     38  C   UNL A   1      38.162  33.368  29.343  1.00  0.00     0.010 A 
ATOM     39  C   UNL A   1      36.919  32.878  31.338  1.00  0.00     0.010 A 
ATOM     40  C   UNL A   1      38.067  32.681  30.541  1.00  0.00    -0.014 A 
BRANCH  40  41
ATOM     41  C   UNL A   1      39.076  31.784  31.131  1.00  0.00     0.031 A 
ATOM     42  C   UNL A   1      39.221  30.482  30.443  1.00  0.00     0.074 A 
ATOM     43  C   UNL A   1      40.094  32.208  31.930  1.00  0.00     0.049 A 
ATOM     44  N   UNL A   1      40.168  29.645  30.664  1.00  0.00    -0.248 NA
ATOM     45  C   UNL A   1      38.266  30.002  29.442  1.00  0.00     0.031 C 
ATOM     46  C   UNL A   1      41.511  31.834  31.790  1.00  0.00     0.029 A 
ATOM     47  N   UNL A   1      40.133  33.118  32.983  1.00  0.00    -0.354 N 
ATOM     48  C   UNL A   1      40.174  28.759  29.616  1.00  0.00     0.074 A 
ATOM     49  C   UNL A   1      38.895  28.918  28.981  1.00  0.00     0.031 C 
ATOM     50  C   UNL A   1      42.235  32.363  32.788  1.00  0.00     0.029 A 
ATOM     51  C   UNL A   1      41.307  32.952  33.729  1.00  0.00     0.049 A 
ATOM     52  H   UNL A   1      39.435  33.784  33.177  1.00  0.00     0.167 HD
ATOM     53  C   UNL A   1      41.339  28.114  29.345  1.00  0.00     0.034 A 
ATOM     54  C   UNL A   1      41.255  32.734  35.072  1.00  0.00     0.034 A 
ATOM     55  C   UNL A   1      42.308  28.324  30.444  1.00  0.00     0.049 A 
ATOM     56  C   UNL A   1      41.718  31.332  35.375  1.00  0.00     0.074 A 
ATOM     57  C   UNL A   1      43.470  29.064  30.582  1.00  0.00     0.029 A 
ATOM     58  N   UNL A   1      41.934  27.953  31.739  1.00  0.00    -0.354 N 
ATOM     59  N   UNL A   1      41.983  30.471  34.432  1.00  0.00    -0.248 NA
ATOM     60  C   UNL A   1      41.996  30.783  36.696  1.00  0.00     0.031 C 
ATOM     61  C   UNL A   1      43.747  29.187  31.980  1.00  0.00     0.029 A 
ATOM     62  C   UNL A   1      42.783  28.488  32.695  1.00  0.00     0.049 A 
ATOM     63  H   UNL A   1      41.160  27.381  31.947  1.00  0.00     0.167 HD
ATOM     64  C   UNL A   1      42.375  29.279  34.944  1.00  0.00     0.074 A 
ATOM     65  C   UNL A   1      42.411  29.541  36.377  1.00  0.00     0.031 C 
ATOM     66  C   UNL A   1      42.582  28.200  34.126  1.00  0.00     0.034 A 
BRANCH  53  67
ATOM     67  C   UNL A   1      41.677  27.400  28.046  1.00  0.00     0.023 A 
ATOM     68  C   UNL A   1      41.728  28.198  26.881  1.00  0.00     0.012 A 
ATOM     69  C   UNL A   1      41.884  26.008  27.847  1.00  0.00     0.148 A 
ATOM     70  C   UNL A   1      41.980  27.664  25.611  1.00  0.00     0.002 A 
ATOM     71  C   UNL A   1      42.202  25.481  26.588  1.00  0.00     0.091 A 
ATOM     72  F   UNL A   1      41.695  25.146  28.847  1.00  0.00    -0.205 F 
ATOM     73  C   UNL A   1      42.239  26.308  25.465  1.00  0.00     0.022 A 
BRANCH  71  74
ATOM     74  S   UNL A   1      42.590  23.739  26.322  1.00  0.00     0.127 S 
ATOM     75  O   UNL A   1      41.291  23.096  26.529  1.00  0.00    -0.237 OA
ATOM     76  O   UNL A   1      43.055  23.729  24.934  1.00  0.00    -0.237 OA
ATOM     77  O   UNL A   1      43.612  23.385  27.301  1.00  0.00    -0.744 OA
ENDBRANCH  71  74
ENDBRANCH  53  67
BRANCH  54  78
ATOM     78  C   UNL A   1      40.189  33.567  35.719  1.00  0.00     0.023 A 
ATOM     79  C   UNL A   1      38.972  32.882  35.988  1.00  0.00     0.012 A 
ATOM     80  C   UNL A   1      40.545  34.653  36.544  1.00  0.00     0.148 A 
ATOM     81  C   UNL A   1      38.228  33.153  37.141  1.00  0.00     0.002 A 
ATOM     82  C   UNL A   1      39.821  34.885  37.716  1.00  0.00     0.091 A 
ATOM     83  F   UNL A   1      41.645  35.351  36.237  1.00  0.00    -0.205 F 
ATOM     84  C   UNL A   1      38.685  34.118  38.029  1.00  0.00     0.022 A 
BRANCH  82  85
ATOM     85  S   UNL A   1      40.408  35.999  39.002  1.00  0.00     0.127 S 
ATOM     86  O   UNL A   1      41.857  35.855  38.879  1.00  0.00    -0.237 OA
ATOM     87  O   UNL A   1      39.886  37.290  38.546  1.00  0.00    -0.237 OA
ATOM     88  O   UNL A   1      39.824  35.515  40.242  1.00  0.00    -0.744 OA
ENDBRANCH  82  85
ENDBRANCH  54  78
BRANCH  66  89
ATOM     89  C   UNL A   1      42.609  26.763  34.610  1.00  0.00     0.023 A 
ATOM     90  C   UNL A   1      41.526  26.187  35.302  1.00  0.00     0.012 A 
ATOM     91  C   UNL A   1      43.665  25.884  34.255  1.00  0.00     0.148 A 
ATOM     92  C   UNL A   1      41.516  24.847  35.694  1.00  0.00     0.002 A 
ATOM     93  C   UNL A   1      43.587  24.523  34.523  1.00  0.00     0.091 A 
ATOM     94  F   UNL A   1      44.773  26.358  33.670  1.00  0.00    -0.205 F 
ATOM     95  C   UNL A   1      42.536  24.007  35.282  1.00  0.00     0.022 A 
BRANCH  93  96
ATOM     96  S   UNL A   1      44.734  23.351  33.788  1.00  0.00     0.127 S 
ATOM     97  O   UNL A   1      44.221  22.079  34.290  1.00  0.00    -0.237 OA
ATOM     98  O   UNL A   1      44.518  23.574  32.356  1.00  0.00    -0.237 OA
ATOM     99  O   UNL A   1      46.054  23.743  34.262  1.00  0.00    -0.744 OA
ENDBRANCH  93  96
ENDBRANCH  66  89
ENDBRANCH  40  41
ENDBRANCH  33  35
ENDBRANCH  32  33
ENDBRANCH  31  32
ENDBRANCH  30  31
ENDBRANCH  29  30
ENDBRANCH   1  29
TORSDOF 21
ENDMDL
MODEL 3
REMARK VINA RESULT:     -10.8      5.298      8.702
REMARK SMILES Cc1ccccc1NC(=O)CSc1nc(C(=O)OCCOCCOC(=O)c2ccc(-c3c4nc(c(-c5cccc(S(=O)(=O)[O-])c5F)c5ccc([nH]5)c(-c5cccc(S(=O)(=O)[O-])c5F)c5nc(c(-c6cccc(S(=O)(=O)[O-])c6F)c6ccc3[nH]6)C=C5)C=C4)cc2)c2ccccc2n1
REMARK SMILES IDX 20 1 19 2 18 3 16 4 17 5 15 6 13 7 14 8 96 9 95 10 90 11
REMARK SMILES IDX 94 12 91 13 93 14 92 15 12 16 11 17 9 18 8 19 10 21 7 22
REMARK SMILES IDX 1 23 2 24 3 25 4 26 6 27 5 28 21 29 22 30 23 31 24 32 25 33
REMARK SMILES IDX 26 34 27 35 28 36 89 37 29 38 88 39 30 40 31 41 32 42 82 43
REMARK SMILES IDX 33 44 87 45 81 46 83 47 34 48 86 49 80 50 79 51 35 53 67 54
REMARK SMILES IDX 47 55 66 56 48 57 51 58 65 59 84 60 49 61 50 62 64 64 85 65
REMARK SMILES IDX 52 66 36 67 37 68 45 69 38 70 40 71 46 72 39 73 41 74 42 75
REMARK SMILES IDX 43 76 44 77 68 78 69 79 77 80 70 81 72 82 78 83 71 84 73 85
REMARK SMILES IDX 74 86 75 87 76 88 53 89 54 90 62 91 55 92 57 93 63 94 56 95
REMARK SMILES IDX 58 96 59 97 60 98 61 99
REMARK H PARENT 8 20 83 52 51 63
REMARK Flexibility Score: inf
ROOT
ATOM      1  C   UNL A   1      36.366  24.031  25.764  1.00  0.00     0.202 C 
ENDROOT
BRANCH   1   2
ATOM      2  C   UNL A   1      35.069  24.034  25.018  1.00  0.00     0.261 C 
BRANCH   2   3
ATOM      3  O   UNL A   1      34.773  25.370  24.561  1.00  0.00    -0.458 OA
BRANCH   3   4
ATOM      4  C   UNL A   1      33.662  25.702  23.853  1.00  0.00     0.357 C 
ATOM      5  O   UNL A   1      33.438  25.546  22.676  1.00  0.00    -0.244 OA
BRANCH   4   6
ATOM      6  C   UNL A   1      32.597  26.122  24.808  1.00  0.00     0.160 A 
ATOM      7  C   UNL A   1      30.956  25.241  26.111  1.00  0.00     0.189 A 
ATOM      8  N   UNL A   1      31.766  25.094  25.084  1.00  0.00    -0.215 NA
ATOM      9  N   UNL A   1      30.883  26.341  26.871  1.00  0.00    -0.222 NA
ATOM     10  C   UNL A   1      31.689  27.366  26.564  1.00  0.00     0.076 A 
ATOM     11  C   UNL A   1      32.606  27.338  25.514  1.00  0.00     0.034 A 
ATOM     12  C   UNL A   1      31.652  28.498  27.373  1.00  0.00     0.029 A 
ATOM     13  C   UNL A   1      33.452  28.475  25.311  1.00  0.00     0.013 A 
ATOM     14  C   UNL A   1      32.523  29.581  27.198  1.00  0.00     0.002 A 
ATOM     15  C   UNL A   1      33.439  29.564  26.167  1.00  0.00     0.001 A 
BRANCH   7  16
ATOM     16  S   UNL A   1      30.184  23.769  26.696  1.00  0.00    -0.076 SA
BRANCH  16  17
ATOM     17  C   UNL A   1      31.176  22.520  25.804  1.00  0.00     0.178 C 
BRANCH  17  18
ATOM     18  C   UNL A   1      32.378  22.038  26.593  1.00  0.00     0.234 C 
ATOM     19  N   UNL A   1      33.050  20.874  26.348  1.00  0.00    -0.325 N 
ATOM     20  H   UNL A   1      33.773  20.706  26.994  1.00  0.00     0.169 HD
ATOM     21  O   UNL A   1      32.816  22.716  27.529  1.00  0.00    -0.274 OA
BRANCH  19  22
ATOM     22  C   UNL A   1      32.933  19.863  25.376  1.00  0.00     0.044 A 
ATOM     23  C   UNL A   1      33.190  21.599  23.475  1.00  0.00     0.046 C 
ATOM     24  C   UNL A   1      32.898  20.221  24.011  1.00  0.00    -0.027 A 
ATOM     25  C   UNL A   1      32.559  19.242  23.055  1.00  0.00     0.005 A 
ATOM     26  C   UNL A   1      32.295  17.927  23.429  1.00  0.00     0.000 A 
ATOM     27  C   UNL A   1      32.805  18.511  25.708  1.00  0.00     0.026 A 
ATOM     28  C   UNL A   1      32.449  17.555  24.755  1.00  0.00     0.002 A 
ENDBRANCH  19  22
ENDBRANCH  17  18
ENDBRANCH  16  17
ENDBRANCH   7  16
ENDBRANCH   4   6
ENDBRANCH   3   4
ENDBRANCH   2   3
ENDBRANCH   1   2
BRANCH   1  29
ATOM     29  O   UNL A   1      37.188  23.131  25.055  1.00  0.00    -0.374 OA
BRANCH  29  30
ATOM     30  C   UNL A   1      37.128  21.771  25.392  1.00  0.00     0.202 C 
BRANCH  30  31
ATOM     31  C   UNL A   1      38.532  21.193  25.518  1.00  0.00     0.261 C 
BRANCH  31  32
ATOM     32  O   UNL A   1      39.305  21.982  26.453  1.00  0.00    -0.460 OA
BRANCH  32  33
ATOM     33  C   UNL A   1      40.662  21.929  26.293  1.00  0.00     0.338 C 
ATOM     34  O   UNL A   1      41.237  21.034  25.691  1.00  0.00    -0.246 OA
BRANCH  33  35
ATOM     35  C   UNL A   1      41.338  22.966  27.137  1.00  0.00     0.060 A 
ATOM     36  C   UNL A   1      41.740  24.190  26.573  1.00  0.00     0.016 A 
ATOM     37  C   UNL A   1      41.859  22.582  28.369  1.00  0.00     0.016 A 
ATOM     38  C   UNL A   1      42.811  24.914  27.130  1.00  0.00     0.010 A 
ATOM     39  C   UNL A   1      42.984  23.235  28.837  1.00  0.00     0.010 A 
ATOM     40  C   UNL A   1      43.519  24.367  28.186  1.00  0.00    -0.014 A 
BRANCH  40  41
ATOM     41  C   UNL A   1      44.774  24.874  28.768  1.00  0.00     0.031 A 
ATOM     42  C   UNL A   1      45.962  24.721  27.899  1.00  0.00     0.074 A 
ATOM     43  C   UNL A   1      44.829  25.781  29.782  1.00  0.00     0.049 A 
ATOM     44  N   UNL A   1      47.101  25.267  28.123  1.00  0.00    -0.248 NA
ATOM     45  C   UNL A   1      45.961  23.895  26.690  1.00  0.00     0.031 C 
ATOM     46  C   UNL A   1      45.669  26.990  29.810  1.00  0.00     0.029 A 
ATOM     47  N   UNL A   1      44.108  25.896  30.968  1.00  0.00    -0.354 N 
ATOM     48  C   UNL A   1      47.816  25.201  26.953  1.00  0.00     0.074 A 
ATOM     49  C   UNL A   1      47.143  24.211  26.157  1.00  0.00     0.031 C 
ATOM     50  C   UNL A   1      45.542  27.621  30.988  1.00  0.00     0.029 A 
ATOM     51  C   UNL A   1      44.762  26.763  31.853  1.00  0.00     0.049 A 
ATOM     52  H   UNL A   1      43.260  25.434  31.158  1.00  0.00     0.167 HD
ATOM     53  C   UNL A   1      48.803  26.116  26.767  1.00  0.00     0.034 A 
ATOM     54  C   UNL A   1      45.085  26.359  33.113  1.00  0.00     0.034 A 
ATOM     55  C   UNL A   1      49.070  26.844  28.027  1.00  0.00     0.049 A 
ATOM     56  C   UNL A   1      46.584  26.257  33.241  1.00  0.00     0.074 A 
ATOM     57  C   UNL A   1      48.815  28.129  28.476  1.00  0.00     0.029 A 
ATOM     58  N   UNL A   1      49.415  26.103  29.162  1.00  0.00    -0.354 N 
ATOM     59  N   UNL A   1      47.379  26.414  32.220  1.00  0.00    -0.248 NA
ATOM     60  C   UNL A   1      47.330  26.051  34.475  1.00  0.00     0.031 C 
ATOM     61  C   UNL A   1      48.946  28.128  29.901  1.00  0.00     0.029 A 
ATOM     62  C   UNL A   1      49.324  26.859  30.320  1.00  0.00     0.049 A 
ATOM     63  H   UNL A   1      49.691  25.159  29.141  1.00  0.00     0.167 HD
ATOM     64  C   UNL A   1      48.678  26.272  32.576  1.00  0.00     0.074 A 
ATOM     65  C   UNL A   1      48.598  26.089  34.019  1.00  0.00     0.031 C 
ATOM     66  C   UNL A   1      49.668  26.277  31.628  1.00  0.00     0.034 A 
BRANCH  53  67
ATOM     67  C   UNL A   1      49.451  26.464  25.436  1.00  0.00     0.023 A 
ATOM     68  C   UNL A   1      50.857  26.343  25.367  1.00  0.00     0.012 A 
ATOM     69  C   UNL A   1      48.819  26.962  24.265  1.00  0.00     0.148 A 
ATOM     70  C   UNL A   1      51.587  26.676  24.219  1.00  0.00     0.002 A 
ATOM     71  C   UNL A   1      49.540  27.233  23.095  1.00  0.00     0.091 A 
ATOM     72  F   UNL A   1      47.521  27.271  24.275  1.00  0.00    -0.205 F 
ATOM     73  C   UNL A   1      50.928  27.101  23.075  1.00  0.00     0.022 A 
BRANCH  71  74
ATOM     74  S   UNL A   1      48.754  27.751  21.555  1.00  0.00     0.127 S 
ATOM     75  O   UNL A   1      48.354  26.472  20.965  1.00  0.00    -0.237 OA
ATOM     76  O   UNL A   1      47.638  28.570  22.031  1.00  0.00    -0.237 OA
ATOM     77  O   UNL A   1      49.760  28.486  20.799  1.00  0.00    -0.744 OA
ENDBRANCH  71  74
ENDBRANCH  53  67
BRANCH  54  78
ATOM     78  C   UNL A   1      43.998  25.519  33.713  1.00  0.00     0.023 A 
ATOM     79  C   UNL A   1      44.354  24.164  33.961  1.00  0.00     0.012 A 
ATOM     80  C   UNL A   1      43.012  26.113  34.525  1.00  0.00     0.148 A 
ATOM     81  C   UNL A   1      43.878  23.486  35.087  1.00  0.00     0.002 A 
ATOM     82  C   UNL A   1      42.577  25.444  35.672  1.00  0.00     0.091 A 
ATOM     83  F   UNL A   1      42.615  27.359  34.235  1.00  0.00    -0.205 F 
ATOM     84  C   UNL A   1      43.032  24.147  35.968  1.00  0.00     0.022 A 
BRANCH  82  85
ATOM     85  S   UNL A   1      41.609  26.260  36.951  1.00  0.00     0.127 S 
ATOM     86  O   UNL A   1      42.600  26.427  38.010  1.00  0.00    -0.237 OA
ATOM     87  O   UNL A   1      41.216  27.505  36.285  1.00  0.00    -0.237 OA
ATOM     88  O   UNL A   1      40.507  25.360  37.247  1.00  0.00    -0.744 OA
ENDBRANCH  82  85
ENDBRANCH  54  78
BRANCH  66  89
ATOM     89  C   UNL A   1      51.062  25.723  31.857  1.00  0.00     0.023 A 
ATOM     90  C   UNL A   1      52.213  26.525  31.738  1.00  0.00     0.012 A 
ATOM     91  C   UNL A   1      51.261  24.408  32.350  1.00  0.00     0.148 A 
ATOM     92  C   UNL A   1      53.494  26.039  32.010  1.00  0.00     0.002 A 
ATOM     93  C   UNL A   1      52.519  23.975  32.753  1.00  0.00     0.091 A 
ATOM     94  F   UNL A   1      50.237  23.547  32.418  1.00  0.00    -0.205 F 
ATOM     95  C   UNL A   1      53.645  24.771  32.542  1.00  0.00     0.022 A 
BRANCH  93  96
ATOM     96  S   UNL A   1      52.737  22.459  33.691  1.00  0.00     0.127 S 
ATOM     97  O   UNL A   1      54.164  22.500  33.996  1.00  0.00    -0.237 OA
ATOM     98  O   UNL A   1      51.859  22.686  34.843  1.00  0.00    -0.237 OA
ATOM     99  O   UNL A   1      52.300  21.384  32.810  1.00  0.00    -0.744 OA
ENDBRANCH  93  96
ENDBRANCH  66  89
ENDBRANCH  40  41
ENDBRANCH  33  35
ENDBRANCH  32  33
ENDBRANCH  31  32
ENDBRANCH  30  31
ENDBRANCH  29  30
ENDBRANCH   1  29
TORSDOF 21
ENDMDL
