MODEL 1
REMARK VINA RESULT:     -11.1      0.000      0.000
REMARK SMILES O=C(OCCOCCOC(=O)c1cccc(N2CCCCC2)n1)c1ccc(-c2c3nc(c(-c4cccc(S(=O)(=O)[O-])c4F)c4ccc([nH]4)c(-c4cccc(S(=O)(=O)[O-])c4F)c4nc(c(-c5cccc(S(=O)(=O)[O-])c5F)c5ccc2[nH]5)C=C4)C=C3)cc1
REMARK SMILES IDX 5 1 4 2 3 3 2 4 1 5 24 6 25 7 86 8 26 9 85 10 27 11 28 12
REMARK SMILES IDX 29 13 79 14 30 15 84 16 78 17 80 18 31 19 83 20 77 21 76 22
REMARK SMILES IDX 32 24 64 25 44 26 63 27 45 28 48 29 62 30 81 31 46 32 47 33
REMARK SMILES IDX 61 35 82 36 49 37 33 38 34 39 42 40 35 41 37 42 43 43 36 44
REMARK SMILES IDX 38 45 39 46 40 47 41 48 65 49 66 50 74 51 67 52 69 53 75 54
REMARK SMILES IDX 68 55 70 56 71 57 72 58 73 59 50 60 51 61 59 62 52 63 54 64
REMARK SMILES IDX 60 65 53 66 55 67 56 68 57 69 58 70 6 71 7 72 8 73 9 74
REMARK SMILES IDX 10 75 11 76 12 77 13 78 23 79 14 80 16 81 15 82 17 83 18 84
REMARK SMILES IDX 22 85 19 86 21 87 20 88
REMARK H PARENT 80 23 48 34
REMARK Flexibility Score: inf
ROOT
ATOM      1  C   UNL A   1      35.632  20.111  25.027  1.00  0.00     0.202 C 
ENDROOT
BRANCH   1   2
ATOM      2  C   UNL A   1      37.131  20.323  24.785  1.00  0.00     0.261 C 
BRANCH   2   3
ATOM      3  O   UNL A   1      37.643  21.340  25.664  1.00  0.00    -0.460 OA
BRANCH   3   4
ATOM      4  C   UNL A   1      38.913  21.516  26.102  1.00  0.00     0.338 C 
ATOM      5  O   UNL A   1      39.689  20.564  26.015  1.00  0.00    -0.246 OA
BRANCH   4   6
ATOM      6  C   UNL A   1      39.443  22.807  26.642  1.00  0.00     0.060 A 
ATOM      7  C   UNL A   1      38.915  24.072  26.376  1.00  0.00     0.016 A 
ATOM      8  C   UNL A   1      40.525  22.727  27.538  1.00  0.00     0.016 A 
ATOM      9  C   UNL A   1      39.485  25.223  26.897  1.00  0.00     0.010 A 
ATOM     10  C   UNL A   1      41.081  23.880  28.104  1.00  0.00     0.010 A 
ATOM     11  C   UNL A   1      40.579  25.136  27.751  1.00  0.00    -0.014 A 
BRANCH  11  12
ATOM     12  C   UNL A   1      41.233  26.397  28.141  1.00  0.00     0.031 A 
ATOM     13  C   UNL A   1      42.605  26.679  27.609  1.00  0.00     0.074 A 
ATOM     14  C   UNL A   1      40.535  27.319  28.827  1.00  0.00     0.049 A 
ATOM     15  N   UNL A   1      43.331  27.756  27.731  1.00  0.00    -0.248 NA
ATOM     16  C   UNL A   1      43.239  25.612  26.813  1.00  0.00     0.031 C 
ATOM     17  C   UNL A   1      39.162  27.147  29.310  1.00  0.00     0.029 A 
ATOM     18  N   UNL A   1      40.867  28.592  29.208  1.00  0.00    -0.354 N 
ATOM     19  C   UNL A   1      44.518  27.483  27.067  1.00  0.00     0.074 A 
ATOM     20  C   UNL A   1      44.417  26.144  26.532  1.00  0.00     0.031 C 
ATOM     21  C   UNL A   1      38.761  28.283  29.903  1.00  0.00     0.029 A 
ATOM     22  C   UNL A   1      39.859  29.244  29.878  1.00  0.00     0.049 A 
ATOM     23  H   UNL A   1      41.742  29.000  29.020  1.00  0.00     0.167 HD
ATOM     24  C   UNL A   1      45.597  28.284  26.915  1.00  0.00     0.034 A 
ATOM     25  C   UNL A   1      39.836  30.480  30.410  1.00  0.00     0.034 A 
ATOM     26  C   UNL A   1      45.667  29.619  27.440  1.00  0.00     0.049 A 
ATOM     27  C   UNL A   1      41.059  31.342  30.243  1.00  0.00     0.074 A 
ATOM     28  C   UNL A   1      46.718  30.514  27.388  1.00  0.00     0.029 A 
ATOM     29  N   UNL A   1      44.633  30.247  28.121  1.00  0.00    -0.354 N 
ATOM     30  N   UNL A   1      42.164  31.087  29.582  1.00  0.00    -0.248 NA
ATOM     31  C   UNL A   1      41.029  32.668  30.873  1.00  0.00     0.031 C 
ATOM     32  C   UNL A   1      46.324  31.681  28.053  1.00  0.00     0.029 A 
ATOM     33  C   UNL A   1      45.019  31.519  28.498  1.00  0.00     0.049 A 
ATOM     34  H   UNL A   1      43.753  29.846  28.308  1.00  0.00     0.167 HD
ATOM     35  C   UNL A   1      42.948  32.227  29.691  1.00  0.00     0.074 A 
ATOM     36  C   UNL A   1      42.180  33.185  30.463  1.00  0.00     0.031 C 
ATOM     37  C   UNL A   1      44.198  32.461  29.217  1.00  0.00     0.034 A 
BRANCH  24  38
ATOM     38  C   UNL A   1      46.776  27.714  26.179  1.00  0.00     0.023 A 
ATOM     39  C   UNL A   1      46.877  27.868  24.781  1.00  0.00     0.012 A 
ATOM     40  C   UNL A   1      47.774  27.001  26.871  1.00  0.00     0.148 A 
ATOM     41  C   UNL A   1      47.936  27.290  24.080  1.00  0.00     0.002 A 
ATOM     42  C   UNL A   1      48.844  26.459  26.170  1.00  0.00     0.091 A 
ATOM     43  F   UNL A   1      47.640  26.837  28.195  1.00  0.00    -0.205 F 
ATOM     44  C   UNL A   1      48.921  26.592  24.774  1.00  0.00     0.022 A 
BRANCH  42  45
ATOM     45  S   UNL A   1      50.185  25.583  26.984  1.00  0.00     0.127 S 
ATOM     46  O   UNL A   1      50.565  26.531  28.030  1.00  0.00    -0.237 OA
ATOM     47  O   UNL A   1      49.515  24.376  27.469  1.00  0.00    -0.237 OA
ATOM     48  O   UNL A   1      51.190  25.346  25.957  1.00  0.00    -0.744 OA
ENDBRANCH  42  45
ENDBRANCH  24  38
BRANCH  25  49
ATOM     49  C   UNL A   1      38.615  30.981  31.106  1.00  0.00     0.023 A 
ATOM     50  C   UNL A   1      38.531  30.907  32.510  1.00  0.00     0.012 A 
ATOM     51  C   UNL A   1      37.545  31.552  30.388  1.00  0.00     0.148 A 
ATOM     52  C   UNL A   1      37.398  31.370  33.182  1.00  0.00     0.002 A 
ATOM     53  C   UNL A   1      36.443  32.061  31.066  1.00  0.00     0.091 A 
ATOM     54  F   UNL A   1      37.626  31.592  29.051  1.00  0.00    -0.205 F 
ATOM     55  C   UNL A   1      36.359  31.956  32.463  1.00  0.00     0.022 A 
BRANCH  53  56
ATOM     56  S   UNL A   1      35.126  32.943  30.222  1.00  0.00     0.127 S 
ATOM     57  O   UNL A   1      35.849  34.061  29.622  1.00  0.00    -0.237 OA
ATOM     58  O   UNL A   1      34.643  31.941  29.269  1.00  0.00    -0.237 OA
ATOM     59  O   UNL A   1      34.163  33.289  31.260  1.00  0.00    -0.744 OA
ENDBRANCH  53  56
ENDBRANCH  25  49
BRANCH  37  60
ATOM     60  C   UNL A   1      44.797  33.812  29.493  1.00  0.00     0.023 A 
ATOM     61  C   UNL A   1      45.473  34.041  30.706  1.00  0.00     0.012 A 
ATOM     62  C   UNL A   1      44.766  34.820  28.512  1.00  0.00     0.148 A 
ATOM     63  C   UNL A   1      46.089  35.267  30.950  1.00  0.00     0.002 A 
ATOM     64  C   UNL A   1      45.424  36.021  28.741  1.00  0.00     0.091 A 
ATOM     65  F   UNL A   1      44.096  34.589  27.373  1.00  0.00    -0.205 F 
ATOM     66  C   UNL A   1      46.076  36.251  29.963  1.00  0.00     0.022 A 
BRANCH  64  67
ATOM     67  S   UNL A   1      45.541  37.294  27.479  1.00  0.00     0.127 S 
ATOM     68  O   UNL A   1      44.142  37.678  27.310  1.00  0.00    -0.237 OA
ATOM     69  O   UNL A   1      46.378  38.304  28.127  1.00  0.00    -0.237 OA
ATOM     70  O   UNL A   1      46.164  36.650  26.329  1.00  0.00    -0.744 OA
ENDBRANCH  64  67
ENDBRANCH  37  60
ENDBRANCH  11  12
ENDBRANCH   4   6
ENDBRANCH   3   4
ENDBRANCH   2   3
ENDBRANCH   1   2
BRANCH   1  71
ATOM     71  O   UNL A   1      34.805  21.103  24.418  1.00  0.00    -0.374 OA
BRANCH  71  72
ATOM     72  C   UNL A   1      33.409  20.800  24.364  1.00  0.00     0.202 C 
BRANCH  72  73
ATOM     73  C   UNL A   1      32.769  21.042  25.731  1.00  0.00     0.261 C 
BRANCH  73  74
ATOM     74  O   UNL A   1      31.771  22.070  25.595  1.00  0.00    -0.459 OA
BRANCH  74  75
ATOM     75  C   UNL A   1      31.850  23.069  26.517  1.00  0.00     0.357 C 
ATOM     76  O   UNL A   1      31.531  23.014  27.693  1.00  0.00    -0.244 OA
BRANCH  75  77
ATOM     77  C   UNL A   1      32.552  24.206  25.867  1.00  0.00     0.150 A 
ATOM     78  C   UNL A   1      33.922  24.366  26.010  1.00  0.00     0.036 A 
ATOM     79  N   UNL A   1      31.751  25.103  25.239  1.00  0.00    -0.224 NA
ATOM     80  C   UNL A   1      34.492  25.511  25.473  1.00  0.00     0.006 A 
ATOM     81  C   UNL A   1      32.306  26.217  24.739  1.00  0.00     0.129 A 
ATOM     82  C   UNL A   1      33.675  26.447  24.835  1.00  0.00     0.047 A 
BRANCH  81  83
ATOM     83  N   UNL A   1      31.452  27.122  24.157  1.00  0.00    -0.357 N 
ATOM     84  C   UNL A   1      31.917  28.488  23.979  1.00  0.00     0.118 C 
ATOM     85  C   UNL A   1      30.415  26.627  23.271  1.00  0.00     0.118 C 
ATOM     86  C   UNL A   1      30.727  29.446  24.044  1.00  0.00     0.022 C 
ATOM     87  C   UNL A   1      29.206  27.559  23.351  1.00  0.00     0.022 C 
ATOM     88  C   UNL A   1      29.603  29.015  23.102  1.00  0.00     0.004 C 
ENDBRANCH  81  83
ENDBRANCH  75  77
ENDBRANCH  74  75
ENDBRANCH  73  74
ENDBRANCH  72  73
ENDBRANCH  71  72
ENDBRANCH   1  71
TORSDOF 18
ENDMDL
MODEL 2
REMARK VINA RESULT:     -11.0      1.538      1.962
REMARK SMILES O=C(OCCOCCOC(=O)c1cccc(N2CCCCC2)n1)c1ccc(-c2c3nc(c(-c4cccc(S(=O)(=O)[O-])c4F)c4ccc([nH]4)c(-c4cccc(S(=O)(=O)[O-])c4F)c4nc(c(-c5cccc(S(=O)(=O)[O-])c5F)c5ccc2[nH]5)C=C4)C=C3)cc1
REMARK SMILES IDX 5 1 4 2 3 3 2 4 1 5 24 6 25 7 86 8 26 9 85 10 27 11 28 12
REMARK SMILES IDX 29 13 79 14 30 15 84 16 78 17 80 18 31 19 83 20 77 21 76 22
REMARK SMILES IDX 32 24 64 25 44 26 63 27 45 28 48 29 62 30 81 31 46 32 47 33
REMARK SMILES IDX 61 35 82 36 49 37 33 38 34 39 42 40 35 41 37 42 43 43 36 44
REMARK SMILES IDX 38 45 39 46 40 47 41 48 65 49 66 50 74 51 67 52 69 53 75 54
REMARK SMILES IDX 68 55 70 56 71 57 72 58 73 59 50 60 51 61 59 62 52 63 54 64
REMARK SMILES IDX 60 65 53 66 55 67 56 68 57 69 58 70 6 71 7 72 8 73 9 74
REMARK SMILES IDX 10 75 11 76 12 77 13 78 23 79 14 80 16 81 15 82 17 83 18 84
REMARK SMILES IDX 22 85 19 86 21 87 20 88
REMARK H PARENT 80 23 48 34
REMARK Flexibility Score: inf
ROOT
ATOM      1  C   UNL A   1      35.848  21.359  25.933  1.00  0.00     0.202 C 
ENDROOT
BRANCH   1   2
ATOM      2  C   UNL A   1      36.733  20.442  25.082  1.00  0.00     0.261 C 
BRANCH   2   3
ATOM      3  O   UNL A   1      38.051  21.000  24.944  1.00  0.00    -0.460 OA
BRANCH   3   4
ATOM      4  C   UNL A   1      39.029  21.096  25.877  1.00  0.00     0.338 C 
ATOM      5  O   UNL A   1      39.559  20.056  26.265  1.00  0.00    -0.246 OA
BRANCH   4   6
ATOM      6  C   UNL A   1      39.536  22.392  26.430  1.00  0.00     0.060 A 
ATOM      7  C   UNL A   1      39.016  23.654  26.138  1.00  0.00     0.016 A 
ATOM      8  C   UNL A   1      40.583  22.318  27.367  1.00  0.00     0.016 A 
ATOM      9  C   UNL A   1      39.564  24.809  26.674  1.00  0.00     0.010 A 
ATOM     10  C   UNL A   1      41.115  23.475  27.948  1.00  0.00     0.010 A 
ATOM     11  C   UNL A   1      40.624  24.728  27.569  1.00  0.00    -0.014 A 
BRANCH  11  12
ATOM     12  C   UNL A   1      41.261  25.992  27.978  1.00  0.00     0.031 A 
ATOM     13  C   UNL A   1      42.642  26.286  27.476  1.00  0.00     0.074 A 
ATOM     14  C   UNL A   1      40.542  26.907  28.651  1.00  0.00     0.049 A 
ATOM     15  N   UNL A   1      43.357  27.368  27.616  1.00  0.00    -0.248 NA
ATOM     16  C   UNL A   1      43.300  25.226  26.690  1.00  0.00     0.031 C 
ATOM     17  C   UNL A   1      39.160  26.724  29.103  1.00  0.00     0.029 A 
ATOM     18  N   UNL A   1      40.856  28.181  29.043  1.00  0.00    -0.354 N 
ATOM     19  C   UNL A   1      44.561  27.106  26.977  1.00  0.00     0.074 A 
ATOM     20  C   UNL A   1      44.480  25.768  26.436  1.00  0.00     0.031 C 
ATOM     21  C   UNL A   1      38.739  27.855  29.691  1.00  0.00     0.029 A 
ATOM     22  C   UNL A   1      39.830  28.824  29.693  1.00  0.00     0.049 A 
ATOM     23  H   UNL A   1      41.732  28.596  28.875  1.00  0.00     0.167 HD
ATOM     24  C   UNL A   1      45.637  27.915  26.851  1.00  0.00     0.034 A 
ATOM     25  C   UNL A   1      39.787  30.058  30.229  1.00  0.00     0.034 A 
ATOM     26  C   UNL A   1      45.686  29.248  27.381  1.00  0.00     0.049 A 
ATOM     27  C   UNL A   1      41.007  30.930  30.090  1.00  0.00     0.074 A 
ATOM     28  C   UNL A   1      46.731  30.151  27.355  1.00  0.00     0.029 A 
ATOM     29  N   UNL A   1      44.633  29.867  28.043  1.00  0.00    -0.354 N 
ATOM     30  N   UNL A   1      42.127  30.684  29.453  1.00  0.00    -0.248 NA
ATOM     31  C   UNL A   1      40.954  32.253  30.725  1.00  0.00     0.031 C 
ATOM     32  C   UNL A   1      46.315  31.312  28.015  1.00  0.00     0.029 A 
ATOM     33  C   UNL A   1      45.002  31.141  28.431  1.00  0.00     0.049 A 
ATOM     34  H   UNL A   1      43.752  29.458  28.209  1.00  0.00     0.167 HD
ATOM     35  C   UNL A   1      42.901  31.830  29.582  1.00  0.00     0.074 A 
ATOM     36  C   UNL A   1      42.109  32.779  30.341  1.00  0.00     0.031 C 
ATOM     37  C   UNL A   1      44.159  32.074  29.136  1.00  0.00     0.034 A 
BRANCH  24  38
ATOM     38  C   UNL A   1      46.835  27.356  26.138  1.00  0.00     0.023 A 
ATOM     39  C   UNL A   1      47.735  26.513  26.822  1.00  0.00     0.012 A 
ATOM     40  C   UNL A   1      47.085  27.688  24.793  1.00  0.00     0.148 A 
ATOM     41  C   UNL A   1      48.882  26.038  26.187  1.00  0.00     0.002 A 
ATOM     42  C   UNL A   1      48.212  27.182  24.157  1.00  0.00     0.091 A 
ATOM     43  F   UNL A   1      46.236  28.519  24.171  1.00  0.00    -0.205 F 
ATOM     44  C   UNL A   1      49.118  26.367  24.855  1.00  0.00     0.022 A 
BRANCH  42  45
ATOM     45  S   UNL A   1      48.573  27.513  22.428  1.00  0.00     0.127 S 
ATOM     46  O   UNL A   1      47.414  28.311  22.031  1.00  0.00    -0.237 OA
ATOM     47  O   UNL A   1      49.828  28.262  22.514  1.00  0.00    -0.237 OA
ATOM     48  O   UNL A   1      48.689  26.211  21.787  1.00  0.00    -0.744 OA
ENDBRANCH  42  45
ENDBRANCH  24  38
BRANCH  25  49
ATOM     49  C   UNL A   1      38.547  30.548  30.900  1.00  0.00     0.023 A 
ATOM     50  C   UNL A   1      38.386  30.368  32.288  1.00  0.00     0.012 A 
ATOM     51  C   UNL A   1      37.536  31.212  30.177  1.00  0.00     0.148 A 
ATOM     52  C   UNL A   1      37.235  30.819  32.937  1.00  0.00     0.002 A 
ATOM     53  C   UNL A   1      36.418  31.707  30.837  1.00  0.00     0.091 A 
ATOM     54  F   UNL A   1      37.690  31.354  28.853  1.00  0.00    -0.205 F 
ATOM     55  C   UNL A   1      36.256  31.497  32.215  1.00  0.00     0.022 A 
BRANCH  53  56
ATOM     56  S   UNL A   1      35.177  32.701  30.001  1.00  0.00     0.127 S 
ATOM     57  O   UNL A   1      34.284  33.056  31.101  1.00  0.00    -0.237 OA
ATOM     58  O   UNL A   1      35.973  33.811  29.473  1.00  0.00    -0.237 OA
ATOM     59  O   UNL A   1      34.612  31.834  28.975  1.00  0.00    -0.744 OA
ENDBRANCH  53  56
ENDBRANCH  25  49
BRANCH  37  60
ATOM     60  C   UNL A   1      44.742  33.428  29.429  1.00  0.00     0.023 A 
ATOM     61  C   UNL A   1      45.439  33.642  30.633  1.00  0.00     0.012 A 
ATOM     62  C   UNL A   1      44.676  34.457  28.471  1.00  0.00     0.148 A 
ATOM     63  C   UNL A   1      46.041  34.872  30.891  1.00  0.00     0.002 A 
ATOM     64  C   UNL A   1      45.319  35.663  28.713  1.00  0.00     0.091 A 
ATOM     65  F   UNL A   1      43.986  34.239  27.341  1.00  0.00    -0.205 F 
ATOM     66  C   UNL A   1      45.992  35.876  29.926  1.00  0.00     0.022 A 
BRANCH  64  67
ATOM     67  S   UNL A   1      45.390  36.964  27.476  1.00  0.00     0.127 S 
ATOM     68  O   UNL A   1      43.977  37.293  27.306  1.00  0.00    -0.237 OA
ATOM     69  O   UNL A   1      46.180  37.995  28.150  1.00  0.00    -0.237 OA
ATOM     70  O   UNL A   1      46.046  36.369  26.318  1.00  0.00    -0.744 OA
ENDBRANCH  64  67
ENDBRANCH  37  60
ENDBRANCH  11  12
ENDBRANCH   4   6
ENDBRANCH   3   4
ENDBRANCH   2   3
ENDBRANCH   1   2
BRANCH   1  71
ATOM     71  O   UNL A   1      35.725  22.684  25.413  1.00  0.00    -0.374 OA
BRANCH  71  72
ATOM     72  C   UNL A   1      34.922  23.581  26.183  1.00  0.00     0.202 C 
BRANCH  72  73
ATOM     73  C   UNL A   1      33.882  22.796  26.984  1.00  0.00     0.261 C 
BRANCH  73  74
ATOM     74  O   UNL A   1      32.580  23.067  26.436  1.00  0.00    -0.459 OA
BRANCH  74  75
ATOM     75  C   UNL A   1      32.221  22.267  25.394  1.00  0.00     0.357 C 
ATOM     76  O   UNL A   1      31.776  21.133  25.455  1.00  0.00    -0.244 OA
BRANCH  75  77
ATOM     77  C   UNL A   1      32.315  23.090  24.161  1.00  0.00     0.150 A 
ATOM     78  C   UNL A   1      33.046  22.648  23.070  1.00  0.00     0.036 A 
ATOM     79  N   UNL A   1      31.737  24.315  24.232  1.00  0.00    -0.224 NA
ATOM     80  C   UNL A   1      33.185  23.517  21.997  1.00  0.00     0.006 A 
ATOM     81  C   UNL A   1      31.891  25.158  23.200  1.00  0.00     0.129 A 
ATOM     82  C   UNL A   1      32.605  24.785  22.065  1.00  0.00     0.047 A 
BRANCH  81  83
ATOM     83  N   UNL A   1      31.334  26.406  23.335  1.00  0.00    -0.357 N 
ATOM     84  C   UNL A   1      29.966  26.497  23.823  1.00  0.00     0.118 C 
ATOM     85  C   UNL A   1      32.213  27.542  23.538  1.00  0.00     0.118 C 
ATOM     86  C   UNL A   1      29.296  27.740  23.236  1.00  0.00     0.022 C 
ATOM     87  C   UNL A   1      31.569  28.786  22.927  1.00  0.00     0.022 C 
ATOM     88  C   UNL A   1      30.146  28.993  23.448  1.00  0.00     0.004 C 
ENDBRANCH  81  83
ENDBRANCH  75  77
ENDBRANCH  74  75
ENDBRANCH  73  74
ENDBRANCH  72  73
ENDBRANCH  71  72
ENDBRANCH   1  71
TORSDOF 18
ENDMDL
MODEL 3
REMARK VINA RESULT:     -10.7      5.367     10.667
REMARK SMILES O=C(OCCOCCOC(=O)c1cccc(N2CCCCC2)n1)c1ccc(-c2c3nc(c(-c4cccc(S(=O)(=O)[O-])c4F)c4ccc([nH]4)c(-c4cccc(S(=O)(=O)[O-])c4F)c4nc(c(-c5cccc(S(=O)(=O)[O-])c5F)c5ccc2[nH]5)C=C4)C=C3)cc1
REMARK SMILES IDX 5 1 4 2 3 3 2 4 1 5 24 6 25 7 86 8 26 9 85 10 27 11 28 12
REMARK SMILES IDX 29 13 79 14 30 15 84 16 78 17 80 18 31 19 83 20 77 21 76 22
REMARK SMILES IDX 32 24 64 25 44 26 63 27 45 28 48 29 62 30 81 31 46 32 47 33
REMARK SMILES IDX 61 35 82 36 49 37 33 38 34 39 42 40 35 41 37 42 43 43 36 44
REMARK SMILES IDX 38 45 39 46 40 47 41 48 65 49 66 50 74 51 67 52 69 53 75 54
REMARK SMILES IDX 68 55 70 56 71 57 72 58 73 59 50 60 51 61 59 62 52 63 54 64
REMARK SMILES IDX 60 65 53 66 55 67 56 68 57 69 58 70 6 71 7 72 8 73 9 74
REMARK SMILES IDX 10 75 11 76 12 77 13 78 23 79 14 80 16 81 15 82 17 83 18 84
REMARK SMILES IDX 22 85 19 86 21 87 20 88
REMARK H PARENT 80 23 48 34
REMARK Flexibility Score: inf
ROOT
ATOM      1  C   UNL A   1      32.323  31.160  26.880  1.00  0.00     0.202 C 
ENDROOT
BRANCH   1   2
ATOM      2  C   UNL A   1      31.695  32.557  26.928  1.00  0.00     0.261 C 
BRANCH   2   3
ATOM      3  O   UNL A   1      32.714  33.562  27.066  1.00  0.00    -0.460 OA
BRANCH   3   4
ATOM      4  C   UNL A   1      33.222  34.099  28.201  1.00  0.00     0.338 C 
ATOM      5  O   UNL A   1      32.615  35.038  28.716  1.00  0.00    -0.246 OA
BRANCH   4   6
ATOM      6  C   UNL A   1      34.449  33.593  28.893  1.00  0.00     0.060 A 
ATOM      7  C   UNL A   1      35.723  34.155  28.794  1.00  0.00     0.016 A 
ATOM      8  C   UNL A   1      34.286  32.497  29.760  1.00  0.00     0.016 A 
ATOM      9  C   UNL A   1      36.814  33.605  29.448  1.00  0.00     0.010 A 
ATOM     10  C   UNL A   1      35.372  31.960  30.459  1.00  0.00     0.010 A 
ATOM     11  C   UNL A   1      36.650  32.497  30.272  1.00  0.00    -0.014 A 
BRANCH  11  12
ATOM     12  C   UNL A   1      37.868  31.868  30.809  1.00  0.00     0.031 A 
ATOM     13  C   UNL A   1      38.231  32.131  32.239  1.00  0.00     0.074 A 
ATOM     14  C   UNL A   1      38.528  30.963  30.065  1.00  0.00     0.049 A 
ATOM     15  N   UNL A   1      39.190  31.612  32.955  1.00  0.00    -0.248 NA
ATOM     16  C   UNL A   1      37.388  33.095  32.970  1.00  0.00     0.031 C 
ATOM     17  C   UNL A   1      38.183  30.593  28.690  1.00  0.00     0.029 A 
ATOM     18  N   UNL A   1      39.601  30.167  30.367  1.00  0.00    -0.354 N 
ATOM     19  C   UNL A   1      39.094  32.213  34.201  1.00  0.00     0.074 A 
ATOM     20  C   UNL A   1      37.977  33.129  34.154  1.00  0.00     0.031 C 
ATOM     21  C   UNL A   1      39.015  29.624  28.275  1.00  0.00     0.029 A 
ATOM     22  C   UNL A   1      39.974  29.336  29.337  1.00  0.00     0.049 A 
ATOM     23  H   UNL A   1      40.060  30.188  31.237  1.00  0.00     0.167 HD
ATOM     24  C   UNL A   1      39.870  32.014  35.291  1.00  0.00     0.034 A 
ATOM     25  C   UNL A   1      40.982  28.446  29.269  1.00  0.00     0.034 A 
ATOM     26  C   UNL A   1      40.963  31.084  35.320  1.00  0.00     0.049 A 
ATOM     27  C   UNL A   1      41.841  28.260  30.491  1.00  0.00     0.074 A 
ATOM     28  C   UNL A   1      41.847  30.821  36.348  1.00  0.00     0.029 A 
ATOM     29  N   UNL A   1      41.320  30.263  34.257  1.00  0.00    -0.354 N 
ATOM     30  N   UNL A   1      41.719  28.809  31.677  1.00  0.00    -0.248 NA
ATOM     31  C   UNL A   1      42.963  27.319  30.377  1.00  0.00     0.031 C 
ATOM     32  C   UNL A   1      42.751  29.850  35.901  1.00  0.00     0.029 A 
ATOM     33  C   UNL A   1      42.414  29.493  34.603  1.00  0.00     0.049 A 
ATOM     34  H   UNL A   1      40.861  30.234  33.387  1.00  0.00     0.167 HD
ATOM     35  C   UNL A   1      42.726  28.260  32.459  1.00  0.00     0.074 A 
ATOM     36  C   UNL A   1      43.437  27.317  31.616  1.00  0.00     0.031 C 
ATOM     37  C   UNL A   1      43.054  28.523  33.749  1.00  0.00     0.034 A 
BRANCH  24  38
ATOM     38  C   UNL A   1      39.565  32.838  36.509  1.00  0.00     0.023 A 
ATOM     39  C   UNL A   1      40.240  34.057  36.724  1.00  0.00     0.012 A 
ATOM     40  C   UNL A   1      38.626  32.390  37.458  1.00  0.00     0.148 A 
ATOM     41  C   UNL A   1      40.008  34.800  37.882  1.00  0.00     0.002 A 
ATOM     42  C   UNL A   1      38.376  33.153  38.592  1.00  0.00     0.091 A 
ATOM     43  F   UNL A   1      38.022  31.211  37.252  1.00  0.00    -0.205 F 
ATOM     44  C   UNL A   1      39.073  34.352  38.812  1.00  0.00     0.022 A 
BRANCH  42  45
ATOM     45  S   UNL A   1      37.155  32.680  39.822  1.00  0.00     0.127 S 
ATOM     46  O   UNL A   1      35.923  32.687  39.034  1.00  0.00    -0.237 OA
ATOM     47  O   UNL A   1      37.618  31.350  40.219  1.00  0.00    -0.237 OA
ATOM     48  O   UNL A   1      37.233  33.686  40.872  1.00  0.00    -0.744 OA
ENDBRANCH  42  45
ENDBRANCH  24  38
BRANCH  25  49
ATOM     49  C   UNL A   1      41.202  27.648  28.028  1.00  0.00     0.023 A 
ATOM     50  C   UNL A   1      41.718  28.275  26.876  1.00  0.00     0.012 A 
ATOM     51  C   UNL A   1      40.926  26.266  27.987  1.00  0.00     0.148 A 
ATOM     52  C   UNL A   1      41.933  27.546  25.704  1.00  0.00     0.002 A 
ATOM     53  C   UNL A   1      41.193  25.536  26.834  1.00  0.00     0.091 A 
ATOM     54  F   UNL A   1      40.411  25.688  29.080  1.00  0.00    -0.205 F 
ATOM     55  C   UNL A   1      41.682  26.177  25.685  1.00  0.00     0.022 A 
BRANCH  53  56
ATOM     56  S   UNL A   1      41.016  23.749  26.773  1.00  0.00     0.127 S 
ATOM     57  O   UNL A   1      41.476  23.356  28.102  1.00  0.00    -0.237 OA
ATOM     58  O   UNL A   1      39.579  23.589  26.547  1.00  0.00    -0.237 OA
ATOM     59  O   UNL A   1      41.846  23.316  25.656  1.00  0.00    -0.744 OA
ENDBRANCH  53  56
ENDBRANCH  25  49
BRANCH  37  60
ATOM     60  C   UNL A   1      44.208  27.759  34.335  1.00  0.00     0.023 A 
ATOM     61  C   UNL A   1      45.501  28.316  34.305  1.00  0.00     0.012 A 
ATOM     62  C   UNL A   1      43.993  26.534  34.994  1.00  0.00     0.148 A 
ATOM     63  C   UNL A   1      46.570  27.651  34.901  1.00  0.00     0.002 A 
ATOM     64  C   UNL A   1      45.054  25.900  35.628  1.00  0.00     0.091 A 
ATOM     65  F   UNL A   1      42.758  26.010  34.989  1.00  0.00    -0.205 F 
ATOM     66  C   UNL A   1      46.344  26.451  35.573  1.00  0.00     0.022 A 
BRANCH  64  67
ATOM     67  S   UNL A   1      44.821  24.409  36.602  1.00  0.00     0.127 S 
ATOM     68  O   UNL A   1      46.189  24.102  37.011  1.00  0.00    -0.237 OA
ATOM     69  O   UNL A   1      43.950  24.872  37.683  1.00  0.00    -0.237 OA
ATOM     70  O   UNL A   1      44.198  23.446  35.703  1.00  0.00    -0.744 OA
ENDBRANCH  64  67
ENDBRANCH  37  60
ENDBRANCH  11  12
ENDBRANCH   4   6
ENDBRANCH   3   4
ENDBRANCH   2   3
ENDBRANCH   1   2
BRANCH   1  71
ATOM     71  O   UNL A   1      31.584  30.223  26.096  1.00  0.00    -0.374 OA
BRANCH  71  72
ATOM     72  C   UNL A   1      32.362  29.353  25.270  1.00  0.00     0.202 C 
BRANCH  72  73
ATOM     73  C   UNL A   1      31.467  28.271  24.663  1.00  0.00     0.261 C 
BRANCH  73  74
ATOM     74  O   UNL A   1      32.031  26.984  24.970  1.00  0.00    -0.459 OA
BRANCH  74  75
ATOM     75  C   UNL A   1      31.545  26.401  26.100  1.00  0.00     0.357 C 
ATOM     76  O   UNL A   1      31.017  26.959  27.048  1.00  0.00    -0.244 OA
BRANCH  75  77
ATOM     77  C   UNL A   1      31.626  24.931  25.903  1.00  0.00     0.150 A 
ATOM     78  C   UNL A   1      30.564  24.111  26.247  1.00  0.00     0.036 A 
ATOM     79  N   UNL A   1      32.828  24.467  25.477  1.00  0.00    -0.224 NA
ATOM     80  C   UNL A   1      30.752  22.740  26.142  1.00  0.00     0.006 A 
ATOM     81  C   UNL A   1      33.010  23.140  25.396  1.00  0.00     0.129 A 
ATOM     82  C   UNL A   1      31.989  22.251  25.716  1.00  0.00     0.047 A 
BRANCH  81  83
ATOM     83  N   UNL A   1      34.257  22.712  25.009  1.00  0.00    -0.357 N 
ATOM     84  C   UNL A   1      35.027  21.907  25.944  1.00  0.00     0.118 C 
ATOM     85  C   UNL A   1      34.536  22.576  23.592  1.00  0.00     0.118 C 
ATOM     86  C   UNL A   1      36.519  22.149  25.718  1.00  0.00     0.022 C 
ATOM     87  C   UNL A   1      36.020  22.846  23.348  1.00  0.00     0.022 C 
ATOM     88  C   UNL A   1      36.903  21.981  24.248  1.00  0.00     0.004 C 
ENDBRANCH  81  83
ENDBRANCH  75  77
ENDBRANCH  74  75
ENDBRANCH  73  74
ENDBRANCH  72  73
ENDBRANCH  71  72
ENDBRANCH   1  71
TORSDOF 18
ENDMDL
