MODEL 1
REMARK VINA RESULT:     -10.7      0.000      0.000
REMARK SMILES O=C1NC(=O)/C(=C/c2ccc(OCc3cn(-c4ccc(C(=O)OCCOCCOC(=O)c5ccc(-c6c7nc(c(-c8cccc(S(=O)(=O)[O-])c8F)c8ccc([nH]8)c(-c8cccc(S(=O)(=O)[O-])c8F)c8nc(c(-c9cccc(S(=O)(=O)[O-])c9F)c9ccc6[nH]9)C=C8)C=C7)cc5)cc4)nn3)cc2)S1
REMARK SMILES IDX 25 1 24 2 23 3 21 4 22 5 20 6 17 7 18 8 96 9 19 10 95 11
REMARK SMILES IDX 16 12 14 13 15 14 98 15 97 16 13 17 12 18 11 19 8 20 9 21
REMARK SMILES IDX 100 22 10 23 99 24 7 25 1 26 2 27 3 28 101 29 4 30 6 32 5 33
REMARK SMILES IDX 26 34 27 35 28 36 29 37 30 38 31 39 32 40 33 41 94 42 34 43
REMARK SMILES IDX 93 44 35 45 36 46 37 47 87 48 38 49 92 50 86 51 88 52 39 53
REMARK SMILES IDX 91 54 85 55 84 56 40 58 72 59 52 60 71 61 53 62 56 63 70 64
REMARK SMILES IDX 89 65 54 66 55 67 69 69 90 70 57 71 41 72 42 73 50 74 43 75
REMARK SMILES IDX 45 76 51 77 44 78 46 79 47 80 48 81 49 82 73 83 74 84 82 85
REMARK SMILES IDX 75 86 77 87 83 88 76 89 78 90 79 91 80 92 81 93 58 94 59 95
REMARK SMILES IDX 67 96 60 97 62 98 68 99 61 100 63 101 64 102 65 103 66 104
REMARK H PARENT 3 31 88 57 56 68
REMARK Flexibility Score: inf
ROOT
ATOM      1  C   UNL A   1      35.074  33.202  30.895  1.00  0.00     0.202 C 
ENDROOT
BRANCH   1   2
ATOM      2  C   UNL A   1      35.401  31.710  30.963  1.00  0.00     0.261 C 
BRANCH   2   3
ATOM      3  O   UNL A   1      36.239  31.271  29.886  1.00  0.00    -0.460 OA
BRANCH   3   4
ATOM      4  C   UNL A   1      35.927  31.820  28.690  1.00  0.00     0.338 C 
ATOM      5  O   UNL A   1      36.410  32.824  28.190  1.00  0.00    -0.246 OA
BRANCH   4   6
ATOM      6  C   UNL A   1      35.015  30.938  27.942  1.00  0.00     0.060 A 
ATOM      7  C   UNL A   1      33.097  29.233  26.885  1.00  0.00     0.066 A 
ATOM      8  C   UNL A   1      32.753  30.558  27.191  1.00  0.00     0.029 A 
ATOM      9  C   UNL A   1      34.425  28.798  26.999  1.00  0.00     0.029 A 
ATOM     10  C   UNL A   1      33.705  31.396  27.753  1.00  0.00     0.018 A 
ATOM     11  C   UNL A   1      35.396  29.667  27.508  1.00  0.00     0.018 A 
BRANCH   7  12
ATOM     12  N   UNL A   1      32.053  28.329  26.585  1.00  0.00    -0.220 N 
ATOM     13  C   UNL A   1      30.759  26.894  25.569  1.00  0.00     0.120 A 
ATOM     14  C   UNL A   1      31.530  28.016  25.348  1.00  0.00     0.144 A 
ATOM     15  N   UNL A   1      30.816  26.581  26.901  1.00  0.00    -0.131 NA
ATOM     16  N   UNL A   1      31.599  27.451  27.506  1.00  0.00    -0.062 NA
BRANCH  13  17
ATOM     17  C   UNL A   1      30.059  25.986  24.614  1.00  0.00     0.289 C 
BRANCH  17  18
ATOM     18  O   UNL A   1      30.896  25.320  23.658  1.00  0.00    -0.487 OA
BRANCH  18  19
ATOM     19  C   UNL A   1      31.435  24.109  24.002  1.00  0.00     0.119 A 
ATOM     20  C   UNL A   1      32.587  21.566  24.318  1.00  0.00    -0.024 A 
ATOM     21  C   UNL A   1      33.206  22.522  23.510  1.00  0.00     0.012 A 
ATOM     22  C   UNL A   1      31.443  21.921  25.036  1.00  0.00     0.012 A 
ATOM     23  C   UNL A   1      32.627  23.785  23.350  1.00  0.00     0.047 A 
ATOM     24  C   UNL A   1      30.886  23.195  24.898  1.00  0.00     0.047 A 
BRANCH  20  25
ATOM     25  C   UNL A   1      33.135  20.212  24.425  1.00  0.00     0.029 C 
ATOM     26  O   UNL A   1      38.108  19.791  25.108  1.00  0.00    -0.261 OA
ATOM     27  C   UNL A   1      36.892  19.657  25.029  1.00  0.00     0.290 C 
ATOM     28  N   UNL A   1      36.241  18.474  24.920  1.00  0.00    -0.282 N 
ATOM     29  S   UNL A   1      35.749  20.976  24.926  1.00  0.00    -0.022 SA
ATOM     30  C   UNL A   1      34.901  18.501  24.670  1.00  0.00     0.265 C 
ATOM     31  H   UNL A   1      36.721  17.620  25.019  1.00  0.00     0.174 HD
ATOM     32  C   UNL A   1      34.421  19.908  24.654  1.00  0.00     0.083 C 
ATOM     33  O   UNL A   1      34.219  17.518  24.427  1.00  0.00    -0.268 OA
ENDBRANCH  20  25
ENDBRANCH  18  19
ENDBRANCH  17  18
ENDBRANCH  13  17
ENDBRANCH   7  12
ENDBRANCH   4   6
ENDBRANCH   3   4
ENDBRANCH   2   3
ENDBRANCH   1   2
BRANCH   1  34
ATOM     34  O   UNL A   1      35.093  33.976  32.094  1.00  0.00    -0.374 OA
BRANCH  34  35
ATOM     35  C   UNL A   1      35.226  33.343  33.364  1.00  0.00     0.202 C 
BRANCH  35  36
ATOM     36  C   UNL A   1      36.533  33.469  34.129  1.00  0.00     0.261 C 
BRANCH  36  37
ATOM     37  O   UNL A   1      37.596  32.831  33.450  1.00  0.00    -0.460 OA
BRANCH  37  38
ATOM     38  C   UNL A   1      37.803  31.558  33.854  1.00  0.00     0.338 C 
ATOM     39  O   UNL A   1      37.568  31.082  34.952  1.00  0.00    -0.246 OA
BRANCH  38  40
ATOM     40  C   UNL A   1      38.510  30.849  32.787  1.00  0.00     0.060 A 
ATOM     41  C   UNL A   1      38.294  29.471  32.762  1.00  0.00     0.016 A 
ATOM     42  C   UNL A   1      39.635  31.455  32.212  1.00  0.00     0.016 A 
ATOM     43  C   UNL A   1      39.367  28.675  32.460  1.00  0.00     0.010 A 
ATOM     44  C   UNL A   1      40.713  30.660  31.941  1.00  0.00     0.010 A 
ATOM     45  C   UNL A   1      40.587  29.293  32.172  1.00  0.00    -0.014 A 
BRANCH  45  46
ATOM     46  C   UNL A   1      41.730  28.444  31.951  1.00  0.00     0.031 A 
ATOM     47  C   UNL A   1      42.435  28.205  33.228  1.00  0.00     0.074 A 
ATOM     48  C   UNL A   1      41.992  27.907  30.745  1.00  0.00     0.049 A 
ATOM     49  N   UNL A   1      43.560  28.711  33.610  1.00  0.00    -0.248 NA
ATOM     50  C   UNL A   1      41.660  27.580  34.317  1.00  0.00     0.031 C 
ATOM     51  C   UNL A   1      41.145  27.916  29.548  1.00  0.00     0.029 A 
ATOM     52  N   UNL A   1      43.022  27.104  30.378  1.00  0.00    -0.354 N 
ATOM     53  C   UNL A   1      43.749  28.203  34.892  1.00  0.00     0.074 A 
ATOM     54  C   UNL A   1      42.450  27.823  35.361  1.00  0.00     0.031 C 
ATOM     55  C   UNL A   1      41.561  26.940  28.707  1.00  0.00     0.029 A 
ATOM     56  C   UNL A   1      42.759  26.326  29.254  1.00  0.00     0.049 A 
ATOM     57  H   UNL A   1      43.877  27.073  30.864  1.00  0.00     0.167 HD
ATOM     58  C   UNL A   1      44.981  27.773  35.279  1.00  0.00     0.034 A 
ATOM     59  C   UNL A   1      43.425  25.200  28.885  1.00  0.00     0.034 A 
ATOM     60  C   UNL A   1      46.001  28.349  34.430  1.00  0.00     0.049 A 
ATOM     61  C   UNL A   1      44.710  25.191  29.627  1.00  0.00     0.074 A 
ATOM     62  C   UNL A   1      46.387  29.633  34.097  1.00  0.00     0.029 A 
ATOM     63  N   UNL A   1      46.515  27.529  33.454  1.00  0.00    -0.354 N 
ATOM     64  N   UNL A   1      45.660  26.061  29.426  1.00  0.00    -0.248 NA
ATOM     65  C   UNL A   1      44.740  24.516  30.915  1.00  0.00     0.031 C 
ATOM     66  C   UNL A   1      46.737  29.570  32.716  1.00  0.00     0.029 A 
ATOM     67  C   UNL A   1      46.627  28.243  32.293  1.00  0.00     0.049 A 
ATOM     68  H   UNL A   1      46.763  26.584  33.571  1.00  0.00     0.167 HD
ATOM     69  C   UNL A   1      46.096  26.389  30.704  1.00  0.00     0.074 A 
ATOM     70  C   UNL A   1      45.571  25.332  31.570  1.00  0.00     0.031 C 
ATOM     71  C   UNL A   1      46.566  27.642  30.980  1.00  0.00     0.034 A 
BRANCH  58  72
ATOM     72  C   UNL A   1      45.227  26.483  36.051  1.00  0.00     0.023 A 
ATOM     73  C   UNL A   1      46.066  26.591  37.184  1.00  0.00     0.012 A 
ATOM     74  C   UNL A   1      44.961  25.169  35.593  1.00  0.00     0.148 A 
ATOM     75  C   UNL A   1      46.702  25.478  37.740  1.00  0.00     0.002 A 
ATOM     76  C   UNL A   1      45.557  24.058  36.177  1.00  0.00     0.091 A 
ATOM     77  F   UNL A   1      44.195  24.954  34.526  1.00  0.00    -0.205 F 
ATOM     78  C   UNL A   1      46.459  24.210  37.228  1.00  0.00     0.022 A 
BRANCH  76  79
ATOM     79  S   UNL A   1      45.257  22.390  35.564  1.00  0.00     0.127 S 
ATOM     80  O   UNL A   1      46.268  22.282  34.516  1.00  0.00    -0.237 OA
ATOM     81  O   UNL A   1      45.510  21.589  36.761  1.00  0.00    -0.237 OA
ATOM     82  O   UNL A   1      43.872  22.368  35.110  1.00  0.00    -0.744 OA
ENDBRANCH  76  79
ENDBRANCH  58  72
BRANCH  59  83
ATOM     83  C   UNL A   1      42.920  23.975  28.213  1.00  0.00     0.023 A 
ATOM     84  C   UNL A   1      41.550  23.644  28.300  1.00  0.00     0.012 A 
ATOM     85  C   UNL A   1      43.703  23.295  27.254  1.00  0.00     0.148 A 
ATOM     86  C   UNL A   1      40.977  22.694  27.444  1.00  0.00     0.002 A 
ATOM     87  C   UNL A   1      43.132  22.347  26.409  1.00  0.00     0.091 A 
ATOM     88  F   UNL A   1      44.986  23.647  27.105  1.00  0.00    -0.205 F 
ATOM     89  C   UNL A   1      41.766  22.052  26.493  1.00  0.00     0.022 A 
BRANCH  87  90
ATOM     90  S   UNL A   1      44.081  21.505  25.134  1.00  0.00     0.127 S 
ATOM     91  O   UNL A   1      43.981  22.442  24.015  1.00  0.00    -0.237 OA
ATOM     92  O   UNL A   1      45.404  21.422  25.746  1.00  0.00    -0.237 OA
ATOM     93  O   UNL A   1      43.409  20.231  24.912  1.00  0.00    -0.744 OA
ENDBRANCH  87  90
ENDBRANCH  59  83
BRANCH  71  94
ATOM     94  C   UNL A   1      46.854  28.557  29.818  1.00  0.00     0.023 A 
ATOM     95  C   UNL A   1      45.911  29.474  29.306  1.00  0.00     0.012 A 
ATOM     96  C   UNL A   1      48.175  28.605  29.347  1.00  0.00     0.148 A 
ATOM     97  C   UNL A   1      46.281  30.407  28.332  1.00  0.00     0.002 A 
ATOM     98  C   UNL A   1      48.549  29.564  28.417  1.00  0.00     0.091 A 
ATOM     99  F   UNL A   1      49.056  27.725  29.848  1.00  0.00    -0.205 F 
ATOM    100  C   UNL A   1      47.604  30.462  27.898  1.00  0.00     0.022 A 
BRANCH  98 101
ATOM    101  S   UNL A   1      50.262  29.759  27.925  1.00  0.00     0.127 S 
ATOM    102  O   UNL A   1      50.685  28.373  27.738  1.00  0.00    -0.237 OA
ATOM    103  O   UNL A   1      50.146  30.538  26.690  1.00  0.00    -0.237 OA
ATOM    104  O   UNL A   1      50.914  30.472  29.017  1.00  0.00    -0.744 OA
ENDBRANCH  98 101
ENDBRANCH  71  94
ENDBRANCH  45  46
ENDBRANCH  38  40
ENDBRANCH  37  38
ENDBRANCH  36  37
ENDBRANCH  35  36
ENDBRANCH  34  35
ENDBRANCH   1  34
TORSDOF 22
ENDMDL
MODEL 2
REMARK VINA RESULT:     -10.7      5.079     12.797
REMARK SMILES O=C1NC(=O)/C(=C/c2ccc(OCc3cn(-c4ccc(C(=O)OCCOCCOC(=O)c5ccc(-c6c7nc(c(-c8cccc(S(=O)(=O)[O-])c8F)c8ccc([nH]8)c(-c8cccc(S(=O)(=O)[O-])c8F)c8nc(c(-c9cccc(S(=O)(=O)[O-])c9F)c9ccc6[nH]9)C=C8)C=C7)cc5)cc4)nn3)cc2)S1
REMARK SMILES IDX 25 1 24 2 23 3 21 4 22 5 20 6 17 7 18 8 96 9 19 10 95 11
REMARK SMILES IDX 16 12 14 13 15 14 98 15 97 16 13 17 12 18 11 19 8 20 9 21
REMARK SMILES IDX 100 22 10 23 99 24 7 25 1 26 2 27 3 28 101 29 4 30 6 32 5 33
REMARK SMILES IDX 26 34 27 35 28 36 29 37 30 38 31 39 32 40 33 41 94 42 34 43
REMARK SMILES IDX 93 44 35 45 36 46 37 47 87 48 38 49 92 50 86 51 88 52 39 53
REMARK SMILES IDX 91 54 85 55 84 56 40 58 72 59 52 60 71 61 53 62 56 63 70 64
REMARK SMILES IDX 89 65 54 66 55 67 69 69 90 70 57 71 41 72 42 73 50 74 43 75
REMARK SMILES IDX 45 76 51 77 44 78 46 79 47 80 48 81 49 82 73 83 74 84 82 85
REMARK SMILES IDX 75 86 77 87 83 88 76 89 78 90 79 91 80 92 81 93 58 94 59 95
REMARK SMILES IDX 67 96 60 97 62 98 68 99 61 100 63 101 64 102 65 103 66 104
REMARK H PARENT 3 31 88 57 56 68
REMARK Flexibility Score: inf
ROOT
ATOM      1  C   UNL A   1      41.693  19.240  27.127  1.00  0.00     0.202 C 
ENDROOT
BRANCH   1   2
ATOM      2  C   UNL A   1      42.345  19.555  25.780  1.00  0.00     0.261 C 
BRANCH   2   3
ATOM      3  O   UNL A   1      43.776  19.590  25.845  1.00  0.00    -0.460 OA
BRANCH   3   4
ATOM      4  C   UNL A   1      44.368  20.006  24.702  1.00  0.00     0.338 C 
ATOM      5  O   UNL A   1      44.448  19.394  23.649  1.00  0.00    -0.246 OA
BRANCH   4   6
ATOM      6  C   UNL A   1      44.784  21.414  24.821  1.00  0.00     0.060 A 
ATOM      7  C   UNL A   1      45.410  24.051  25.418  1.00  0.00     0.066 A 
ATOM      8  C   UNL A   1      46.152  23.014  26.001  1.00  0.00     0.029 A 
ATOM      9  C   UNL A   1      44.434  23.771  24.450  1.00  0.00     0.029 A 
ATOM     10  C   UNL A   1      45.813  21.696  25.727  1.00  0.00     0.018 A 
ATOM     11  C   UNL A   1      44.137  22.442  24.131  1.00  0.00     0.018 A 
BRANCH   7  12
ATOM     12  N   UNL A   1      45.586  25.358  25.924  1.00  0.00    -0.220 N 
ATOM     13  C   UNL A   1      45.913  27.057  27.256  1.00  0.00     0.120 A 
ATOM     14  C   UNL A   1      45.294  25.826  27.188  1.00  0.00     0.144 A 
ATOM     15  N   UNL A   1      46.524  27.305  26.057  1.00  0.00    -0.131 NA
ATOM     16  N   UNL A   1      46.323  26.275  25.259  1.00  0.00    -0.062 NA
BRANCH  13  17
ATOM     17  C   UNL A   1      46.101  27.994  28.402  1.00  0.00     0.289 C 
BRANCH  17  18
ATOM     18  O   UNL A   1      46.764  27.448  29.552  1.00  0.00    -0.487 OA
BRANCH  18  19
ATOM     19  C   UNL A   1      46.240  27.712  30.788  1.00  0.00     0.119 A 
ATOM     20  C   UNL A   1      45.372  27.942  33.451  1.00  0.00    -0.024 A 
ATOM     21  C   UNL A   1      46.733  27.818  33.164  1.00  0.00     0.012 A 
ATOM     22  C   UNL A   1      44.462  28.042  32.396  1.00  0.00     0.012 A 
ATOM     23  C   UNL A   1      47.161  27.699  31.837  1.00  0.00     0.047 A 
ATOM     24  C   UNL A   1      44.898  27.954  31.072  1.00  0.00     0.047 A 
BRANCH  20  25
ATOM     25  C   UNL A   1      44.903  27.981  34.838  1.00  0.00     0.029 C 
ATOM     26  O   UNL A   1      41.278  24.731  36.131  1.00  0.00    -0.261 OA
ATOM     27  C   UNL A   1      42.201  25.535  36.065  1.00  0.00     0.290 C 
ATOM     28  N   UNL A   1      42.581  26.374  37.059  1.00  0.00    -0.282 N 
ATOM     29  S   UNL A   1      43.148  25.849  34.629  1.00  0.00    -0.022 SA
ATOM     30  C   UNL A   1      43.512  27.327  36.772  1.00  0.00     0.265 C 
ATOM     31  H   UNL A   1      42.195  26.297  37.962  1.00  0.00     0.174 HD
ATOM     32  C   UNL A   1      43.984  27.164  35.372  1.00  0.00     0.083 C 
ATOM     33  O   UNL A   1      43.851  28.219  37.534  1.00  0.00    -0.268 OA
ENDBRANCH  20  25
ENDBRANCH  18  19
ENDBRANCH  17  18
ENDBRANCH  13  17
ENDBRANCH   7  12
ENDBRANCH   4   6
ENDBRANCH   3   4
ENDBRANCH   2   3
ENDBRANCH   1   2
BRANCH   1  34
ATOM     34  O   UNL A   1      40.820  20.201  27.720  1.00  0.00    -0.374 OA
BRANCH  34  35
ATOM     35  C   UNL A   1      41.027  21.595  27.513  1.00  0.00     0.202 C 
BRANCH  35  36
ATOM     36  C   UNL A   1      40.084  22.365  26.602  1.00  0.00     0.261 C 
BRANCH  36  37
ATOM     37  O   UNL A   1      39.748  23.625  27.147  1.00  0.00    -0.460 OA
BRANCH  37  38
ATOM     38  C   UNL A   1      40.770  24.510  27.120  1.00  0.00     0.338 C 
ATOM     39  O   UNL A   1      41.753  24.484  26.398  1.00  0.00    -0.246 OA
BRANCH  38  40
ATOM     40  C   UNL A   1      40.586  25.453  28.223  1.00  0.00     0.060 A 
ATOM     41  C   UNL A   1      39.394  26.177  28.176  1.00  0.00     0.016 A 
ATOM     42  C   UNL A   1      41.717  25.891  28.924  1.00  0.00     0.016 A 
ATOM     43  C   UNL A   1      39.447  27.494  28.549  1.00  0.00     0.010 A 
ATOM     44  C   UNL A   1      41.776  27.213  29.267  1.00  0.00     0.010 A 
ATOM     45  C   UNL A   1      40.674  28.011  28.975  1.00  0.00    -0.014 A 
BRANCH  45  46
ATOM     46  C   UNL A   1      40.739  29.419  29.272  1.00  0.00     0.031 A 
ATOM     47  C   UNL A   1      41.976  29.998  28.706  1.00  0.00     0.074 A 
ATOM     48  C   UNL A   1      39.730  30.059  29.892  1.00  0.00     0.049 A 
ATOM     49  N   UNL A   1      43.035  30.363  29.348  1.00  0.00    -0.248 NA
ATOM     50  C   UNL A   1      42.172  29.873  27.249  1.00  0.00     0.031 C 
ATOM     51  C   UNL A   1      38.391  29.550  30.204  1.00  0.00     0.029 A 
ATOM     52  N   UNL A   1      39.644  31.367  30.246  1.00  0.00    -0.354 N 
ATOM     53  C   UNL A   1      43.910  30.790  28.353  1.00  0.00     0.074 A 
ATOM     54  C   UNL A   1      43.466  30.167  27.142  1.00  0.00     0.031 C 
ATOM     55  C   UNL A   1      37.565  30.598  30.434  1.00  0.00     0.029 A 
ATOM     56  C   UNL A   1      38.339  31.826  30.398  1.00  0.00     0.049 A 
ATOM     57  H   UNL A   1      40.433  31.939  30.381  1.00  0.00     0.167 HD
ATOM     58  C   UNL A   1      44.653  31.916  28.538  1.00  0.00     0.034 A 
ATOM     59  C   UNL A   1      37.940  33.126  30.380  1.00  0.00     0.034 A 
ATOM     60  C   UNL A   1      44.745  32.229  29.948  1.00  0.00     0.049 A 
ATOM     61  C   UNL A   1      39.150  33.956  30.596  1.00  0.00     0.074 A 
ATOM     62  C   UNL A   1      45.196  31.562  31.070  1.00  0.00     0.029 A 
ATOM     63  N   UNL A   1      43.926  33.234  30.403  1.00  0.00    -0.354 N 
ATOM     64  N   UNL A   1      39.821  33.968  31.714  1.00  0.00    -0.248 NA
ATOM     65  C   UNL A   1      39.882  34.399  29.420  1.00  0.00     0.031 C 
ATOM     66  C   UNL A   1      44.288  31.924  32.108  1.00  0.00     0.029 A 
ATOM     67  C   UNL A   1      43.378  32.850  31.595  1.00  0.00     0.049 A 
ATOM     68  H   UNL A   1      43.761  34.091  29.946  1.00  0.00     0.167 HD
ATOM     69  C   UNL A   1      41.151  33.948  31.312  1.00  0.00     0.074 A 
ATOM     70  C   UNL A   1      41.128  34.322  29.897  1.00  0.00     0.031 C 
ATOM     71  C   UNL A   1      42.100  33.327  32.073  1.00  0.00     0.034 A 
BRANCH  58  72
ATOM     72  C   UNL A   1      44.852  32.988  27.473  1.00  0.00     0.023 A 
ATOM     73  C   UNL A   1      43.974  32.930  26.366  1.00  0.00     0.012 A 
ATOM     74  C   UNL A   1      45.986  33.826  27.330  1.00  0.00     0.148 A 
ATOM     75  C   UNL A   1      44.273  33.558  25.154  1.00  0.00     0.002 A 
ATOM     76  C   UNL A   1      46.258  34.487  26.140  1.00  0.00     0.091 A 
ATOM     77  F   UNL A   1      46.883  33.942  28.306  1.00  0.00    -0.205 F 
ATOM     78  C   UNL A   1      45.424  34.327  25.035  1.00  0.00     0.022 A 
BRANCH  76  79
ATOM     79  S   UNL A   1      47.725  35.514  25.940  1.00  0.00     0.127 S 
ATOM     80  O   UNL A   1      48.300  34.960  24.719  1.00  0.00    -0.237 OA
ATOM     81  O   UNL A   1      47.135  36.845  25.805  1.00  0.00    -0.237 OA
ATOM     82  O   UNL A   1      48.516  35.330  27.151  1.00  0.00    -0.744 OA
ENDBRANCH  76  79
ENDBRANCH  58  72
BRANCH  59  83
ATOM     83  C   UNL A   1      36.681  33.725  29.868  1.00  0.00     0.023 A 
ATOM     84  C   UNL A   1      36.220  33.386  28.577  1.00  0.00     0.012 A 
ATOM     85  C   UNL A   1      35.785  34.388  30.735  1.00  0.00     0.148 A 
ATOM     86  C   UNL A   1      34.907  33.671  28.177  1.00  0.00     0.002 A 
ATOM     87  C   UNL A   1      34.483  34.676  30.332  1.00  0.00     0.091 A 
ATOM     88  F   UNL A   1      36.178  34.651  31.987  1.00  0.00    -0.205 F 
ATOM     89  C   UNL A   1      34.036  34.309  29.057  1.00  0.00     0.022 A 
BRANCH  87  90
ATOM     90  S   UNL A   1      33.293  35.464  31.427  1.00  0.00     0.127 S 
ATOM     91  O   UNL A   1      32.201  35.782  30.507  1.00  0.00    -0.237 OA
ATOM     92  O   UNL A   1      33.001  34.393  32.377  1.00  0.00    -0.237 OA
ATOM     93  O   UNL A   1      33.970  36.629  31.981  1.00  0.00    -0.744 OA
ENDBRANCH  87  90
ENDBRANCH  59  83
BRANCH  71  94
ATOM     94  C   UNL A   1      41.720  32.914  33.473  1.00  0.00     0.023 A 
ATOM     95  C   UNL A   1      41.721  33.806  34.566  1.00  0.00     0.012 A 
ATOM     96  C   UNL A   1      41.181  31.630  33.643  1.00  0.00     0.148 A 
ATOM     97  C   UNL A   1      41.211  33.412  35.808  1.00  0.00     0.002 A 
ATOM     98  C   UNL A   1      40.632  31.260  34.861  1.00  0.00     0.091 A 
ATOM     99  F   UNL A   1      41.188  30.799  32.589  1.00  0.00    -0.205 F 
ATOM    100  C   UNL A   1      40.652  32.144  35.951  1.00  0.00     0.022 A 
BRANCH  98 101
ATOM    101  S   UNL A   1      39.786  29.692  35.059  1.00  0.00     0.127 S 
ATOM    102  O   UNL A   1      39.237  29.810  36.409  1.00  0.00    -0.237 OA
ATOM    103  O   UNL A   1      38.791  29.735  33.986  1.00  0.00    -0.237 OA
ATOM    104  O   UNL A   1      40.803  28.662  34.884  1.00  0.00    -0.744 OA
ENDBRANCH  98 101
ENDBRANCH  71  94
ENDBRANCH  45  46
ENDBRANCH  38  40
ENDBRANCH  37  38
ENDBRANCH  36  37
ENDBRANCH  35  36
ENDBRANCH  34  35
ENDBRANCH   1  34
TORSDOF 22
ENDMDL
MODEL 3
REMARK VINA RESULT:     -10.4      3.302      7.879
REMARK SMILES O=C1NC(=O)/C(=C/c2ccc(OCc3cn(-c4ccc(C(=O)OCCOCCOC(=O)c5ccc(-c6c7nc(c(-c8cccc(S(=O)(=O)[O-])c8F)c8ccc([nH]8)c(-c8cccc(S(=O)(=O)[O-])c8F)c8nc(c(-c9cccc(S(=O)(=O)[O-])c9F)c9ccc6[nH]9)C=C8)C=C7)cc5)cc4)nn3)cc2)S1
REMARK SMILES IDX 25 1 24 2 23 3 21 4 22 5 20 6 17 7 18 8 96 9 19 10 95 11
REMARK SMILES IDX 16 12 14 13 15 14 98 15 97 16 13 17 12 18 11 19 8 20 9 21
REMARK SMILES IDX 100 22 10 23 99 24 7 25 1 26 2 27 3 28 101 29 4 30 6 32 5 33
REMARK SMILES IDX 26 34 27 35 28 36 29 37 30 38 31 39 32 40 33 41 94 42 34 43
REMARK SMILES IDX 93 44 35 45 36 46 37 47 87 48 38 49 92 50 86 51 88 52 39 53
REMARK SMILES IDX 91 54 85 55 84 56 40 58 72 59 52 60 71 61 53 62 56 63 70 64
REMARK SMILES IDX 89 65 54 66 55 67 69 69 90 70 57 71 41 72 42 73 50 74 43 75
REMARK SMILES IDX 45 76 51 77 44 78 46 79 47 80 48 81 49 82 73 83 74 84 82 85
REMARK SMILES IDX 75 86 77 87 83 88 76 89 78 90 79 91 80 92 81 93 58 94 59 95
REMARK SMILES IDX 67 96 60 97 62 98 68 99 61 100 63 101 64 102 65 103 66 104
REMARK H PARENT 3 31 88 57 56 68
REMARK Flexibility Score: inf
ROOT
ATOM      1  C   UNL A   1      36.336  31.846  32.791  1.00  0.00     0.202 C 
ENDROOT
BRANCH   1   2
ATOM      2  C   UNL A   1      36.632  30.700  31.824  1.00  0.00     0.261 C 
BRANCH   2   3
ATOM      3  O   UNL A   1      36.818  31.142  30.473  1.00  0.00    -0.460 OA
BRANCH   3   4
ATOM      4  C   UNL A   1      38.098  31.458  30.169  1.00  0.00     0.338 C 
ATOM      5  O   UNL A   1      38.722  32.442  30.533  1.00  0.00    -0.246 OA
BRANCH   4   6
ATOM      6  C   UNL A   1      38.744  30.347  29.449  1.00  0.00     0.060 A 
ATOM      7  C   UNL A   1      39.657  28.025  28.233  1.00  0.00     0.066 A 
ATOM      8  C   UNL A   1      38.531  28.681  27.715  1.00  0.00     0.029 A 
ATOM      9  C   UNL A   1      40.390  28.592  29.285  1.00  0.00     0.029 A 
ATOM     10  C   UNL A   1      38.057  29.822  28.347  1.00  0.00     0.018 A 
ATOM     11  C   UNL A   1      39.944  29.777  29.880  1.00  0.00     0.018 A 
BRANCH   7  12
ATOM     12  N   UNL A   1      39.948  26.728  27.753  1.00  0.00    -0.220 N 
ATOM     13  C   UNL A   1      39.852  24.592  27.315  1.00  0.00     0.120 A 
ATOM     14  C   UNL A   1      39.581  25.517  28.301  1.00  0.00     0.144 A 
ATOM     15  N   UNL A   1      40.383  25.245  26.236  1.00  0.00    -0.131 NA
ATOM     16  N   UNL A   1      40.437  26.534  26.508  1.00  0.00    -0.062 NA
BRANCH  13  17
ATOM     17  C   UNL A   1      39.538  23.135  27.230  1.00  0.00     0.289 C 
BRANCH  17  18
ATOM     18  O   UNL A   1      39.017  22.681  25.972  1.00  0.00    -0.487 OA
BRANCH  18  19
ATOM     19  C   UNL A   1      37.683  22.854  25.724  1.00  0.00     0.119 A 
ATOM     20  C   UNL A   1      35.022  23.081  24.848  1.00  0.00    -0.024 A 
ATOM     21  C   UNL A   1      35.734  21.899  24.633  1.00  0.00     0.012 A 
ATOM     22  C   UNL A   1      35.618  24.109  25.583  1.00  0.00     0.012 A 
ATOM     23  C   UNL A   1      37.060  21.792  25.066  1.00  0.00     0.047 A 
ATOM     24  C   UNL A   1      36.932  23.984  26.041  1.00  0.00     0.047 A 
BRANCH  20  25
ATOM     25  C   UNL A   1      33.663  23.239  24.325  1.00  0.00     0.029 C 
ATOM     26  O   UNL A   1      29.880  23.026  27.643  1.00  0.00    -0.261 OA
ATOM     27  C   UNL A   1      30.631  23.191  26.688  1.00  0.00     0.290 C 
ATOM     28  N   UNL A   1      30.237  23.343  25.401  1.00  0.00    -0.282 N 
ATOM     29  S   UNL A   1      32.376  23.151  26.775  1.00  0.00    -0.022 SA
ATOM     30  C   UNL A   1      31.197  23.345  24.433  1.00  0.00     0.265 C 
ATOM     31  H   UNL A   1      29.286  23.448  25.170  1.00  0.00     0.174 HD
ATOM     32  C   UNL A   1      32.543  23.257  25.060  1.00  0.00     0.083 C 
ATOM     33  O   UNL A   1      30.975  23.349  23.233  1.00  0.00    -0.268 OA
ENDBRANCH  20  25
ENDBRANCH  18  19
ENDBRANCH  17  18
ENDBRANCH  13  17
ENDBRANCH   7  12
ENDBRANCH   4   6
ENDBRANCH   3   4
ENDBRANCH   2   3
ENDBRANCH   1   2
BRANCH   1  34
ATOM     34  O   UNL A   1      36.984  31.871  34.063  1.00  0.00    -0.374 OA
BRANCH  34  35
ATOM     35  C   UNL A   1      38.378  31.598  34.172  1.00  0.00     0.202 C 
BRANCH  35  36
ATOM     36  C   UNL A   1      38.857  30.519  35.130  1.00  0.00     0.261 C 
BRANCH  36  37
ATOM     37  O   UNL A   1      39.830  29.686  34.530  1.00  0.00    -0.460 OA
BRANCH  37  38
ATOM     38  C   UNL A   1      40.971  29.592  35.247  1.00  0.00     0.338 C 
ATOM     39  O   UNL A   1      41.261  30.204  36.262  1.00  0.00    -0.246 OA
BRANCH  38  40
ATOM     40  C   UNL A   1      41.898  28.724  34.520  1.00  0.00     0.060 A 
ATOM     41  C   UNL A   1      43.247  28.982  34.763  1.00  0.00     0.016 A 
ATOM     42  C   UNL A   1      41.440  28.077  33.364  1.00  0.00     0.016 A 
ATOM     43  C   UNL A   1      44.102  28.894  33.697  1.00  0.00     0.010 A 
ATOM     44  C   UNL A   1      42.288  28.019  32.294  1.00  0.00     0.010 A 
ATOM     45  C   UNL A   1      43.574  28.527  32.455  1.00  0.00    -0.014 A 
BRANCH  45  46
ATOM     46  C   UNL A   1      44.465  28.532  31.322  1.00  0.00     0.031 A 
ATOM     47  C   UNL A   1      44.196  29.712  30.474  1.00  0.00     0.074 A 
ATOM     48  C   UNL A   1      45.439  27.614  31.183  1.00  0.00     0.049 A 
ATOM     49  N   UNL A   1      43.605  29.735  29.327  1.00  0.00    -0.248 NA
ATOM     50  C   UNL A   1      44.324  31.039  31.107  1.00  0.00     0.031 C 
ATOM     51  C   UNL A   1      45.885  26.613  32.157  1.00  0.00     0.029 A 
ATOM     52  N   UNL A   1      46.344  27.480  30.181  1.00  0.00    -0.354 N 
ATOM     53  C   UNL A   1      43.569  31.083  28.983  1.00  0.00     0.074 A 
ATOM     54  C   UNL A   1      43.706  31.807  30.212  1.00  0.00     0.031 C 
ATOM     55  C   UNL A   1      47.122  26.184  31.813  1.00  0.00     0.029 A 
ATOM     56  C   UNL A   1      47.496  26.791  30.547  1.00  0.00     0.049 A 
ATOM     57  H   UNL A   1      46.199  27.840  29.276  1.00  0.00     0.167 HD
ATOM     58  C   UNL A   1      43.837  31.467  27.706  1.00  0.00     0.034 A 
ATOM     59  C   UNL A   1      48.690  26.823  29.898  1.00  0.00     0.034 A 
ATOM     60  C   UNL A   1      43.664  30.352  26.801  1.00  0.00     0.049 A 
ATOM     61  C   UNL A   1      48.432  27.359  28.538  1.00  0.00     0.074 A 
ATOM     62  C   UNL A   1      42.624  29.499  26.488  1.00  0.00     0.029 A 
ATOM     63  N   UNL A   1      44.813  29.727  26.379  1.00  0.00    -0.354 N 
ATOM     64  N   UNL A   1      47.732  26.727  27.639  1.00  0.00    -0.248 NA
ATOM     65  C   UNL A   1      48.545  28.797  28.349  1.00  0.00     0.031 C 
ATOM     66  C   UNL A   1      43.234  28.225  26.292  1.00  0.00     0.029 A 
ATOM     67  C   UNL A   1      44.617  28.374  26.414  1.00  0.00     0.049 A 
ATOM     68  H   UNL A   1      45.641  30.179  26.096  1.00  0.00     0.167 HD
ATOM     69  C   UNL A   1      46.936  27.715  27.072  1.00  0.00     0.074 A 
ATOM     70  C   UNL A   1      47.554  28.980  27.470  1.00  0.00     0.031 C 
ATOM     71  C   UNL A   1      45.686  27.420  26.606  1.00  0.00     0.034 A 
BRANCH  58  72
ATOM     72  C   UNL A   1      44.724  32.653  27.342  1.00  0.00     0.023 A 
ATOM     73  C   UNL A   1      44.178  33.572  26.418  1.00  0.00     0.012 A 
ATOM     74  C   UNL A   1      46.114  32.766  27.591  1.00  0.00     0.148 A 
ATOM     75  C   UNL A   1      44.982  34.455  25.692  1.00  0.00     0.002 A 
ATOM     76  C   UNL A   1      46.906  33.677  26.904  1.00  0.00     0.091 A 
ATOM     77  F   UNL A   1      46.732  31.942  28.434  1.00  0.00    -0.205 F 
ATOM     78  C   UNL A   1      46.351  34.499  25.924  1.00  0.00     0.022 A 
BRANCH  76  79
ATOM     79  S   UNL A   1      48.682  33.788  27.184  1.00  0.00     0.127 S 
ATOM     80  O   UNL A   1      48.750  33.707  28.640  1.00  0.00    -0.237 OA
ATOM     81  O   UNL A   1      49.166  32.608  26.469  1.00  0.00    -0.237 OA
ATOM     82  O   UNL A   1      49.106  35.056  26.601  1.00  0.00    -0.744 OA
ENDBRANCH  76  79
ENDBRANCH  58  72
BRANCH  59  83
ATOM     83  C   UNL A   1      50.069  26.750  30.443  1.00  0.00     0.023 A 
ATOM     84  C   UNL A   1      50.835  27.929  30.572  1.00  0.00     0.012 A 
ATOM     85  C   UNL A   1      50.529  25.589  31.106  1.00  0.00     0.148 A 
ATOM     86  C   UNL A   1      51.997  27.958  31.354  1.00  0.00     0.002 A 
ATOM     87  C   UNL A   1      51.688  25.621  31.878  1.00  0.00     0.091 A 
ATOM     88  F   UNL A   1      49.779  24.482  31.058  1.00  0.00    -0.205 F 
ATOM     89  C   UNL A   1      52.419  26.806  32.014  1.00  0.00     0.022 A 
BRANCH  87  90
ATOM     90  S   UNL A   1      52.273  24.183  32.787  1.00  0.00     0.127 S 
ATOM     91  O   UNL A   1      51.812  24.476  34.144  1.00  0.00    -0.237 OA
ATOM     92  O   UNL A   1      51.562  23.094  32.121  1.00  0.00    -0.237 OA
ATOM     93  O   UNL A   1      53.722  24.175  32.633  1.00  0.00    -0.744 OA
ENDBRANCH  87  90
ENDBRANCH  59  83
BRANCH  71  94
ATOM     94  C   UNL A   1      45.309  25.967  26.472  1.00  0.00     0.023 A 
ATOM     95  C   UNL A   1      45.784  25.141  25.430  1.00  0.00     0.012 A 
ATOM     96  C   UNL A   1      44.595  25.385  27.530  1.00  0.00     0.148 A 
ATOM     97  C   UNL A   1      45.531  23.765  25.440  1.00  0.00     0.002 A 
ATOM     98  C   UNL A   1      44.389  24.014  27.561  1.00  0.00     0.091 A 
ATOM     99  F   UNL A   1      44.154  26.188  28.510  1.00  0.00    -0.205 F 
ATOM    100  C   UNL A   1      44.847  23.199  26.514  1.00  0.00     0.022 A 
BRANCH  98 101
ATOM    101  S   UNL A   1      43.630  23.222  28.979  1.00  0.00     0.127 S 
ATOM    102  O   UNL A   1      44.688  23.317  29.983  1.00  0.00    -0.237 OA
ATOM    103  O   UNL A   1      42.468  24.077  29.230  1.00  0.00    -0.237 OA
ATOM    104  O   UNL A   1      43.290  21.871  28.551  1.00  0.00    -0.744 OA
ENDBRANCH  98 101
ENDBRANCH  71  94
ENDBRANCH  45  46
ENDBRANCH  38  40
ENDBRANCH  37  38
ENDBRANCH  36  37
ENDBRANCH  35  36
ENDBRANCH  34  35
ENDBRANCH   1  34
TORSDOF 22
ENDMDL
