MODEL 1
REMARK VINA RESULT:     -10.8      0.000      0.000
REMARK SMILES CC[NH2+][C@]1(C(=O)OCCOCCOC(=O)c2ccc(-c3c4nc(c(-c5cccc(S(=O)(=O)[O-])c5F)c5ccc([nH]5)c(-c5cccc(S(=O)(=O)[O-])c5F)c5nc(c(-c6cccc(S(=O)(=O)[O-])c6F)c6ccc3[nH]6)C=C5)C=C4)cc2)CCC[C@@H]([N@@H+](C)CC2CCCC2)C1
REMARK SMILES IDX 10 1 9 2 8 3 7 4 5 5 6 6 4 7 79 8 91 9 80 10 82 11 81 12
REMARK SMILES IDX 3 13 2 16 1 17 83 18 84 19 85 21 86 22 87 23 90 24 88 25
REMARK SMILES IDX 89 26 11 27 12 28 13 29 14 30 15 31 16 32 17 33 78 34 18 35
REMARK SMILES IDX 77 36 19 37 20 38 21 39 71 40 22 41 76 42 70 43 72 44 23 45
REMARK SMILES IDX 75 46 69 47 68 48 24 50 56 51 36 52 55 53 37 54 40 55 54 56
REMARK SMILES IDX 73 57 38 58 39 59 53 61 74 62 41 63 25 64 26 65 34 66 27 67
REMARK SMILES IDX 29 68 35 69 28 70 30 71 31 72 32 73 33 74 57 75 58 76 66 77
REMARK SMILES IDX 59 78 61 79 67 80 60 81 62 82 63 83 64 84 65 85 42 86 43 87
REMARK SMILES IDX 51 88 44 89 46 90 52 91 45 92 47 93 48 94 49 95 50 96
REMARK H PARENT 3 14 3 15 83 20 72 49 40 60
REMARK Flexibility Score: inf
ROOT
ATOM      1  O   UNL A   1      32.866  29.675  25.143  1.00  0.00    -0.374 OA
ENDROOT
BRANCH   1   2
ATOM      2  C   UNL A   1      32.874  29.254  23.780  1.00  0.00     0.202 C 
BRANCH   2   3
ATOM      3  C   UNL A   1      34.107  28.502  23.261  1.00  0.00     0.261 C 
BRANCH   3   4
ATOM      4  O   UNL A   1      34.101  27.094  23.563  1.00  0.00    -0.459 OA
BRANCH   4   5
ATOM      5  C   UNL A   1      33.539  26.297  22.603  1.00  0.00     0.368 C 
ATOM      6  O   UNL A   1      33.633  26.507  21.398  1.00  0.00    -0.245 OA
BRANCH   5   7
ATOM      7  C   UNL A   1      32.846  25.038  23.200  1.00  0.00     0.200 C 
ATOM      8  C   UNL A   1      33.366  23.809  22.431  1.00  0.00     0.081 C 
ATOM      9  C   UNL A   1      33.317  24.879  24.667  1.00  0.00     0.146 C 
ATOM     10  C   UNL A   1      32.768  22.510  22.944  1.00  0.00     0.013 C 
ATOM     11  C   UNL A   1      32.932  23.550  25.346  1.00  0.00     0.190 C 
ATOM     12  C   UNL A   1      32.897  22.303  24.448  1.00  0.00     0.065 C 
BRANCH   7  13
ATOM     13  N   UNL A   1      31.361  25.147  23.184  1.00  0.00    -0.332 N 
ATOM     14  H   UNL A   1      31.065  25.264  22.215  1.00  0.00     0.347 HD
ATOM     15  H   UNL A   1      31.012  24.294  23.621  1.00  0.00     0.347 HD
BRANCH  13  16
ATOM     16  C   UNL A   1      30.803  26.256  23.962  1.00  0.00     0.257 C 
ATOM     17  C   UNL A   1      29.838  25.705  25.001  1.00  0.00     0.071 C 
ENDBRANCH  13  16
ENDBRANCH   7  13
BRANCH  11  18
ATOM     18  N   UNL A   1      33.641  23.323  26.628  1.00  0.00    -0.334 N 
ATOM     19  C   UNL A   1      33.139  22.180  27.381  1.00  0.00     0.332 C 
ATOM     20  H   UNL A   1      33.346  24.184  27.089  1.00  0.00     0.348 HD
BRANCH  18  21
ATOM     21  C   UNL A   1      35.081  23.575  26.778  1.00  0.00     0.265 C 
BRANCH  21  22
ATOM     22  C   UNL A   1      36.208  22.951  25.914  1.00  0.00     0.044 C 
ATOM     23  C   UNL A   1      36.099  21.465  25.573  1.00  0.00     0.009 C 
ATOM     24  C   UNL A   1      36.545  23.668  24.603  1.00  0.00     0.009 C 
ATOM     25  C   UNL A   1      36.861  21.294  24.265  1.00  0.00     0.001 C 
ATOM     26  C   UNL A   1      36.662  22.602  23.521  1.00  0.00     0.001 C 
ENDBRANCH  21  22
ENDBRANCH  18  21
ENDBRANCH  11  18
ENDBRANCH   5   7
ENDBRANCH   4   5
ENDBRANCH   3   4
ENDBRANCH   2   3
ENDBRANCH   1   2
BRANCH   1  27
ATOM     27  C   UNL A   1      31.663  30.276  25.617  1.00  0.00     0.202 C 
BRANCH  27  28
ATOM     28  C   UNL A   1      31.778  31.524  26.499  1.00  0.00     0.261 C 
BRANCH  28  29
ATOM     29  O   UNL A   1      32.732  31.355  27.560  1.00  0.00    -0.460 OA
BRANCH  29  30
ATOM     30  C   UNL A   1      33.647  32.353  27.650  1.00  0.00     0.338 C 
ATOM     31  O   UNL A   1      33.433  33.551  27.618  1.00  0.00    -0.246 OA
BRANCH  30  32
ATOM     32  C   UNL A   1      34.966  31.792  27.999  1.00  0.00     0.060 A 
ATOM     33  C   UNL A   1      35.035  30.409  28.212  1.00  0.00     0.016 A 
ATOM     34  C   UNL A   1      36.091  32.598  28.181  1.00  0.00     0.016 A 
ATOM     35  C   UNL A   1      36.213  29.833  28.675  1.00  0.00     0.010 A 
ATOM     36  C   UNL A   1      37.272  32.018  28.652  1.00  0.00     0.010 A 
ATOM     37  C   UNL A   1      37.324  30.642  28.943  1.00  0.00    -0.014 A 
BRANCH  37  38
ATOM     38  C   UNL A   1      38.481  30.067  29.669  1.00  0.00     0.031 A 
ATOM     39  C   UNL A   1      38.766  30.529  31.071  1.00  0.00     0.074 A 
ATOM     40  C   UNL A   1      39.254  29.129  29.092  1.00  0.00     0.049 A 
ATOM     41  N   UNL A   1      39.727  30.172  31.882  1.00  0.00    -0.248 NA
ATOM     42  C   UNL A   1      37.845  31.531  31.634  1.00  0.00     0.031 C 
ATOM     43  C   UNL A   1      39.066  28.594  27.745  1.00  0.00     0.029 A 
ATOM     44  N   UNL A   1      40.363  28.477  29.565  1.00  0.00    -0.354 N 
ATOM     45  C   UNL A   1      39.549  30.926  33.036  1.00  0.00     0.074 A 
ATOM     46  C   UNL A   1      38.395  31.771  32.816  1.00  0.00     0.031 C 
ATOM     47  C   UNL A   1      40.044  27.709  27.489  1.00  0.00     0.029 A 
ATOM     48  C   UNL A   1      40.940  27.638  28.641  1.00  0.00     0.049 A 
ATOM     49  H   UNL A   1      40.713  28.597  30.477  1.00  0.00     0.167 HD
ATOM     50  C   UNL A   1      40.270  30.906  34.182  1.00  0.00     0.034 A 
ATOM     51  C   UNL A   1      42.076  26.916  28.711  1.00  0.00     0.034 A 
ATOM     52  C   UNL A   1      41.408  30.053  34.400  1.00  0.00     0.049 A 
ATOM     53  C   UNL A   1      42.882  26.936  29.984  1.00  0.00     0.074 A 
ATOM     54  C   UNL A   1      42.178  29.921  35.541  1.00  0.00     0.029 A 
ATOM     55  N   UNL A   1      41.949  29.198  33.452  1.00  0.00    -0.354 N 
ATOM     56  N   UNL A   1      42.638  27.569  31.106  1.00  0.00    -0.248 NA
ATOM     57  C   UNL A   1      44.102  26.118  30.009  1.00  0.00     0.031 C 
ATOM     58  C   UNL A   1      43.210  29.016  35.269  1.00  0.00     0.029 A 
ATOM     59  C   UNL A   1      43.056  28.551  33.973  1.00  0.00     0.049 A 
ATOM     60  H   UNL A   1      41.598  29.071  32.540  1.00  0.00     0.167 HD
ATOM     61  C   UNL A   1      43.652  27.198  31.983  1.00  0.00     0.074 A 
ATOM     62  C   UNL A   1      44.501  26.269  31.265  1.00  0.00     0.031 C 
ATOM     63  C   UNL A   1      43.867  27.595  33.261  1.00  0.00     0.034 A 
BRANCH  50  64
ATOM     64  C   UNL A   1      39.844  31.832  35.293  1.00  0.00     0.023 A 
ATOM     65  C   UNL A   1      40.310  33.163  35.316  1.00  0.00     0.012 A 
ATOM     66  C   UNL A   1      38.952  31.396  36.291  1.00  0.00     0.148 A 
ATOM     67  C   UNL A   1      39.926  34.033  36.336  1.00  0.00     0.002 A 
ATOM     68  C   UNL A   1      38.535  32.284  37.277  1.00  0.00     0.091 A 
ATOM     69  F   UNL A   1      38.536  30.122  36.266  1.00  0.00    -0.205 F 
ATOM     70  C   UNL A   1      39.032  33.596  37.310  1.00  0.00     0.022 A 
BRANCH  68  71
ATOM     71  S   UNL A   1      37.324  31.840  38.528  1.00  0.00     0.127 S 
ATOM     72  O   UNL A   1      37.069  30.437  38.207  1.00  0.00    -0.237 OA
ATOM     73  O   UNL A   1      38.072  32.055  39.768  1.00  0.00    -0.237 OA
ATOM     74  O   UNL A   1      36.197  32.741  38.335  1.00  0.00    -0.744 OA
ENDBRANCH  68  71
ENDBRANCH  50  64
BRANCH  51  75
ATOM     75  C   UNL A   1      42.500  26.089  27.547  1.00  0.00     0.023 A 
ATOM     76  C   UNL A   1      43.322  26.655  26.553  1.00  0.00     0.012 A 
ATOM     77  C   UNL A   1      42.113  24.740  27.432  1.00  0.00     0.148 A 
ATOM     78  C   UNL A   1      43.728  25.900  25.452  1.00  0.00     0.002 A 
ATOM     79  C   UNL A   1      42.568  23.977  26.363  1.00  0.00     0.091 A 
ATOM     80  F   UNL A   1      41.320  24.224  28.382  1.00  0.00    -0.205 F 
ATOM     81  C   UNL A   1      43.360  24.560  25.363  1.00  0.00     0.022 A 
BRANCH  79  82
ATOM     82  S   UNL A   1      42.254  22.213  26.233  1.00  0.00     0.127 S 
ATOM     83  O   UNL A   1      42.790  21.720  27.499  1.00  0.00    -0.237 OA
ATOM     84  O   UNL A   1      40.796  22.177  26.124  1.00  0.00    -0.237 OA
ATOM     85  O   UNL A   1      42.958  21.773  25.037  1.00  0.00    -0.744 OA
ENDBRANCH  79  82
ENDBRANCH  51  75
BRANCH  63  86
ATOM     86  C   UNL A   1      45.047  27.001  33.990  1.00  0.00     0.023 A 
ATOM     87  C   UNL A   1      46.298  27.647  33.951  1.00  0.00     0.012 A 
ATOM     88  C   UNL A   1      44.893  25.840  34.774  1.00  0.00     0.148 A 
ATOM     89  C   UNL A   1      47.387  27.126  34.650  1.00  0.00     0.002 A 
ATOM     90  C   UNL A   1      45.967  25.357  35.510  1.00  0.00     0.091 A 
ATOM     91  F   UNL A   1      43.698  25.231  34.786  1.00  0.00    -0.205 F 
ATOM     92  C   UNL A   1      47.219  25.989  35.437  1.00  0.00     0.022 A 
BRANCH  90  93
ATOM     93  S   UNL A   1      45.820  23.958  36.628  1.00  0.00     0.127 S 
ATOM     94  O   UNL A   1      44.695  24.365  37.467  1.00  0.00    -0.237 OA
ATOM     95  O   UNL A   1      45.528  22.857  35.709  1.00  0.00    -0.237 OA
ATOM     96  O   UNL A   1      47.101  23.852  37.311  1.00  0.00    -0.744 OA
ENDBRANCH  90  93
ENDBRANCH  63  86
ENDBRANCH  37  38
ENDBRANCH  30  32
ENDBRANCH  29  30
ENDBRANCH  28  29
ENDBRANCH  27  28
ENDBRANCH   1  27
TORSDOF 22
ENDMDL
MODEL 2
REMARK VINA RESULT:     -10.7      1.196      7.577
REMARK SMILES CC[NH2+][C@]1(C(=O)OCCOCCOC(=O)c2ccc(-c3c4nc(c(-c5cccc(S(=O)(=O)[O-])c5F)c5ccc([nH]5)c(-c5cccc(S(=O)(=O)[O-])c5F)c5nc(c(-c6cccc(S(=O)(=O)[O-])c6F)c6ccc3[nH]6)C=C5)C=C4)cc2)CCC[C@@H]([N@@H+](C)CC2CCCC2)C1
REMARK SMILES IDX 10 1 9 2 8 3 7 4 5 5 6 6 4 7 79 8 91 9 80 10 82 11 81 12
REMARK SMILES IDX 3 13 2 16 1 17 83 18 84 19 85 21 86 22 87 23 90 24 88 25
REMARK SMILES IDX 89 26 11 27 12 28 13 29 14 30 15 31 16 32 17 33 78 34 18 35
REMARK SMILES IDX 77 36 19 37 20 38 21 39 71 40 22 41 76 42 70 43 72 44 23 45
REMARK SMILES IDX 75 46 69 47 68 48 24 50 56 51 36 52 55 53 37 54 40 55 54 56
REMARK SMILES IDX 73 57 38 58 39 59 53 61 74 62 41 63 25 64 26 65 34 66 27 67
REMARK SMILES IDX 29 68 35 69 28 70 30 71 31 72 32 73 33 74 57 75 58 76 66 77
REMARK SMILES IDX 59 78 61 79 67 80 60 81 62 82 63 83 64 84 65 85 42 86 43 87
REMARK SMILES IDX 51 88 44 89 46 90 52 91 45 92 47 93 48 94 49 95 50 96
REMARK H PARENT 3 14 3 15 83 20 72 49 40 60
REMARK Flexibility Score: inf
ROOT
ATOM      1  O   UNL A   1      32.167  29.098  24.918  1.00  0.00    -0.374 OA
ENDROOT
BRANCH   1   2
ATOM      2  C   UNL A   1      32.741  28.944  23.621  1.00  0.00     0.202 C 
BRANCH   2   3
ATOM      3  C   UNL A   1      34.041  28.138  23.494  1.00  0.00     0.261 C 
BRANCH   3   4
ATOM      4  O   UNL A   1      33.879  26.729  23.738  1.00  0.00    -0.459 OA
BRANCH   4   5
ATOM      5  C   UNL A   1      33.483  25.995  22.654  1.00  0.00     0.368 C 
ATOM      6  O   UNL A   1      33.772  26.273  21.495  1.00  0.00    -0.245 OA
BRANCH   5   7
ATOM      7  C   UNL A   1      32.701  24.709  23.054  1.00  0.00     0.200 C 
ATOM      8  C   UNL A   1      33.283  23.537  22.243  1.00  0.00     0.081 C 
ATOM      9  C   UNL A   1      32.995  24.411  24.545  1.00  0.00     0.146 C 
ATOM     10  C   UNL A   1      32.605  22.216  22.567  1.00  0.00     0.013 C 
ATOM     11  C   UNL A   1      32.509  23.040  25.055  1.00  0.00     0.190 C 
ATOM     12  C   UNL A   1      32.555  21.877  24.052  1.00  0.00     0.065 C 
BRANCH   7  13
ATOM     13  N   UNL A   1      31.230  24.863  22.879  1.00  0.00    -0.332 N 
ATOM     14  H   UNL A   1      31.066  25.317  21.981  1.00  0.00     0.347 HD
ATOM     15  H   UNL A   1      30.841  23.923  22.942  1.00  0.00     0.347 HD
BRANCH  13  16
ATOM     16  C   UNL A   1      30.552  25.650  23.912  1.00  0.00     0.257 C 
ATOM     17  C   UNL A   1      29.826  26.816  23.260  1.00  0.00     0.071 C 
ENDBRANCH  13  16
ENDBRANCH   7  13
BRANCH  11  18
ATOM     18  N   UNL A   1      33.061  22.684  26.385  1.00  0.00    -0.334 N 
ATOM     19  C   UNL A   1      32.066  22.685  27.451  1.00  0.00     0.332 C 
ATOM     20  H   UNL A   1      33.668  23.496  26.491  1.00  0.00     0.348 HD
BRANCH  18  21
ATOM     21  C   UNL A   1      34.133  21.691  26.544  1.00  0.00     0.265 C 
BRANCH  21  22
ATOM     22  C   UNL A   1      35.593  21.841  26.039  1.00  0.00     0.044 C 
ATOM     23  C   UNL A   1      35.954  21.177  24.711  1.00  0.00     0.009 C 
ATOM     24  C   UNL A   1      36.153  23.264  25.974  1.00  0.00     0.009 C 
ATOM     25  C   UNL A   1      37.115  21.993  24.155  1.00  0.00     0.001 C 
ATOM     26  C   UNL A   1      36.862  23.411  24.633  1.00  0.00     0.001 C 
ENDBRANCH  21  22
ENDBRANCH  18  21
ENDBRANCH  11  18
ENDBRANCH   5   7
ENDBRANCH   4   5
ENDBRANCH   3   4
ENDBRANCH   2   3
ENDBRANCH   1   2
BRANCH   1  27
ATOM     27  C   UNL A   1      31.209  30.144  25.070  1.00  0.00     0.202 C 
BRANCH  27  28
ATOM     28  C   UNL A   1      31.433  31.169  26.188  1.00  0.00     0.261 C 
BRANCH  28  29
ATOM     29  O   UNL A   1      32.588  30.864  26.985  1.00  0.00    -0.460 OA
BRANCH  29  30
ATOM     30  C   UNL A   1      33.325  31.947  27.337  1.00  0.00     0.338 C 
ATOM     31  O   UNL A   1      32.941  33.099  27.425  1.00  0.00    -0.246 OA
BRANCH  30  32
ATOM     32  C   UNL A   1      34.656  31.516  27.806  1.00  0.00     0.060 A 
ATOM     33  C   UNL A   1      34.820  30.155  28.093  1.00  0.00     0.016 A 
ATOM     34  C   UNL A   1      35.694  32.422  28.026  1.00  0.00     0.016 A 
ATOM     35  C   UNL A   1      36.004  29.702  28.667  1.00  0.00     0.010 A 
ATOM     36  C   UNL A   1      36.881  31.966  28.608  1.00  0.00     0.010 A 
ATOM     37  C   UNL A   1      37.022  30.614  28.971  1.00  0.00    -0.014 A 
BRANCH  37  38
ATOM     38  C   UNL A   1      38.165  30.172  29.805  1.00  0.00     0.031 A 
ATOM     39  C   UNL A   1      39.172  29.222  29.219  1.00  0.00     0.074 A 
ATOM     40  C   UNL A   1      38.313  30.630  31.061  1.00  0.00     0.049 A 
ATOM     41  N   UNL A   1      40.235  28.697  29.770  1.00  0.00    -0.248 NA
ATOM     42  C   UNL A   1      38.949  28.803  27.825  1.00  0.00     0.031 C 
ATOM     43  C   UNL A   1      37.410  31.563  31.730  1.00  0.00     0.029 A 
ATOM     44  N   UNL A   1      39.272  30.353  32.002  1.00  0.00    -0.354 N 
ATOM     45  C   UNL A   1      40.790  27.864  28.806  1.00  0.00     0.074 A 
ATOM     46  C   UNL A   1      39.937  27.940  27.639  1.00  0.00     0.031 C 
ATOM     47  C   UNL A   1      37.844  31.765  32.985  1.00  0.00     0.029 A 
ATOM     48  C   UNL A   1      39.038  30.954  33.215  1.00  0.00     0.049 A 
ATOM     49  H   UNL A   1      40.052  29.779  31.825  1.00  0.00     0.167 HD
ATOM     50  C   UNL A   1      41.916  27.114  28.879  1.00  0.00     0.034 A 
ATOM     51  C   UNL A   1      39.698  30.840  34.384  1.00  0.00     0.034 A 
ATOM     52  C   UNL A   1      42.766  27.053  30.037  1.00  0.00     0.049 A 
ATOM     53  C   UNL A   1      40.928  29.973  34.452  1.00  0.00     0.074 A 
ATOM     54  C   UNL A   1      43.954  26.363  30.197  1.00  0.00     0.029 A 
ATOM     55  N   UNL A   1      42.512  27.695  31.240  1.00  0.00    -0.354 N 
ATOM     56  N   UNL A   1      41.502  29.278  33.499  1.00  0.00    -0.248 NA
ATOM     57  C   UNL A   1      41.617  29.899  35.747  1.00  0.00     0.031 C 
ATOM     58  C   UNL A   1      44.397  26.554  31.510  1.00  0.00     0.029 A 
ATOM     59  C   UNL A   1      43.508  27.400  32.155  1.00  0.00     0.049 A 
ATOM     60  H   UNL A   1      41.736  28.274  31.418  1.00  0.00     0.167 HD
ATOM     61  C   UNL A   1      42.639  28.715  34.069  1.00  0.00     0.074 A 
ATOM     62  C   UNL A   1      42.681  29.167  35.445  1.00  0.00     0.031 C 
ATOM     63  C   UNL A   1      43.560  27.892  33.509  1.00  0.00     0.034 A 
BRANCH  50  64
ATOM     64  C   UNL A   1      42.295  26.302  27.666  1.00  0.00     0.023 A 
ATOM     65  C   UNL A   1      43.067  26.888  26.642  1.00  0.00     0.012 A 
ATOM     66  C   UNL A   1      41.919  24.950  27.560  1.00  0.00     0.148 A 
ATOM     67  C   UNL A   1      43.426  26.151  25.513  1.00  0.00     0.002 A 
ATOM     68  C   UNL A   1      42.322  24.208  26.454  1.00  0.00     0.091 A 
ATOM     69  F   UNL A   1      41.166  24.415  28.531  1.00  0.00    -0.205 F 
ATOM     70  C   UNL A   1      43.061  24.810  25.425  1.00  0.00     0.022 A 
BRANCH  68  71
ATOM     71  S   UNL A   1      41.971  22.454  26.286  1.00  0.00     0.127 S 
ATOM     72  O   UNL A   1      42.763  22.107  25.108  1.00  0.00    -0.237 OA
ATOM     73  O   UNL A   1      42.486  21.917  27.546  1.00  0.00    -0.237 OA
ATOM     74  O   UNL A   1      40.529  22.345  26.124  1.00  0.00    -0.744 OA
ENDBRANCH  68  71
ENDBRANCH  50  64
BRANCH  51  75
ATOM     75  C   UNL A   1      39.224  31.594  35.579  1.00  0.00     0.023 A 
ATOM     76  C   UNL A   1      38.244  31.026  36.417  1.00  0.00     0.012 A 
ATOM     77  C   UNL A   1      39.755  32.857  35.902  1.00  0.00     0.148 A 
ATOM     78  C   UNL A   1      37.782  31.716  37.538  1.00  0.00     0.002 A 
ATOM     79  C   UNL A   1      39.334  33.514  37.052  1.00  0.00     0.091 A 
ATOM     80  F   UNL A   1      40.678  33.385  35.084  1.00  0.00    -0.205 F 
ATOM     81  C   UNL A   1      38.334  32.953  37.861  1.00  0.00     0.022 A 
BRANCH  79  82
ATOM     82  S   UNL A   1      40.079  35.046  37.617  1.00  0.00     0.127 S 
ATOM     83  O   UNL A   1      39.875  35.921  36.465  1.00  0.00    -0.237 OA
ATOM     84  O   UNL A   1      39.258  35.364  38.786  1.00  0.00    -0.237 OA
ATOM     85  O   UNL A   1      41.465  34.723  37.926  1.00  0.00    -0.744 OA
ENDBRANCH  79  82
ENDBRANCH  51  75
BRANCH  63  86
ATOM     86  C   UNL A   1      44.719  27.451  34.367  1.00  0.00     0.023 A 
ATOM     87  C   UNL A   1      45.885  28.240  34.437  1.00  0.00     0.012 A 
ATOM     88  C   UNL A   1      44.623  26.289  35.160  1.00  0.00     0.148 A 
ATOM     89  C   UNL A   1      46.950  27.859  35.253  1.00  0.00     0.002 A 
ATOM     90  C   UNL A   1      45.666  25.946  36.010  1.00  0.00     0.091 A 
ATOM     91  F   UNL A   1      43.512  25.543  35.067  1.00  0.00    -0.205 F 
ATOM     92  C   UNL A   1      46.836  26.721  36.047  1.00  0.00     0.022 A 
BRANCH  90  93
ATOM     93  S   UNL A   1      45.569  24.553  37.142  1.00  0.00     0.127 S 
ATOM     94  O   UNL A   1      44.551  25.008  38.087  1.00  0.00    -0.237 OA
ATOM     95  O   UNL A   1      45.141  23.467  36.259  1.00  0.00    -0.237 OA
ATOM     96  O   UNL A   1      46.906  24.391  37.696  1.00  0.00    -0.744 OA
ENDBRANCH  90  93
ENDBRANCH  63  86
ENDBRANCH  37  38
ENDBRANCH  30  32
ENDBRANCH  29  30
ENDBRANCH  28  29
ENDBRANCH  27  28
ENDBRANCH   1  27
TORSDOF 22
ENDMDL
MODEL 3
REMARK VINA RESULT:     -10.6      1.836      2.147
REMARK SMILES CC[NH2+][C@]1(C(=O)OCCOCCOC(=O)c2ccc(-c3c4nc(c(-c5cccc(S(=O)(=O)[O-])c5F)c5ccc([nH]5)c(-c5cccc(S(=O)(=O)[O-])c5F)c5nc(c(-c6cccc(S(=O)(=O)[O-])c6F)c6ccc3[nH]6)C=C5)C=C4)cc2)CCC[C@@H]([N@@H+](C)CC2CCCC2)C1
REMARK SMILES IDX 10 1 9 2 8 3 7 4 5 5 6 6 4 7 79 8 91 9 80 10 82 11 81 12
REMARK SMILES IDX 3 13 2 16 1 17 83 18 84 19 85 21 86 22 87 23 90 24 88 25
REMARK SMILES IDX 89 26 11 27 12 28 13 29 14 30 15 31 16 32 17 33 78 34 18 35
REMARK SMILES IDX 77 36 19 37 20 38 21 39 71 40 22 41 76 42 70 43 72 44 23 45
REMARK SMILES IDX 75 46 69 47 68 48 24 50 56 51 36 52 55 53 37 54 40 55 54 56
REMARK SMILES IDX 73 57 38 58 39 59 53 61 74 62 41 63 25 64 26 65 34 66 27 67
REMARK SMILES IDX 29 68 35 69 28 70 30 71 31 72 32 73 33 74 57 75 58 76 66 77
REMARK SMILES IDX 59 78 61 79 67 80 60 81 62 82 63 83 64 84 65 85 42 86 43 87
REMARK SMILES IDX 51 88 44 89 46 90 52 91 45 92 47 93 48 94 49 95 50 96
REMARK H PARENT 3 14 3 15 83 20 72 49 40 60
REMARK Flexibility Score: inf
ROOT
ATOM      1  O   UNL A   1      32.779  29.220  24.806  1.00  0.00    -0.374 OA
ENDROOT
BRANCH   1   2
ATOM      2  C   UNL A   1      32.843  29.098  23.386  1.00  0.00     0.202 C 
BRANCH   2   3
ATOM      3  C   UNL A   1      33.887  28.146  22.785  1.00  0.00     0.261 C 
BRANCH   3   4
ATOM      4  O   UNL A   1      33.750  26.781  23.222  1.00  0.00    -0.459 OA
BRANCH   4   5
ATOM      5  C   UNL A   1      33.287  25.912  22.272  1.00  0.00     0.368 C 
ATOM      6  O   UNL A   1      33.424  26.081  21.064  1.00  0.00    -0.245 OA
BRANCH   5   7
ATOM      7  C   UNL A   1      32.649  24.634  22.889  1.00  0.00     0.200 C 
ATOM      8  C   UNL A   1      33.245  23.415  22.161  1.00  0.00     0.081 C 
ATOM      9  C   UNL A   1      33.100  24.536  24.368  1.00  0.00     0.146 C 
ATOM     10  C   UNL A   1      32.707  22.099  22.697  1.00  0.00     0.013 C 
ATOM     11  C   UNL A   1      32.771  23.206  25.074  1.00  0.00     0.190 C 
ATOM     12  C   UNL A   1      32.818  21.937  24.209  1.00  0.00     0.065 C 
BRANCH   7  13
ATOM     13  N   UNL A   1      31.161  24.665  22.845  1.00  0.00    -0.332 N 
ATOM     14  H   UNL A   1      30.882  25.089  21.960  1.00  0.00     0.347 HD
ATOM     15  H   UNL A   1      30.856  23.698  22.952  1.00  0.00     0.347 HD
BRANCH  13  16
ATOM     16  C   UNL A   1      30.514  25.413  23.926  1.00  0.00     0.257 C 
ATOM     17  C   UNL A   1      29.750  26.588  23.338  1.00  0.00     0.071 C 
ENDBRANCH  13  16
ENDBRANCH   7  13
BRANCH  11  18
ATOM     18  N   UNL A   1      33.467  23.049  26.374  1.00  0.00    -0.334 N 
ATOM     19  C   UNL A   1      33.136  21.812  27.071  1.00  0.00     0.332 C 
ATOM     20  H   UNL A   1      33.022  23.833  26.851  1.00  0.00     0.348 HD
BRANCH  18  21
ATOM     21  C   UNL A   1      34.842  23.525  26.585  1.00  0.00     0.265 C 
BRANCH  21  22
ATOM     22  C   UNL A   1      36.098  23.054  25.805  1.00  0.00     0.044 C 
ATOM     23  C   UNL A   1      36.303  21.549  25.636  1.00  0.00     0.009 C 
ATOM     24  C   UNL A   1      36.319  23.676  24.423  1.00  0.00     0.009 C 
ATOM     25  C   UNL A   1      37.122  21.395  24.360  1.00  0.00     0.001 C 
ATOM     26  C   UNL A   1      36.682  22.544  23.471  1.00  0.00     0.001 C 
ENDBRANCH  21  22
ENDBRANCH  18  21
ENDBRANCH  11  18
ENDBRANCH   5   7
ENDBRANCH   4   5
ENDBRANCH   3   4
ENDBRANCH   2   3
ENDBRANCH   1   2
BRANCH   1  27
ATOM     27  C   UNL A   1      31.563  29.729  25.348  1.00  0.00     0.202 C 
BRANCH  27  28
ATOM     28  C   UNL A   1      31.632  30.990  26.217  1.00  0.00     0.261 C 
BRANCH  28  29
ATOM     29  O   UNL A   1      32.553  30.848  27.310  1.00  0.00    -0.460 OA
BRANCH  29  30
ATOM     30  C   UNL A   1      33.371  31.915  27.492  1.00  0.00     0.338 C 
ATOM     31  O   UNL A   1      33.053  33.090  27.515  1.00  0.00    -0.246 OA
BRANCH  30  32
ATOM     32  C   UNL A   1      34.721  31.452  27.865  1.00  0.00     0.060 A 
ATOM     33  C   UNL A   1      34.891  30.075  28.062  1.00  0.00     0.016 A 
ATOM     34  C   UNL A   1      35.776  32.339  28.085  1.00  0.00     0.016 A 
ATOM     35  C   UNL A   1      36.099  29.585  28.547  1.00  0.00     0.010 A 
ATOM     36  C   UNL A   1      36.987  31.845  28.577  1.00  0.00     0.010 A 
ATOM     37  C   UNL A   1      37.138  30.473  28.851  1.00  0.00    -0.014 A 
BRANCH  37  38
ATOM     38  C   UNL A   1      38.319  29.978  29.598  1.00  0.00     0.031 A 
ATOM     39  C   UNL A   1      38.538  30.443  31.011  1.00  0.00     0.074 A 
ATOM     40  C   UNL A   1      39.172  29.107  29.030  1.00  0.00     0.049 A 
ATOM     41  N   UNL A   1      39.505  30.151  31.840  1.00  0.00    -0.248 NA
ATOM     42  C   UNL A   1      37.532  31.367  31.562  1.00  0.00     0.031 C 
ATOM     43  C   UNL A   1      39.055  28.575  27.674  1.00  0.00     0.029 A 
ATOM     44  N   UNL A   1      40.317  28.534  29.521  1.00  0.00    -0.354 N 
ATOM     45  C   UNL A   1      39.246  30.876  32.996  1.00  0.00     0.074 A 
ATOM     46  C   UNL A   1      38.037  31.635  32.758  1.00  0.00     0.031 C 
ATOM     47  C   UNL A   1      40.102  27.769  27.431  1.00  0.00     0.029 A 
ATOM     48  C   UNL A   1      40.976  27.751  28.603  1.00  0.00     0.049 A 
ATOM     49  H   UNL A   1      40.637  28.670  30.442  1.00  0.00     0.167 HD
ATOM     50  C   UNL A   1      39.941  30.896  34.158  1.00  0.00     0.034 A 
ATOM     51  C   UNL A   1      42.160  27.116  28.691  1.00  0.00     0.034 A 
ATOM     52  C   UNL A   1      41.135  30.129  34.393  1.00  0.00     0.049 A 
ATOM     53  C   UNL A   1      42.935  27.182  29.981  1.00  0.00     0.074 A 
ATOM     54  C   UNL A   1      41.888  30.042  35.551  1.00  0.00     0.029 A 
ATOM     55  N   UNL A   1      41.759  29.328  33.449  1.00  0.00    -0.354 N 
ATOM     56  N   UNL A   1      42.619  27.782  31.104  1.00  0.00    -0.248 NA
ATOM     57  C   UNL A   1      44.212  26.457  30.027  1.00  0.00     0.031 C 
ATOM     58  C   UNL A   1      42.990  29.220  35.293  1.00  0.00     0.029 A 
ATOM     59  C   UNL A   1      42.899  28.759  33.990  1.00  0.00     0.049 A 
ATOM     60  H   UNL A   1      41.438  29.185  32.529  1.00  0.00     0.167 HD
ATOM     61  C   UNL A   1      43.639  27.478  32.000  1.00  0.00     0.074 A 
ATOM     62  C   UNL A   1      44.572  26.623  31.293  1.00  0.00     0.031 C 
ATOM     63  C   UNL A   1      43.796  27.875  33.286  1.00  0.00     0.034 A 
BRANCH  50  64
ATOM     64  C   UNL A   1      39.422  31.776  35.268  1.00  0.00     0.023 A 
ATOM     65  C   UNL A   1      38.521  31.251  36.218  1.00  0.00     0.012 A 
ATOM     66  C   UNL A   1      39.857  33.109  35.392  1.00  0.00     0.148 A 
ATOM     67  C   UNL A   1      38.031  32.052  37.250  1.00  0.00     0.002 A 
ATOM     68  C   UNL A   1      39.402  33.886  36.452  1.00  0.00     0.091 A 
ATOM     69  F   UNL A   1      40.696  33.598  34.468  1.00  0.00    -0.205 F 
ATOM     70  C   UNL A   1      38.479  33.364  37.372  1.00  0.00     0.022 A 
BRANCH  68  71
ATOM     71  S   UNL A   1      39.981  35.562  36.742  1.00  0.00     0.127 S 
ATOM     72  O   UNL A   1      39.536  36.242  35.527  1.00  0.00    -0.237 OA
ATOM     73  O   UNL A   1      39.247  35.934  37.952  1.00  0.00    -0.237 OA
ATOM     74  O   UNL A   1      41.424  35.466  36.912  1.00  0.00    -0.744 OA
ENDBRANCH  68  71
ENDBRANCH  50  64
BRANCH  51  75
ATOM     75  C   UNL A   1      42.671  26.336  27.529  1.00  0.00     0.023 A 
ATOM     76  C   UNL A   1      43.566  26.940  26.624  1.00  0.00     0.012 A 
ATOM     77  C   UNL A   1      42.293  24.994  27.329  1.00  0.00     0.148 A 
ATOM     78  C   UNL A   1      44.054  26.230  25.527  1.00  0.00     0.002 A 
ATOM     79  C   UNL A   1      42.827  24.275  26.267  1.00  0.00     0.091 A 
ATOM     80  F   UNL A   1      41.431  24.443  28.194  1.00  0.00    -0.205 F 
ATOM     81  C   UNL A   1      43.693  24.896  25.354  1.00  0.00     0.022 A 
BRANCH  79  82
ATOM     82  S   UNL A   1      42.524  22.520  26.040  1.00  0.00     0.127 S 
ATOM     83  O   UNL A   1      43.270  22.242  24.816  1.00  0.00    -0.237 OA
ATOM     84  O   UNL A   1      43.106  21.956  27.259  1.00  0.00    -0.237 OA
ATOM     85  O   UNL A   1      41.077  22.376  25.944  1.00  0.00    -0.744 OA
ENDBRANCH  79  82
ENDBRANCH  51  75
BRANCH  63  86
ATOM     86  C   UNL A   1      45.000  27.363  34.037  1.00  0.00     0.023 A 
ATOM     87  C   UNL A   1      44.922  26.153  34.754  1.00  0.00     0.012 A 
ATOM     88  C   UNL A   1      46.231  28.048  33.970  1.00  0.00     0.148 A 
ATOM     89  C   UNL A   1      46.038  25.653  35.423  1.00  0.00     0.002 A 
ATOM     90  C   UNL A   1      47.351  27.516  34.594  1.00  0.00     0.091 A 
ATOM     91  F   UNL A   1      46.281  29.206  33.295  1.00  0.00    -0.205 F 
ATOM     92  C   UNL A   1      47.254  26.326  35.333  1.00  0.00     0.022 A 
BRANCH  90  93
ATOM     93  S   UNL A   1      48.980  28.261  34.451  1.00  0.00     0.127 S 
ATOM     94  O   UNL A   1      49.796  27.348  35.250  1.00  0.00    -0.237 OA
ATOM     95  O   UNL A   1      49.225  28.194  33.010  1.00  0.00    -0.237 OA
ATOM     96  O   UNL A   1      48.854  29.611  34.981  1.00  0.00    -0.744 OA
ENDBRANCH  90  93
ENDBRANCH  63  86
ENDBRANCH  37  38
ENDBRANCH  30  32
ENDBRANCH  29  30
ENDBRANCH  28  29
ENDBRANCH  27  28
ENDBRANCH   1  27
TORSDOF 22
ENDMDL
