MODEL 1
REMARK VINA RESULT:      -8.4      0.000      0.000
REMARK SMILES COc1ccc(OC)c(-c2cc(-c3ccccc3)nc(S[C@H](C)C(=O)OCCOCCOC(=O)c3ccc(-c4c5nc(c(-c6cccc(S(=O)(=O)[O-])c6F)c6ccc([nH]6)c(-c6cccc(S(=O)(=O)[O-])c6F)c6nc(c(-c7cccc(S(=O)(=O)[O-])c7F)c7ccc4[nH]7)C=C6)C=C5)cc3)c2C#N)c1
REMARK SMILES IDX 28 1 27 2 26 3 24 4 25 5 22 6 23 7 21 8 20 9 10 10 11 11
REMARK SMILES IDX 98 12 12 13 19 14 9 15 3 16 4 17 101 18 5 19 6 20 2 21 1 22
REMARK SMILES IDX 7 23 8 24 99 25 100 26 13 27 14 28 18 29 15 30 17 31 16 32
REMARK SMILES IDX 29 33 30 34 31 35 32 36 33 37 34 38 35 39 36 40 97 41 37 42
REMARK SMILES IDX 96 43 38 44 39 45 40 46 90 47 41 48 95 49 89 50 91 51 42 52
REMARK SMILES IDX 94 53 88 54 87 55 43 57 75 58 55 59 74 60 56 61 59 62 73 63
REMARK SMILES IDX 92 64 57 65 58 66 72 68 93 69 60 70 44 71 45 72 53 73 46 74
REMARK SMILES IDX 48 75 54 76 47 77 49 78 50 79 51 80 52 81 76 82 77 83 85 84
REMARK SMILES IDX 78 85 80 86 86 87 79 88 81 89 82 90 83 91 84 92 61 93 62 94
REMARK SMILES IDX 70 95 63 96 65 97 71 98 64 99 66 100 67 101 68 102 69 103
REMARK H PARENT 91 56 59 67
REMARK Flexibility Score: inf
ROOT
ATOM      1  C   UNL A   1      44.205  22.570  27.453  1.00  0.00     0.202 C 
ENDROOT
BRANCH   1   2
ATOM      2  C   UNL A   1      45.479  23.422  27.501  1.00  0.00     0.261 C 
BRANCH   2   3
ATOM      3  O   UNL A   1      45.790  24.025  26.232  1.00  0.00    -0.462 OA
BRANCH   3   4
ATOM      4  C   UNL A   1      46.136  25.340  26.293  1.00  0.00     0.319 C 
ATOM      5  O   UNL A   1      46.267  25.973  27.338  1.00  0.00    -0.251 OA
BRANCH   4   6
ATOM      6  C   UNL A   1      46.416  25.964  24.931  1.00  0.00     0.160 C 
ATOM      7  C   UNL A   1      46.270  27.475  24.803  1.00  0.00     0.032 C 
BRANCH   6   8
ATOM      8  S   UNL A   1      47.902  25.168  24.220  1.00  0.00    -0.090 SA
BRANCH   8   9
ATOM      9  C   UNL A   1      49.259  26.319  24.442  1.00  0.00     0.116 A 
ATOM     10  C   UNL A   1      51.334  26.850  25.544  1.00  0.00     0.008 A 
ATOM     11  C   UNL A   1      51.696  27.571  24.400  1.00  0.00     0.039 A 
ATOM     12  C   UNL A   1      50.079  26.206  25.563  1.00  0.00     0.092 A 
ATOM     13  C   UNL A   1      50.782  27.728  23.370  1.00  0.00     0.072 A 
ATOM     14  N   UNL A   1      49.583  27.102  23.390  1.00  0.00    -0.240 NA
BRANCH  10  15
ATOM     15  C   UNL A   1      52.294  26.701  26.649  1.00  0.00     0.029 A 
ATOM     16  C   UNL A   1      53.258  27.808  28.629  1.00  0.00     0.119 A 
ATOM     17  C   UNL A   1      54.209  26.802  28.712  1.00  0.00     0.050 A 
ATOM     18  C   UNL A   1      52.306  27.747  27.614  1.00  0.00     0.059 A 
ATOM     19  C   UNL A   1      54.183  25.740  27.808  1.00  0.00     0.051 A 
ATOM     20  C   UNL A   1      53.237  25.666  26.773  1.00  0.00     0.127 A 
BRANCH  16  21
ATOM     21  O   UNL A   1      53.393  28.819  29.539  1.00  0.00    -0.497 OA
ATOM     22  C   UNL A   1      54.656  28.926  30.184  1.00  0.00     0.278 C 
ENDBRANCH  16  21
BRANCH  20  23
ATOM     23  O   UNL A   1      53.459  24.563  26.006  1.00  0.00    -0.496 OA
ATOM     24  C   UNL A   1      54.741  24.148  25.580  1.00  0.00     0.278 C 
ENDBRANCH  20  23
ENDBRANCH  10  15
BRANCH  12  25
ATOM     25  C   UNL A   1      49.688  25.379  26.674  1.00  0.00     0.103 C 
ATOM     26  N   UNL A   1      49.359  24.762  27.599  1.00  0.00    -0.192 NA
ENDBRANCH  12  25
BRANCH  13  27
ATOM     27  C   UNL A   1      51.069  28.551  22.187  1.00  0.00     0.000 A 
ATOM     28  C   UNL A   1      50.869  28.050  20.889  1.00  0.00     0.010 A 
ATOM     29  C   UNL A   1      51.534  29.872  22.317  1.00  0.00     0.010 A 
ATOM     30  C   UNL A   1      51.117  28.843  19.765  1.00  0.00     0.001 A 
ATOM     31  C   UNL A   1      51.789  30.662  21.194  1.00  0.00     0.001 A 
ATOM     32  C   UNL A   1      51.579  30.148  19.918  1.00  0.00     0.000 A 
ENDBRANCH  13  27
ENDBRANCH   8   9
ENDBRANCH   6   8
ENDBRANCH   4   6
ENDBRANCH   3   4
ENDBRANCH   2   3
ENDBRANCH   1   2
BRANCH   1  33
ATOM     33  O   UNL A   1      43.292  22.746  26.372  1.00  0.00    -0.374 OA
BRANCH  33  34
ATOM     34  C   UNL A   1      42.720  21.584  25.781  1.00  0.00     0.202 C 
BRANCH  34  35
ATOM     35  C   UNL A   1      41.260  21.220  26.094  1.00  0.00     0.261 C 
BRANCH  35  36
ATOM     36  O   UNL A   1      40.647  22.062  27.086  1.00  0.00    -0.460 OA
BRANCH  36  37
ATOM     37  C   UNL A   1      39.549  22.725  26.641  1.00  0.00     0.338 C 
ATOM     38  O   UNL A   1      38.565  22.237  26.107  1.00  0.00    -0.246 OA
BRANCH  37  39
ATOM     39  C   UNL A   1      39.578  24.136  27.065  1.00  0.00     0.060 A 
ATOM     40  C   UNL A   1      40.080  25.065  26.146  1.00  0.00     0.016 A 
ATOM     41  C   UNL A   1      39.246  24.528  28.361  1.00  0.00     0.016 A 
ATOM     42  C   UNL A   1      40.312  26.378  26.538  1.00  0.00     0.010 A 
ATOM     43  C   UNL A   1      39.479  25.852  28.755  1.00  0.00     0.010 A 
ATOM     44  C   UNL A   1      40.056  26.771  27.858  1.00  0.00    -0.014 A 
BRANCH  44  45
ATOM     45  C   UNL A   1      40.506  28.115  28.301  1.00  0.00     0.031 A 
ATOM     46  C   UNL A   1      41.971  28.460  28.276  1.00  0.00     0.074 A 
ATOM     47  C   UNL A   1      39.604  29.041  28.676  1.00  0.00     0.049 A 
ATOM     48  N   UNL A   1      42.559  29.583  28.598  1.00  0.00    -0.248 NA
ATOM     49  C   UNL A   1      42.897  27.406  27.829  1.00  0.00     0.031 C 
ATOM     50  C   UNL A   1      38.158  28.831  28.734  1.00  0.00     0.029 A 
ATOM     51  N   UNL A   1      39.775  30.337  29.091  1.00  0.00    -0.354 N 
ATOM     52  C   UNL A   1      43.922  29.361  28.435  1.00  0.00     0.074 A 
ATOM     53  C   UNL A   1      44.075  27.995  27.984  1.00  0.00     0.031 C 
ATOM     54  C   UNL A   1      37.574  29.955  29.181  1.00  0.00     0.029 A 
ATOM     55  C   UNL A   1      38.604  30.947  29.476  1.00  0.00     0.049 A 
ATOM     56  H   UNL A   1      40.651  30.787  29.113  1.00  0.00     0.167 HD
ATOM     57  C   UNL A   1      44.950  30.219  28.637  1.00  0.00     0.034 A 
ATOM     58  C   UNL A   1      38.391  32.153  30.037  1.00  0.00     0.034 A 
ATOM     59  C   UNL A   1      44.794  31.584  29.065  1.00  0.00     0.049 A 
ATOM     60  C   UNL A   1      39.555  33.076  30.271  1.00  0.00     0.074 A 
ATOM     61  C   UNL A   1      45.775  32.548  29.228  1.00  0.00     0.029 A 
ATOM     62  N   UNL A   1      43.594  32.173  29.425  1.00  0.00    -0.354 N 
ATOM     63  N   UNL A   1      40.823  32.892  29.997  1.00  0.00    -0.248 NA
ATOM     64  C   UNL A   1      39.254  34.388  30.863  1.00  0.00     0.031 C 
ATOM     65  C   UNL A   1      45.174  33.700  29.748  1.00  0.00     0.029 A 
ATOM     66  C   UNL A   1      43.811  33.476  29.843  1.00  0.00     0.049 A 
ATOM     67  H   UNL A   1      42.714  31.731  29.390  1.00  0.00     0.167 HD
ATOM     68  C   UNL A   1      41.465  34.074  30.350  1.00  0.00     0.074 A 
ATOM     69  C   UNL A   1      40.441  34.976  30.832  1.00  0.00     0.031 C 
ATOM     70  C   UNL A   1      42.784  34.381  30.290  1.00  0.00     0.034 A 
BRANCH  57  71
ATOM     71  C   UNL A   1      46.352  29.712  28.412  1.00  0.00     0.023 A 
ATOM     72  C   UNL A   1      46.988  29.900  27.169  1.00  0.00     0.012 A 
ATOM     73  C   UNL A   1      47.069  29.123  29.474  1.00  0.00     0.148 A 
ATOM     74  C   UNL A   1      48.306  29.485  26.978  1.00  0.00     0.002 A 
ATOM     75  C   UNL A   1      48.396  28.759  29.291  1.00  0.00     0.091 A 
ATOM     76  F   UNL A   1      46.439  28.936  30.642  1.00  0.00    -0.205 F 
ATOM     77  C   UNL A   1      49.014  28.928  28.041  1.00  0.00     0.022 A 
BRANCH  75  78
ATOM     78  S   UNL A   1      49.415  28.112  30.621  1.00  0.00     0.127 S 
ATOM     79  O   UNL A   1      50.511  29.079  30.648  1.00  0.00    -0.237 OA
ATOM     80  O   UNL A   1      48.506  28.187  31.765  1.00  0.00    -0.237 OA
ATOM     81  O   UNL A   1      49.789  26.762  30.225  1.00  0.00    -0.744 OA
ENDBRANCH  75  78
ENDBRANCH  57  71
BRANCH  58  82
ATOM     82  C   UNL A   1      37.012  32.553  30.437  1.00  0.00     0.023 A 
ATOM     83  C   UNL A   1      36.567  32.347  31.756  1.00  0.00     0.012 A 
ATOM     84  C   UNL A   1      36.139  33.133  29.499  1.00  0.00     0.148 A 
ATOM     85  C   UNL A   1      35.262  32.675  32.123  1.00  0.00     0.002 A 
ATOM     86  C   UNL A   1      34.862  33.518  29.887  1.00  0.00     0.091 A 
ATOM     87  F   UNL A   1      36.578  33.306  28.244  1.00  0.00    -0.205 F 
ATOM     88  C   UNL A   1      34.413  33.270  31.193  1.00  0.00     0.022 A 
BRANCH  86  89
ATOM     89  S   UNL A   1      33.759  34.411  28.789  1.00  0.00     0.127 S 
ATOM     90  O   UNL A   1      33.284  33.343  27.912  1.00  0.00    -0.237 OA
ATOM     91  O   UNL A   1      32.764  34.930  29.728  1.00  0.00    -0.237 OA
ATOM     92  O   UNL A   1      34.579  35.434  28.155  1.00  0.00    -0.744 OA
ENDBRANCH  86  89
ENDBRANCH  58  82
BRANCH  70  93
ATOM     93  C   UNL A   1      43.200  35.769  30.712  1.00  0.00     0.023 A 
ATOM     94  C   UNL A   1      43.397  36.069  32.075  1.00  0.00     0.012 A 
ATOM     95  C   UNL A   1      43.438  36.766  29.746  1.00  0.00     0.148 A 
ATOM     96  C   UNL A   1      43.777  37.352  32.471  1.00  0.00     0.002 A 
ATOM     97  C   UNL A   1      43.872  38.024  30.143  1.00  0.00     0.091 A 
ATOM     98  F   UNL A   1      43.231  36.467  28.455  1.00  0.00    -0.205 F 
ATOM     99  C   UNL A   1      44.024  38.325  31.506  1.00  0.00     0.022 A 
BRANCH  97 100
ATOM    100  S   UNL A   1      44.310  39.309  28.967  1.00  0.00     0.127 S 
ATOM    101  O   UNL A   1      45.356  38.652  28.184  1.00  0.00    -0.237 OA
ATOM    102  O   UNL A   1      43.050  39.514  28.252  1.00  0.00    -0.237 OA
ATOM    103  O   UNL A   1      44.750  40.450  29.759  1.00  0.00    -0.744 OA
ENDBRANCH  97 100
ENDBRANCH  70  93
ENDBRANCH  44  45
ENDBRANCH  37  39
ENDBRANCH  36  37
ENDBRANCH  35  36
ENDBRANCH  34  35
ENDBRANCH  33  34
ENDBRANCH   1  33
TORSDOF 24
ENDMDL
MODEL 2
REMARK VINA RESULT:      -8.3      5.584     14.131
REMARK SMILES COc1ccc(OC)c(-c2cc(-c3ccccc3)nc(S[C@H](C)C(=O)OCCOCCOC(=O)c3ccc(-c4c5nc(c(-c6cccc(S(=O)(=O)[O-])c6F)c6ccc([nH]6)c(-c6cccc(S(=O)(=O)[O-])c6F)c6nc(c(-c7cccc(S(=O)(=O)[O-])c7F)c7ccc4[nH]7)C=C6)C=C5)cc3)c2C#N)c1
REMARK SMILES IDX 28 1 27 2 26 3 24 4 25 5 22 6 23 7 21 8 20 9 10 10 11 11
REMARK SMILES IDX 98 12 12 13 19 14 9 15 3 16 4 17 101 18 5 19 6 20 2 21 1 22
REMARK SMILES IDX 7 23 8 24 99 25 100 26 13 27 14 28 18 29 15 30 17 31 16 32
REMARK SMILES IDX 29 33 30 34 31 35 32 36 33 37 34 38 35 39 36 40 97 41 37 42
REMARK SMILES IDX 96 43 38 44 39 45 40 46 90 47 41 48 95 49 89 50 91 51 42 52
REMARK SMILES IDX 94 53 88 54 87 55 43 57 75 58 55 59 74 60 56 61 59 62 73 63
REMARK SMILES IDX 92 64 57 65 58 66 72 68 93 69 60 70 44 71 45 72 53 73 46 74
REMARK SMILES IDX 48 75 54 76 47 77 49 78 50 79 51 80 52 81 76 82 77 83 85 84
REMARK SMILES IDX 78 85 80 86 86 87 79 88 81 89 82 90 83 91 84 92 61 93 62 94
REMARK SMILES IDX 70 95 63 96 65 97 71 98 64 99 66 100 67 101 68 102 69 103
REMARK H PARENT 91 56 59 67
REMARK Flexibility Score: inf
ROOT
ATOM      1  C   UNL A   1      35.890  32.902  28.953  1.00  0.00     0.202 C 
ENDROOT
BRANCH   1   2
ATOM      2  C   UNL A   1      35.328  31.900  27.938  1.00  0.00     0.261 C 
BRANCH   2   3
ATOM      3  O   UNL A   1      34.009  31.441  28.284  1.00  0.00    -0.462 OA
BRANCH   3   4
ATOM      4  C   UNL A   1      33.342  30.807  27.281  1.00  0.00     0.319 C 
ATOM      5  O   UNL A   1      32.405  31.297  26.656  1.00  0.00    -0.251 OA
BRANCH   4   6
ATOM      6  C   UNL A   1      33.906  29.431  26.944  1.00  0.00     0.160 C 
ATOM      7  C   UNL A   1      35.300  29.094  27.459  1.00  0.00     0.032 C 
BRANCH   6   8
ATOM      8  S   UNL A   1      32.578  28.191  27.150  1.00  0.00    -0.090 SA
BRANCH   8   9
ATOM      9  C   UNL A   1      32.129  27.640  25.504  1.00  0.00     0.116 A 
ATOM     10  C   UNL A   1      31.824  25.807  23.971  1.00  0.00     0.008 A 
ATOM     11  C   UNL A   1      30.839  26.571  23.334  1.00  0.00     0.039 A 
ATOM     12  C   UNL A   1      32.486  26.358  25.087  1.00  0.00     0.092 A 
ATOM     13  C   UNL A   1      30.617  27.878  23.740  1.00  0.00     0.072 A 
ATOM     14  N   UNL A   1      31.249  28.400  24.816  1.00  0.00    -0.240 NA
BRANCH  10  15
ATOM     15  C   UNL A   1      32.078  24.427  23.528  1.00  0.00     0.029 A 
ATOM     16  C   UNL A   1      31.907  22.052  24.170  1.00  0.00     0.119 A 
ATOM     17  C   UNL A   1      32.663  21.712  23.058  1.00  0.00     0.050 A 
ATOM     18  C   UNL A   1      31.611  23.396  24.390  1.00  0.00     0.059 A 
ATOM     19  C   UNL A   1      33.085  22.701  22.170  1.00  0.00     0.051 A 
ATOM     20  C   UNL A   1      32.804  24.060  22.381  1.00  0.00     0.127 A 
BRANCH  16  21
ATOM     21  O   UNL A   1      31.574  21.014  24.992  1.00  0.00    -0.497 OA
ATOM     22  C   UNL A   1      32.592  20.054  25.247  1.00  0.00     0.278 C 
ENDBRANCH  16  21
BRANCH  20  23
ATOM     23  O   UNL A   1      33.369  24.820  21.402  1.00  0.00    -0.496 OA
ATOM     24  C   UNL A   1      32.643  25.377  20.324  1.00  0.00     0.278 C 
ENDBRANCH  20  23
ENDBRANCH  10  15
BRANCH  12  25
ATOM     25  C   UNL A   1      33.445  25.588  25.835  1.00  0.00     0.103 C 
ATOM     26  N   UNL A   1      34.175  24.956  26.476  1.00  0.00    -0.192 NA
ENDBRANCH  12  25
BRANCH  13  27
ATOM     27  C   UNL A   1      29.664  28.760  23.051  1.00  0.00     0.000 A 
ATOM     28  C   UNL A   1      30.111  29.793  22.209  1.00  0.00     0.010 A 
ATOM     29  C   UNL A   1      28.277  28.585  23.196  1.00  0.00     0.010 A 
ATOM     30  C   UNL A   1      29.204  30.614  21.533  1.00  0.00     0.001 A 
ATOM     31  C   UNL A   1      27.370  29.409  22.526  1.00  0.00     0.001 A 
ATOM     32  C   UNL A   1      27.833  30.423  21.694  1.00  0.00     0.000 A 
ENDBRANCH  13  27
ENDBRANCH   8   9
ENDBRANCH   6   8
ENDBRANCH   4   6
ENDBRANCH   3   4
ENDBRANCH   2   3
ENDBRANCH   1   2
BRANCH   1  33
ATOM     33  O   UNL A   1      35.077  33.996  29.373  1.00  0.00    -0.374 OA
BRANCH  33  34
ATOM     34  C   UNL A   1      34.836  34.156  30.767  1.00  0.00     0.202 C 
BRANCH  34  35
ATOM     35  C   UNL A   1      35.692  33.371  31.775  1.00  0.00     0.261 C 
BRANCH  35  36
ATOM     36  O   UNL A   1      36.040  34.119  32.953  1.00  0.00    -0.460 OA
BRANCH  36  37
ATOM     37  C   UNL A   1      36.327  33.344  34.030  1.00  0.00     0.338 C 
ATOM     38  O   UNL A   1      35.621  33.160  35.010  1.00  0.00    -0.246 OA
BRANCH  37  39
ATOM     39  C   UNL A   1      37.547  32.550  33.797  1.00  0.00     0.060 A 
ATOM     40  C   UNL A   1      38.752  33.088  34.263  1.00  0.00     0.016 A 
ATOM     41  C   UNL A   1      37.538  31.382  33.037  1.00  0.00     0.016 A 
ATOM     42  C   UNL A   1      39.960  32.493  33.920  1.00  0.00     0.010 A 
ATOM     43  C   UNL A   1      38.757  30.782  32.692  1.00  0.00     0.010 A 
ATOM     44  C   UNL A   1      39.975  31.362  33.094  1.00  0.00    -0.014 A 
BRANCH  44  45
ATOM     45  C   UNL A   1      41.278  30.875  32.575  1.00  0.00     0.031 A 
ATOM     46  C   UNL A   1      41.969  31.622  31.466  1.00  0.00     0.074 A 
ATOM     47  C   UNL A   1      41.867  29.799  33.129  1.00  0.00     0.049 A 
ATOM     48  N   UNL A   1      43.119  31.372  30.895  1.00  0.00    -0.248 NA
ATOM     49  C   UNL A   1      41.278  32.805  30.927  1.00  0.00     0.031 C 
ATOM     50  C   UNL A   1      41.304  28.996  34.214  1.00  0.00     0.029 A 
ATOM     51  N   UNL A   1      43.063  29.188  32.843  1.00  0.00    -0.354 N 
ATOM     52  C   UNL A   1      43.272  32.337  29.906  1.00  0.00     0.074 A 
ATOM     53  C   UNL A   1      42.096  33.178  29.953  1.00  0.00     0.031 C 
ATOM     54  C   UNL A   1      42.145  27.986  34.489  1.00  0.00     0.029 A 
ATOM     55  C   UNL A   1      43.283  28.047  33.577  1.00  0.00     0.049 A 
ATOM     56  H   UNL A   1      43.700  29.534  32.177  1.00  0.00     0.167 HD
ATOM     57  C   UNL A   1      44.301  32.508  29.042  1.00  0.00     0.034 A 
ATOM     58  C   UNL A   1      44.271  27.135  33.497  1.00  0.00     0.034 A 
ATOM     59  C   UNL A   1      45.479  31.683  29.011  1.00  0.00     0.049 A 
ATOM     60  C   UNL A   1      45.389  27.339  32.512  1.00  0.00     0.074 A 
ATOM     61  C   UNL A   1      46.604  31.825  28.216  1.00  0.00     0.029 A 
ATOM     62  N   UNL A   1      45.677  30.549  29.781  1.00  0.00    -0.354 N 
ATOM     63  N   UNL A   1      45.575  28.323  31.667  1.00  0.00    -0.248 NA
ATOM     64  C   UNL A   1      46.450  26.322  32.490  1.00  0.00     0.031 C 
ATOM     65  C   UNL A   1      47.453  30.741  28.461  1.00  0.00     0.029 A 
ATOM     66  C   UNL A   1      46.890  29.962  29.457  1.00  0.00     0.049 A 
ATOM     67  H   UNL A   1      45.049  30.210  30.459  1.00  0.00     0.167 HD
ATOM     68  C   UNL A   1      46.789  28.063  31.040  1.00  0.00     0.074 A 
ATOM     69  C   UNL A   1      47.305  26.842  31.622  1.00  0.00     0.031 C 
ATOM     70  C   UNL A   1      47.414  28.765  30.064  1.00  0.00     0.034 A 
BRANCH  57  71
ATOM     71  C   UNL A   1      44.204  33.627  28.036  1.00  0.00     0.023 A 
ATOM     72  C   UNL A   1      43.836  33.359  26.703  1.00  0.00     0.012 A 
ATOM     73  C   UNL A   1      44.397  34.963  28.445  1.00  0.00     0.148 A 
ATOM     74  C   UNL A   1      43.686  34.400  25.786  1.00  0.00     0.002 A 
ATOM     75  C   UNL A   1      44.198  35.996  27.539  1.00  0.00     0.091 A 
ATOM     76  F   UNL A   1      44.766  35.195  29.712  1.00  0.00    -0.205 F 
ATOM     77  C   UNL A   1      43.854  35.717  26.206  1.00  0.00     0.022 A 
BRANCH  75  78
ATOM     78  S   UNL A   1      44.308  37.728  28.006  1.00  0.00     0.127 S 
ATOM     79  O   UNL A   1      43.945  38.392  26.754  1.00  0.00    -0.237 OA
ATOM     80  O   UNL A   1      43.300  37.823  29.062  1.00  0.00    -0.237 OA
ATOM     81  O   UNL A   1      45.679  37.942  28.447  1.00  0.00    -0.744 OA
ENDBRANCH  75  78
ENDBRANCH  57  71
BRANCH  58  82
ATOM     82  C   UNL A   1      44.238  25.926  34.368  1.00  0.00     0.023 A 
ATOM     83  C   UNL A   1      43.538  24.775  33.961  1.00  0.00     0.012 A 
ATOM     84  C   UNL A   1      44.901  25.925  35.610  1.00  0.00     0.148 A 
ATOM     85  C   UNL A   1      43.464  23.659  34.794  1.00  0.00     0.002 A 
ATOM     86  C   UNL A   1      44.878  24.788  36.405  1.00  0.00     0.091 A 
ATOM     87  F   UNL A   1      45.549  27.037  35.984  1.00  0.00    -0.205 F 
ATOM     88  C   UNL A   1      44.142  23.661  36.011  1.00  0.00     0.022 A 
BRANCH  86  89
ATOM     89  S   UNL A   1      45.836  24.661  37.918  1.00  0.00     0.127 S 
ATOM     90  O   UNL A   1      47.163  25.073  37.465  1.00  0.00    -0.237 OA
ATOM     91  O   UNL A   1      45.151  25.622  38.782  1.00  0.00    -0.237 OA
ATOM     92  O   UNL A   1      45.714  23.274  38.345  1.00  0.00    -0.744 OA
ENDBRANCH  86  89
ENDBRANCH  58  82
BRANCH  70  93
ATOM     93  C   UNL A   1      48.755  28.262  29.589  1.00  0.00     0.023 A 
ATOM     94  C   UNL A   1      49.942  28.708  30.205  1.00  0.00     0.012 A 
ATOM     95  C   UNL A   1      48.833  27.308  28.554  1.00  0.00     0.148 A 
ATOM     96  C   UNL A   1      51.184  28.249  29.766  1.00  0.00     0.002 A 
ATOM     97  C   UNL A   1      50.069  26.812  28.162  1.00  0.00     0.091 A 
ATOM     98  F   UNL A   1      47.694  26.906  27.970  1.00  0.00    -0.205 F 
ATOM     99  C   UNL A   1      51.248  27.295  28.754  1.00  0.00     0.022 A 
BRANCH  97 100
ATOM    100  S   UNL A   1      50.242  25.511  26.936  1.00  0.00     0.127 S 
ATOM    101  O   UNL A   1      51.638  25.671  26.528  1.00  0.00    -0.237 OA
ATOM    102  O   UNL A   1      49.971  24.309  27.724  1.00  0.00    -0.237 OA
ATOM    103  O   UNL A   1      49.256  25.796  25.903  1.00  0.00    -0.744 OA
ENDBRANCH  97 100
ENDBRANCH  70  93
ENDBRANCH  44  45
ENDBRANCH  37  39
ENDBRANCH  36  37
ENDBRANCH  35  36
ENDBRANCH  34  35
ENDBRANCH  33  34
ENDBRANCH   1  33
TORSDOF 24
ENDMDL
MODEL 3
REMARK VINA RESULT:      -8.1      5.855      9.971
REMARK SMILES COc1ccc(OC)c(-c2cc(-c3ccccc3)nc(S[C@H](C)C(=O)OCCOCCOC(=O)c3ccc(-c4c5nc(c(-c6cccc(S(=O)(=O)[O-])c6F)c6ccc([nH]6)c(-c6cccc(S(=O)(=O)[O-])c6F)c6nc(c(-c7cccc(S(=O)(=O)[O-])c7F)c7ccc4[nH]7)C=C6)C=C5)cc3)c2C#N)c1
REMARK SMILES IDX 28 1 27 2 26 3 24 4 25 5 22 6 23 7 21 8 20 9 10 10 11 11
REMARK SMILES IDX 98 12 12 13 19 14 9 15 3 16 4 17 101 18 5 19 6 20 2 21 1 22
REMARK SMILES IDX 7 23 8 24 99 25 100 26 13 27 14 28 18 29 15 30 17 31 16 32
REMARK SMILES IDX 29 33 30 34 31 35 32 36 33 37 34 38 35 39 36 40 97 41 37 42
REMARK SMILES IDX 96 43 38 44 39 45 40 46 90 47 41 48 95 49 89 50 91 51 42 52
REMARK SMILES IDX 94 53 88 54 87 55 43 57 75 58 55 59 74 60 56 61 59 62 73 63
REMARK SMILES IDX 92 64 57 65 58 66 72 68 93 69 60 70 44 71 45 72 53 73 46 74
REMARK SMILES IDX 48 75 54 76 47 77 49 78 50 79 51 80 52 81 76 82 77 83 85 84
REMARK SMILES IDX 78 85 80 86 86 87 79 88 81 89 82 90 83 91 84 92 61 93 62 94
REMARK SMILES IDX 70 95 63 96 65 97 71 98 64 99 66 100 67 101 68 102 69 103
REMARK H PARENT 91 56 59 67
REMARK Flexibility Score: inf
ROOT
ATOM      1  C   UNL A   1      34.093  27.818  26.387  1.00  0.00     0.202 C 
ENDROOT
BRANCH   1   2
ATOM      2  C   UNL A   1      33.431  26.583  25.764  1.00  0.00     0.261 C 
BRANCH   2   3
ATOM      3  O   UNL A   1      34.340  25.476  25.631  1.00  0.00    -0.462 OA
BRANCH   3   4
ATOM      4  C   UNL A   1      33.905  24.309  26.179  1.00  0.00     0.319 C 
ATOM      5  O   UNL A   1      32.721  24.013  26.327  1.00  0.00    -0.251 OA
BRANCH   4   6
ATOM      6  C   UNL A   1      35.029  23.349  26.548  1.00  0.00     0.160 C 
ATOM      7  C   UNL A   1      34.642  21.945  26.994  1.00  0.00     0.032 C 
BRANCH   6   8
ATOM      8  S   UNL A   1      36.378  23.534  25.326  1.00  0.00    -0.090 SA
BRANCH   8   9
ATOM      9  C   UNL A   1      37.906  23.643  26.257  1.00  0.00     0.116 A 
ATOM     10  C   UNL A   1      40.186  22.920  26.541  1.00  0.00     0.008 A 
ATOM     11  C   UNL A   1      40.462  24.178  27.089  1.00  0.00     0.039 A 
ATOM     12  C   UNL A   1      38.871  22.646  26.113  1.00  0.00     0.092 A 
ATOM     13  C   UNL A   1      39.427  25.076  27.300  1.00  0.00     0.072 A 
ATOM     14  N   UNL A   1      38.168  24.812  26.880  1.00  0.00    -0.240 NA
BRANCH  10  15
ATOM     15  C   UNL A   1      41.279  21.956  26.338  1.00  0.00     0.029 A 
ATOM     16  C   UNL A   1      42.242  19.824  27.116  1.00  0.00     0.119 A 
ATOM     17  C   UNL A   1      43.368  20.066  26.343  1.00  0.00     0.050 A 
ATOM     18  C   UNL A   1      41.207  20.756  27.100  1.00  0.00     0.059 A 
ATOM     19  C   UNL A   1      43.436  21.209  25.546  1.00  0.00     0.051 A 
ATOM     20  C   UNL A   1      42.407  22.164  25.525  1.00  0.00     0.127 A 
BRANCH  16  21
ATOM     21  O   UNL A   1      42.290  18.695  27.885  1.00  0.00    -0.497 OA
ATOM     22  C   UNL A   1      43.059  17.613  27.375  1.00  0.00     0.278 C 
ENDBRANCH  16  21
BRANCH  20  23
ATOM     23  O   UNL A   1      42.741  23.202  24.710  1.00  0.00    -0.496 OA
ATOM     24  C   UNL A   1      43.605  24.253  25.092  1.00  0.00     0.278 C 
ENDBRANCH  20  23
ENDBRANCH  10  15
BRANCH  12  25
ATOM     25  C   UNL A   1      38.546  21.404  25.463  1.00  0.00     0.103 C 
ATOM     26  N   UNL A   1      38.285  20.377  24.993  1.00  0.00    -0.192 NA
ENDBRANCH  12  25
BRANCH  13  27
ATOM     27  C   UNL A   1      39.638  26.373  27.956  1.00  0.00     0.000 A 
ATOM     28  C   UNL A   1      39.328  26.557  29.315  1.00  0.00     0.010 A 
ATOM     29  C   UNL A   1      40.176  27.465  27.252  1.00  0.00     0.010 A 
ATOM     30  C   UNL A   1      39.555  27.784  29.945  1.00  0.00     0.001 A 
ATOM     31  C   UNL A   1      40.396  28.693  27.880  1.00  0.00     0.001 A 
ATOM     32  C   UNL A   1      40.087  28.852  29.227  1.00  0.00     0.000 A 
ENDBRANCH  13  27
ENDBRANCH   8   9
ENDBRANCH   6   8
ENDBRANCH   4   6
ENDBRANCH   3   4
ENDBRANCH   2   3
ENDBRANCH   1   2
BRANCH   1  33
ATOM     33  O   UNL A   1      33.279  28.784  27.048  1.00  0.00    -0.374 OA
BRANCH  33  34
ATOM     34  C   UNL A   1      33.825  30.079  27.276  1.00  0.00     0.202 C 
BRANCH  34  35
ATOM     35  C   UNL A   1      35.341  30.232  27.479  1.00  0.00     0.261 C 
BRANCH  35  36
ATOM     36  O   UNL A   1      35.700  31.017  28.630  1.00  0.00    -0.460 OA
BRANCH  36  37
ATOM     37  C   UNL A   1      36.183  30.283  29.665  1.00  0.00     0.338 C 
ATOM     38  O   UNL A   1      36.130  29.069  29.791  1.00  0.00    -0.246 OA
BRANCH  37  39
ATOM     39  C   UNL A   1      36.990  31.119  30.572  1.00  0.00     0.060 A 
ATOM     40  C   UNL A   1      36.919  32.505  30.388  1.00  0.00     0.016 A 
ATOM     41  C   UNL A   1      37.885  30.569  31.487  1.00  0.00     0.016 A 
ATOM     42  C   UNL A   1      37.787  33.345  31.075  1.00  0.00     0.010 A 
ATOM     43  C   UNL A   1      38.760  31.417  32.180  1.00  0.00     0.010 A 
ATOM     44  C   UNL A   1      38.745  32.805  31.942  1.00  0.00    -0.014 A 
BRANCH  44  45
ATOM     45  C   UNL A   1      39.790  33.701  32.499  1.00  0.00     0.031 A 
ATOM     46  C   UNL A   1      40.910  34.184  31.616  1.00  0.00     0.074 A 
ATOM     47  C   UNL A   1      39.708  34.125  33.774  1.00  0.00     0.049 A 
ATOM     48  N   UNL A   1      41.900  34.988  31.906  1.00  0.00    -0.248 NA
ATOM     49  C   UNL A   1      40.919  33.701  30.226  1.00  0.00     0.031 C 
ATOM     50  C   UNL A   1      38.668  33.735  34.725  1.00  0.00     0.029 A 
ATOM     51  N   UNL A   1      40.525  34.963  34.490  1.00  0.00    -0.354 N 
ATOM     52  C   UNL A   1      42.671  35.076  30.753  1.00  0.00     0.074 A 
ATOM     53  C   UNL A   1      42.035  34.242  29.757  1.00  0.00     0.031 C 
ATOM     54  C   UNL A   1      38.921  34.319  35.908  1.00  0.00     0.029 A 
ATOM     55  C   UNL A   1      40.158  35.089  35.809  1.00  0.00     0.049 A 
ATOM     56  H   UNL A   1      41.299  35.428  34.098  1.00  0.00     0.167 HD
ATOM     57  C   UNL A   1      43.803  35.790  30.543  1.00  0.00     0.034 A 
ATOM     58  C   UNL A   1      40.768  35.722  36.829  1.00  0.00     0.034 A 
ATOM     59  C   UNL A   1      44.422  36.636  31.529  1.00  0.00     0.049 A 
ATOM     60  C   UNL A   1      42.037  36.488  36.571  1.00  0.00     0.074 A 
ATOM     61  C   UNL A   1      45.532  37.451  31.384  1.00  0.00     0.029 A 
ATOM     62  N   UNL A   1      44.012  36.754  32.847  1.00  0.00    -0.354 N 
ATOM     63  N   UNL A   1      42.685  36.658  35.445  1.00  0.00    -0.248 NA
ATOM     64  C   UNL A   1      42.641  37.178  37.720  1.00  0.00     0.031 C 
ATOM     65  C   UNL A   1      45.828  38.013  32.629  1.00  0.00     0.029 A 
ATOM     66  C   UNL A   1      44.865  37.603  33.534  1.00  0.00     0.049 A 
ATOM     67  H   UNL A   1      43.229  36.303  33.237  1.00  0.00     0.167 HD
ATOM     68  C   UNL A   1      43.752  37.499  35.741  1.00  0.00     0.074 A 
ATOM     69  C   UNL A   1      43.646  37.826  37.147  1.00  0.00     0.031 C 
ATOM     70  C   UNL A   1      44.735  37.952  34.926  1.00  0.00     0.034 A 
BRANCH  57  71
ATOM     71  C   UNL A   1      44.467  35.686  29.194  1.00  0.00     0.023 A 
ATOM     72  C   UNL A   1      44.195  36.636  28.190  1.00  0.00     0.012 A 
ATOM     73  C   UNL A   1      45.432  34.686  28.957  1.00  0.00     0.148 A 
ATOM     74  C   UNL A   1      44.854  36.577  26.961  1.00  0.00     0.002 A 
ATOM     75  C   UNL A   1      46.120  34.664  27.751  1.00  0.00     0.091 A 
ATOM     76  F   UNL A   1      45.661  33.781  29.919  1.00  0.00    -0.205 F 
ATOM     77  C   UNL A   1      45.825  35.600  26.747  1.00  0.00     0.022 A 
BRANCH  75  78
ATOM     78  S   UNL A   1      47.445  33.499  27.413  1.00  0.00     0.127 S 
ATOM     79  O   UNL A   1      47.649  33.695  25.978  1.00  0.00    -0.237 OA
ATOM     80  O   UNL A   1      48.523  34.010  28.258  1.00  0.00    -0.237 OA
ATOM     81  O   UNL A   1      46.939  32.188  27.794  1.00  0.00    -0.744 OA
ENDBRANCH  75  78
ENDBRANCH  57  71
BRANCH  58  82
ATOM     82  C   UNL A   1      40.196  35.642  38.203  1.00  0.00     0.023 A 
ATOM     83  C   UNL A   1      39.515  36.743  38.754  1.00  0.00     0.012 A 
ATOM     84  C   UNL A   1      40.338  34.468  38.965  1.00  0.00     0.148 A 
ATOM     85  C   UNL A   1      39.020  36.690  40.058  1.00  0.00     0.002 A 
ATOM     86  C   UNL A   1      39.785  34.398  40.237  1.00  0.00     0.091 A 
ATOM     87  F   UNL A   1      41.003  33.437  38.426  1.00  0.00    -0.205 F 
ATOM     88  C   UNL A   1      39.146  35.514  40.795  1.00  0.00     0.022 A 
BRANCH  86  89
ATOM     89  S   UNL A   1      39.785  32.881  41.196  1.00  0.00     0.127 S 
ATOM     90  O   UNL A   1      39.302  33.349  42.493  1.00  0.00    -0.237 OA
ATOM     91  O   UNL A   1      38.838  32.057  40.444  1.00  0.00    -0.237 OA
ATOM     92  O   UNL A   1      41.159  32.398  41.167  1.00  0.00    -0.744 OA
ENDBRANCH  86  89
ENDBRANCH  58  82
BRANCH  70  93
ATOM     93  C   UNL A   1      45.756  38.892  35.516  1.00  0.00     0.023 A 
ATOM     94  C   UNL A   1      46.946  38.388  36.081  1.00  0.00     0.012 A 
ATOM     95  C   UNL A   1      45.554  40.286  35.469  1.00  0.00     0.148 A 
ATOM     96  C   UNL A   1      47.891  39.253  36.632  1.00  0.00     0.002 A 
ATOM     97  C   UNL A   1      46.526  41.143  35.967  1.00  0.00     0.091 A 
ATOM     98  F   UNL A   1      44.411  40.747  34.940  1.00  0.00    -0.205 F 
ATOM     99  C   UNL A   1      47.687  40.629  36.566  1.00  0.00     0.022 A 
BRANCH  97 100
ATOM    100  S   UNL A   1      46.395  42.930  35.836  1.00  0.00     0.127 S 
ATOM    101  O   UNL A   1      45.191  43.198  36.623  1.00  0.00    -0.237 OA
ATOM    102  O   UNL A   1      47.641  43.376  36.459  1.00  0.00    -0.237 OA
ATOM    103  O   UNL A   1      46.287  43.225  34.414  1.00  0.00    -0.744 OA
ENDBRANCH  97 100
ENDBRANCH  70  93
ENDBRANCH  44  45
ENDBRANCH  37  39
ENDBRANCH  36  37
ENDBRANCH  35  36
ENDBRANCH  34  35
ENDBRANCH  33  34
ENDBRANCH   1  33
TORSDOF 24
ENDMDL
