MODEL 1
REMARK VINA RESULT:     -11.4      0.000      0.000
REMARK SMILES Cc1cc(C(=O)OCCOCCOCCOC(=O)c2ccc(-c3c4nc(c(-c5cccc(S(=O)(=O)[O-])c5F)c5ccc([nH]5)c(-c5cccc(S(=O)(=O)[O-])c5F)c5nc(c(-c6cccc(S(=O)(=O)[O-])c6F)c6ccc3[nH]6)C=C5)C=C4)cc2)ccc1NS(=O)(=O)c1c(F)cccc1F
REMARK SMILES IDX 11 1 10 2 9 3 8 4 7 5 5 6 6 7 4 8 1 9 2 10 3 11 84 12 83 13
REMARK SMILES IDX 82 14 85 15 86 17 87 18 88 19 89 20 90 21 95 22 91 23 92 24
REMARK SMILES IDX 94 25 96 26 93 27 12 28 13 29 14 30 15 31 16 32 17 33 18 34
REMARK SMILES IDX 19 35 20 36 81 37 21 38 80 39 22 40 23 41 24 42 74 43 25 44
REMARK SMILES IDX 79 45 73 46 75 47 26 48 78 49 72 50 71 51 27 53 59 54 39 55
REMARK SMILES IDX 58 56 40 57 43 58 57 59 76 60 41 61 42 62 56 64 77 65 44 66
REMARK SMILES IDX 28 67 29 68 37 69 30 70 32 71 38 72 31 73 33 74 34 75 35 76
REMARK SMILES IDX 36 77 60 78 61 79 69 80 62 81 64 82 70 83 63 84 65 85 66 86
REMARK SMILES IDX 67 87 68 88 45 89 46 90 54 91 47 92 49 93 55 94 48 95 50 96
REMARK SMILES IDX 51 97 52 98 53 99
REMARK H PARENT 85 16 75 52 43 63
REMARK Flexibility Score: inf
ROOT
ATOM      1  C   UNL A   1      39.448  22.790  26.805  1.00  0.00     0.188 C 
ENDROOT
BRANCH   1   2
ATOM      2  O   UNL A   1      38.769  22.183  25.715  1.00  0.00    -0.376 OA
BRANCH   2   3
ATOM      3  C   UNL A   1      37.406  22.664  25.658  1.00  0.00     0.202 C 
BRANCH   3   4
ATOM      4  C   UNL A   1      36.437  21.751  24.742  1.00  0.00     0.261 C 
BRANCH   4   5
ATOM      5  O   UNL A   1      35.426  20.612  25.093  1.00  0.00    -0.460 OA
BRANCH   5   6
ATOM      6  C   UNL A   1      34.087  20.352  25.054  1.00  0.00     0.338 C 
ATOM      7  O   UNL A   1      33.436  19.526  25.645  1.00  0.00    -0.246 OA
BRANCH   6   8
ATOM      8  C   UNL A   1      33.161  21.282  24.437  1.00  0.00     0.060 A 
ATOM      9  C   UNL A   1      30.681  23.876  25.692  1.00  0.00     0.046 C 
ATOM     10  C   UNL A   1      31.552  23.076  24.761  1.00  0.00    -0.026 A 
ATOM     11  C   UNL A   1      32.470  22.174  25.287  1.00  0.00     0.021 A 
ATOM     12  C   UNL A   1      31.438  23.097  23.372  1.00  0.00     0.052 A 
ATOM     13  C   UNL A   1      31.766  21.960  22.629  1.00  0.00     0.028 A 
ATOM     14  C   UNL A   1      32.665  21.044  23.166  1.00  0.00     0.018 A 
BRANCH  12  15
ATOM     15  N   UNL A   1      31.194  24.352  22.730  1.00  0.00    -0.279 N 
ATOM     16  H   UNL A   1      30.314  24.546  22.336  1.00  0.00     0.180 HD
BRANCH  15  17
ATOM     17  S   UNL A   1      32.452  25.514  22.656  1.00  0.00     0.267 S 
ATOM     18  O   UNL A   1      33.662  24.743  22.461  1.00  0.00    -0.201 OA
ATOM     19  O   UNL A   1      32.050  26.471  21.640  1.00  0.00    -0.201 OA
BRANCH  17  20
ATOM     20  C   UNL A   1      32.574  26.402  24.175  1.00  0.00     0.158 A 
ATOM     21  C   UNL A   1      31.589  27.325  24.520  1.00  0.00     0.146 A 
ATOM     22  C   UNL A   1      33.697  26.289  24.985  1.00  0.00     0.146 A 
ATOM     23  F   UNL A   1      30.445  27.426  23.831  1.00  0.00    -0.205 F 
ATOM     24  C   UNL A   1      31.772  28.206  25.588  1.00  0.00     0.041 A 
ATOM     25  C   UNL A   1      33.889  27.168  26.061  1.00  0.00     0.041 A 
ATOM     26  F   UNL A   1      34.673  25.415  24.702  1.00  0.00    -0.205 F 
ATOM     27  C   UNL A   1      32.941  28.151  26.342  1.00  0.00     0.006 A 
ENDBRANCH  17  20
ENDBRANCH  15  17
ENDBRANCH  12  15
ENDBRANCH   6   8
ENDBRANCH   5   6
ENDBRANCH   4   5
ENDBRANCH   3   4
ENDBRANCH   2   3
ENDBRANCH   1   2
BRANCH   1  28
ATOM     28  C   UNL A   1      40.797  22.149  27.115  1.00  0.00     0.188 C 
BRANCH  28  29
ATOM     29  O   UNL A   1      40.870  20.740  27.341  1.00  0.00    -0.376 OA
BRANCH  29  30
ATOM     30  C   UNL A   1      41.267  19.894  26.266  1.00  0.00     0.202 C 
BRANCH  30  31
ATOM     31  C   UNL A   1      42.774  19.779  25.944  1.00  0.00     0.261 C 
BRANCH  31  32
ATOM     32  O   UNL A   1      43.220  20.780  25.017  1.00  0.00    -0.460 OA
BRANCH  32  33
ATOM     33  C   UNL A   1      44.558  20.733  24.714  1.00  0.00     0.338 C 
ATOM     34  O   UNL A   1      45.240  19.728  24.680  1.00  0.00    -0.246 OA
BRANCH  33  35
ATOM     35  C   UNL A   1      45.033  22.137  24.853  1.00  0.00     0.060 A 
ATOM     36  C   UNL A   1      45.953  22.473  25.822  1.00  0.00     0.016 A 
ATOM     37  C   UNL A   1      44.319  23.172  24.321  1.00  0.00     0.016 A 
ATOM     38  C   UNL A   1      45.880  23.740  26.461  1.00  0.00     0.010 A 
ATOM     39  C   UNL A   1      44.177  24.336  25.107  1.00  0.00     0.010 A 
ATOM     40  C   UNL A   1      44.783  24.589  26.347  1.00  0.00    -0.014 A 
BRANCH  40  41
ATOM     41  C   UNL A   1      44.302  25.560  27.568  1.00  0.00     0.031 A 
ATOM     42  C   UNL A   1      42.941  26.416  27.811  1.00  0.00     0.074 A 
ATOM     43  C   UNL A   1      45.243  25.885  28.490  1.00  0.00     0.049 A 
ATOM     44  N   UNL A   1      42.756  27.720  27.719  1.00  0.00    -0.248 NA
ATOM     45  C   UNL A   1      41.646  25.810  28.142  1.00  0.00     0.031 C 
ATOM     46  C   UNL A   1      45.086  26.846  29.575  1.00  0.00     0.029 A 
ATOM     47  N   UNL A   1      46.627  25.679  28.452  1.00  0.00    -0.354 N 
ATOM     48  C   UNL A   1      41.373  27.979  27.936  1.00  0.00     0.074 A 
ATOM     49  C   UNL A   1      40.722  26.723  27.879  1.00  0.00     0.031 C 
ATOM     50  C   UNL A   1      46.280  27.444  29.744  1.00  0.00     0.029 A 
ATOM     51  C   UNL A   1      47.179  26.931  28.716  1.00  0.00     0.049 A 
ATOM     52  H   UNL A   1      47.105  24.836  28.278  1.00  0.00     0.167 HD
ATOM     53  C   UNL A   1      40.814  29.079  28.535  1.00  0.00     0.034 A 
ATOM     54  C   UNL A   1      47.897  27.656  27.804  1.00  0.00     0.034 A 
ATOM     55  C   UNL A   1      41.877  29.892  29.066  1.00  0.00     0.049 A 
ATOM     56  C   UNL A   1      47.393  29.085  27.657  1.00  0.00     0.074 A 
ATOM     57  C   UNL A   1      42.570  29.835  30.263  1.00  0.00     0.029 A 
ATOM     58  N   UNL A   1      42.626  30.638  28.191  1.00  0.00    -0.354 N 
ATOM     59  N   UNL A   1      46.296  29.558  28.189  1.00  0.00    -0.248 NA
ATOM     60  C   UNL A   1      48.092  30.091  26.861  1.00  0.00     0.031 C 
ATOM     61  C   UNL A   1      43.853  30.396  30.024  1.00  0.00     0.029 A 
ATOM     62  C   UNL A   1      43.886  30.857  28.718  1.00  0.00     0.049 A 
ATOM     63  H   UNL A   1      42.313  30.967  27.319  1.00  0.00     0.167 HD
ATOM     64  C   UNL A   1      46.062  30.824  27.704  1.00  0.00     0.074 A 
ATOM     65  C   UNL A   1      47.263  31.142  26.957  1.00  0.00     0.031 C 
ATOM     66  C   UNL A   1      44.876  31.488  27.864  1.00  0.00     0.034 A 
BRANCH  53  67
ATOM     67  C   UNL A   1      39.346  29.167  29.027  1.00  0.00     0.023 A 
ATOM     68  C   UNL A   1      38.329  29.407  28.075  1.00  0.00     0.012 A 
ATOM     69  C   UNL A   1      38.904  29.093  30.376  1.00  0.00     0.148 A 
ATOM     70  C   UNL A   1      37.004  29.706  28.440  1.00  0.00     0.002 A 
ATOM     71  C   UNL A   1      37.613  29.505  30.750  1.00  0.00     0.091 A 
ATOM     72  F   UNL A   1      39.724  28.583  31.308  1.00  0.00    -0.205 F 
ATOM     73  C   UNL A   1      36.658  29.816  29.779  1.00  0.00     0.022 A 
BRANCH  71  74
ATOM     74  S   UNL A   1      37.163  29.843  32.469  1.00  0.00     0.127 S 
ATOM     75  O   UNL A   1      38.215  30.772  32.893  1.00  0.00    -0.237 OA
ATOM     76  O   UNL A   1      35.839  30.446  32.347  1.00  0.00    -0.237 OA
ATOM     77  O   UNL A   1      37.213  28.553  33.148  1.00  0.00    -0.744 OA
ENDBRANCH  71  74
ENDBRANCH  53  67
BRANCH  54  78
ATOM     78  C   UNL A   1      48.686  26.907  26.747  1.00  0.00     0.023 A 
ATOM     79  C   UNL A   1      48.060  26.705  25.489  1.00  0.00     0.012 A 
ATOM     80  C   UNL A   1      50.059  26.574  26.841  1.00  0.00     0.148 A 
ATOM     81  C   UNL A   1      48.766  26.255  24.368  1.00  0.00     0.002 A 
ATOM     82  C   UNL A   1      50.770  26.152  25.704  1.00  0.00     0.091 A 
ATOM     83  F   UNL A   1      50.697  26.771  28.003  1.00  0.00    -0.205 F 
ATOM     84  C   UNL A   1      50.123  25.981  24.473  1.00  0.00     0.022 A 
BRANCH  82  85
ATOM     85  S   UNL A   1      52.580  26.063  25.708  1.00  0.00     0.127 S 
ATOM     86  O   UNL A   1      52.965  27.289  26.411  1.00  0.00    -0.237 OA
ATOM     87  O   UNL A   1      52.881  24.846  26.449  1.00  0.00    -0.237 OA
ATOM     88  O   UNL A   1      52.883  26.057  24.282  1.00  0.00    -0.744 OA
ENDBRANCH  82  85
ENDBRANCH  54  78
BRANCH  66  89
ATOM     89  C   UNL A   1      44.468  32.748  27.119  1.00  0.00     0.023 A 
ATOM     90  C   UNL A   1      44.257  32.756  25.729  1.00  0.00     0.012 A 
ATOM     91  C   UNL A   1      44.045  33.898  27.835  1.00  0.00     0.148 A 
ATOM     92  C   UNL A   1      43.708  33.865  25.073  1.00  0.00     0.002 A 
ATOM     93  C   UNL A   1      43.366  34.933  27.196  1.00  0.00     0.091 A 
ATOM     94  F   UNL A   1      44.264  33.986  29.157  1.00  0.00    -0.205 F 
ATOM     95  C   UNL A   1      43.232  34.942  25.808  1.00  0.00     0.022 A 
BRANCH  93  96
ATOM     96  S   UNL A   1      42.447  36.125  28.184  1.00  0.00     0.127 S 
ATOM     97  O   UNL A   1      43.495  36.762  28.974  1.00  0.00    -0.237 OA
ATOM     98  O   UNL A   1      41.838  36.992  27.173  1.00  0.00    -0.237 OA
ATOM     99  O   UNL A   1      41.491  35.298  28.910  1.00  0.00    -0.744 OA
ENDBRANCH  93  96
ENDBRANCH  66  89
ENDBRANCH  40  41
ENDBRANCH  33  35
ENDBRANCH  32  33
ENDBRANCH  31  32
ENDBRANCH  30  31
ENDBRANCH  29  30
ENDBRANCH  28  29
ENDBRANCH   1  28
TORSDOF 23
ENDMDL
MODEL 2
REMARK VINA RESULT:     -11.4      3.465      5.432
REMARK SMILES Cc1cc(C(=O)OCCOCCOCCOC(=O)c2ccc(-c3c4nc(c(-c5cccc(S(=O)(=O)[O-])c5F)c5ccc([nH]5)c(-c5cccc(S(=O)(=O)[O-])c5F)c5nc(c(-c6cccc(S(=O)(=O)[O-])c6F)c6ccc3[nH]6)C=C5)C=C4)cc2)ccc1NS(=O)(=O)c1c(F)cccc1F
REMARK SMILES IDX 11 1 10 2 9 3 8 4 7 5 5 6 6 7 4 8 1 9 2 10 3 11 84 12 83 13
REMARK SMILES IDX 82 14 85 15 86 17 87 18 88 19 89 20 90 21 95 22 91 23 92 24
REMARK SMILES IDX 94 25 96 26 93 27 12 28 13 29 14 30 15 31 16 32 17 33 18 34
REMARK SMILES IDX 19 35 20 36 81 37 21 38 80 39 22 40 23 41 24 42 74 43 25 44
REMARK SMILES IDX 79 45 73 46 75 47 26 48 78 49 72 50 71 51 27 53 59 54 39 55
REMARK SMILES IDX 58 56 40 57 43 58 57 59 76 60 41 61 42 62 56 64 77 65 44 66
REMARK SMILES IDX 28 67 29 68 37 69 30 70 32 71 38 72 31 73 33 74 34 75 35 76
REMARK SMILES IDX 36 77 60 78 61 79 69 80 62 81 64 82 70 83 63 84 65 85 66 86
REMARK SMILES IDX 67 87 68 88 45 89 46 90 54 91 47 92 49 93 55 94 48 95 50 96
REMARK SMILES IDX 51 97 52 98 53 99
REMARK H PARENT 85 16 75 52 43 63
REMARK Flexibility Score: inf
ROOT
ATOM      1  C   UNL A   1      43.000  19.085  25.991  1.00  0.00     0.188 C 
ENDROOT
BRANCH   1   2
ATOM      2  O   UNL A   1      41.724  19.235  25.384  1.00  0.00    -0.376 OA
BRANCH   2   3
ATOM      3  C   UNL A   1      40.766  19.693  26.366  1.00  0.00     0.202 C 
BRANCH   3   4
ATOM      4  C   UNL A   1      39.401  20.267  25.715  1.00  0.00     0.261 C 
BRANCH   4   5
ATOM      5  O   UNL A   1      38.452  21.437  26.129  1.00  0.00    -0.460 OA
BRANCH   5   6
ATOM      6  C   UNL A   1      37.674  22.404  25.562  1.00  0.00     0.338 C 
ATOM      7  O   UNL A   1      37.970  23.491  25.133  1.00  0.00    -0.246 OA
BRANCH   6   8
ATOM      8  C   UNL A   1      36.317  22.119  25.136  1.00  0.00     0.060 A 
ATOM      9  C   UNL A   1      34.236  18.978  24.625  1.00  0.00     0.046 C 
ATOM     10  C   UNL A   1      34.608  20.430  24.764  1.00  0.00    -0.026 A 
ATOM     11  C   UNL A   1      35.890  20.773  25.179  1.00  0.00     0.021 A 
ATOM     12  C   UNL A   1      33.775  21.488  24.403  1.00  0.00     0.052 A 
ATOM     13  C   UNL A   1      34.329  22.689  23.953  1.00  0.00     0.028 A 
ATOM     14  C   UNL A   1      35.621  23.021  24.347  1.00  0.00     0.018 A 
BRANCH  12  15
ATOM     15  N   UNL A   1      32.381  21.389  24.710  1.00  0.00    -0.279 N 
ATOM     16  H   UNL A   1      31.835  20.672  24.315  1.00  0.00     0.180 HD
BRANCH  15  17
ATOM     17  S   UNL A   1      31.673  22.531  25.774  1.00  0.00     0.267 S 
ATOM     18  O   UNL A   1      30.382  21.973  26.116  1.00  0.00    -0.201 OA
ATOM     19  O   UNL A   1      32.650  22.755  26.825  1.00  0.00    -0.201 OA
BRANCH  17  20
ATOM     20  C   UNL A   1      31.436  24.079  24.961  1.00  0.00     0.158 A 
ATOM     21  C   UNL A   1      31.154  24.111  23.598  1.00  0.00     0.146 A 
ATOM     22  C   UNL A   1      31.641  25.280  25.630  1.00  0.00     0.146 A 
ATOM     23  F   UNL A   1      30.864  22.999  22.911  1.00  0.00    -0.205 F 
ATOM     24  C   UNL A   1      31.193  25.311  22.884  1.00  0.00     0.041 A 
ATOM     25  C   UNL A   1      31.679  26.490  24.923  1.00  0.00     0.041 A 
ATOM     26  F   UNL A   1      31.910  25.307  26.943  1.00  0.00    -0.205 F 
ATOM     27  C   UNL A   1      31.489  26.502  23.541  1.00  0.00     0.006 A 
ENDBRANCH  17  20
ENDBRANCH  15  17
ENDBRANCH  12  15
ENDBRANCH   6   8
ENDBRANCH   5   6
ENDBRANCH   4   5
ENDBRANCH   3   4
ENDBRANCH   2   3
ENDBRANCH   1   2
BRANCH   1  28
ATOM     28  C   UNL A   1      44.113  19.830  25.262  1.00  0.00     0.188 C 
BRANCH  28  29
ATOM     29  O   UNL A   1      43.828  21.085  24.640  1.00  0.00    -0.376 OA
BRANCH  29  30
ATOM     30  C   UNL A   1      43.781  22.256  25.449  1.00  0.00     0.202 C 
BRANCH  30  31
ATOM     31  C   UNL A   1      42.399  22.878  25.754  1.00  0.00     0.261 C 
BRANCH  31  32
ATOM     32  O   UNL A   1      42.430  24.313  25.770  1.00  0.00    -0.460 OA
BRANCH  32  33
ATOM     33  C   UNL A   1      42.262  24.881  27.007  1.00  0.00     0.338 C 
ATOM     34  O   UNL A   1      42.794  24.510  28.034  1.00  0.00    -0.246 OA
BRANCH  33  35
ATOM     35  C   UNL A   1      41.036  25.717  26.882  1.00  0.00     0.060 A 
ATOM     36  C   UNL A   1      41.119  27.026  26.459  1.00  0.00     0.016 A 
ATOM     37  C   UNL A   1      39.884  25.370  27.530  1.00  0.00     0.016 A 
ATOM     38  C   UNL A   1      40.234  28.002  26.991  1.00  0.00     0.010 A 
ATOM     39  C   UNL A   1      39.156  26.401  28.160  1.00  0.00     0.010 A 
ATOM     40  C   UNL A   1      39.433  27.775  28.107  1.00  0.00    -0.014 A 
BRANCH  40  41
ATOM     41  C   UNL A   1      39.066  28.958  29.171  1.00  0.00     0.031 A 
ATOM     42  C   UNL A   1      38.117  30.273  29.058  1.00  0.00     0.074 A 
ATOM     43  C   UNL A   1      39.798  28.993  30.313  1.00  0.00     0.049 A 
ATOM     44  N   UNL A   1      38.468  31.540  28.938  1.00  0.00    -0.248 NA
ATOM     45  C   UNL A   1      36.651  30.218  29.025  1.00  0.00     0.031 C 
ATOM     46  C   UNL A   1      39.751  30.036  31.331  1.00  0.00     0.029 A 
ATOM     47  N   UNL A   1      40.963  28.290  30.640  1.00  0.00    -0.354 N 
ATOM     48  C   UNL A   1      37.280  32.308  28.785  1.00  0.00     0.074 A 
ATOM     49  C   UNL A   1      36.238  31.381  28.540  1.00  0.00     0.031 C 
ATOM     50  C   UNL A   1      40.998  30.164  31.819  1.00  0.00     0.029 A 
ATOM     51  C   UNL A   1      41.863  29.268  31.058  1.00  0.00     0.049 A 
ATOM     52  H   UNL A   1      41.113  27.319  30.587  1.00  0.00     0.167 HD
ATOM     53  C   UNL A   1      37.048  33.585  29.229  1.00  0.00     0.034 A 
ATOM     54  C   UNL A   1      43.005  29.594  30.379  1.00  0.00     0.034 A 
ATOM     55  C   UNL A   1      38.170  33.993  30.035  1.00  0.00     0.049 A 
ATOM     56  C   UNL A   1      43.133  31.091  30.123  1.00  0.00     0.074 A 
ATOM     57  C   UNL A   1      38.467  33.790  31.371  1.00  0.00     0.029 A 
ATOM     58  N   UNL A   1      39.338  34.330  29.400  1.00  0.00    -0.354 N 
ATOM     59  N   UNL A   1      42.201  31.979  30.353  1.00  0.00    -0.248 NA
ATOM     60  C   UNL A   1      44.336  31.694  29.555  1.00  0.00     0.031 C 
ATOM     61  C   UNL A   1      39.882  33.815  31.488  1.00  0.00     0.029 A 
ATOM     62  C   UNL A   1      40.413  34.115  30.244  1.00  0.00     0.049 A 
ATOM     63  H   UNL A   1      39.402  34.674  28.480  1.00  0.00     0.167 HD
ATOM     64  C   UNL A   1      42.593  33.194  29.841  1.00  0.00     0.074 A 
ATOM     65  C   UNL A   1      43.970  32.981  29.443  1.00  0.00     0.031 C 
ATOM     66  C   UNL A   1      41.748  34.260  29.691  1.00  0.00     0.034 A 
BRANCH  53  67
ATOM     67  C   UNL A   1      35.650  34.251  29.317  1.00  0.00     0.023 A 
ATOM     68  C   UNL A   1      35.111  34.843  28.152  1.00  0.00     0.012 A 
ATOM     69  C   UNL A   1      34.855  34.389  30.487  1.00  0.00     0.148 A 
ATOM     70  C   UNL A   1      33.955  35.644  28.174  1.00  0.00     0.002 A 
ATOM     71  C   UNL A   1      33.769  35.280  30.536  1.00  0.00     0.091 A 
ATOM     72  F   UNL A   1      35.122  33.624  31.557  1.00  0.00    -0.205 F 
ATOM     73  C   UNL A   1      33.317  35.913  29.377  1.00  0.00     0.022 A 
BRANCH  71  74
ATOM     74  S   UNL A   1      33.019  35.811  32.096  1.00  0.00     0.127 S 
ATOM     75  O   UNL A   1      34.166  36.365  32.823  1.00  0.00    -0.237 OA
ATOM     76  O   UNL A   1      32.040  36.805  31.666  1.00  0.00    -0.237 OA
ATOM     77  O   UNL A   1      32.473  34.600  32.700  1.00  0.00    -0.744 OA
ENDBRANCH  71  74
ENDBRANCH  53  67
BRANCH  54  78
ATOM     78  C   UNL A   1      43.688  28.518  29.558  1.00  0.00     0.023 A 
ATOM     79  C   UNL A   1      43.703  28.685  28.149  1.00  0.00     0.012 A 
ATOM     80  C   UNL A   1      44.485  27.474  30.088  1.00  0.00     0.148 A 
ATOM     81  C   UNL A   1      44.505  27.902  27.312  1.00  0.00     0.002 A 
ATOM     82  C   UNL A   1      45.313  26.711  29.247  1.00  0.00     0.091 A 
ATOM     83  F   UNL A   1      44.521  27.295  31.415  1.00  0.00    -0.205 F 
ATOM     84  C   UNL A   1      45.314  26.915  27.860  1.00  0.00     0.022 A 
BRANCH  82  85
ATOM     85  S   UNL A   1      46.594  25.623  29.925  1.00  0.00     0.127 S 
ATOM     86  O   UNL A   1      47.232  25.082  28.722  1.00  0.00    -0.237 OA
ATOM     87  O   UNL A   1      47.454  26.512  30.693  1.00  0.00    -0.237 OA
ATOM     88  O   UNL A   1      45.800  24.660  30.680  1.00  0.00    -0.744 OA
ENDBRANCH  82  85
ENDBRANCH  54  78
BRANCH  66  89
ATOM     89  C   UNL A   1      42.047  35.511  28.882  1.00  0.00     0.023 A 
ATOM     90  C   UNL A   1      41.320  35.842  27.725  1.00  0.00     0.012 A 
ATOM     91  C   UNL A   1      42.903  36.515  29.406  1.00  0.00     0.148 A 
ATOM     92  C   UNL A   1      41.473  37.078  27.087  1.00  0.00     0.002 A 
ATOM     93  C   UNL A   1      42.937  37.791  28.851  1.00  0.00     0.091 A 
ATOM     94  F   UNL A   1      43.671  36.252  30.476  1.00  0.00    -0.205 F 
ATOM     95  C   UNL A   1      42.257  38.067  27.665  1.00  0.00     0.022 A 
BRANCH  93  96
ATOM     96  S   UNL A   1      43.653  39.144  29.798  1.00  0.00     0.127 S 
ATOM     97  O   UNL A   1      44.952  39.330  29.160  1.00  0.00    -0.237 OA
ATOM     98  O   UNL A   1      42.707  40.240  29.576  1.00  0.00    -0.237 OA
ATOM     99  O   UNL A   1      43.662  38.634  31.164  1.00  0.00    -0.744 OA
ENDBRANCH  93  96
ENDBRANCH  66  89
ENDBRANCH  40  41
ENDBRANCH  33  35
ENDBRANCH  32  33
ENDBRANCH  31  32
ENDBRANCH  30  31
ENDBRANCH  29  30
ENDBRANCH  28  29
ENDBRANCH   1  28
TORSDOF 23
ENDMDL
MODEL 3
REMARK VINA RESULT:     -11.1      3.864      9.634
REMARK SMILES Cc1cc(C(=O)OCCOCCOCCOC(=O)c2ccc(-c3c4nc(c(-c5cccc(S(=O)(=O)[O-])c5F)c5ccc([nH]5)c(-c5cccc(S(=O)(=O)[O-])c5F)c5nc(c(-c6cccc(S(=O)(=O)[O-])c6F)c6ccc3[nH]6)C=C5)C=C4)cc2)ccc1NS(=O)(=O)c1c(F)cccc1F
REMARK SMILES IDX 11 1 10 2 9 3 8 4 7 5 5 6 6 7 4 8 1 9 2 10 3 11 84 12 83 13
REMARK SMILES IDX 82 14 85 15 86 17 87 18 88 19 89 20 90 21 95 22 91 23 92 24
REMARK SMILES IDX 94 25 96 26 93 27 12 28 13 29 14 30 15 31 16 32 17 33 18 34
REMARK SMILES IDX 19 35 20 36 81 37 21 38 80 39 22 40 23 41 24 42 74 43 25 44
REMARK SMILES IDX 79 45 73 46 75 47 26 48 78 49 72 50 71 51 27 53 59 54 39 55
REMARK SMILES IDX 58 56 40 57 43 58 57 59 76 60 41 61 42 62 56 64 77 65 44 66
REMARK SMILES IDX 28 67 29 68 37 69 30 70 32 71 38 72 31 73 33 74 34 75 35 76
REMARK SMILES IDX 36 77 60 78 61 79 69 80 62 81 64 82 70 83 63 84 65 85 66 86
REMARK SMILES IDX 67 87 68 88 45 89 46 90 54 91 47 92 49 93 55 94 48 95 50 96
REMARK SMILES IDX 51 97 52 98 53 99
REMARK H PARENT 85 16 75 52 43 63
REMARK Flexibility Score: inf
ROOT
ATOM      1  C   UNL A   1      34.064  24.085  26.193  1.00  0.00     0.188 C 
ENDROOT
BRANCH   1   2
ATOM      2  O   UNL A   1      35.273  23.459  26.598  1.00  0.00    -0.376 OA
BRANCH   2   3
ATOM      3  C   UNL A   1      35.580  22.363  25.704  1.00  0.00     0.202 C 
BRANCH   3   4
ATOM      4  C   UNL A   1      34.458  21.199  25.702  1.00  0.00     0.261 C 
BRANCH   4   5
ATOM      5  O   UNL A   1      33.603  20.568  24.557  1.00  0.00    -0.460 OA
BRANCH   5   6
ATOM      6  C   UNL A   1      32.700  20.933  23.601  1.00  0.00     0.338 C 
ATOM      7  O   UNL A   1      32.069  20.258  22.826  1.00  0.00    -0.246 OA
BRANCH   6   8
ATOM      8  C   UNL A   1      32.149  22.274  23.564  1.00  0.00     0.060 A 
ATOM      9  C   UNL A   1      33.190  25.594  22.031  1.00  0.00     0.046 C 
ATOM     10  C   UNL A   1      32.356  24.542  22.712  1.00  0.00    -0.026 A 
ATOM     11  C   UNL A   1      32.821  23.233  22.773  1.00  0.00     0.021 A 
ATOM     12  C   UNL A   1      31.168  24.805  23.392  1.00  0.00     0.052 A 
ATOM     13  C   UNL A   1      30.796  24.009  24.479  1.00  0.00     0.028 A 
ATOM     14  C   UNL A   1      31.281  22.707  24.554  1.00  0.00     0.018 A 
BRANCH  12  15
ATOM     15  N   UNL A   1      30.255  25.748  22.823  1.00  0.00    -0.279 N 
ATOM     16  H   UNL A   1      30.081  25.749  21.854  1.00  0.00     0.180 HD
BRANCH  15  17
ATOM     17  S   UNL A   1      29.467  26.875  23.846  1.00  0.00     0.267 S 
ATOM     18  O   UNL A   1      28.234  26.225  24.238  1.00  0.00    -0.201 OA
ATOM     19  O   UNL A   1      30.436  27.231  24.867  1.00  0.00    -0.201 OA
BRANCH  17  20
ATOM     20  C   UNL A   1      29.084  28.356  22.967  1.00  0.00     0.158 A 
ATOM     21  C   UNL A   1      30.096  29.060  22.320  1.00  0.00     0.146 A 
ATOM     22  C   UNL A   1      27.806  28.903  23.005  1.00  0.00     0.146 A 
ATOM     23  F   UNL A   1      31.326  28.553  22.175  1.00  0.00    -0.205 F 
ATOM     24  C   UNL A   1      29.870  30.345  21.820  1.00  0.00     0.041 A 
ATOM     25  C   UNL A   1      27.570  30.191  22.504  1.00  0.00     0.041 A 
ATOM     26  F   UNL A   1      26.795  28.266  23.611  1.00  0.00    -0.205 F 
ATOM     27  C   UNL A   1      28.612  30.928  21.942  1.00  0.00     0.006 A 
ENDBRANCH  17  20
ENDBRANCH  15  17
ENDBRANCH  12  15
ENDBRANCH   6   8
ENDBRANCH   5   6
ENDBRANCH   4   5
ENDBRANCH   3   4
ENDBRANCH   2   3
ENDBRANCH   1   2
BRANCH   1  28
ATOM     28  C   UNL A   1      34.254  25.517  25.703  1.00  0.00     0.188 C 
BRANCH  28  29
ATOM     29  O   UNL A   1      33.399  26.549  26.200  1.00  0.00    -0.376 OA
BRANCH  29  30
ATOM     30  C   UNL A   1      33.758  27.907  25.968  1.00  0.00     0.202 C 
BRANCH  30  31
ATOM     31  C   UNL A   1      33.856  28.855  27.185  1.00  0.00     0.261 C 
BRANCH  31  32
ATOM     32  O   UNL A   1      35.207  29.242  27.478  1.00  0.00    -0.460 OA
BRANCH  32  33
ATOM     33  C   UNL A   1      35.337  30.447  28.122  1.00  0.00     0.338 C 
ATOM     34  O   UNL A   1      34.819  31.491  27.779  1.00  0.00    -0.246 OA
BRANCH  33  35
ATOM     35  C   UNL A   1      36.516  30.280  29.015  1.00  0.00     0.060 A 
ATOM     36  C   UNL A   1      37.631  31.075  28.861  1.00  0.00     0.016 A 
ATOM     37  C   UNL A   1      36.697  29.128  29.726  1.00  0.00     0.016 A 
ATOM     38  C   UNL A   1      38.924  30.540  29.107  1.00  0.00     0.010 A 
ATOM     39  C   UNL A   1      38.002  28.594  29.779  1.00  0.00     0.010 A 
ATOM     40  C   UNL A   1      39.168  29.179  29.262  1.00  0.00    -0.014 A 
BRANCH  40  41
ATOM     41  C   UNL A   1      40.555  28.479  28.761  1.00  0.00     0.031 A 
ATOM     42  C   UNL A   1      40.937  26.938  28.411  1.00  0.00     0.074 A 
ATOM     43  C   UNL A   1      41.669  29.252  28.796  1.00  0.00     0.049 A 
ATOM     44  N   UNL A   1      41.656  26.083  29.114  1.00  0.00    -0.248 NA
ATOM     45  C   UNL A   1      40.465  26.235  27.213  1.00  0.00     0.031 C 
ATOM     46  C   UNL A   1      43.033  28.805  28.539  1.00  0.00     0.029 A 
ATOM     47  N   UNL A   1      41.859  30.507  29.387  1.00  0.00    -0.354 N 
ATOM     48  C   UNL A   1      41.631  24.833  28.435  1.00  0.00     0.074 A 
ATOM     49  C   UNL A   1      40.624  24.940  27.445  1.00  0.00     0.031 C 
ATOM     50  C   UNL A   1      43.838  29.514  29.351  1.00  0.00     0.029 A 
ATOM     51  C   UNL A   1      42.989  30.355  30.189  1.00  0.00     0.049 A 
ATOM     52  H   UNL A   1      41.314  31.317  29.264  1.00  0.00     0.167 HD
ATOM     53  C   UNL A   1      42.629  23.892  28.381  1.00  0.00     0.034 A 
ATOM     54  C   UNL A   1      42.968  30.414  31.555  1.00  0.00     0.034 A 
ATOM     55  C   UNL A   1      43.802  24.442  29.009  1.00  0.00     0.049 A 
ATOM     56  C   UNL A   1      43.647  29.218  32.209  1.00  0.00     0.074 A 
ATOM     57  C   UNL A   1      44.810  25.257  28.524  1.00  0.00     0.029 A 
ATOM     58  N   UNL A   1      43.829  24.524  30.378  1.00  0.00    -0.354 N 
ATOM     59  N   UNL A   1      44.060  28.148  31.580  1.00  0.00    -0.248 NA
ATOM     60  C   UNL A   1      43.886  29.134  33.648  1.00  0.00     0.031 C 
ATOM     61  C   UNL A   1      45.317  25.990  29.630  1.00  0.00     0.029 A 
ATOM     62  C   UNL A   1      44.669  25.550  30.773  1.00  0.00     0.049 A 
ATOM     63  H   UNL A   1      43.326  23.938  30.989  1.00  0.00     0.167 HD
ATOM     64  C   UNL A   1      44.457  27.204  32.500  1.00  0.00     0.074 A 
ATOM     65  C   UNL A   1      44.418  27.908  33.766  1.00  0.00     0.031 C 
ATOM     66  C   UNL A   1      44.699  25.895  32.183  1.00  0.00     0.034 A 
BRANCH  53  67
ATOM     67  C   UNL A   1      42.674  22.708  27.381  1.00  0.00     0.023 A 
ATOM     68  C   UNL A   1      41.955  21.532  27.695  1.00  0.00     0.012 A 
ATOM     69  C   UNL A   1      43.430  22.650  26.178  1.00  0.00     0.148 A 
ATOM     70  C   UNL A   1      42.096  20.339  26.962  1.00  0.00     0.002 A 
ATOM     71  C   UNL A   1      43.663  21.433  25.514  1.00  0.00     0.091 A 
ATOM     72  F   UNL A   1      43.900  23.787  25.642  1.00  0.00    -0.205 F 
ATOM     73  C   UNL A   1      42.996  20.271  25.909  1.00  0.00     0.022 A 
BRANCH  71  74
ATOM     74  S   UNL A   1      44.955  21.242  24.262  1.00  0.00     0.127 S 
ATOM     75  O   UNL A   1      44.714  19.884  23.766  1.00  0.00    -0.237 OA
ATOM     76  O   UNL A   1      44.641  22.299  23.305  1.00  0.00    -0.237 OA
ATOM     77  O   UNL A   1      46.218  21.388  24.978  1.00  0.00    -0.744 OA
ENDBRANCH  71  74
ENDBRANCH  53  67
BRANCH  54  78
ATOM     78  C   UNL A   1      41.919  31.282  32.224  1.00  0.00     0.023 A 
ATOM     79  C   UNL A   1      41.965  32.676  31.962  1.00  0.00     0.012 A 
ATOM     80  C   UNL A   1      40.784  30.796  32.917  1.00  0.00     0.148 A 
ATOM     81  C   UNL A   1      40.919  33.536  32.314  1.00  0.00     0.002 A 
ATOM     82  C   UNL A   1      39.722  31.659  33.241  1.00  0.00     0.091 A 
ATOM     83  F   UNL A   1      40.687  29.483  33.165  1.00  0.00    -0.205 F 
ATOM     84  C   UNL A   1      39.794  33.029  32.951  1.00  0.00     0.022 A 
BRANCH  82  85
ATOM     85  S   UNL A   1      38.125  31.013  33.800  1.00  0.00     0.127 S 
ATOM     86  O   UNL A   1      38.481  30.255  35.001  1.00  0.00    -0.237 OA
ATOM     87  O   UNL A   1      37.330  32.202  34.074  1.00  0.00    -0.237 OA
ATOM     88  O   UNL A   1      37.717  30.197  32.662  1.00  0.00    -0.744 OA
ENDBRANCH  82  85
ENDBRANCH  54  78
BRANCH  66  89
ATOM     89  C   UNL A   1      44.859  24.764  33.186  1.00  0.00     0.023 A 
ATOM     90  C   UNL A   1      43.962  23.682  33.237  1.00  0.00     0.012 A 
ATOM     91  C   UNL A   1      46.058  24.636  33.936  1.00  0.00     0.148 A 
ATOM     92  C   UNL A   1      44.210  22.557  34.032  1.00  0.00     0.002 A 
ATOM     93  C   UNL A   1      46.363  23.453  34.604  1.00  0.00     0.091 A 
ATOM     94  F   UNL A   1      46.935  25.651  33.979  1.00  0.00    -0.205 F 
ATOM     95  C   UNL A   1      45.424  22.426  34.692  1.00  0.00     0.022 A 
BRANCH  93  96
ATOM     96  S   UNL A   1      48.056  23.155  35.138  1.00  0.00     0.127 S 
ATOM     97  O   UNL A   1      48.193  24.048  36.284  1.00  0.00    -0.237 OA
ATOM     98  O   UNL A   1      48.051  21.731  35.476  1.00  0.00    -0.237 OA
ATOM     99  O   UNL A   1      48.846  23.482  33.956  1.00  0.00    -0.744 OA
ENDBRANCH  93  96
ENDBRANCH  66  89
ENDBRANCH  40  41
ENDBRANCH  33  35
ENDBRANCH  32  33
ENDBRANCH  31  32
ENDBRANCH  30  31
ENDBRANCH  29  30
ENDBRANCH  28  29
ENDBRANCH   1  28
TORSDOF 23
ENDMDL
