MODEL 1
REMARK VINA RESULT:     -11.0      0.000      0.000
REMARK SMILES O=C(OCCOCCOCCOC(=O)C1(Cc2ccccc2Cl)CCN(c2ncnc3[nH]ccc23)CC1)c1ccc(-c2c3nc(c(-c4cccc(S(=O)(=O)[O-])c4F)c4ccc([nH]4)c(-c4cccc(S(=O)(=O)[O-])c4F)c4nc(c(-c5cccc(S(=O)(=O)[O-])c5F)c5ccc2[nH]5)C=C4)C=C3)cc1
REMARK SMILES IDX 7 1 6 2 5 3 4 4 3 5 2 6 1 7 38 8 39 9 100 10 40 11 99 12
REMARK SMILES IDX 41 13 42 14 43 15 93 16 44 17 98 18 92 19 94 20 45 21 97 22
REMARK SMILES IDX 91 23 90 24 46 26 78 27 58 28 77 29 59 30 62 31 76 32 95 33
REMARK SMILES IDX 60 34 61 35 75 37 96 38 63 39 47 40 48 41 56 42 49 43 51 44
REMARK SMILES IDX 57 45 50 46 52 47 53 48 54 49 55 50 79 51 80 52 88 53 81 54
REMARK SMILES IDX 83 55 89 56 82 57 84 58 85 59 86 60 87 61 64 62 65 63 73 64
REMARK SMILES IDX 66 65 68 66 74 67 67 68 69 69 70 70 71 71 72 72 8 73 9 74
REMARK SMILES IDX 10 75 11 76 12 77 13 78 14 79 15 80 24 81 37 82 25 83 36 84
REMARK SMILES IDX 26 85 16 86 17 87 18 88 22 89 19 90 21 91 23 92 20 93 27 94
REMARK SMILES IDX 28 95 35 96 29 97 31 98 34 99 30 100 32 101 33 102
REMARK H PARENT 94 25 62 36 32 103
REMARK Flexibility Score: inf
ROOT
ATOM      1  C   UNL A   1      32.379  28.223  24.401  1.00  0.00     0.188 C 
ENDROOT
BRANCH   1   2
ATOM      2  O   UNL A   1      32.358  29.633  24.551  1.00  0.00    -0.376 OA
BRANCH   2   3
ATOM      3  C   UNL A   1      31.359  30.212  25.373  1.00  0.00     0.202 C 
BRANCH   3   4
ATOM      4  C   UNL A   1      31.860  31.024  26.575  1.00  0.00     0.261 C 
BRANCH   4   5
ATOM      5  O   UNL A   1      33.255  30.831  26.844  1.00  0.00    -0.460 OA
BRANCH   5   6
ATOM      6  C   UNL A   1      34.067  31.552  27.661  1.00  0.00     0.338 C 
ATOM      7  O   UNL A   1      33.730  32.708  27.914  1.00  0.00    -0.246 OA
BRANCH   6   8
ATOM      8  C   UNL A   1      35.390  31.068  28.201  1.00  0.00     0.060 A 
ATOM      9  C   UNL A   1      35.686  29.766  28.612  1.00  0.00     0.016 A 
ATOM     10  C   UNL A   1      36.439  32.007  28.253  1.00  0.00     0.016 A 
ATOM     11  C   UNL A   1      36.936  29.424  29.129  1.00  0.00     0.010 A 
ATOM     12  C   UNL A   1      37.703  31.674  28.764  1.00  0.00     0.010 A 
ATOM     13  C   UNL A   1      37.938  30.385  29.249  1.00  0.00    -0.014 A 
BRANCH  13  14
ATOM     14  C   UNL A   1      39.122  30.033  30.064  1.00  0.00     0.031 A 
ATOM     15  C   UNL A   1      39.164  30.501  31.478  1.00  0.00     0.074 A 
ATOM     16  C   UNL A   1      40.084  29.220  29.593  1.00  0.00     0.049 A 
ATOM     17  N   UNL A   1      40.015  30.185  32.413  1.00  0.00    -0.248 NA
ATOM     18  C   UNL A   1      38.127  31.460  31.889  1.00  0.00     0.031 C 
ATOM     19  C   UNL A   1      40.167  28.797  28.210  1.00  0.00     0.029 A 
ATOM     20  N   UNL A   1      41.162  28.612  30.188  1.00  0.00    -0.354 N 
ATOM     21  C   UNL A   1      39.650  30.946  33.510  1.00  0.00     0.074 A 
ATOM     22  C   UNL A   1      38.496  31.729  33.131  1.00  0.00     0.031 C 
ATOM     23  C   UNL A   1      41.222  27.988  28.056  1.00  0.00     0.029 A 
ATOM     24  C   UNL A   1      41.863  27.779  29.341  1.00  0.00     0.049 A 
ATOM     25  H   UNL A   1      41.410  28.757  31.130  1.00  0.00     0.167 HD
ATOM     26  C   UNL A   1      40.240  30.990  34.724  1.00  0.00     0.034 A 
ATOM     27  C   UNL A   1      42.882  26.928  29.579  1.00  0.00     0.034 A 
ATOM     28  C   UNL A   1      41.408  30.231  35.068  1.00  0.00     0.049 A 
ATOM     29  C   UNL A   1      43.445  26.915  30.971  1.00  0.00     0.074 A 
ATOM     30  C   UNL A   1      42.130  30.247  36.245  1.00  0.00     0.029 A 
ATOM     31  N   UNL A   1      42.037  29.327  34.222  1.00  0.00    -0.354 N 
ATOM     32  N   UNL A   1      43.041  27.589  32.021  1.00  0.00    -0.248 NA
ATOM     33  C   UNL A   1      44.603  26.047  31.218  1.00  0.00     0.031 C 
ATOM     34  C   UNL A   1      43.208  29.366  36.104  1.00  0.00     0.029 A 
ATOM     35  C   UNL A   1      43.133  28.769  34.855  1.00  0.00     0.049 A 
ATOM     36  H   UNL A   1      41.745  29.114  33.306  1.00  0.00     0.167 HD
ATOM     37  C   UNL A   1      43.908  27.248  33.045  1.00  0.00     0.074 A 
ATOM     38  C   UNL A   1      44.807  26.243  32.513  1.00  0.00     0.031 C 
ATOM     39  C   UNL A   1      43.991  27.757  34.299  1.00  0.00     0.034 A 
BRANCH  26  40
ATOM     40  C   UNL A   1      39.638  31.932  35.723  1.00  0.00     0.023 A 
ATOM     41  C   UNL A   1      38.571  31.504  36.540  1.00  0.00     0.012 A 
ATOM     42  C   UNL A   1      40.099  33.258  35.817  1.00  0.00     0.148 A 
ATOM     43  C   UNL A   1      37.943  32.398  37.407  1.00  0.00     0.002 A 
ATOM     44  C   UNL A   1      39.502  34.128  36.717  1.00  0.00     0.091 A 
ATOM     45  F   UNL A   1      41.091  33.648  35.003  1.00  0.00    -0.205 F 
ATOM     46  C   UNL A   1      38.414  33.706  37.500  1.00  0.00     0.022 A 
BRANCH  44  47
ATOM     47  S   UNL A   1      40.067  35.813  36.958  1.00  0.00     0.127 S 
ATOM     48  O   UNL A   1      39.650  36.448  35.710  1.00  0.00    -0.237 OA
ATOM     49  O   UNL A   1      39.309  36.219  38.138  1.00  0.00    -0.237 OA
ATOM     50  O   UNL A   1      41.513  35.729  37.155  1.00  0.00    -0.744 OA
ENDBRANCH  44  47
ENDBRANCH  26  40
BRANCH  27  51
ATOM     51  C   UNL A   1      43.396  25.988  28.529  1.00  0.00     0.023 A 
ATOM     52  C   UNL A   1      42.771  24.735  28.341  1.00  0.00     0.012 A 
ATOM     53  C   UNL A   1      44.484  26.316  27.701  1.00  0.00     0.148 A 
ATOM     54  C   UNL A   1      43.235  23.829  27.382  1.00  0.00     0.002 A 
ATOM     55  C   UNL A   1      44.888  25.446  26.691  1.00  0.00     0.091 A 
ATOM     56  F   UNL A   1      45.113  27.484  27.904  1.00  0.00    -0.205 F 
ATOM     57  C   UNL A   1      44.284  24.191  26.545  1.00  0.00     0.022 A 
BRANCH  55  58
ATOM     58  S   UNL A   1      46.096  25.947  25.460  1.00  0.00     0.127 S 
ATOM     59  O   UNL A   1      45.449  27.106  24.855  1.00  0.00    -0.237 OA
ATOM     60  O   UNL A   1      47.270  26.248  26.280  1.00  0.00    -0.237 OA
ATOM     61  O   UNL A   1      46.259  24.775  24.607  1.00  0.00    -0.744 OA
ENDBRANCH  55  58
ENDBRANCH  27  51
BRANCH  39  62
ATOM     62  C   UNL A   1      45.097  27.228  35.166  1.00  0.00     0.023 A 
ATOM     63  C   UNL A   1      46.281  27.974  35.328  1.00  0.00     0.012 A 
ATOM     64  C   UNL A   1      44.937  26.014  35.856  1.00  0.00     0.148 A 
ATOM     65  C   UNL A   1      47.310  27.496  36.134  1.00  0.00     0.002 A 
ATOM     66  C   UNL A   1      45.943  25.572  36.703  1.00  0.00     0.091 A 
ATOM     67  F   UNL A   1      43.810  25.312  35.665  1.00  0.00    -0.205 F 
ATOM     68  C   UNL A   1      47.137  26.303  36.831  1.00  0.00     0.022 A 
BRANCH  66  69
ATOM     69  S   UNL A   1      45.762  24.102  37.715  1.00  0.00     0.127 S 
ATOM     70  O   UNL A   1      46.975  24.153  38.529  1.00  0.00    -0.237 OA
ATOM     71  O   UNL A   1      44.523  24.380  38.441  1.00  0.00    -0.237 OA
ATOM     72  O   UNL A   1      45.680  22.983  36.785  1.00  0.00    -0.744 OA
ENDBRANCH  66  69
ENDBRANCH  39  62
ENDBRANCH  13  14
ENDBRANCH   6   8
ENDBRANCH   5   6
ENDBRANCH   4   5
ENDBRANCH   3   4
ENDBRANCH   2   3
ENDBRANCH   1   2
BRANCH   1  73
ATOM     73  C   UNL A   1      31.195  27.359  24.841  1.00  0.00     0.188 C 
BRANCH  73  74
ATOM     74  O   UNL A   1      30.168  26.974  23.948  1.00  0.00    -0.376 OA
BRANCH  74  75
ATOM     75  C   UNL A   1      30.383  25.897  23.065  1.00  0.00     0.202 C 
BRANCH  75  76
ATOM     76  C   UNL A   1      30.545  24.500  23.655  1.00  0.00     0.261 C 
BRANCH  76  77
ATOM     77  O   UNL A   1      31.878  23.993  23.874  1.00  0.00    -0.463 OA
BRANCH  77  78
ATOM     78  C   UNL A   1      32.140  23.547  25.136  1.00  0.00     0.312 C 
ATOM     79  O   UNL A   1      31.839  24.185  26.141  1.00  0.00    -0.252 OA
BRANCH  78  80
ATOM     80  C   UNL A   1      32.947  22.235  25.191  1.00  0.00     0.075 C 
ATOM     81  C   UNL A   1      33.608  21.883  26.552  1.00  0.00     0.040 C 
ATOM     82  C   UNL A   1      34.075  22.344  24.109  1.00  0.00     0.040 C 
ATOM     83  C   UNL A   1      34.976  22.499  26.890  1.00  0.00     0.119 C 
ATOM     84  C   UNL A   1      35.267  23.201  24.561  1.00  0.00     0.119 C 
ATOM     85  N   UNL A   1      35.829  22.543  25.721  1.00  0.00    -0.356 N 
BRANCH  80  86
ATOM     86  C   UNL A   1      31.951  21.073  24.753  1.00  0.00     0.056 C 
BRANCH  86  87
ATOM     87  C   UNL A   1      32.572  19.852  24.081  1.00  0.00    -0.028 A 
ATOM     88  C   UNL A   1      33.462  19.056  24.811  1.00  0.00     0.005 A 
ATOM     89  C   UNL A   1      32.295  19.434  22.777  1.00  0.00     0.044 A 
ATOM     90  C   UNL A   1      33.843  17.785  24.365  1.00  0.00     0.000 A 
ATOM     91  C   UNL A   1      32.593  18.128  22.358  1.00  0.00     0.021 A 
ATOM     92  Cl  UNL A   1      31.776  20.558  21.572  1.00  0.00    -0.084 Cl
ATOM     93  C   UNL A   1      33.337  17.285  23.175  1.00  0.00     0.002 A 
ENDBRANCH  86  87
ENDBRANCH  80  86
BRANCH  85  94
ATOM     94  C   UNL A   1      37.194  22.616  25.957  1.00  0.00     0.141 A 
ATOM     95  N   UNL A   1      37.773  23.790  26.322  1.00  0.00    -0.219 NA
ATOM     96  C   UNL A   1      38.042  21.498  25.789  1.00  0.00     0.061 A 
ATOM     97  C   UNL A   1      39.108  23.813  26.534  1.00  0.00     0.226 A 
ATOM     98  C   UNL A   1      39.398  21.685  26.010  1.00  0.00     0.142 A 
ATOM     99  C   UNL A   1      37.885  20.139  25.386  1.00  0.00     0.033 A 
ATOM    100  N   UNL A   1      40.004  22.818  26.396  1.00  0.00    -0.218 NA
ATOM    101  N   UNL A   1      40.043  20.506  25.748  1.00  0.00    -0.346 N 
ATOM    102  C   UNL A   1      39.134  19.554  25.371  1.00  0.00     0.085 A 
ATOM    103  H   UNL A   1      41.015  20.363  25.821  1.00  0.00     0.167 HD
ENDBRANCH  85  94
ENDBRANCH  78  80
ENDBRANCH  77  78
ENDBRANCH  76  77
ENDBRANCH  75  76
ENDBRANCH  74  75
ENDBRANCH  73  74
ENDBRANCH   1  73
TORSDOF 23
ENDMDL
MODEL 2
REMARK VINA RESULT:     -10.1      6.704     11.775
REMARK SMILES O=C(OCCOCCOCCOC(=O)C1(Cc2ccccc2Cl)CCN(c2ncnc3[nH]ccc23)CC1)c1ccc(-c2c3nc(c(-c4cccc(S(=O)(=O)[O-])c4F)c4ccc([nH]4)c(-c4cccc(S(=O)(=O)[O-])c4F)c4nc(c(-c5cccc(S(=O)(=O)[O-])c5F)c5ccc2[nH]5)C=C4)C=C3)cc1
REMARK SMILES IDX 7 1 6 2 5 3 4 4 3 5 2 6 1 7 38 8 39 9 100 10 40 11 99 12
REMARK SMILES IDX 41 13 42 14 43 15 93 16 44 17 98 18 92 19 94 20 45 21 97 22
REMARK SMILES IDX 91 23 90 24 46 26 78 27 58 28 77 29 59 30 62 31 76 32 95 33
REMARK SMILES IDX 60 34 61 35 75 37 96 38 63 39 47 40 48 41 56 42 49 43 51 44
REMARK SMILES IDX 57 45 50 46 52 47 53 48 54 49 55 50 79 51 80 52 88 53 81 54
REMARK SMILES IDX 83 55 89 56 82 57 84 58 85 59 86 60 87 61 64 62 65 63 73 64
REMARK SMILES IDX 66 65 68 66 74 67 67 68 69 69 70 70 71 71 72 72 8 73 9 74
REMARK SMILES IDX 10 75 11 76 12 77 13 78 14 79 15 80 24 81 37 82 25 83 36 84
REMARK SMILES IDX 26 85 16 86 17 87 18 88 22 89 19 90 21 91 23 92 20 93 27 94
REMARK SMILES IDX 28 95 35 96 29 97 31 98 34 99 30 100 32 101 33 102
REMARK H PARENT 94 25 62 36 32 103
REMARK Flexibility Score: inf
ROOT
ATOM      1  C   UNL A   1      37.965  34.285  40.986  1.00  0.00     0.188 C 
ENDROOT
BRANCH   1   2
ATOM      2  O   UNL A   1      38.564  35.196  41.894  1.00  0.00    -0.376 OA
BRANCH   2   3
ATOM      3  C   UNL A   1      39.259  36.315  41.370  1.00  0.00     0.202 C 
BRANCH   3   4
ATOM      4  C   UNL A   1      39.188  36.505  39.849  1.00  0.00     0.261 C 
BRANCH   4   5
ATOM      5  O   UNL A   1      40.467  36.760  39.253  1.00  0.00    -0.460 OA
BRANCH   5   6
ATOM      6  C   UNL A   1      41.446  35.872  38.939  1.00  0.00     0.338 C 
ATOM      7  O   UNL A   1      42.289  35.634  39.803  1.00  0.00    -0.246 OA
BRANCH   6   8
ATOM      8  C   UNL A   1      41.621  35.231  37.585  1.00  0.00     0.060 A 
ATOM      9  C   UNL A   1      40.613  34.986  36.651  1.00  0.00     0.016 A 
ATOM     10  C   UNL A   1      42.936  34.889  37.208  1.00  0.00     0.016 A 
ATOM     11  C   UNL A   1      40.873  34.357  35.434  1.00  0.00     0.010 A 
ATOM     12  C   UNL A   1      43.212  34.263  35.983  1.00  0.00     0.010 A 
ATOM     13  C   UNL A   1      42.166  33.951  35.110  1.00  0.00    -0.014 A 
BRANCH  13  14
ATOM     14  C   UNL A   1      42.323  33.041  33.954  1.00  0.00     0.031 A 
ATOM     15  C   UNL A   1      42.621  33.644  32.624  1.00  0.00     0.074 A 
ATOM     16  C   UNL A   1      42.315  31.705  34.103  1.00  0.00     0.049 A 
ATOM     17  N   UNL A   1      42.950  33.043  31.515  1.00  0.00    -0.248 NA
ATOM     18  C   UNL A   1      42.521  35.108  32.522  1.00  0.00     0.031 C 
ATOM     19  C   UNL A   1      41.943  31.041  35.336  1.00  0.00     0.029 A 
ATOM     20  N   UNL A   1      42.608  30.672  33.248  1.00  0.00    -0.354 N 
ATOM     21  C   UNL A   1      43.045  34.048  30.569  1.00  0.00     0.074 A 
ATOM     22  C   UNL A   1      42.752  35.298  31.234  1.00  0.00     0.031 C 
ATOM     23  C   UNL A   1      42.043  29.717  35.173  1.00  0.00     0.029 A 
ATOM     24  C   UNL A   1      42.546  29.429  33.843  1.00  0.00     0.049 A 
ATOM     25  H   UNL A   1      42.842  30.806  32.301  1.00  0.00     0.167 HD
ATOM     26  C   UNL A   1      43.340  33.930  29.257  1.00  0.00     0.034 A 
ATOM     27  C   UNL A   1      42.881  28.207  33.380  1.00  0.00     0.034 A 
ATOM     28  C   UNL A   1      43.592  32.674  28.610  1.00  0.00     0.049 A 
ATOM     29  C   UNL A   1      43.317  28.122  31.945  1.00  0.00     0.074 A 
ATOM     30  C   UNL A   1      43.836  32.428  27.273  1.00  0.00     0.029 A 
ATOM     31  N   UNL A   1      43.615  31.445  29.256  1.00  0.00    -0.354 N 
ATOM     32  N   UNL A   1      43.472  29.094  31.080  1.00  0.00    -0.248 NA
ATOM     33  C   UNL A   1      43.610  26.785  31.412  1.00  0.00     0.031 C 
ATOM     34  C   UNL A   1      43.987  31.047  27.107  1.00  0.00     0.029 A 
ATOM     35  C   UNL A   1      43.881  30.437  28.348  1.00  0.00     0.049 A 
ATOM     36  H   UNL A   1      43.465  31.312  30.220  1.00  0.00     0.167 HD
ATOM     37  C   UNL A   1      43.856  28.489  29.895  1.00  0.00     0.074 A 
ATOM     38  C   UNL A   1      43.992  27.073  30.176  1.00  0.00     0.031 C 
ATOM     39  C   UNL A   1      44.029  29.042  28.670  1.00  0.00     0.034 A 
BRANCH  26  40
ATOM     40  C   UNL A   1      43.349  35.200  28.459  1.00  0.00     0.023 A 
ATOM     41  C   UNL A   1      42.147  35.699  27.919  1.00  0.00     0.012 A 
ATOM     42  C   UNL A   1      44.559  35.870  28.206  1.00  0.00     0.148 A 
ATOM     43  C   UNL A   1      42.157  36.827  27.100  1.00  0.00     0.002 A 
ATOM     44  C   UNL A   1      44.554  37.020  27.431  1.00  0.00     0.091 A 
ATOM     45  F   UNL A   1      45.692  35.353  28.703  1.00  0.00    -0.205 F 
ATOM     46  C   UNL A   1      43.359  37.491  26.863  1.00  0.00     0.022 A 
BRANCH  44  47
ATOM     47  S   UNL A   1      46.035  37.982  27.113  1.00  0.00     0.127 S 
ATOM     48  O   UNL A   1      45.520  39.044  26.253  1.00  0.00    -0.237 OA
ATOM     49  O   UNL A   1      46.411  38.408  28.457  1.00  0.00    -0.237 OA
ATOM     50  O   UNL A   1      46.978  37.069  26.471  1.00  0.00    -0.744 OA
ENDBRANCH  44  47
ENDBRANCH  26  40
BRANCH  27  51
ATOM     51  C   UNL A   1      42.883  26.993  34.261  1.00  0.00     0.023 A 
ATOM     52  C   UNL A   1      41.660  26.378  34.612  1.00  0.00     0.012 A 
ATOM     53  C   UNL A   1      44.074  26.425  34.747  1.00  0.00     0.148 A 
ATOM     54  C   UNL A   1      41.626  25.255  35.445  1.00  0.00     0.002 A 
ATOM     55  C   UNL A   1      44.039  25.257  35.505  1.00  0.00     0.091 A 
ATOM     56  F   UNL A   1      45.235  27.030  34.456  1.00  0.00    -0.205 F 
ATOM     57  C   UNL A   1      42.817  24.684  35.878  1.00  0.00     0.022 A 
BRANCH  55  58
ATOM     58  S   UNL A   1      45.545  24.370  35.917  1.00  0.00     0.127 S 
ATOM     59  O   UNL A   1      46.152  25.249  36.910  1.00  0.00    -0.237 OA
ATOM     60  O   UNL A   1      45.029  23.105  36.441  1.00  0.00    -0.237 OA
ATOM     61  O   UNL A   1      46.251  24.236  34.648  1.00  0.00    -0.744 OA
ENDBRANCH  55  58
ENDBRANCH  27  51
BRANCH  39  62
ATOM     62  C   UNL A   1      44.380  28.103  27.552  1.00  0.00     0.023 A 
ATOM     63  C   UNL A   1      43.361  27.399  26.880  1.00  0.00     0.012 A 
ATOM     64  C   UNL A   1      45.716  27.959  27.142  1.00  0.00     0.148 A 
ATOM     65  C   UNL A   1      43.675  26.530  25.839  1.00  0.00     0.002 A 
ATOM     66  C   UNL A   1      46.015  27.136  26.066  1.00  0.00     0.091 A 
ATOM     67  F   UNL A   1      46.668  28.622  27.815  1.00  0.00    -0.205 F 
ATOM     68  C   UNL A   1      44.999  26.408  25.423  1.00  0.00     0.022 A 
BRANCH  66  69
ATOM     69  S   UNL A   1      47.676  26.999  25.402  1.00  0.00     0.127 S 
ATOM     70  O   UNL A   1      47.474  26.070  24.291  1.00  0.00    -0.237 OA
ATOM     71  O   UNL A   1      47.962  28.378  25.003  1.00  0.00    -0.237 OA
ATOM     72  O   UNL A   1      48.504  26.499  26.491  1.00  0.00    -0.744 OA
ENDBRANCH  66  69
ENDBRANCH  39  62
ENDBRANCH  13  14
ENDBRANCH   6   8
ENDBRANCH   5   6
ENDBRANCH   4   5
ENDBRANCH   3   4
ENDBRANCH   2   3
ENDBRANCH   1   2
BRANCH   1  73
ATOM     73  C   UNL A   1      38.367  32.809  40.959  1.00  0.00     0.188 C 
BRANCH  73  74
ATOM     74  O   UNL A   1      38.719  32.145  39.760  1.00  0.00    -0.376 OA
BRANCH  74  75
ATOM     75  C   UNL A   1      38.401  32.735  38.520  1.00  0.00     0.202 C 
BRANCH  75  76
ATOM     76  C   UNL A   1      37.753  31.863  37.450  1.00  0.00     0.261 C 
BRANCH  76  77
ATOM     77  O   UNL A   1      38.117  32.076  36.070  1.00  0.00    -0.463 OA
BRANCH  77  78
ATOM     78  C   UNL A   1      37.272  32.870  35.353  1.00  0.00     0.312 C 
ATOM     79  O   UNL A   1      36.346  33.491  35.868  1.00  0.00    -0.252 OA
BRANCH  78  80
ATOM     80  C   UNL A   1      37.503  32.831  33.829  1.00  0.00     0.075 C 
ATOM     81  C   UNL A   1      37.710  34.198  33.122  1.00  0.00     0.040 C 
ATOM     82  C   UNL A   1      36.252  32.132  33.194  1.00  0.00     0.040 C 
ATOM     83  C   UNL A   1      36.472  35.009  32.707  1.00  0.00     0.119 C 
ATOM     84  C   UNL A   1      35.035  33.061  33.075  1.00  0.00     0.119 C 
ATOM     85  N   UNL A   1      35.428  34.143  32.200  1.00  0.00    -0.356 N 
BRANCH  80  86
ATOM     86  C   UNL A   1      38.768  31.897  33.588  1.00  0.00     0.056 C 
BRANCH  86  87
ATOM     87  C   UNL A   1      38.640  30.831  32.503  1.00  0.00    -0.028 A 
ATOM     88  C   UNL A   1      38.438  29.499  32.881  1.00  0.00     0.005 A 
ATOM     89  C   UNL A   1      38.677  31.085  31.129  1.00  0.00     0.044 A 
ATOM     90  C   UNL A   1      38.034  28.528  31.958  1.00  0.00     0.000 A 
ATOM     91  C   UNL A   1      38.185  30.149  30.208  1.00  0.00     0.021 A 
ATOM     92  Cl  UNL A   1      39.516  32.457  30.499  1.00  0.00    -0.084 Cl
ATOM     93  C   UNL A   1      37.824  28.875  30.632  1.00  0.00     0.002 A 
ENDBRANCH  86  87
ENDBRANCH  80  86
BRANCH  85  94
ATOM     94  C   UNL A   1      34.485  34.734  31.373  1.00  0.00     0.141 A 
ATOM     95  N   UNL A   1      33.725  35.771  31.816  1.00  0.00    -0.219 NA
ATOM     96  C   UNL A   1      34.241  34.265  30.062  1.00  0.00     0.061 A 
ATOM     97  C   UNL A   1      32.813  36.309  30.975  1.00  0.00     0.226 A 
ATOM     98  C   UNL A   1      33.247  34.898  29.330  1.00  0.00     0.142 A 
ATOM     99  C   UNL A   1      34.742  33.217  29.235  1.00  0.00     0.033 A 
ATOM    100  N   UNL A   1      32.496  35.938  29.721  1.00  0.00    -0.218 NA
ATOM    101  N   UNL A   1      33.137  34.267  28.120  1.00  0.00    -0.346 N 
ATOM    102  C   UNL A   1      34.044  33.243  28.046  1.00  0.00     0.085 A 
ATOM    103  H   UNL A   1      32.501  34.512  27.409  1.00  0.00     0.167 HD
ENDBRANCH  85  94
ENDBRANCH  78  80
ENDBRANCH  77  78
ENDBRANCH  76  77
ENDBRANCH  75  76
ENDBRANCH  74  75
ENDBRANCH  73  74
ENDBRANCH   1  73
TORSDOF 23
ENDMDL
MODEL 3
REMARK VINA RESULT:     -10.0      6.553     11.766
REMARK SMILES O=C(OCCOCCOCCOC(=O)C1(Cc2ccccc2Cl)CCN(c2ncnc3[nH]ccc23)CC1)c1ccc(-c2c3nc(c(-c4cccc(S(=O)(=O)[O-])c4F)c4ccc([nH]4)c(-c4cccc(S(=O)(=O)[O-])c4F)c4nc(c(-c5cccc(S(=O)(=O)[O-])c5F)c5ccc2[nH]5)C=C4)C=C3)cc1
REMARK SMILES IDX 7 1 6 2 5 3 4 4 3 5 2 6 1 7 38 8 39 9 100 10 40 11 99 12
REMARK SMILES IDX 41 13 42 14 43 15 93 16 44 17 98 18 92 19 94 20 45 21 97 22
REMARK SMILES IDX 91 23 90 24 46 26 78 27 58 28 77 29 59 30 62 31 76 32 95 33
REMARK SMILES IDX 60 34 61 35 75 37 96 38 63 39 47 40 48 41 56 42 49 43 51 44
REMARK SMILES IDX 57 45 50 46 52 47 53 48 54 49 55 50 79 51 80 52 88 53 81 54
REMARK SMILES IDX 83 55 89 56 82 57 84 58 85 59 86 60 87 61 64 62 65 63 73 64
REMARK SMILES IDX 66 65 68 66 74 67 67 68 69 69 70 70 71 71 72 72 8 73 9 74
REMARK SMILES IDX 10 75 11 76 12 77 13 78 14 79 15 80 24 81 37 82 25 83 36 84
REMARK SMILES IDX 26 85 16 86 17 87 18 88 22 89 19 90 21 91 23 92 20 93 27 94
REMARK SMILES IDX 28 95 35 96 29 97 31 98 34 99 30 100 32 101 33 102
REMARK H PARENT 94 25 62 36 32 103
REMARK Flexibility Score: inf
ROOT
ATOM      1  C   UNL A   1      37.992  34.162  40.588  1.00  0.00     0.188 C 
ENDROOT
BRANCH   1   2
ATOM      2  O   UNL A   1      38.625  34.946  41.586  1.00  0.00    -0.376 OA
BRANCH   2   3
ATOM      3  C   UNL A   1      39.356  36.092  41.184  1.00  0.00     0.202 C 
BRANCH   3   4
ATOM      4  C   UNL A   1      39.050  36.632  39.780  1.00  0.00     0.261 C 
BRANCH   4   5
ATOM      5  O   UNL A   1      40.198  37.194  39.130  1.00  0.00    -0.460 OA
BRANCH   5   6
ATOM      6  C   UNL A   1      41.347  36.572  38.756  1.00  0.00     0.338 C 
ATOM      7  O   UNL A   1      42.322  36.696  39.495  1.00  0.00    -0.246 OA
BRANCH   6   8
ATOM      8  C   UNL A   1      41.533  35.820  37.461  1.00  0.00     0.060 A 
ATOM      9  C   UNL A   1      40.522  35.430  36.581  1.00  0.00     0.016 A 
ATOM     10  C   UNL A   1      42.858  35.525  37.082  1.00  0.00     0.016 A 
ATOM     11  C   UNL A   1      40.795  34.707  35.420  1.00  0.00     0.010 A 
ATOM     12  C   UNL A   1      43.146  34.805  35.912  1.00  0.00     0.010 A 
ATOM     13  C   UNL A   1      42.104  34.352  35.100  1.00  0.00    -0.014 A 
BRANCH  13  14
ATOM     14  C   UNL A   1      42.293  33.350  34.027  1.00  0.00     0.031 A 
ATOM     15  C   UNL A   1      42.629  33.841  32.661  1.00  0.00     0.074 A 
ATOM     16  C   UNL A   1      42.279  32.031  34.286  1.00  0.00     0.049 A 
ATOM     17  N   UNL A   1      42.988  33.151  31.616  1.00  0.00    -0.248 NA
ATOM     18  C   UNL A   1      42.533  35.292  32.436  1.00  0.00     0.031 C 
ATOM     19  C   UNL A   1      41.871  31.469  35.559  1.00  0.00     0.029 A 
ATOM     20  N   UNL A   1      42.595  30.931  33.528  1.00  0.00    -0.354 N 
ATOM     21  C   UNL A   1      43.111  34.075  30.593  1.00  0.00     0.074 A 
ATOM     22  C   UNL A   1      42.800  35.375  31.143  1.00  0.00     0.031 C 
ATOM     23  C   UNL A   1      41.975  30.137  35.509  1.00  0.00     0.029 A 
ATOM     24  C   UNL A   1      42.515  29.741  34.222  1.00  0.00     0.049 A 
ATOM     25  H   UNL A   1      42.856  30.986  32.580  1.00  0.00     0.167 HD
ATOM     26  C   UNL A   1      43.443  33.849  29.304  1.00  0.00     0.034 A 
ATOM     27  C   UNL A   1      42.861  28.485  33.870  1.00  0.00     0.034 A 
ATOM     28  C   UNL A   1      43.712  32.544  28.770  1.00  0.00     0.049 A 
ATOM     29  C   UNL A   1      43.338  28.283  32.460  1.00  0.00     0.074 A 
ATOM     30  C   UNL A   1      43.993  32.189  27.465  1.00  0.00     0.029 A 
ATOM     31  N   UNL A   1      43.715  31.373  29.516  1.00  0.00    -0.354 N 
ATOM     32  N   UNL A   1      43.519  29.181  31.523  1.00  0.00    -0.248 NA
ATOM     33  C   UNL A   1      43.645  26.907  32.048  1.00  0.00     0.031 C 
ATOM     34  C   UNL A   1      44.148  30.800  27.419  1.00  0.00     0.029 A 
ATOM     35  C   UNL A   1      44.006  30.294  28.702  1.00  0.00     0.049 A 
ATOM     36  H   UNL A   1      43.538  31.320  30.483  1.00  0.00     0.167 HD
ATOM     37  C   UNL A   1      43.935  28.480  30.403  1.00  0.00     0.074 A 
ATOM     38  C   UNL A   1      44.062  27.092  30.803  1.00  0.00     0.031 C 
ATOM     39  C   UNL A   1      44.143  28.931  29.142  1.00  0.00     0.034 A 
BRANCH  26  40
ATOM     40  C   UNL A   1      43.476  35.049  28.405  1.00  0.00     0.023 A 
ATOM     41  C   UNL A   1      42.283  35.525  27.824  1.00  0.00     0.012 A 
ATOM     42  C   UNL A   1      44.698  35.673  28.099  1.00  0.00     0.148 A 
ATOM     43  C   UNL A   1      42.314  36.582  26.915  1.00  0.00     0.002 A 
ATOM     44  C   UNL A   1      44.715  36.756  27.232  1.00  0.00     0.091 A 
ATOM     45  F   UNL A   1      45.822  35.177  28.638  1.00  0.00    -0.205 F 
ATOM     46  C   UNL A   1      43.529  37.201  26.626  1.00  0.00     0.022 A 
BRANCH  44  47
ATOM     47  S   UNL A   1      46.214  37.660  26.838  1.00  0.00     0.127 S 
ATOM     48  O   UNL A   1      46.831  37.800  28.154  1.00  0.00    -0.237 OA
ATOM     49  O   UNL A   1      46.894  36.738  25.934  1.00  0.00    -0.237 OA
ATOM     50  O   UNL A   1      45.778  38.913  26.224  1.00  0.00    -0.744 OA
ENDBRANCH  44  47
ENDBRANCH  26  40
BRANCH  27  51
ATOM     51  C   UNL A   1      42.837  27.349  34.848  1.00  0.00     0.023 A 
ATOM     52  C   UNL A   1      41.650  26.606  35.033  1.00  0.00     0.012 A 
ATOM     53  C   UNL A   1      43.974  26.976  35.589  1.00  0.00     0.148 A 
ATOM     54  C   UNL A   1      41.589  25.550  35.949  1.00  0.00     0.002 A 
ATOM     55  C   UNL A   1      43.931  25.871  36.435  1.00  0.00     0.091 A 
ATOM     56  F   UNL A   1      45.091  27.705  35.453  1.00  0.00    -0.205 F 
ATOM     57  C   UNL A   1      42.734  25.172  36.638  1.00  0.00     0.022 A 
BRANCH  55  58
ATOM     58  S   UNL A   1      45.425  25.219  37.190  1.00  0.00     0.127 S 
ATOM     59  O   UNL A   1      46.361  25.236  36.071  1.00  0.00    -0.237 OA
ATOM     60  O   UNL A   1      45.697  26.200  38.241  1.00  0.00    -0.237 OA
ATOM     61  O   UNL A   1      45.039  23.907  37.695  1.00  0.00    -0.744 OA
ENDBRANCH  55  58
ENDBRANCH  27  51
BRANCH  39  62
ATOM     62  C   UNL A   1      44.525  27.903  28.116  1.00  0.00     0.023 A 
ATOM     63  C   UNL A   1      45.883  27.599  27.897  1.00  0.00     0.012 A 
ATOM     64  C   UNL A   1      43.531  27.209  27.405  1.00  0.00     0.148 A 
ATOM     65  C   UNL A   1      46.248  26.644  26.952  1.00  0.00     0.002 A 
ATOM     66  C   UNL A   1      43.899  26.218  26.507  1.00  0.00     0.091 A 
ATOM     67  F   UNL A   1      42.247  27.536  27.615  1.00  0.00    -0.205 F 
ATOM     68  C   UNL A   1      45.257  25.945  26.267  1.00  0.00     0.022 A 
BRANCH  66  69
ATOM     69  S   UNL A   1      42.690  25.201  25.659  1.00  0.00     0.127 S 
ATOM     70  O   UNL A   1      41.830  26.214  25.048  1.00  0.00    -0.237 OA
ATOM     71  O   UNL A   1      43.523  24.455  24.716  1.00  0.00    -0.237 OA
ATOM     72  O   UNL A   1      42.059  24.385  26.687  1.00  0.00    -0.744 OA
ENDBRANCH  66  69
ENDBRANCH  39  62
ENDBRANCH  13  14
ENDBRANCH   6   8
ENDBRANCH   5   6
ENDBRANCH   4   5
ENDBRANCH   3   4
ENDBRANCH   2   3
ENDBRANCH   1   2
BRANCH   1  73
ATOM     73  C   UNL A   1      38.153  32.641  40.550  1.00  0.00     0.188 C 
BRANCH  73  74
ATOM     74  O   UNL A   1      38.508  31.949  39.368  1.00  0.00    -0.376 OA
BRANCH  74  75
ATOM     75  C   UNL A   1      38.130  32.474  38.116  1.00  0.00     0.202 C 
BRANCH  75  76
ATOM     76  C   UNL A   1      37.989  31.512  36.941  1.00  0.00     0.261 C 
BRANCH  76  77
ATOM     77  O   UNL A   1      38.471  31.926  35.646  1.00  0.00    -0.463 OA
BRANCH  77  78
ATOM     78  C   UNL A   1      37.536  32.468  34.814  1.00  0.00     0.312 C 
ATOM     79  O   UNL A   1      36.494  32.972  35.224  1.00  0.00    -0.252 OA
BRANCH  78  80
ATOM     80  C   UNL A   1      37.842  32.291  33.314  1.00  0.00     0.075 C 
ATOM     81  C   UNL A   1      38.009  33.592  32.481  1.00  0.00     0.040 C 
ATOM     82  C   UNL A   1      36.662  31.462  32.700  1.00  0.00     0.040 C 
ATOM     83  C   UNL A   1      36.751  34.285  31.933  1.00  0.00     0.119 C 
ATOM     84  C   UNL A   1      35.404  32.303  32.436  1.00  0.00     0.119 C 
ATOM     85  N   UNL A   1      35.781  33.315  31.473  1.00  0.00    -0.356 N 
BRANCH  80  86
ATOM     86  C   UNL A   1      39.165  31.412  33.223  1.00  0.00     0.056 C 
BRANCH  86  87
ATOM     87  C   UNL A   1      39.366  30.602  31.945  1.00  0.00    -0.028 A 
ATOM     88  C   UNL A   1      39.844  31.250  30.800  1.00  0.00     0.005 A 
ATOM     89  C   UNL A   1      39.139  29.229  31.829  1.00  0.00     0.044 A 
ATOM     90  C   UNL A   1      40.316  30.532  29.695  1.00  0.00     0.000 A 
ATOM     91  C   UNL A   1      39.691  28.492  30.770  1.00  0.00     0.021 A 
ATOM     92  Cl  UNL A   1      38.004  28.423  32.853  1.00  0.00    -0.084 Cl
ATOM     93  C   UNL A   1      40.318  29.146  29.716  1.00  0.00     0.002 A 
ENDBRANCH  86  87
ENDBRANCH  80  86
BRANCH  85  94
ATOM     94  C   UNL A   1      34.848  33.765  30.551  1.00  0.00     0.141 A 
ATOM     95  N   UNL A   1      34.751  33.189  29.323  1.00  0.00    -0.219 NA
ATOM     96  C   UNL A   1      33.995  34.859  30.823  1.00  0.00     0.061 A 
ATOM     97  C   UNL A   1      33.832  33.667  28.455  1.00  0.00     0.226 A 
ATOM     98  C   UNL A   1      33.126  35.258  29.819  1.00  0.00     0.142 A 
ATOM     99  C   UNL A   1      33.793  35.759  31.910  1.00  0.00     0.033 A 
ATOM    100  N   UNL A   1      32.982  34.700  28.608  1.00  0.00    -0.218 NA
ATOM    101  N   UNL A   1      32.431  36.352  30.261  1.00  0.00    -0.346 N 
ATOM    102  C   UNL A   1      32.824  36.666  31.536  1.00  0.00     0.085 A 
ATOM    103  H   UNL A   1      31.751  36.840  29.742  1.00  0.00     0.167 HD
ENDBRANCH  85  94
ENDBRANCH  78  80
ENDBRANCH  77  78
ENDBRANCH  76  77
ENDBRANCH  75  76
ENDBRANCH  74  75
ENDBRANCH  73  74
ENDBRANCH   1  73
TORSDOF 23
ENDMDL
