MODEL 1
REMARK VINA RESULT:      -9.3      0.000      0.000
REMARK SMILES Cc1cn2c(CC(=O)N[C@@H](C(=O)OCCOCCOCCOC(=O)c3ccc(-c4c5nc(c(-c6cccc(S(=O)(=O)[O-])c6F)c6ccc([nH]6)c(-c6cccc(S(=O)(=O)[O-])c6F)c6nc(c(-c7cccc(S(=O)(=O)[O-])c7F)c7ccc4[nH]7)C=C6)C=C5)cc3)[C@H](C)O)csc2n1
REMARK SMILES IDX 17 1 16 2 15 3 14 4 13 5 11 6 12 7 10 8 9 9 7 10 8 11 6 13
REMARK SMILES IDX 5 14 1 15 2 16 3 17 94 18 4 19 93 20 92 21 91 22 88 23 89 24
REMARK SMILES IDX 90 25 18 27 19 28 20 29 21 30 22 31 23 32 24 33 25 34 26 35
REMARK SMILES IDX 87 36 27 37 86 38 28 39 29 40 30 41 80 42 31 43 85 44 79 45
REMARK SMILES IDX 81 46 32 47 84 48 78 49 77 50 33 52 65 53 45 54 64 55 46 56
REMARK SMILES IDX 49 57 63 58 82 59 47 60 48 61 62 63 83 64 50 65 34 66 35 67
REMARK SMILES IDX 43 68 36 69 38 70 44 71 37 72 39 73 40 74 41 75 42 76 66 77
REMARK SMILES IDX 67 78 75 79 68 80 70 81 76 82 69 83 71 84 72 85 73 86 74 87
REMARK SMILES IDX 51 88 52 89 60 90 53 91 55 92 61 93 54 94 56 95 57 96 58 97
REMARK SMILES IDX 59 98
REMARK H PARENT 9 12 90 26 81 51 49 62
REMARK Flexibility Score: inf
ROOT
ATOM      1  C   UNL A   1      39.854  21.268  26.474  1.00  0.00     0.188 C 
ENDROOT
BRANCH   1   2
ATOM      2  O   UNL A   1      39.035  21.719  25.405  1.00  0.00    -0.376 OA
BRANCH   2   3
ATOM      3  C   UNL A   1      37.788  22.337  25.699  1.00  0.00     0.202 C 
BRANCH   3   4
ATOM      4  C   UNL A   1      36.526  21.937  24.908  1.00  0.00     0.261 C 
BRANCH   4   5
ATOM      5  O   UNL A   1      35.652  20.973  25.544  1.00  0.00    -0.462 OA
BRANCH   5   6
ATOM      6  C   UNL A   1      34.364  20.943  25.108  1.00  0.00     0.331 C 
ATOM      7  O   UNL A   1      33.651  19.944  25.133  1.00  0.00    -0.250 OA
BRANCH   6   8
ATOM      8  C   UNL A   1      33.811  22.306  24.612  1.00  0.00     0.221 C 
BRANCH   8   9
ATOM      9  N   UNL A   1      32.972  23.151  25.489  1.00  0.00    -0.340 N 
ATOM     10  C   UNL A   1      33.097  24.448  25.881  1.00  0.00     0.226 C 
ATOM     11  O   UNL A   1      32.211  24.951  26.571  1.00  0.00    -0.275 OA
ATOM     12  H   UNL A   1      32.181  22.694  25.855  1.00  0.00     0.164 HD
BRANCH  10  13
ATOM     13  C   UNL A   1      34.292  25.269  25.434  1.00  0.00     0.155 C 
BRANCH  13  14
ATOM     14  C   UNL A   1      33.846  26.444  24.633  1.00  0.00     0.044 A 
ATOM     15  C   UNL A   1      33.136  30.523  27.376  1.00  0.00     0.068 C 
ATOM     16  C   UNL A   1      33.369  29.537  26.297  1.00  0.00     0.057 A 
ATOM     17  C   UNL A   1      33.973  28.291  26.395  1.00  0.00     0.117 A 
ATOM     18  N   UNL A   1      32.911  29.769  25.008  1.00  0.00    -0.224 NA
ATOM     19  N   UNL A   1      33.745  27.709  25.183  1.00  0.00    -0.294 N 
ATOM     20  C   UNL A   1      33.178  28.655  24.385  1.00  0.00     0.194 A 
ATOM     21  S   UNL A   1      32.817  28.015  22.814  1.00  0.00    -0.105 S 
ATOM     22  C   UNL A   1      33.386  26.432  23.365  1.00  0.00     0.091 A 
ENDBRANCH  13  14
ENDBRANCH  10  13
ENDBRANCH   8   9
BRANCH   8  23
ATOM     23  C   UNL A   1      33.068  22.035  23.272  1.00  0.00     0.145 C 
ATOM     24  C   UNL A   1      33.409  23.079  22.211  1.00  0.00     0.041 C 
BRANCH  23  25
ATOM     25  O   UNL A   1      31.646  22.001  23.476  1.00  0.00    -0.391 OA
ATOM     26  H   UNL A   1      31.281  21.197  23.076  1.00  0.00     0.211 HD
ENDBRANCH  23  25
ENDBRANCH   8  23
ENDBRANCH   6   8
ENDBRANCH   5   6
ENDBRANCH   4   5
ENDBRANCH   3   4
ENDBRANCH   2   3
ENDBRANCH   1   2
BRANCH   1  27
ATOM     27  C   UNL A   1      41.271  20.769  26.149  1.00  0.00     0.188 C 
BRANCH  27  28
ATOM     28  O   UNL A   1      41.350  19.404  25.818  1.00  0.00    -0.376 OA
BRANCH  28  29
ATOM     29  C   UNL A   1      42.386  18.635  26.398  1.00  0.00     0.202 C 
BRANCH  29  30
ATOM     30  C   UNL A   1      43.565  18.117  25.552  1.00  0.00     0.261 C 
BRANCH  30  31
ATOM     31  O   UNL A   1      44.712  18.971  25.409  1.00  0.00    -0.460 OA
BRANCH  31  32
ATOM     32  C   UNL A   1      44.747  19.809  24.348  1.00  0.00     0.338 C 
ATOM     33  O   UNL A   1      44.639  19.494  23.170  1.00  0.00    -0.246 OA
BRANCH  32  34
ATOM     34  C   UNL A   1      44.695  21.201  24.858  1.00  0.00     0.060 A 
ATOM     35  C   UNL A   1      44.513  22.251  23.946  1.00  0.00     0.016 A 
ATOM     36  C   UNL A   1      44.803  21.473  26.224  1.00  0.00     0.016 A 
ATOM     37  C   UNL A   1      44.468  23.574  24.394  1.00  0.00     0.010 A 
ATOM     38  C   UNL A   1      44.781  22.801  26.668  1.00  0.00     0.010 A 
ATOM     39  C   UNL A   1      44.646  23.862  25.752  1.00  0.00    -0.014 A 
BRANCH  39  40
ATOM     40  C   UNL A   1      44.845  25.269  26.189  1.00  0.00     0.031 A 
ATOM     41  C   UNL A   1      46.234  25.850  26.164  1.00  0.00     0.074 A 
ATOM     42  C   UNL A   1      43.813  26.031  26.595  1.00  0.00     0.049 A 
ATOM     43  N   UNL A   1      46.642  27.044  26.506  1.00  0.00    -0.248 NA
ATOM     44  C   UNL A   1      47.309  24.960  25.694  1.00  0.00     0.031 C 
ATOM     45  C   UNL A   1      42.420  25.597  26.670  1.00  0.00     0.029 A 
ATOM     46  N   UNL A   1      43.787  27.328  27.050  1.00  0.00    -0.354 N 
ATOM     47  C   UNL A   1      48.020  27.041  26.326  1.00  0.00     0.074 A 
ATOM     48  C   UNL A   1      48.380  25.722  25.852  1.00  0.00     0.031 C 
ATOM     49  C   UNL A   1      41.678  26.598  27.172  1.00  0.00     0.029 A 
ATOM     50  C   UNL A   1      42.546  27.735  27.478  1.00  0.00     0.049 A 
ATOM     51  H   UNL A   1      44.582  27.909  27.067  1.00  0.00     0.167 HD
ATOM     52  C   UNL A   1      48.907  28.046  26.526  1.00  0.00     0.034 A 
ATOM     53  C   UNL A   1      42.158  28.883  28.072  1.00  0.00     0.034 A 
ATOM     54  C   UNL A   1      48.551  29.362  26.984  1.00  0.00     0.049 A 
ATOM     55  C   UNL A   1      43.167  29.980  28.303  1.00  0.00     0.074 A 
ATOM     56  C   UNL A   1      49.372  30.464  27.153  1.00  0.00     0.029 A 
ATOM     57  N   UNL A   1      47.279  29.751  27.374  1.00  0.00    -0.354 N 
ATOM     58  N   UNL A   1      44.442  30.008  28.001  1.00  0.00    -0.248 NA
ATOM     59  C   UNL A   1      42.672  31.218  28.924  1.00  0.00     0.031 C 
ATOM     60  C   UNL A   1      48.605  31.504  27.690  1.00  0.00     0.029 A 
ATOM     61  C   UNL A   1      47.296  31.066  27.808  1.00  0.00     0.049 A 
ATOM     62  H   UNL A   1      46.480  29.176  27.346  1.00  0.00     0.167 HD
ATOM     63  C   UNL A   1      44.895  31.273  28.368  1.00  0.00     0.074 A 
ATOM     64  C   UNL A   1      43.749  31.990  28.887  1.00  0.00     0.031 C 
ATOM     65  C   UNL A   1      46.148  31.789  28.291  1.00  0.00     0.034 A 
BRANCH  52  66
ATOM     66  C   UNL A   1      50.360  27.760  26.246  1.00  0.00     0.023 A 
ATOM     67  C   UNL A   1      51.232  27.432  27.305  1.00  0.00     0.012 A 
ATOM     68  C   UNL A   1      50.851  27.770  24.926  1.00  0.00     0.148 A 
ATOM     69  C   UNL A   1      52.577  27.155  27.058  1.00  0.00     0.002 A 
ATOM     70  C   UNL A   1      52.180  27.444  24.682  1.00  0.00     0.091 A 
ATOM     71  F   UNL A   1      50.014  28.105  23.935  1.00  0.00    -0.205 F 
ATOM     72  C   UNL A   1      53.047  27.151  25.747  1.00  0.00     0.022 A 
BRANCH  70  73
ATOM     73  S   UNL A   1      52.860  27.328  23.024  1.00  0.00     0.127 S 
ATOM     74  O   UNL A   1      53.916  26.332  23.208  1.00  0.00    -0.237 OA
ATOM     75  O   UNL A   1      51.709  26.860  22.253  1.00  0.00    -0.237 OA
ATOM     76  O   UNL A   1      53.318  28.667  22.682  1.00  0.00    -0.744 OA
ENDBRANCH  70  73
ENDBRANCH  52  66
BRANCH  53  77
ATOM     77  C   UNL A   1      40.736  29.062  28.481  1.00  0.00     0.023 A 
ATOM     78  C   UNL A   1      39.766  29.403  27.519  1.00  0.00     0.012 A 
ATOM     79  C   UNL A   1      40.342  28.884  29.822  1.00  0.00     0.148 A 
ATOM     80  C   UNL A   1      38.434  29.591  27.889  1.00  0.00     0.002 A 
ATOM     81  C   UNL A   1      39.004  29.013  30.173  1.00  0.00     0.091 A 
ATOM     82  F   UNL A   1      41.284  28.578  30.724  1.00  0.00    -0.205 F 
ATOM     83  C   UNL A   1      38.051  29.385  29.212  1.00  0.00     0.022 A 
BRANCH  81  84
ATOM     84  S   UNL A   1      38.398  28.643  31.822  1.00  0.00     0.127 S 
ATOM     85  O   UNL A   1      38.570  27.195  31.887  1.00  0.00    -0.237 OA
ATOM     86  O   UNL A   1      39.322  29.413  32.655  1.00  0.00    -0.237 OA
ATOM     87  O   UNL A   1      37.021  29.116  31.852  1.00  0.00    -0.744 OA
ENDBRANCH  81  84
ENDBRANCH  53  77
BRANCH  65  88
ATOM     88  C   UNL A   1      46.349  33.213  28.749  1.00  0.00     0.023 A 
ATOM     89  C   UNL A   1      46.806  33.479  30.056  1.00  0.00     0.012 A 
ATOM     90  C   UNL A   1      46.138  34.290  27.862  1.00  0.00     0.148 A 
ATOM     91  C   UNL A   1      47.004  34.792  30.487  1.00  0.00     0.002 A 
ATOM     92  C   UNL A   1      46.389  35.591  28.282  1.00  0.00     0.091 A 
ATOM     93  F   UNL A   1      45.691  34.023  26.627  1.00  0.00    -0.205 F 
ATOM     94  C   UNL A   1      46.806  35.845  29.599  1.00  0.00     0.022 A 
BRANCH  92  95
ATOM     95  S   UNL A   1      46.256  37.004  27.180  1.00  0.00     0.127 S 
ATOM     96  O   UNL A   1      44.818  37.041  26.917  1.00  0.00    -0.237 OA
ATOM     97  O   UNL A   1      46.752  38.098  28.015  1.00  0.00    -0.237 OA
ATOM     98  O   UNL A   1      47.093  36.695  26.028  1.00  0.00    -0.744 OA
ENDBRANCH  92  95
ENDBRANCH  65  88
ENDBRANCH  39  40
ENDBRANCH  32  34
ENDBRANCH  31  32
ENDBRANCH  30  31
ENDBRANCH  29  30
ENDBRANCH  28  29
ENDBRANCH  27  28
ENDBRANCH   1  27
TORSDOF 25
ENDMDL
MODEL 2
REMARK VINA RESULT:      -9.1      6.263     10.625
REMARK SMILES Cc1cn2c(CC(=O)N[C@@H](C(=O)OCCOCCOCCOC(=O)c3ccc(-c4c5nc(c(-c6cccc(S(=O)(=O)[O-])c6F)c6ccc([nH]6)c(-c6cccc(S(=O)(=O)[O-])c6F)c6nc(c(-c7cccc(S(=O)(=O)[O-])c7F)c7ccc4[nH]7)C=C6)C=C5)cc3)[C@H](C)O)csc2n1
REMARK SMILES IDX 17 1 16 2 15 3 14 4 13 5 11 6 12 7 10 8 9 9 7 10 8 11 6 13
REMARK SMILES IDX 5 14 1 15 2 16 3 17 94 18 4 19 93 20 92 21 91 22 88 23 89 24
REMARK SMILES IDX 90 25 18 27 19 28 20 29 21 30 22 31 23 32 24 33 25 34 26 35
REMARK SMILES IDX 87 36 27 37 86 38 28 39 29 40 30 41 80 42 31 43 85 44 79 45
REMARK SMILES IDX 81 46 32 47 84 48 78 49 77 50 33 52 65 53 45 54 64 55 46 56
REMARK SMILES IDX 49 57 63 58 82 59 47 60 48 61 62 63 83 64 50 65 34 66 35 67
REMARK SMILES IDX 43 68 36 69 38 70 44 71 37 72 39 73 40 74 41 75 42 76 66 77
REMARK SMILES IDX 67 78 75 79 68 80 70 81 76 82 69 83 71 84 72 85 73 86 74 87
REMARK SMILES IDX 51 88 52 89 60 90 53 91 55 92 61 93 54 94 56 95 57 96 58 97
REMARK SMILES IDX 59 98
REMARK H PARENT 9 12 90 26 81 51 49 62
REMARK Flexibility Score: inf
ROOT
ATOM      1  C   UNL A   1      31.921  27.801  27.352  1.00  0.00     0.188 C 
ENDROOT
BRANCH   1   2
ATOM      2  O   UNL A   1      31.078  27.198  26.381  1.00  0.00    -0.376 OA
BRANCH   2   3
ATOM      3  C   UNL A   1      30.984  27.780  25.086  1.00  0.00     0.202 C 
BRANCH   3   4
ATOM      4  C   UNL A   1      30.981  26.878  23.835  1.00  0.00     0.261 C 
BRANCH   4   5
ATOM      5  O   UNL A   1      32.177  26.911  23.021  1.00  0.00    -0.462 OA
BRANCH   5   6
ATOM      6  C   UNL A   1      33.336  26.544  23.631  1.00  0.00     0.331 C 
ATOM      7  O   UNL A   1      34.052  27.310  24.270  1.00  0.00    -0.250 OA
BRANCH   6   8
ATOM      8  C   UNL A   1      33.683  25.035  23.519  1.00  0.00     0.221 C 
BRANCH   8   9
ATOM      9  N   UNL A   1      35.087  24.571  23.576  1.00  0.00    -0.340 N 
ATOM     10  C   UNL A   1      35.754  23.830  24.501  1.00  0.00     0.226 C 
ATOM     11  O   UNL A   1      36.923  23.511  24.280  1.00  0.00    -0.275 OA
ATOM     12  H   UNL A   1      35.636  24.848  22.808  1.00  0.00     0.164 HD
BRANCH  10  13
ATOM     13  C   UNL A   1      35.051  23.369  25.764  1.00  0.00     0.155 C 
BRANCH  13  14
ATOM     14  C   UNL A   1      34.001  22.363  25.438  1.00  0.00     0.044 A 
ATOM     15  C   UNL A   1      29.473  23.688  26.987  1.00  0.00     0.068 C 
ATOM     16  C   UNL A   1      30.644  23.082  26.314  1.00  0.00     0.057 A 
ATOM     17  C   UNL A   1      31.894  23.646  26.103  1.00  0.00     0.117 A 
ATOM     18  N   UNL A   1      30.603  21.774  25.855  1.00  0.00    -0.224 NA
ATOM     19  N   UNL A   1      32.657  22.613  25.644  1.00  0.00    -0.294 N 
ATOM     20  C   UNL A   1      31.823  21.555  25.450  1.00  0.00     0.194 A 
ATOM     21  S   UNL A   1      32.695  20.165  24.886  1.00  0.00    -0.105 S 
ATOM     22  C   UNL A   1      34.198  21.091  25.032  1.00  0.00     0.091 A 
ENDBRANCH  13  14
ENDBRANCH  10  13
ENDBRANCH   8   9
BRANCH   8  23
ATOM     23  C   UNL A   1      33.006  24.508  22.221  1.00  0.00     0.145 C 
ATOM     24  C   UNL A   1      33.314  23.031  21.978  1.00  0.00     0.041 C 
BRANCH  23  25
ATOM     25  O   UNL A   1      33.419  25.281  21.082  1.00  0.00    -0.391 OA
ATOM     26  H   UNL A   1      32.935  24.981  20.296  1.00  0.00     0.211 HD
ENDBRANCH  23  25
ENDBRANCH   8  23
ENDBRANCH   6   8
ENDBRANCH   5   6
ENDBRANCH   4   5
ENDBRANCH   3   4
ENDBRANCH   2   3
ENDBRANCH   1   2
BRANCH   1  27
ATOM     27  C   UNL A   1      32.558  29.160  27.024  1.00  0.00     0.188 C 
BRANCH  27  28
ATOM     28  O   UNL A   1      31.681  30.256  27.113  1.00  0.00    -0.376 OA
BRANCH  28  29
ATOM     29  C   UNL A   1      32.170  31.533  26.751  1.00  0.00     0.202 C 
BRANCH  29  30
ATOM     30  C   UNL A   1      33.296  32.213  27.554  1.00  0.00     0.261 C 
BRANCH  30  31
ATOM     31  O   UNL A   1      33.422  33.641  27.451  1.00  0.00    -0.460 OA
BRANCH  31  32
ATOM     32  C   UNL A   1      33.418  34.359  28.598  1.00  0.00     0.338 C 
ATOM     33  O   UNL A   1      32.523  35.092  28.992  1.00  0.00    -0.246 OA
BRANCH  32  34
ATOM     34  C   UNL A   1      34.576  33.924  29.417  1.00  0.00     0.060 A 
ATOM     35  C   UNL A   1      35.871  34.259  28.994  1.00  0.00     0.016 A 
ATOM     36  C   UNL A   1      34.392  33.209  30.603  1.00  0.00     0.016 A 
ATOM     37  C   UNL A   1      36.982  33.857  29.739  1.00  0.00     0.010 A 
ATOM     38  C   UNL A   1      35.509  32.786  31.335  1.00  0.00     0.010 A 
ATOM     39  C   UNL A   1      36.812  33.080  30.891  1.00  0.00    -0.014 A 
BRANCH  39  40
ATOM     40  C   UNL A   1      37.993  32.449  31.537  1.00  0.00     0.031 A 
ATOM     41  C   UNL A   1      38.652  31.276  30.862  1.00  0.00     0.074 A 
ATOM     42  C   UNL A   1      38.484  32.908  32.703  1.00  0.00     0.049 A 
ATOM     43  N   UNL A   1      39.684  30.568  31.244  1.00  0.00    -0.248 NA
ATOM     44  C   UNL A   1      38.067  30.840  29.583  1.00  0.00     0.031 C 
ATOM     45  C   UNL A   1      37.944  34.032  33.464  1.00  0.00     0.029 A 
ATOM     46  N   UNL A   1      39.538  32.461  33.463  1.00  0.00    -0.354 N 
ATOM     47  C   UNL A   1      39.850  29.586  30.277  1.00  0.00     0.074 A 
ATOM     48  C   UNL A   1      38.808  29.782  29.292  1.00  0.00     0.031 C 
ATOM     49  C   UNL A   1      38.649  34.169  34.599  1.00  0.00     0.029 A 
ATOM     50  C   UNL A   1      39.675  33.127  34.658  1.00  0.00     0.049 A 
ATOM     51  H   UNL A   1      40.138  31.734  33.179  1.00  0.00     0.167 HD
ATOM     52  C   UNL A   1      40.790  28.612  30.205  1.00  0.00     0.034 A 
ATOM     53  C   UNL A   1      40.513  32.907  35.693  1.00  0.00     0.034 A 
ATOM     54  C   UNL A   1      41.835  28.421  31.175  1.00  0.00     0.049 A 
ATOM     55  C   UNL A   1      41.538  31.805  35.599  1.00  0.00     0.074 A 
ATOM     56  C   UNL A   1      42.872  27.503  31.152  1.00  0.00     0.029 A 
ATOM     57  N   UNL A   1      41.965  29.137  32.354  1.00  0.00    -0.354 N 
ATOM     58  N   UNL A   1      41.768  30.970  34.614  1.00  0.00    -0.248 NA
ATOM     59  C   UNL A   1      42.442  31.639  36.747  1.00  0.00     0.031 C 
ATOM     60  C   UNL A   1      43.599  27.633  32.339  1.00  0.00     0.029 A 
ATOM     61  C   UNL A   1      43.046  28.665  33.080  1.00  0.00     0.049 A 
ATOM     62  H   UNL A   1      41.374  29.873  32.635  1.00  0.00     0.167 HD
ATOM     63  C   UNL A   1      42.859  30.202  35.011  1.00  0.00     0.074 A 
ATOM     64  C   UNL A   1      43.261  30.691  36.313  1.00  0.00     0.031 C 
ATOM     65  C   UNL A   1      43.466  29.177  34.359  1.00  0.00     0.034 A 
BRANCH  52  66
ATOM     66  C   UNL A   1      40.733  27.672  29.028  1.00  0.00     0.023 A 
ATOM     67  C   UNL A   1      39.700  26.716  28.937  1.00  0.00     0.012 A 
ATOM     68  C   UNL A   1      41.677  27.768  27.987  1.00  0.00     0.148 A 
ATOM     69  C   UNL A   1      39.630  25.847  27.848  1.00  0.00     0.002 A 
ATOM     70  C   UNL A   1      41.572  26.933  26.882  1.00  0.00     0.091 A 
ATOM     71  F   UNL A   1      42.664  28.667  28.101  1.00  0.00    -0.205 F 
ATOM     72  C   UNL A   1      40.559  25.963  26.817  1.00  0.00     0.022 A 
BRANCH  70  73
ATOM     73  S   UNL A   1      42.667  27.061  25.464  1.00  0.00     0.127 S 
ATOM     74  O   UNL A   1      42.423  25.787  24.788  1.00  0.00    -0.237 OA
ATOM     75  O   UNL A   1      42.133  28.232  24.769  1.00  0.00    -0.237 OA
ATOM     76  O   UNL A   1      44.008  27.233  26.005  1.00  0.00    -0.744 OA
ENDBRANCH  70  73
ENDBRANCH  52  66
BRANCH  53  77
ATOM     77  C   UNL A   1      40.428  33.762  36.911  1.00  0.00     0.023 A 
ATOM     78  C   UNL A   1      41.131  34.981  36.963  1.00  0.00     0.012 A 
ATOM     79  C   UNL A   1      39.642  33.374  38.013  1.00  0.00     0.148 A 
ATOM     80  C   UNL A   1      41.075  35.784  38.102  1.00  0.00     0.002 A 
ATOM     81  C   UNL A   1      39.543  34.207  39.120  1.00  0.00     0.091 A 
ATOM     82  F   UNL A   1      38.995  32.201  37.949  1.00  0.00    -0.205 F 
ATOM     83  C   UNL A   1      40.273  35.404  39.175  1.00  0.00     0.022 A 
BRANCH  81  84
ATOM     84  S   UNL A   1      38.437  33.863  40.492  1.00  0.00     0.127 S 
ATOM     85  O   UNL A   1      39.316  33.150  41.414  1.00  0.00    -0.237 OA
ATOM     86  O   UNL A   1      38.062  35.212  40.915  1.00  0.00    -0.237 OA
ATOM     87  O   UNL A   1      37.344  33.081  39.932  1.00  0.00    -0.744 OA
ENDBRANCH  81  84
ENDBRANCH  53  77
BRANCH  65  88
ATOM     88  C   UNL A   1      44.656  28.529  35.025  1.00  0.00     0.023 A 
ATOM     89  C   UNL A   1      45.945  29.077  34.863  1.00  0.00     0.012 A 
ATOM     90  C   UNL A   1      44.488  27.403  35.858  1.00  0.00     0.148 A 
ATOM     91  C   UNL A   1      47.050  28.490  35.480  1.00  0.00     0.002 A 
ATOM     92  C   UNL A   1      45.586  26.857  36.513  1.00  0.00     0.091 A 
ATOM     93  F   UNL A   1      43.259  26.884  35.992  1.00  0.00    -0.205 F 
ATOM     94  C   UNL A   1      46.870  27.389  36.312  1.00  0.00     0.022 A 
BRANCH  92  95
ATOM     95  S   UNL A   1      45.437  25.498  37.679  1.00  0.00     0.127 S 
ATOM     96  O   UNL A   1      44.652  24.532  36.912  1.00  0.00    -0.237 OA
ATOM     97  O   UNL A   1      46.833  25.118  37.893  1.00  0.00    -0.237 OA
ATOM     98  O   UNL A   1      44.774  26.048  38.854  1.00  0.00    -0.744 OA
ENDBRANCH  92  95
ENDBRANCH  65  88
ENDBRANCH  39  40
ENDBRANCH  32  34
ENDBRANCH  31  32
ENDBRANCH  30  31
ENDBRANCH  29  30
ENDBRANCH  28  29
ENDBRANCH  27  28
ENDBRANCH   1  27
TORSDOF 25
ENDMDL
MODEL 3
REMARK VINA RESULT:      -8.9      6.691     12.222
REMARK SMILES Cc1cn2c(CC(=O)N[C@@H](C(=O)OCCOCCOCCOC(=O)c3ccc(-c4c5nc(c(-c6cccc(S(=O)(=O)[O-])c6F)c6ccc([nH]6)c(-c6cccc(S(=O)(=O)[O-])c6F)c6nc(c(-c7cccc(S(=O)(=O)[O-])c7F)c7ccc4[nH]7)C=C6)C=C5)cc3)[C@H](C)O)csc2n1
REMARK SMILES IDX 17 1 16 2 15 3 14 4 13 5 11 6 12 7 10 8 9 9 7 10 8 11 6 13
REMARK SMILES IDX 5 14 1 15 2 16 3 17 94 18 4 19 93 20 92 21 91 22 88 23 89 24
REMARK SMILES IDX 90 25 18 27 19 28 20 29 21 30 22 31 23 32 24 33 25 34 26 35
REMARK SMILES IDX 87 36 27 37 86 38 28 39 29 40 30 41 80 42 31 43 85 44 79 45
REMARK SMILES IDX 81 46 32 47 84 48 78 49 77 50 33 52 65 53 45 54 64 55 46 56
REMARK SMILES IDX 49 57 63 58 82 59 47 60 48 61 62 63 83 64 50 65 34 66 35 67
REMARK SMILES IDX 43 68 36 69 38 70 44 71 37 72 39 73 40 74 41 75 42 76 66 77
REMARK SMILES IDX 67 78 75 79 68 80 70 81 76 82 69 83 71 84 72 85 73 86 74 87
REMARK SMILES IDX 51 88 52 89 60 90 53 91 55 92 61 93 54 94 56 95 57 96 58 97
REMARK SMILES IDX 59 98
REMARK H PARENT 9 12 90 26 81 51 49 62
REMARK Flexibility Score: inf
ROOT
ATOM      1  C   UNL A   1      31.990  29.341  25.874  1.00  0.00     0.188 C 
ENDROOT
BRANCH   1   2
ATOM      2  O   UNL A   1      31.095  28.366  25.359  1.00  0.00    -0.376 OA
BRANCH   2   3
ATOM      3  C   UNL A   1      31.491  27.581  24.241  1.00  0.00     0.202 C 
BRANCH   3   4
ATOM      4  C   UNL A   1      32.967  27.164  24.078  1.00  0.00     0.261 C 
BRANCH   4   5
ATOM      5  O   UNL A   1      33.595  26.569  25.239  1.00  0.00    -0.462 OA
BRANCH   5   6
ATOM      6  C   UNL A   1      32.943  25.521  25.810  1.00  0.00     0.331 C 
ATOM      7  O   UNL A   1      31.871  25.614  26.401  1.00  0.00    -0.250 OA
BRANCH   6   8
ATOM      8  C   UNL A   1      33.628  24.142  25.613  1.00  0.00     0.221 C 
BRANCH   8   9
ATOM      9  N   UNL A   1      33.691  23.159  26.717  1.00  0.00    -0.340 N 
ATOM     10  C   UNL A   1      33.510  21.811  26.737  1.00  0.00     0.226 C 
ATOM     11  O   UNL A   1      33.690  21.199  27.790  1.00  0.00    -0.275 OA
ATOM     12  H   UNL A   1      33.900  23.550  27.595  1.00  0.00     0.164 HD
BRANCH  10  13
ATOM     13  C   UNL A   1      33.136  21.072  25.465  1.00  0.00     0.155 C 
BRANCH  13  14
ATOM     14  C   UNL A   1      34.215  20.119  25.080  1.00  0.00     0.044 A 
ATOM     15  C   UNL A   1      32.743  15.376  25.117  1.00  0.00     0.068 C 
ATOM     16  C   UNL A   1      33.434  16.667  24.901  1.00  0.00     0.057 A 
ATOM     17  C   UNL A   1      32.887  17.942  24.916  1.00  0.00     0.117 A 
ATOM     18  N   UNL A   1      34.808  16.716  24.710  1.00  0.00    -0.224 NA
ATOM     19  N   UNL A   1      33.967  18.774  24.878  1.00  0.00    -0.294 N 
ATOM     20  C   UNL A   1      35.066  17.994  24.685  1.00  0.00     0.194 A 
ATOM     21  S   UNL A   1      36.514  18.949  24.647  1.00  0.00    -0.105 S 
ATOM     22  C   UNL A   1      35.536  20.384  24.994  1.00  0.00     0.091 A 
ENDBRANCH  13  14
ENDBRANCH  10  13
ENDBRANCH   8   9
BRANCH   8  23
ATOM     23  C   UNL A   1      35.060  24.418  25.072  1.00  0.00     0.145 C 
ATOM     24  C   UNL A   1      35.267  23.821  23.680  1.00  0.00     0.041 C 
BRANCH  23  25
ATOM     25  O   UNL A   1      36.054  23.901  25.971  1.00  0.00    -0.391 OA
ATOM     26  H   UNL A   1      36.725  24.581  26.137  1.00  0.00     0.211 HD
ENDBRANCH  23  25
ENDBRANCH   8  23
ENDBRANCH   6   8
ENDBRANCH   5   6
ENDBRANCH   4   5
ENDBRANCH   3   4
ENDBRANCH   2   3
ENDBRANCH   1   2
BRANCH   1  27
ATOM     27  C   UNL A   1      31.461  30.763  26.117  1.00  0.00     0.188 C 
BRANCH  27  28
ATOM     28  O   UNL A   1      32.302  31.577  26.897  1.00  0.00    -0.376 OA
BRANCH  28  29
ATOM     29  C   UNL A   1      31.989  32.952  27.003  1.00  0.00     0.202 C 
BRANCH  29  30
ATOM     30  C   UNL A   1      32.956  33.941  27.683  1.00  0.00     0.261 C 
BRANCH  30  31
ATOM     31  O   UNL A   1      32.520  34.576  28.896  1.00  0.00    -0.460 OA
BRANCH  31  32
ATOM     32  C   UNL A   1      33.443  35.245  29.625  1.00  0.00     0.338 C 
ATOM     33  O   UNL A   1      33.310  36.355  30.122  1.00  0.00    -0.246 OA
BRANCH  32  34
ATOM     34  C   UNL A   1      34.555  34.312  29.927  1.00  0.00     0.060 A 
ATOM     35  C   UNL A   1      34.348  33.291  30.866  1.00  0.00     0.016 A 
ATOM     36  C   UNL A   1      35.787  34.425  29.279  1.00  0.00     0.016 A 
ATOM     37  C   UNL A   1      35.378  32.401  31.179  1.00  0.00     0.010 A 
ATOM     38  C   UNL A   1      36.826  33.546  29.612  1.00  0.00     0.010 A 
ATOM     39  C   UNL A   1      36.639  32.549  30.587  1.00  0.00    -0.014 A 
BRANCH  39  40
ATOM     40  C   UNL A   1      37.792  31.766  31.101  1.00  0.00     0.031 A 
ATOM     41  C   UNL A   1      38.339  32.085  32.468  1.00  0.00     0.074 A 
ATOM     42  C   UNL A   1      38.349  30.778  30.376  1.00  0.00     0.049 A 
ATOM     43  N   UNL A   1      39.339  31.540  33.111  1.00  0.00    -0.248 NA
ATOM     44  C   UNL A   1      37.669  33.168  33.206  1.00  0.00     0.031 C 
ATOM     45  C   UNL A   1      37.922  30.365  29.041  1.00  0.00     0.029 A 
ATOM     46  N   UNL A   1      39.417  29.959  30.657  1.00  0.00    -0.354 N 
ATOM     47  C   UNL A   1      39.441  32.233  34.311  1.00  0.00     0.074 A 
ATOM     48  C   UNL A   1      38.406  33.245  34.303  1.00  0.00     0.031 C 
ATOM     49  C   UNL A   1      38.739  29.393  28.604  1.00  0.00     0.029 A 
ATOM     50  C   UNL A   1      39.763  29.130  29.616  1.00  0.00     0.049 A 
ATOM     51  H   UNL A   1      39.890  29.967  31.520  1.00  0.00     0.167 HD
ATOM     52  C   UNL A   1      40.309  32.041  35.334  1.00  0.00     0.034 A 
ATOM     53  C   UNL A   1      40.799  28.277  29.483  1.00  0.00     0.034 A 
ATOM     54  C   UNL A   1      41.331  31.028  35.351  1.00  0.00     0.049 A 
ATOM     55  C   UNL A   1      41.764  28.094  30.627  1.00  0.00     0.074 A 
ATOM     56  C   UNL A   1      42.214  30.716  36.370  1.00  0.00     0.029 A 
ATOM     57  N   UNL A   1      41.628  30.182  34.294  1.00  0.00    -0.354 N 
ATOM     58  N   UNL A   1      41.765  28.662  31.809  1.00  0.00    -0.248 NA
ATOM     59  C   UNL A   1      42.852  27.124  30.430  1.00  0.00     0.031 C 
ATOM     60  C   UNL A   1      43.076  29.714  35.912  1.00  0.00     0.029 A 
ATOM     61  C   UNL A   1      42.697  29.366  34.626  1.00  0.00     0.049 A 
ATOM     62  H   UNL A   1      41.150  30.164  33.434  1.00  0.00     0.167 HD
ATOM     63  C   UNL A   1      42.831  28.099  32.504  1.00  0.00     0.074 A 
ATOM     64  C   UNL A   1      43.435  27.124  31.621  1.00  0.00     0.031 C 
ATOM     65  C   UNL A   1      43.275  28.372  33.758  1.00  0.00     0.034 A 
BRANCH  52  66
ATOM     66  C   UNL A   1      40.191  32.951  36.530  1.00  0.00     0.023 A 
ATOM     67  C   UNL A   1      40.893  34.172  36.561  1.00  0.00     0.012 A 
ATOM     68  C   UNL A   1      39.343  32.615  37.604  1.00  0.00     0.148 A 
ATOM     69  C   UNL A   1      40.784  35.028  37.657  1.00  0.00     0.002 A 
ATOM     70  C   UNL A   1      39.200  33.494  38.670  1.00  0.00     0.091 A 
ATOM     71  F   UNL A   1      38.700  31.439  37.568  1.00  0.00    -0.205 F 
ATOM     72  C   UNL A   1      39.930  34.693  38.705  1.00  0.00     0.022 A 
BRANCH  70  73
ATOM     73  S   UNL A   1      38.062  33.195  40.026  1.00  0.00     0.127 S 
ATOM     74  O   UNL A   1      38.620  31.978  40.616  1.00  0.00    -0.237 OA
ATOM     75  O   UNL A   1      38.231  34.399  40.840  1.00  0.00    -0.237 OA
ATOM     76  O   UNL A   1      36.745  33.049  39.423  1.00  0.00    -0.744 OA
ENDBRANCH  70  73
ENDBRANCH  52  66
BRANCH  53  77
ATOM     77  C   UNL A   1      40.972  27.512  28.215  1.00  0.00     0.023 A 
ATOM     78  C   UNL A   1      41.583  28.124  27.105  1.00  0.00     0.012 A 
ATOM     79  C   UNL A   1      40.541  26.175  28.114  1.00  0.00     0.148 A 
ATOM     80  C   UNL A   1      41.737  27.427  25.906  1.00  0.00     0.002 A 
ATOM     81  C   UNL A   1      40.751  25.468  26.937  1.00  0.00     0.091 A 
ATOM     82  F   UNL A   1      39.945  25.618  29.177  1.00  0.00    -0.205 F 
ATOM     83  C   UNL A   1      41.332  26.097  25.825  1.00  0.00     0.022 A 
BRANCH  81  84
ATOM     84  S   UNL A   1      40.380  23.718  26.782  1.00  0.00     0.127 S 
ATOM     85  O   UNL A   1      39.001  23.746  26.304  1.00  0.00    -0.237 OA
ATOM     86  O   UNL A   1      41.369  23.293  25.790  1.00  0.00    -0.237 OA
ATOM     87  O   UNL A   1      40.576  23.153  28.109  1.00  0.00    -0.744 OA
ENDBRANCH  81  84
ENDBRANCH  53  77
BRANCH  65  88
ATOM     88  C   UNL A   1      44.456  27.585  34.271  1.00  0.00     0.023 A 
ATOM     89  C   UNL A   1      45.763  28.097  34.133  1.00  0.00     0.012 A 
ATOM     90  C   UNL A   1      44.266  26.358  34.941  1.00  0.00     0.148 A 
ATOM     91  C   UNL A   1      46.861  27.381  34.611  1.00  0.00     0.002 A 
ATOM     92  C   UNL A   1      45.360  25.678  35.463  1.00  0.00     0.091 A 
ATOM     93  F   UNL A   1      43.020  25.877  35.053  1.00  0.00    -0.205 F 
ATOM     94  C   UNL A   1      46.660  26.179  35.285  1.00  0.00     0.022 A 
BRANCH  92  95
ATOM     95  S   UNL A   1      45.190  24.172  36.428  1.00  0.00     0.127 S 
ATOM     96  O   UNL A   1      46.586  23.781  36.619  1.00  0.00    -0.237 OA
ATOM     97  O   UNL A   1      44.520  24.652  37.637  1.00  0.00    -0.237 OA
ATOM     98  O   UNL A   1      44.393  23.262  35.617  1.00  0.00    -0.744 OA
ENDBRANCH  92  95
ENDBRANCH  65  88
ENDBRANCH  39  40
ENDBRANCH  32  34
ENDBRANCH  31  32
ENDBRANCH  30  31
ENDBRANCH  29  30
ENDBRANCH  28  29
ENDBRANCH  27  28
ENDBRANCH   1  27
TORSDOF 25
ENDMDL
