MODEL 1
REMARK VINA RESULT:     -10.5      0.000      0.000
REMARK SMILES CC1(C)CCSC[C@@]1(Nc1ccccc1Br)C(=O)OCCOCCOCCOC(=O)c1ccc(-c2c3nc(c(-c4cccc(S(=O)(=O)[O-])c4F)c4ccc([nH]4)c(-c4cccc(S(=O)(=O)[O-])c4F)c4nc(c(-c5cccc(S(=O)(=O)[O-])c5F)c5ccc2[nH]5)C=C4)C=C3)cc1
REMARK SMILES IDX 24 1 23 2 22 3 21 4 20 5 19 6 17 7 18 8 8 9 1 10 2 11 3 12
REMARK SMILES IDX 4 13 5 14 7 15 6 16 9 17 10 19 11 20 15 21 12 22 14 23 16 24
REMARK SMILES IDX 13 25 25 26 26 27 27 28 28 29 29 30 30 31 31 32 32 33 93 34
REMARK SMILES IDX 33 35 92 36 34 37 35 38 36 39 86 40 37 41 91 42 85 43 87 44
REMARK SMILES IDX 38 45 90 46 84 47 83 48 39 50 71 51 51 52 70 53 52 54 55 55
REMARK SMILES IDX 69 56 88 57 53 58 54 59 68 61 89 62 56 63 40 64 41 65 49 66
REMARK SMILES IDX 42 67 44 68 50 69 43 70 45 71 46 72 47 73 48 74 72 75 73 76
REMARK SMILES IDX 81 77 74 78 76 79 82 80 75 81 77 82 78 83 79 84 80 85 57 86
REMARK SMILES IDX 58 87 66 88 59 89 61 90 67 91 60 92 62 93 63 94 64 95 65 96
REMARK H PARENT 9 18 87 49 55 60
REMARK Flexibility Score: inf
ROOT
ATOM      1  C   UNL A   1      34.552  32.556  27.993  1.00  0.00     0.188 C 
ENDROOT
BRANCH   1   2
ATOM      2  C   UNL A   1      34.316  31.093  27.568  1.00  0.00     0.188 C 
BRANCH   2   3
ATOM      3  O   UNL A   1      33.010  30.674  27.264  1.00  0.00    -0.376 OA
BRANCH   3   4
ATOM      4  C   UNL A   1      32.693  29.308  27.114  1.00  0.00     0.202 C 
BRANCH   4   5
ATOM      5  C   UNL A   1      33.512  28.316  26.282  1.00  0.00     0.261 C 
BRANCH   5   6
ATOM      6  O   UNL A   1      33.170  26.924  26.320  1.00  0.00    -0.461 OA
BRANCH   6   7
ATOM      7  C   UNL A   1      33.479  26.217  25.189  1.00  0.00     0.333 C 
ATOM      8  O   UNL A   1      34.036  26.718  24.219  1.00  0.00    -0.249 OA
BRANCH   7   9
ATOM      9  C   UNL A   1      32.924  24.757  25.182  1.00  0.00     0.150 C 
ATOM     10  C   UNL A   1      35.030  23.846  26.493  1.00  0.00     0.014 C 
ATOM     11  C   UNL A   1      34.124  23.682  25.243  1.00  0.00     0.000 C 
ATOM     12  C   UNL A   1      35.098  23.760  24.037  1.00  0.00     0.014 C 
ATOM     13  C   UNL A   1      33.552  22.234  25.258  1.00  0.00     0.020 C 
ATOM     14  C   UNL A   1      32.710  21.877  26.477  1.00  0.00     0.070 C 
ATOM     15  C   UNL A   1      31.979  24.553  26.406  1.00  0.00     0.110 C 
ATOM     16  S   UNL A   1      31.229  22.896  26.614  1.00  0.00    -0.159 SA
BRANCH   9  17
ATOM     17  N   UNL A   1      32.196  24.604  23.842  1.00  0.00    -0.368 N 
ATOM     18  H   UNL A   1      32.397  23.851  23.241  1.00  0.00     0.161 HD
BRANCH  17  19
ATOM     19  C   UNL A   1      31.228  25.572  23.489  1.00  0.00     0.049 A 
ATOM     20  C   UNL A   1      30.146  25.801  24.345  1.00  0.00     0.027 A 
ATOM     21  C   UNL A   1      31.362  26.427  22.377  1.00  0.00     0.041 A 
ATOM     22  C   UNL A   1      29.318  26.915  24.191  1.00  0.00     0.002 A 
ATOM     23  C   UNL A   1      30.578  27.582  22.256  1.00  0.00     0.018 A 
ATOM     24  Br  UNL A   1      32.516  26.017  20.923  1.00  0.00    -0.049 Br
ATOM     25  C   UNL A   1      29.568  27.835  23.179  1.00  0.00     0.001 A 
ENDBRANCH  17  19
ENDBRANCH   9  17
ENDBRANCH   7   9
ENDBRANCH   6   7
ENDBRANCH   5   6
ENDBRANCH   4   5
ENDBRANCH   3   4
ENDBRANCH   2   3
ENDBRANCH   1   2
BRANCH   1  26
ATOM     26  O   UNL A   1      33.616  33.253  28.790  1.00  0.00    -0.376 OA
BRANCH  26  27
ATOM     27  C   UNL A   1      34.087  34.273  29.648  1.00  0.00     0.202 C 
BRANCH  27  28
ATOM     28  C   UNL A   1      34.254  33.991  31.151  1.00  0.00     0.261 C 
BRANCH  28  29
ATOM     29  O   UNL A   1      34.428  32.610  31.518  1.00  0.00    -0.460 OA
BRANCH  29  30
ATOM     30  C   UNL A   1      35.356  32.346  32.473  1.00  0.00     0.338 C 
ATOM     31  O   UNL A   1      35.233  32.526  33.678  1.00  0.00    -0.246 OA
BRANCH  30  32
ATOM     32  C   UNL A   1      36.499  31.604  31.888  1.00  0.00     0.060 A 
ATOM     33  C   UNL A   1      37.282  30.795  32.728  1.00  0.00     0.016 A 
ATOM     34  C   UNL A   1      36.815  31.708  30.534  1.00  0.00     0.016 A 
ATOM     35  C   UNL A   1      38.376  30.087  32.217  1.00  0.00     0.010 A 
ATOM     36  C   UNL A   1      37.933  31.026  30.032  1.00  0.00     0.010 A 
ATOM     37  C   UNL A   1      38.728  30.221  30.869  1.00  0.00    -0.014 A 
BRANCH  37  38
ATOM     38  C   UNL A   1      39.988  29.623  30.343  1.00  0.00     0.031 A 
ATOM     39  C   UNL A   1      41.249  30.444  30.359  1.00  0.00     0.074 A 
ATOM     40  C   UNL A   1      40.007  28.387  29.809  1.00  0.00     0.049 A 
ATOM     41  N   UNL A   1      42.416  30.184  29.828  1.00  0.00    -0.248 NA
ATOM     42  C   UNL A   1      41.183  31.732  31.067  1.00  0.00     0.031 C 
ATOM     43  C   UNL A   1      38.871  27.470  29.755  1.00  0.00     0.029 A 
ATOM     44  N   UNL A   1      41.019  27.710  29.169  1.00  0.00    -0.354 N 
ATOM     45  C   UNL A   1      43.210  31.292  30.097  1.00  0.00     0.074 A 
ATOM     46  C   UNL A   1      42.394  32.222  30.849  1.00  0.00     0.031 C 
ATOM     47  C   UNL A   1      39.233  26.371  29.071  1.00  0.00     0.029 A 
ATOM     48  C   UNL A   1      40.611  26.522  28.605  1.00  0.00     0.049 A 
ATOM     49  H   UNL A   1      41.945  28.041  29.118  1.00  0.00     0.167 HD
ATOM     50  C   UNL A   1      44.501  31.517  29.749  1.00  0.00     0.034 A 
ATOM     51  C   UNL A   1      41.254  25.679  27.769  1.00  0.00     0.034 A 
ATOM     52  C   UNL A   1      45.319  30.592  29.011  1.00  0.00     0.049 A 
ATOM     53  C   UNL A   1      42.672  25.980  27.348  1.00  0.00     0.074 A 
ATOM     54  C   UNL A   1      46.652  30.716  28.662  1.00  0.00     0.029 A 
ATOM     55  N   UNL A   1      44.879  29.389  28.484  1.00  0.00    -0.354 N 
ATOM     56  N   UNL A   1      43.447  26.976  27.701  1.00  0.00    -0.248 NA
ATOM     57  C   UNL A   1      43.311  25.027  26.426  1.00  0.00     0.031 C 
ATOM     58  C   UNL A   1      47.006  29.608  27.884  1.00  0.00     0.029 A 
ATOM     59  C   UNL A   1      45.906  28.773  27.788  1.00  0.00     0.049 A 
ATOM     60  H   UNL A   1      43.970  29.025  28.590  1.00  0.00     0.167 HD
ATOM     61  C   UNL A   1      44.669  26.755  27.071  1.00  0.00     0.074 A 
ATOM     62  C   UNL A   1      44.540  25.517  26.333  1.00  0.00     0.031 C 
ATOM     63  C   UNL A   1      45.790  27.518  27.090  1.00  0.00     0.034 A 
BRANCH  50  64
ATOM     64  C   UNL A   1      45.120  32.828  30.162  1.00  0.00     0.023 A 
ATOM     65  C   UNL A   1      45.879  32.905  31.347  1.00  0.00     0.012 A 
ATOM     66  C   UNL A   1      45.001  33.965  29.341  1.00  0.00     0.148 A 
ATOM     67  C   UNL A   1      46.486  34.103  31.723  1.00  0.00     0.002 A 
ATOM     68  C   UNL A   1      45.646  35.143  29.698  1.00  0.00     0.091 A 
ATOM     69  F   UNL A   1      44.259  33.875  28.228  1.00  0.00    -0.205 F 
ATOM     70  C   UNL A   1      46.378  35.217  30.893  1.00  0.00     0.022 A 
BRANCH  68  71
ATOM     71  S   UNL A   1      45.635  36.609  28.660  1.00  0.00     0.127 S 
ATOM     72  O   UNL A   1      44.571  37.399  29.278  1.00  0.00    -0.237 OA
ATOM     73  O   UNL A   1      46.984  37.138  28.864  1.00  0.00    -0.237 OA
ATOM     74  O   UNL A   1      45.361  36.145  27.307  1.00  0.00    -0.744 OA
ENDBRANCH  68  71
ENDBRANCH  50  64
BRANCH  51  75
ATOM     75  C   UNL A   1      40.560  24.462  27.254  1.00  0.00     0.023 A 
ATOM     76  C   UNL A   1      39.351  24.597  26.545  1.00  0.00     0.012 A 
ATOM     77  C   UNL A   1      41.086  23.174  27.474  1.00  0.00     0.148 A 
ATOM     78  C   UNL A   1      38.663  23.469  26.091  1.00  0.00     0.002 A 
ATOM     79  C   UNL A   1      40.427  22.060  26.968  1.00  0.00     0.091 A 
ATOM     80  F   UNL A   1      42.226  23.064  28.172  1.00  0.00    -0.205 F 
ATOM     81  C   UNL A   1      39.206  22.203  26.292  1.00  0.00     0.022 A 
BRANCH  79  82
ATOM     82  S   UNL A   1      41.106  20.400  27.079  1.00  0.00     0.127 S 
ATOM     83  O   UNL A   1      40.770  20.030  28.451  1.00  0.00    -0.237 OA
ATOM     84  O   UNL A   1      40.345  19.695  26.047  1.00  0.00    -0.237 OA
ATOM     85  O   UNL A   1      42.528  20.534  26.793  1.00  0.00    -0.744 OA
ENDBRANCH  79  82
ENDBRANCH  51  75
BRANCH  63  86
ATOM     86  C   UNL A   1      46.993  27.033  26.318  1.00  0.00     0.023 A 
ATOM     87  C   UNL A   1      47.104  27.311  24.941  1.00  0.00     0.012 A 
ATOM     88  C   UNL A   1      48.054  26.376  26.974  1.00  0.00     0.148 A 
ATOM     89  C   UNL A   1      48.236  26.919  24.225  1.00  0.00     0.002 A 
ATOM     90  C   UNL A   1      49.200  26.032  26.266  1.00  0.00     0.091 A 
ATOM     91  F   UNL A   1      47.926  26.107  28.282  1.00  0.00    -0.205 F 
ATOM     92  C   UNL A   1      49.287  26.291  24.889  1.00  0.00     0.022 A 
BRANCH  90  93
ATOM     93  S   UNL A   1      50.645  25.306  27.051  1.00  0.00     0.127 S 
ATOM     94  O   UNL A   1      51.133  26.420  27.864  1.00  0.00    -0.237 OA
ATOM     95  O   UNL A   1      50.059  24.205  27.816  1.00  0.00    -0.237 OA
ATOM     96  O   UNL A   1      51.529  24.894  25.969  1.00  0.00    -0.744 OA
ENDBRANCH  90  93
ENDBRANCH  63  86
ENDBRANCH  37  38
ENDBRANCH  30  32
ENDBRANCH  29  30
ENDBRANCH  28  29
ENDBRANCH  27  28
ENDBRANCH  26  27
ENDBRANCH   1  26
TORSDOF 22
ENDMDL
MODEL 2
REMARK VINA RESULT:      -9.9      5.557      7.757
REMARK SMILES CC1(C)CCSC[C@@]1(Nc1ccccc1Br)C(=O)OCCOCCOCCOC(=O)c1ccc(-c2c3nc(c(-c4cccc(S(=O)(=O)[O-])c4F)c4ccc([nH]4)c(-c4cccc(S(=O)(=O)[O-])c4F)c4nc(c(-c5cccc(S(=O)(=O)[O-])c5F)c5ccc2[nH]5)C=C4)C=C3)cc1
REMARK SMILES IDX 24 1 23 2 22 3 21 4 20 5 19 6 17 7 18 8 8 9 1 10 2 11 3 12
REMARK SMILES IDX 4 13 5 14 7 15 6 16 9 17 10 19 11 20 15 21 12 22 14 23 16 24
REMARK SMILES IDX 13 25 25 26 26 27 27 28 28 29 29 30 30 31 31 32 32 33 93 34
REMARK SMILES IDX 33 35 92 36 34 37 35 38 36 39 86 40 37 41 91 42 85 43 87 44
REMARK SMILES IDX 38 45 90 46 84 47 83 48 39 50 71 51 51 52 70 53 52 54 55 55
REMARK SMILES IDX 69 56 88 57 53 58 54 59 68 61 89 62 56 63 40 64 41 65 49 66
REMARK SMILES IDX 42 67 44 68 50 69 43 70 45 71 46 72 47 73 48 74 72 75 73 76
REMARK SMILES IDX 81 77 74 78 76 79 82 80 75 81 77 82 78 83 79 84 80 85 57 86
REMARK SMILES IDX 58 87 66 88 59 89 61 90 67 91 60 92 62 93 63 94 64 95 65 96
REMARK H PARENT 9 18 87 49 55 60
REMARK Flexibility Score: inf
ROOT
ATOM      1  C   UNL A   1      35.024  32.894  28.168  1.00  0.00     0.188 C 
ENDROOT
BRANCH   1   2
ATOM      2  C   UNL A   1      34.054  31.697  28.105  1.00  0.00     0.188 C 
BRANCH   2   3
ATOM      3  O   UNL A   1      34.310  30.661  27.192  1.00  0.00    -0.376 OA
BRANCH   3   4
ATOM      4  C   UNL A   1      34.202  29.306  27.569  1.00  0.00     0.202 C 
BRANCH   4   5
ATOM      5  C   UNL A   1      32.995  28.415  27.259  1.00  0.00     0.261 C 
BRANCH   5   6
ATOM      6  O   UNL A   1      33.106  27.423  26.230  1.00  0.00    -0.461 OA
BRANCH   6   7
ATOM      7  C   UNL A   1      31.945  26.763  25.928  1.00  0.00     0.333 C 
ATOM      8  O   UNL A   1      31.039  26.602  26.737  1.00  0.00    -0.249 OA
BRANCH   7   9
ATOM      9  C   UNL A   1      31.939  26.103  24.513  1.00  0.00     0.150 C 
ATOM     10  C   UNL A   1      32.179  28.445  23.311  1.00  0.00     0.014 C 
ATOM     11  C   UNL A   1      31.370  27.122  23.401  1.00  0.00     0.000 C 
ATOM     12  C   UNL A   1      29.906  27.572  23.654  1.00  0.00     0.014 C 
ATOM     13  C   UNL A   1      31.393  26.456  21.994  1.00  0.00     0.020 C 
ATOM     14  C   UNL A   1      32.776  26.105  21.460  1.00  0.00     0.070 C 
ATOM     15  C   UNL A   1      33.390  25.674  24.132  1.00  0.00     0.110 C 
ATOM     16  S   UNL A   1      33.627  24.896  22.492  1.00  0.00    -0.159 SA
BRANCH   9  17
ATOM     17  N   UNL A   1      30.981  24.912  24.623  1.00  0.00    -0.368 N 
ATOM     18  H   UNL A   1      30.030  25.047  24.837  1.00  0.00     0.161 HD
BRANCH  17  19
ATOM     19  C   UNL A   1      31.496  23.613  24.408  1.00  0.00     0.049 A 
ATOM     20  C   UNL A   1      31.318  23.003  23.163  1.00  0.00     0.027 A 
ATOM     21  C   UNL A   1      32.308  22.941  25.344  1.00  0.00     0.041 A 
ATOM     22  C   UNL A   1      32.028  21.854  22.805  1.00  0.00     0.002 A 
ATOM     23  C   UNL A   1      33.072  21.829  24.969  1.00  0.00     0.018 A 
ATOM     24  Br  UNL A   1      32.330  23.417  27.185  1.00  0.00    -0.049 Br
ATOM     25  C   UNL A   1      32.946  21.299  23.690  1.00  0.00     0.001 A 
ENDBRANCH  17  19
ENDBRANCH   9  17
ENDBRANCH   7   9
ENDBRANCH   6   7
ENDBRANCH   5   6
ENDBRANCH   4   5
ENDBRANCH   3   4
ENDBRANCH   2   3
ENDBRANCH   1   2
BRANCH   1  26
ATOM     26  O   UNL A   1      34.565  34.224  28.044  1.00  0.00    -0.376 OA
BRANCH  26  27
ATOM     27  C   UNL A   1      33.201  34.494  28.302  1.00  0.00     0.202 C 
BRANCH  27  28
ATOM     28  C   UNL A   1      32.809  35.732  29.127  1.00  0.00     0.261 C 
BRANCH  28  29
ATOM     29  O   UNL A   1      32.115  35.473  30.362  1.00  0.00    -0.460 OA
BRANCH  29  30
ATOM     30  C   UNL A   1      32.723  35.891  31.501  1.00  0.00     0.338 C 
ATOM     31  O   UNL A   1      32.340  36.785  32.246  1.00  0.00    -0.246 OA
BRANCH  30  32
ATOM     32  C   UNL A   1      33.834  34.976  31.857  1.00  0.00     0.060 A 
ATOM     33  C   UNL A   1      33.587  33.928  32.758  1.00  0.00     0.016 A 
ATOM     34  C   UNL A   1      35.114  35.148  31.329  1.00  0.00     0.016 A 
ATOM     35  C   UNL A   1      34.611  33.049  33.129  1.00  0.00     0.010 A 
ATOM     36  C   UNL A   1      36.147  34.288  31.728  1.00  0.00     0.010 A 
ATOM     37  C   UNL A   1      35.908  33.240  32.639  1.00  0.00    -0.014 A 
BRANCH  37  38
ATOM     38  C   UNL A   1      37.049  32.433  33.154  1.00  0.00     0.031 A 
ATOM     39  C   UNL A   1      37.737  32.866  34.421  1.00  0.00     0.074 A 
ATOM     40  C   UNL A   1      37.506  31.358  32.484  1.00  0.00     0.049 A 
ATOM     41  N   UNL A   1      38.830  32.403  34.971  1.00  0.00    -0.248 NA
ATOM     42  C   UNL A   1      37.109  33.970  35.163  1.00  0.00     0.031 C 
ATOM     43  C   UNL A   1      36.919  30.809  31.264  1.00  0.00     0.029 A 
ATOM     44  N   UNL A   1      38.604  30.563  32.719  1.00  0.00    -0.354 N 
ATOM     45  C   UNL A   1      39.047  33.186  36.099  1.00  0.00     0.074 A 
ATOM     46  C   UNL A   1      37.966  34.146  36.159  1.00  0.00     0.031 C 
ATOM     47  C   UNL A   1      37.692  29.798  30.829  1.00  0.00     0.029 A 
ATOM     48  C   UNL A   1      38.847  29.655  31.714  1.00  0.00     0.049 A 
ATOM     49  H   UNL A   1      39.161  30.636  33.527  1.00  0.00     0.167 HD
ATOM     50  C   UNL A   1      40.055  33.114  37.002  1.00  0.00     0.034 A 
ATOM     51  C   UNL A   1      39.902  28.839  31.502  1.00  0.00     0.034 A 
ATOM     52  C   UNL A   1      41.127  32.155  36.952  1.00  0.00     0.049 A 
ATOM     53  C   UNL A   1      41.042  28.819  32.491  1.00  0.00     0.074 A 
ATOM     54  C   UNL A   1      42.161  31.976  37.855  1.00  0.00     0.029 A 
ATOM     55  N   UNL A   1      41.322  31.234  35.936  1.00  0.00    -0.354 N 
ATOM     56  N   UNL A   1      41.179  29.486  33.611  1.00  0.00    -0.248 NA
ATOM     57  C   UNL A   1      42.167  27.916  32.195  1.00  0.00     0.031 C 
ATOM     58  C   UNL A   1      43.007  30.978  37.361  1.00  0.00     0.029 A 
ATOM     59  C   UNL A   1      42.475  30.504  36.174  1.00  0.00     0.049 A 
ATOM     60  H   UNL A   1      40.728  31.116  35.160  1.00  0.00     0.167 HD
ATOM     61  C   UNL A   1      42.384  29.063  34.166  1.00  0.00     0.074 A 
ATOM     62  C   UNL A   1      42.928  28.064  33.271  1.00  0.00     0.031 C 
ATOM     63  C   UNL A   1      42.992  29.477  35.305  1.00  0.00     0.034 A 
BRANCH  50  64
ATOM     64  C   UNL A   1      40.054  34.109  38.134  1.00  0.00     0.023 A 
ATOM     65  C   UNL A   1      40.688  35.357  37.974  1.00  0.00     0.012 A 
ATOM     66  C   UNL A   1      39.368  33.829  39.332  1.00  0.00     0.148 A 
ATOM     67  C   UNL A   1      40.665  36.301  39.002  1.00  0.00     0.002 A 
ATOM     68  C   UNL A   1      39.310  34.791  40.333  1.00  0.00     0.091 A 
ATOM     69  F   UNL A   1      38.787  32.629  39.470  1.00  0.00    -0.205 F 
ATOM     70  C   UNL A   1      39.968  36.021  40.175  1.00  0.00     0.022 A 
BRANCH  68  71
ATOM     71  S   UNL A   1      38.372  34.560  41.847  1.00  0.00     0.127 S 
ATOM     72  O   UNL A   1      38.964  33.333  42.376  1.00  0.00    -0.237 OA
ATOM     73  O   UNL A   1      38.704  35.771  42.599  1.00  0.00    -0.237 OA
ATOM     74  O   UNL A   1      36.976  34.456  41.446  1.00  0.00    -0.744 OA
ENDBRANCH  68  71
ENDBRANCH  50  64
BRANCH  51  75
ATOM     75  C   UNL A   1      39.945  27.972  30.288  1.00  0.00     0.023 A 
ATOM     76  C   UNL A   1      39.153  26.809  30.233  1.00  0.00     0.012 A 
ATOM     77  C   UNL A   1      40.775  28.288  29.194  1.00  0.00     0.148 A 
ATOM     78  C   UNL A   1      39.210  25.961  29.125  1.00  0.00     0.002 A 
ATOM     79  C   UNL A   1      40.783  27.471  28.070  1.00  0.00     0.091 A 
ATOM     80  F   UNL A   1      41.540  29.387  29.275  1.00  0.00    -0.205 F 
ATOM     81  C   UNL A   1      40.014  26.297  28.040  1.00  0.00     0.022 A 
BRANCH  79  82
ATOM     82  S   UNL A   1      41.700  27.883  26.581  1.00  0.00     0.127 S 
ATOM     83  O   UNL A   1      41.234  29.239  26.307  1.00  0.00    -0.237 OA
ATOM     84  O   UNL A   1      43.084  27.789  27.046  1.00  0.00    -0.237 OA
ATOM     85  O   UNL A   1      41.326  26.877  25.595  1.00  0.00    -0.744 OA
ENDBRANCH  79  82
ENDBRANCH  51  75
BRANCH  63  86
ATOM     86  C   UNL A   1      44.306  28.837  35.683  1.00  0.00     0.023 A 
ATOM     87  C   UNL A   1      45.519  29.416  35.260  1.00  0.00     0.012 A 
ATOM     88  C   UNL A   1      44.341  27.711  36.530  1.00  0.00     0.148 A 
ATOM     89  C   UNL A   1      46.742  28.869  35.647  1.00  0.00     0.002 A 
ATOM     90  C   UNL A   1      45.562  27.200  36.954  1.00  0.00     0.091 A 
ATOM     91  F   UNL A   1      43.177  27.165  36.914  1.00  0.00    -0.205 F 
ATOM     92  C   UNL A   1      46.764  27.769  36.503  1.00  0.00     0.022 A 
BRANCH  90  93
ATOM     93  S   UNL A   1      45.693  25.847  38.131  1.00  0.00     0.127 S 
ATOM     94  O   UNL A   1      44.776  24.864  37.557  1.00  0.00    -0.237 OA
ATOM     95  O   UNL A   1      47.109  25.490  38.032  1.00  0.00    -0.237 OA
ATOM     96  O   UNL A   1      45.291  26.392  39.420  1.00  0.00    -0.744 OA
ENDBRANCH  90  93
ENDBRANCH  63  86
ENDBRANCH  37  38
ENDBRANCH  30  32
ENDBRANCH  29  30
ENDBRANCH  28  29
ENDBRANCH  27  28
ENDBRANCH  26  27
ENDBRANCH   1  26
TORSDOF 22
ENDMDL
MODEL 3
REMARK VINA RESULT:      -9.5      5.018      7.048
REMARK SMILES CC1(C)CCSC[C@@]1(Nc1ccccc1Br)C(=O)OCCOCCOCCOC(=O)c1ccc(-c2c3nc(c(-c4cccc(S(=O)(=O)[O-])c4F)c4ccc([nH]4)c(-c4cccc(S(=O)(=O)[O-])c4F)c4nc(c(-c5cccc(S(=O)(=O)[O-])c5F)c5ccc2[nH]5)C=C4)C=C3)cc1
REMARK SMILES IDX 24 1 23 2 22 3 21 4 20 5 19 6 17 7 18 8 8 9 1 10 2 11 3 12
REMARK SMILES IDX 4 13 5 14 7 15 6 16 9 17 10 19 11 20 15 21 12 22 14 23 16 24
REMARK SMILES IDX 13 25 25 26 26 27 27 28 28 29 29 30 30 31 31 32 32 33 93 34
REMARK SMILES IDX 33 35 92 36 34 37 35 38 36 39 86 40 37 41 91 42 85 43 87 44
REMARK SMILES IDX 38 45 90 46 84 47 83 48 39 50 71 51 51 52 70 53 52 54 55 55
REMARK SMILES IDX 69 56 88 57 53 58 54 59 68 61 89 62 56 63 40 64 41 65 49 66
REMARK SMILES IDX 42 67 44 68 50 69 43 70 45 71 46 72 47 73 48 74 72 75 73 76
REMARK SMILES IDX 81 77 74 78 76 79 82 80 75 81 77 82 78 83 79 84 80 85 57 86
REMARK SMILES IDX 58 87 66 88 59 89 61 90 67 91 60 92 62 93 63 94 64 95 65 96
REMARK H PARENT 9 18 87 49 55 60
REMARK Flexibility Score: inf
ROOT
ATOM      1  C   UNL A   1      34.835  32.944  28.705  1.00  0.00     0.188 C 
ENDROOT
BRANCH   1   2
ATOM      2  C   UNL A   1      33.638  32.022  28.400  1.00  0.00     0.188 C 
BRANCH   2   3
ATOM      3  O   UNL A   1      33.710  31.155  27.297  1.00  0.00    -0.376 OA
BRANCH   3   4
ATOM      4  C   UNL A   1      34.726  30.183  27.192  1.00  0.00     0.202 C 
BRANCH   4   5
ATOM      5  C   UNL A   1      34.475  28.674  27.100  1.00  0.00     0.261 C 
BRANCH   5   6
ATOM      6  O   UNL A   1      33.928  28.131  25.891  1.00  0.00    -0.461 OA
BRANCH   6   7
ATOM      7  C   UNL A   1      32.910  27.233  26.064  1.00  0.00     0.333 C 
ATOM      8  O   UNL A   1      32.405  26.997  27.156  1.00  0.00    -0.249 OA
BRANCH   7   9
ATOM      9  C   UNL A   1      32.550  26.424  24.777  1.00  0.00     0.150 C 
ATOM     10  C   UNL A   1      30.726  28.196  24.055  1.00  0.00     0.014 C 
ATOM     11  C   UNL A   1      31.026  26.697  24.330  1.00  0.00     0.000 C 
ATOM     12  C   UNL A   1      29.975  26.273  25.391  1.00  0.00     0.014 C 
ATOM     13  C   UNL A   1      30.692  25.902  23.033  1.00  0.00     0.020 C 
ATOM     14  C   UNL A   1      31.488  26.303  21.798  1.00  0.00     0.070 C 
ATOM     15  C   UNL A   1      33.513  26.832  23.620  1.00  0.00     0.110 C 
ATOM     16  S   UNL A   1      33.258  26.024  21.997  1.00  0.00    -0.159 SA
BRANCH   9  17
ATOM     17  N   UNL A   1      32.690  24.949  25.169  1.00  0.00    -0.368 N 
ATOM     18  H   UNL A   1      31.947  24.469  25.598  1.00  0.00     0.161 HD
BRANCH  17  19
ATOM     19  C   UNL A   1      33.914  24.296  24.900  1.00  0.00     0.049 A 
ATOM     20  C   UNL A   1      35.095  24.800  25.453  1.00  0.00     0.027 A 
ATOM     21  C   UNL A   1      33.999  23.072  24.207  1.00  0.00     0.041 A 
ATOM     22  C   UNL A   1      36.278  24.057  25.450  1.00  0.00     0.002 A 
ATOM     23  C   UNL A   1      35.162  22.293  24.258  1.00  0.00     0.018 A 
ATOM     24  Br  UNL A   1      32.603  22.458  23.072  1.00  0.00    -0.049 Br
ATOM     25  C   UNL A   1      36.296  22.780  24.900  1.00  0.00     0.001 A 
ENDBRANCH  17  19
ENDBRANCH   9  17
ENDBRANCH   7   9
ENDBRANCH   6   7
ENDBRANCH   5   6
ENDBRANCH   4   5
ENDBRANCH   3   4
ENDBRANCH   2   3
ENDBRANCH   1   2
BRANCH   1  26
ATOM     26  O   UNL A   1      34.760  34.341  28.509  1.00  0.00    -0.376 OA
BRANCH  26  27
ATOM     27  C   UNL A   1      33.491  34.963  28.566  1.00  0.00     0.202 C 
BRANCH  27  28
ATOM     28  C   UNL A   1      33.209  36.028  29.638  1.00  0.00     0.261 C 
BRANCH  28  29
ATOM     29  O   UNL A   1      32.279  35.653  30.671  1.00  0.00    -0.460 OA
BRANCH  29  30
ATOM     30  C   UNL A   1      32.722  35.742  31.951  1.00  0.00     0.338 C 
ATOM     31  O   UNL A   1      32.155  36.301  32.881  1.00  0.00    -0.246 OA
BRANCH  30  32
ATOM     32  C   UNL A   1      33.915  34.882  32.143  1.00  0.00     0.060 A 
ATOM     33  C   UNL A   1      33.733  33.554  32.561  1.00  0.00     0.016 A 
ATOM     34  C   UNL A   1      35.204  35.373  31.935  1.00  0.00     0.016 A 
ATOM     35  C   UNL A   1      34.834  32.713  32.765  1.00  0.00     0.010 A 
ATOM     36  C   UNL A   1      36.307  34.540  32.174  1.00  0.00     0.010 A 
ATOM     37  C   UNL A   1      36.132  33.209  32.602  1.00  0.00    -0.014 A 
BRANCH  37  38
ATOM     38  C   UNL A   1      37.318  32.393  32.984  1.00  0.00     0.031 A 
ATOM     39  C   UNL A   1      37.969  32.631  34.320  1.00  0.00     0.074 A 
ATOM     40  C   UNL A   1      37.848  31.487  32.140  1.00  0.00     0.049 A 
ATOM     41  N   UNL A   1      39.085  32.143  34.798  1.00  0.00    -0.248 NA
ATOM     42  C   UNL A   1      37.267  33.542  35.238  1.00  0.00     0.031 C 
ATOM     43  C   UNL A   1      37.305  31.133  30.830  1.00  0.00     0.029 A 
ATOM     44  N   UNL A   1      38.992  30.732  32.248  1.00  0.00    -0.354 N 
ATOM     45  C   UNL A   1      39.244  32.721  36.052  1.00  0.00     0.074 A 
ATOM     46  C   UNL A   1      38.104  33.587  36.264  1.00  0.00     0.031 C 
ATOM     47  C   UNL A   1      38.143  30.267  30.234  1.00  0.00     0.029 A 
ATOM     48  C   UNL A   1      39.299  30.037  31.100  1.00  0.00     0.049 A 
ATOM     49  H   UNL A   1      39.538  30.691  33.066  1.00  0.00     0.167 HD
ATOM     50  C   UNL A   1      40.249  32.549  36.946  1.00  0.00     0.034 A 
ATOM     51  C   UNL A   1      40.405  29.339  30.764  1.00  0.00     0.034 A 
ATOM     52  C   UNL A   1      41.379  31.682  36.744  1.00  0.00     0.049 A 
ATOM     53  C   UNL A   1      41.537  29.209  31.754  1.00  0.00     0.074 A 
ATOM     54  C   UNL A   1      42.416  31.406  37.619  1.00  0.00     0.029 A 
ATOM     55  N   UNL A   1      41.639  30.974  35.582  1.00  0.00    -0.354 N 
ATOM     56  N   UNL A   1      41.623  29.670  32.978  1.00  0.00    -0.248 NA
ATOM     57  C   UNL A   1      42.719  28.445  31.321  1.00  0.00     0.031 C 
ATOM     58  C   UNL A   1      43.326  30.568  36.968  1.00  0.00     0.029 A 
ATOM     59  C   UNL A   1      42.834  30.284  35.706  1.00  0.00     0.049 A 
ATOM     60  H   UNL A   1      41.060  30.962  34.787  1.00  0.00     0.167 HD
ATOM     61  C   UNL A   1      42.849  29.228  33.470  1.00  0.00     0.074 A 
ATOM     62  C   UNL A   1      43.461  28.442  32.419  1.00  0.00     0.031 C 
ATOM     63  C   UNL A   1      43.422  29.466  34.676  1.00  0.00     0.034 A 
BRANCH  50  64
ATOM     64  C   UNL A   1      40.177  33.321  38.238  1.00  0.00     0.023 A 
ATOM     65  C   UNL A   1      39.547  32.752  39.364  1.00  0.00     0.012 A 
ATOM     66  C   UNL A   1      40.792  34.582  38.353  1.00  0.00     0.148 A 
ATOM     67  C   UNL A   1      39.504  33.441  40.576  1.00  0.00     0.002 A 
ATOM     68  C   UNL A   1      40.785  35.243  39.576  1.00  0.00     0.091 A 
ATOM     69  F   UNL A   1      41.369  35.113  37.266  1.00  0.00    -0.205 F 
ATOM     70  C   UNL A   1      40.131  34.681  40.683  1.00  0.00     0.022 A 
BRANCH  68  71
ATOM     71  S   UNL A   1      41.631  36.805  39.839  1.00  0.00     0.127 S 
ATOM     72  O   UNL A   1      42.969  36.505  39.331  1.00  0.00    -0.237 OA
ATOM     73  O   UNL A   1      40.853  37.719  39.003  1.00  0.00    -0.237 OA
ATOM     74  O   UNL A   1      41.554  37.071  41.269  1.00  0.00    -0.744 OA
ENDBRANCH  68  71
ENDBRANCH  50  64
BRANCH  51  75
ATOM     75  C   UNL A   1      40.512  28.710  29.415  1.00  0.00     0.023 A 
ATOM     76  C   UNL A   1      40.939  29.481  28.317  1.00  0.00     0.012 A 
ATOM     77  C   UNL A   1      40.181  27.355  29.213  1.00  0.00     0.148 A 
ATOM     78  C   UNL A   1      41.006  28.925  27.039  1.00  0.00     0.002 A 
ATOM     79  C   UNL A   1      40.305  26.792  27.948  1.00  0.00     0.091 A 
ATOM     80  F   UNL A   1      39.753  26.642  30.265  1.00  0.00    -0.205 F 
ATOM     81  C   UNL A   1      40.700  27.579  26.856  1.00  0.00     0.022 A 
BRANCH  79  82
ATOM     82  S   UNL A   1      40.044  25.041  27.639  1.00  0.00     0.127 S 
ATOM     83  O   UNL A   1      41.154  24.438  28.371  1.00  0.00    -0.237 OA
ATOM     84  O   UNL A   1      38.725  24.826  28.234  1.00  0.00    -0.237 OA
ATOM     85  O   UNL A   1      40.084  24.884  26.191  1.00  0.00    -0.744 OA
ENDBRANCH  79  82
ENDBRANCH  51  75
BRANCH  63  86
ATOM     86  C   UNL A   1      44.770  28.849  34.957  1.00  0.00     0.023 A 
ATOM     87  C   UNL A   1      45.947  29.583  34.706  1.00  0.00     0.012 A 
ATOM     88  C   UNL A   1      44.870  27.574  35.550  1.00  0.00     0.148 A 
ATOM     89  C   UNL A   1      47.198  29.049  35.012  1.00  0.00     0.002 A 
ATOM     90  C   UNL A   1      46.117  27.067  35.899  1.00  0.00     0.091 A 
ATOM     91  F   UNL A   1      43.742  26.883  35.771  1.00  0.00    -0.205 F 
ATOM     92  C   UNL A   1      47.283  27.798  35.619  1.00  0.00     0.022 A 
BRANCH  90  93
ATOM     93  S   UNL A   1      46.323  25.509  36.771  1.00  0.00     0.127 S 
ATOM     94  O   UNL A   1      46.363  24.553  35.665  1.00  0.00    -0.237 OA
ATOM     95  O   UNL A   1      47.601  25.705  37.454  1.00  0.00    -0.237 OA
ATOM     96  O   UNL A   1      45.172  25.385  37.656  1.00  0.00    -0.744 OA
ENDBRANCH  90  93
ENDBRANCH  63  86
ENDBRANCH  37  38
ENDBRANCH  30  32
ENDBRANCH  29  30
ENDBRANCH  28  29
ENDBRANCH  27  28
ENDBRANCH  26  27
ENDBRANCH   1  26
TORSDOF 22
ENDMDL
