MODEL 1
REMARK VINA RESULT:     -10.9      0.000      0.000
REMARK SMILES O=C(Cc1c(C(=O)c2cc3c(cn2)CCCC3)[nH]c2cc(Cl)ccc12)OCCOCCOCCOC(=O)c1ccc(-c2c3nc(c(-c4cccc(S(=O)(=O)[O-])c4F)c4ccc([nH]4)c(-c4cccc(S(=O)(=O)[O-])c4F)c4nc(c(-c5cccc(S(=O)(=O)[O-])c5F)c5ccc2[nH]5)C=C4)C=C3)cc1
REMARK SMILES IDX 30 1 29 2 28 3 27 4 26 5 2 6 1 7 3 8 4 9 5 10 25 11 18 12
REMARK SMILES IDX 19 13 24 14 20 16 23 17 21 18 22 19 6 20 7 21 8 22 9 23
REMARK SMILES IDX 13 24 10 25 12 26 11 27 17 28 14 29 16 30 15 31 31 32 32 33
REMARK SMILES IDX 33 34 34 35 35 36 36 37 37 38 38 39 39 40 100 41 40 42 99 43
REMARK SMILES IDX 41 44 42 45 43 46 93 47 44 48 98 49 92 50 94 51 45 52 97 53
REMARK SMILES IDX 91 54 90 55 46 57 78 58 58 59 77 60 59 61 62 62 76 63 95 64
REMARK SMILES IDX 60 65 61 66 75 68 96 69 63 70 47 71 48 72 56 73 49 74 51 75
REMARK SMILES IDX 57 76 50 77 52 78 53 79 54 80 55 81 79 82 80 83 88 84 81 85
REMARK SMILES IDX 83 86 89 87 82 88 84 89 85 90 86 91 87 92 64 93 65 94 73 95
REMARK SMILES IDX 66 96 68 97 74 98 67 99 69 100 70 101 71 102 72 103
REMARK H PARENT 18 15 94 56 62 67
REMARK Flexibility Score: inf
ROOT
ATOM      1  C   UNL A   1      36.533  23.714  26.144  1.00  0.00     0.188 C 
ENDROOT
BRANCH   1   2
ATOM      2  O   UNL A   1      35.290  23.850  25.482  1.00  0.00    -0.376 OA
BRANCH   2   3
ATOM      3  C   UNL A   1      35.246  24.266  24.128  1.00  0.00     0.202 C 
BRANCH   3   4
ATOM      4  C   UNL A   1      35.131  23.207  23.029  1.00  0.00     0.261 C 
BRANCH   4   5
ATOM      5  O   UNL A   1      33.900  23.099  22.295  1.00  0.00    -0.463 OA
BRANCH   5   6
ATOM      6  C   UNL A   1      33.011  24.100  22.113  1.00  0.00     0.310 C 
ATOM      7  O   UNL A   1      33.345  25.094  21.470  1.00  0.00    -0.252 OA
BRANCH   6   8
ATOM      8  C   UNL A   1      31.719  24.054  22.880  1.00  0.00     0.161 C 
BRANCH   8   9
ATOM      9  C   UNL A   1      31.759  24.655  24.243  1.00  0.00     0.000 A 
ATOM     10  C   UNL A   1      31.785  23.848  25.370  1.00  0.00     0.093 A 
ATOM     11  C   UNL A   1      31.649  25.999  24.730  1.00  0.00     0.004 A 
ATOM     12  N   UNL A   1      32.234  24.648  26.395  1.00  0.00    -0.351 N 
ATOM     13  C   UNL A   1      32.067  25.970  26.060  1.00  0.00     0.048 A 
ATOM     14  C   UNL A   1      31.245  27.251  24.218  1.00  0.00     0.012 A 
ATOM     15  H   UNL A   1      32.617  24.322  27.241  1.00  0.00     0.167 HD
ATOM     16  C   UNL A   1      32.239  27.125  26.837  1.00  0.00     0.047 A 
ATOM     17  C   UNL A   1      31.353  28.413  24.989  1.00  0.00     0.021 A 
ATOM     18  C   UNL A   1      31.884  28.348  26.267  1.00  0.00     0.043 A 
ATOM     19  Cl  UNL A   1      32.077  29.801  27.171  1.00  0.00    -0.084 Cl
BRANCH  10  20
ATOM     20  C   UNL A   1      31.443  22.430  25.429  1.00  0.00     0.227 C 
ATOM     21  O   UNL A   1      30.385  22.001  25.882  1.00  0.00    -0.285 OA
BRANCH  20  22
ATOM     22  C   UNL A   1      32.475  21.485  25.000  1.00  0.00     0.113 A 
ATOM     23  C   UNL A   1      32.106  20.540  24.053  1.00  0.00     0.036 A 
ATOM     24  N   UNL A   1      33.593  21.458  25.753  1.00  0.00    -0.252 NA
ATOM     25  C   UNL A   1      32.906  19.418  23.930  1.00  0.00    -0.041 A 
ATOM     26  C   UNL A   1      34.406  20.412  25.533  1.00  0.00     0.115 A 
ATOM     27  C   UNL A   1      34.075  19.346  24.698  1.00  0.00    -0.026 A 
ATOM     28  C   UNL A   1      32.434  18.275  23.079  1.00  0.00     0.036 C 
ATOM     29  C   UNL A   1      35.017  18.190  24.586  1.00  0.00     0.037 C 
ATOM     30  C   UNL A   1      33.520  17.254  22.773  1.00  0.00     0.005 C 
ATOM     31  C   UNL A   1      34.374  16.940  23.993  1.00  0.00     0.005 C 
ENDBRANCH  20  22
ENDBRANCH  10  20
ENDBRANCH   8   9
ENDBRANCH   6   8
ENDBRANCH   5   6
ENDBRANCH   4   5
ENDBRANCH   3   4
ENDBRANCH   2   3
ENDBRANCH   1   2
BRANCH   1  32
ATOM     32  C   UNL A   1      37.613  22.961  25.364  1.00  0.00     0.188 C 
BRANCH  32  33
ATOM     33  O   UNL A   1      38.259  21.867  25.996  1.00  0.00    -0.376 OA
BRANCH  33  34
ATOM     34  C   UNL A   1      38.456  20.666  25.257  1.00  0.00     0.202 C 
BRANCH  34  35
ATOM     35  C   UNL A   1      39.349  19.527  25.792  1.00  0.00     0.261 C 
BRANCH  35  36
ATOM     36  O   UNL A   1      40.699  19.467  25.288  1.00  0.00    -0.460 OA
BRANCH  36  37
ATOM     37  C   UNL A   1      41.702  19.618  26.195  1.00  0.00     0.338 C 
ATOM     38  O   UNL A   1      42.522  18.781  26.513  1.00  0.00    -0.246 OA
BRANCH  37  39
ATOM     39  C   UNL A   1      41.746  21.025  26.667  1.00  0.00     0.060 A 
ATOM     40  C   UNL A   1      41.660  21.324  28.026  1.00  0.00     0.016 A 
ATOM     41  C   UNL A   1      41.929  22.061  25.738  1.00  0.00     0.016 A 
ATOM     42  C   UNL A   1      41.750  22.658  28.452  1.00  0.00     0.010 A 
ATOM     43  C   UNL A   1      41.974  23.396  26.161  1.00  0.00     0.010 A 
ATOM     44  C   UNL A   1      41.902  23.709  27.526  1.00  0.00    -0.014 A 
BRANCH  44  45
ATOM     45  C   UNL A   1      42.196  25.092  27.998  1.00  0.00     0.031 A 
ATOM     46  C   UNL A   1      41.120  26.066  28.400  1.00  0.00     0.074 A 
ATOM     47  C   UNL A   1      43.488  25.478  28.041  1.00  0.00     0.049 A 
ATOM     48  N   UNL A   1      41.256  27.277  28.883  1.00  0.00    -0.248 NA
ATOM     49  C   UNL A   1      39.720  25.644  28.251  1.00  0.00     0.031 C 
ATOM     50  C   UNL A   1      44.626  24.651  27.632  1.00  0.00     0.029 A 
ATOM     51  N   UNL A   1      44.064  26.658  28.442  1.00  0.00    -0.354 N 
ATOM     52  C   UNL A   1      39.970  27.768  29.084  1.00  0.00     0.074 A 
ATOM     53  C   UNL A   1      39.062  26.723  28.670  1.00  0.00     0.031 C 
ATOM     54  C   UNL A   1      45.761  25.343  27.815  1.00  0.00     0.029 A 
ATOM     55  C   UNL A   1      45.435  26.665  28.341  1.00  0.00     0.049 A 
ATOM     56  H   UNL A   1      43.544  27.427  28.772  1.00  0.00     0.167 HD
ATOM     57  C   UNL A   1      39.598  28.967  29.591  1.00  0.00     0.034 A 
ATOM     58  C   UNL A   1      46.339  27.619  28.643  1.00  0.00     0.034 A 
ATOM     59  C   UNL A   1      40.518  29.974  30.070  1.00  0.00     0.049 A 
ATOM     60  C   UNL A   1      45.884  28.927  29.220  1.00  0.00     0.074 A 
ATOM     61  C   UNL A   1      40.214  31.156  30.732  1.00  0.00     0.029 A 
ATOM     62  N   UNL A   1      41.892  29.931  29.955  1.00  0.00    -0.354 N 
ATOM     63  N   UNL A   1      44.671  29.308  29.524  1.00  0.00    -0.248 NA
ATOM     64  C   UNL A   1      46.923  29.924  29.529  1.00  0.00     0.031 C 
ATOM     65  C   UNL A   1      41.394  31.847  30.980  1.00  0.00     0.029 A 
ATOM     66  C   UNL A   1      42.439  31.069  30.523  1.00  0.00     0.049 A 
ATOM     67  H   UNL A   1      42.405  29.205  29.533  1.00  0.00     0.167 HD
ATOM     68  C   UNL A   1      44.806  30.562  30.106  1.00  0.00     0.074 A 
ATOM     69  C   UNL A   1      46.214  30.885  30.109  1.00  0.00     0.031 C 
ATOM     70  C   UNL A   1      43.839  31.368  30.593  1.00  0.00     0.034 A 
BRANCH  57  71
ATOM     71  C   UNL A   1      38.142  29.310  29.844  1.00  0.00     0.023 A 
ATOM     72  C   UNL A   1      37.672  29.055  31.149  1.00  0.00     0.012 A 
ATOM     73  C   UNL A   1      37.525  30.314  29.058  1.00  0.00     0.148 A 
ATOM     74  C   UNL A   1      36.709  29.885  31.717  1.00  0.00     0.002 A 
ATOM     75  C   UNL A   1      36.587  31.158  29.648  1.00  0.00     0.091 A 
ATOM     76  F   UNL A   1      37.988  30.525  27.819  1.00  0.00    -0.205 F 
ATOM     77  C   UNL A   1      36.209  30.963  30.985  1.00  0.00     0.022 A 
BRANCH  75  78
ATOM     78  S   UNL A   1      35.955  32.645  28.846  1.00  0.00     0.127 S 
ATOM     79  O   UNL A   1      35.583  32.152  27.519  1.00  0.00    -0.237 OA
ATOM     80  O   UNL A   1      34.817  32.990  29.692  1.00  0.00    -0.237 OA
ATOM     81  O   UNL A   1      37.060  33.594  28.845  1.00  0.00    -0.744 OA
ENDBRANCH  75  78
ENDBRANCH  57  71
BRANCH  58  82
ATOM     82  C   UNL A   1      47.789  27.343  28.481  1.00  0.00     0.023 A 
ATOM     83  C   UNL A   1      48.495  26.745  29.543  1.00  0.00     0.012 A 
ATOM     84  C   UNL A   1      48.462  27.661  27.289  1.00  0.00     0.148 A 
ATOM     85  C   UNL A   1      49.860  26.490  29.427  1.00  0.00     0.002 A 
ATOM     86  C   UNL A   1      49.814  27.370  27.167  1.00  0.00     0.091 A 
ATOM     87  F   UNL A   1      47.764  28.236  26.300  1.00  0.00    -0.205 F 
ATOM     88  C   UNL A   1      50.517  26.795  28.238  1.00  0.00     0.022 A 
BRANCH  86  89
ATOM     89  S   UNL A   1      50.729  27.654  25.649  1.00  0.00     0.127 S 
ATOM     90  O   UNL A   1      50.310  29.009  25.300  1.00  0.00    -0.237 OA
ATOM     91  O   UNL A   1      52.114  27.537  26.109  1.00  0.00    -0.237 OA
ATOM     92  O   UNL A   1      50.306  26.609  24.728  1.00  0.00    -0.744 OA
ENDBRANCH  86  89
ENDBRANCH  58  82
BRANCH  70  93
ATOM     93  C   UNL A   1      44.225  32.665  31.242  1.00  0.00     0.023 A 
ATOM     94  C   UNL A   1      44.294  33.838  30.469  1.00  0.00     0.012 A 
ATOM     95  C   UNL A   1      44.360  32.742  32.644  1.00  0.00     0.148 A 
ATOM     96  C   UNL A   1      44.502  35.072  31.083  1.00  0.00     0.002 A 
ATOM     97  C   UNL A   1      44.533  33.979  33.251  1.00  0.00     0.091 A 
ATOM     98  F   UNL A   1      44.286  31.608  33.355  1.00  0.00    -0.205 F 
ATOM     99  C   UNL A   1      44.607  35.145  32.471  1.00  0.00     0.022 A 
BRANCH  97 100
ATOM    100  S   UNL A   1      44.608  34.178  35.035  1.00  0.00     0.127 S 
ATOM    101  O   UNL A   1      43.377  33.511  35.459  1.00  0.00    -0.237 OA
ATOM    102  O   UNL A   1      45.837  33.461  35.378  1.00  0.00    -0.237 OA
ATOM    103  O   UNL A   1      44.651  35.612  35.284  1.00  0.00    -0.744 OA
ENDBRANCH  97 100
ENDBRANCH  70  93
ENDBRANCH  44  45
ENDBRANCH  37  39
ENDBRANCH  36  37
ENDBRANCH  35  36
ENDBRANCH  34  35
ENDBRANCH  33  34
ENDBRANCH  32  33
ENDBRANCH   1  32
TORSDOF 23
ENDMDL
MODEL 2
REMARK VINA RESULT:     -10.3      2.756      3.372
REMARK SMILES O=C(Cc1c(C(=O)c2cc3c(cn2)CCCC3)[nH]c2cc(Cl)ccc12)OCCOCCOCCOC(=O)c1ccc(-c2c3nc(c(-c4cccc(S(=O)(=O)[O-])c4F)c4ccc([nH]4)c(-c4cccc(S(=O)(=O)[O-])c4F)c4nc(c(-c5cccc(S(=O)(=O)[O-])c5F)c5ccc2[nH]5)C=C4)C=C3)cc1
REMARK SMILES IDX 30 1 29 2 28 3 27 4 26 5 2 6 1 7 3 8 4 9 5 10 25 11 18 12
REMARK SMILES IDX 19 13 24 14 20 16 23 17 21 18 22 19 6 20 7 21 8 22 9 23
REMARK SMILES IDX 13 24 10 25 12 26 11 27 17 28 14 29 16 30 15 31 31 32 32 33
REMARK SMILES IDX 33 34 34 35 35 36 36 37 37 38 38 39 39 40 100 41 40 42 99 43
REMARK SMILES IDX 41 44 42 45 43 46 93 47 44 48 98 49 92 50 94 51 45 52 97 53
REMARK SMILES IDX 91 54 90 55 46 57 78 58 58 59 77 60 59 61 62 62 76 63 95 64
REMARK SMILES IDX 60 65 61 66 75 68 96 69 63 70 47 71 48 72 56 73 49 74 51 75
REMARK SMILES IDX 57 76 50 77 52 78 53 79 54 80 55 81 79 82 80 83 88 84 81 85
REMARK SMILES IDX 83 86 89 87 82 88 84 89 85 90 86 91 87 92 64 93 65 94 73 95
REMARK SMILES IDX 66 96 68 97 74 98 67 99 69 100 70 101 71 102 72 103
REMARK H PARENT 18 15 94 56 62 67
REMARK Flexibility Score: inf
ROOT
ATOM      1  C   UNL A   1      36.451  23.715  26.186  1.00  0.00     0.188 C 
ENDROOT
BRANCH   1   2
ATOM      2  O   UNL A   1      35.290  23.726  25.377  1.00  0.00    -0.376 OA
BRANCH   2   3
ATOM      3  C   UNL A   1      35.361  24.186  24.038  1.00  0.00     0.202 C 
BRANCH   3   4
ATOM      4  C   UNL A   1      35.175  23.183  22.898  1.00  0.00     0.261 C 
BRANCH   4   5
ATOM      5  O   UNL A   1      33.884  23.072  22.274  1.00  0.00    -0.463 OA
BRANCH   5   6
ATOM      6  C   UNL A   1      32.998  24.083  22.133  1.00  0.00     0.310 C 
ATOM      7  O   UNL A   1      33.332  25.097  21.522  1.00  0.00    -0.252 OA
BRANCH   6   8
ATOM      8  C   UNL A   1      31.711  24.015  22.906  1.00  0.00     0.161 C 
BRANCH   8   9
ATOM      9  C   UNL A   1      31.745  24.628  24.265  1.00  0.00     0.000 A 
ATOM     10  C   UNL A   1      31.764  23.831  25.399  1.00  0.00     0.093 A 
ATOM     11  C   UNL A   1      31.634  25.977  24.738  1.00  0.00     0.004 A 
ATOM     12  N   UNL A   1      32.209  24.640  26.419  1.00  0.00    -0.351 N 
ATOM     13  C   UNL A   1      32.045  25.959  26.072  1.00  0.00     0.048 A 
ATOM     14  C   UNL A   1      31.235  27.224  24.214  1.00  0.00     0.012 A 
ATOM     15  H   UNL A   1      32.587  24.320  27.270  1.00  0.00     0.167 HD
ATOM     16  C   UNL A   1      32.215  27.120  26.839  1.00  0.00     0.047 A 
ATOM     17  C   UNL A   1      31.341  28.393  24.975  1.00  0.00     0.021 A 
ATOM     18  C   UNL A   1      31.864  28.339  26.257  1.00  0.00     0.043 A 
ATOM     19  Cl  UNL A   1      32.055  29.799  27.149  1.00  0.00    -0.084 Cl
BRANCH  10  20
ATOM     20  C   UNL A   1      31.420  22.414  25.468  1.00  0.00     0.227 C 
ATOM     21  O   UNL A   1      30.370  21.989  25.945  1.00  0.00    -0.285 OA
BRANCH  20  22
ATOM     22  C   UNL A   1      32.439  21.465  25.019  1.00  0.00     0.113 A 
ATOM     23  C   UNL A   1      32.065  20.560  24.036  1.00  0.00     0.036 A 
ATOM     24  N   UNL A   1      33.548  21.392  25.784  1.00  0.00    -0.252 NA
ATOM     25  C   UNL A   1      32.846  19.428  23.885  1.00  0.00    -0.041 A 
ATOM     26  C   UNL A   1      34.344  20.340  25.537  1.00  0.00     0.115 A 
ATOM     27  C   UNL A   1      34.004  19.309  24.663  1.00  0.00    -0.026 A 
ATOM     28  C   UNL A   1      32.364  18.324  22.989  1.00  0.00     0.036 C 
ATOM     29  C   UNL A   1      34.927  18.140  24.522  1.00  0.00     0.037 C 
ATOM     30  C   UNL A   1      33.435  17.294  22.661  1.00  0.00     0.005 C 
ATOM     31  C   UNL A   1      34.269  16.923  23.879  1.00  0.00     0.005 C 
ENDBRANCH  20  22
ENDBRANCH  10  20
ENDBRANCH   8   9
ENDBRANCH   6   8
ENDBRANCH   5   6
ENDBRANCH   4   5
ENDBRANCH   3   4
ENDBRANCH   2   3
ENDBRANCH   1   2
BRANCH   1  32
ATOM     32  C   UNL A   1      37.730  23.237  25.495  1.00  0.00     0.188 C 
BRANCH  32  33
ATOM     33  O   UNL A   1      38.551  22.301  26.174  1.00  0.00    -0.376 OA
BRANCH  33  34
ATOM     34  C   UNL A   1      38.906  21.092  25.510  1.00  0.00     0.202 C 
BRANCH  34  35
ATOM     35  C   UNL A   1      39.817  20.042  26.180  1.00  0.00     0.261 C 
BRANCH  35  36
ATOM     36  O   UNL A   1      41.045  19.715  25.497  1.00  0.00    -0.460 OA
BRANCH  36  37
ATOM     37  C   UNL A   1      42.201  19.882  26.195  1.00  0.00     0.338 C 
ATOM     38  O   UNL A   1      43.000  19.016  26.489  1.00  0.00    -0.246 OA
BRANCH  37  39
ATOM     39  C   UNL A   1      42.432  21.327  26.448  1.00  0.00     0.060 A 
ATOM     40  C   UNL A   1      42.644  21.798  27.744  1.00  0.00     0.016 A 
ATOM     41  C   UNL A   1      42.489  22.218  25.367  1.00  0.00     0.016 A 
ATOM     42  C   UNL A   1      42.906  23.161  27.954  1.00  0.00     0.010 A 
ATOM     43  C   UNL A   1      42.706  23.586  25.582  1.00  0.00     0.010 A 
ATOM     44  C   UNL A   1      42.935  24.071  26.878  1.00  0.00    -0.014 A 
BRANCH  44  45
ATOM     45  C   UNL A   1      43.408  25.468  27.087  1.00  0.00     0.031 A 
ATOM     46  C   UNL A   1      42.550  26.539  27.708  1.00  0.00     0.074 A 
ATOM     47  C   UNL A   1      44.655  25.775  26.676  1.00  0.00     0.049 A 
ATOM     48  N   UNL A   1      42.873  27.777  27.995  1.00  0.00    -0.248 NA
ATOM     49  C   UNL A   1      41.164  26.194  28.057  1.00  0.00     0.031 C 
ATOM     50  C   UNL A   1      45.574  24.846  26.014  1.00  0.00     0.029 A 
ATOM     51  N   UNL A   1      45.367  26.948  26.749  1.00  0.00    -0.354 N 
ATOM     52  C   UNL A   1      41.736  28.363  28.543  1.00  0.00     0.074 A 
ATOM     53  C   UNL A   1      40.711  27.345  28.550  1.00  0.00     0.031 C 
ATOM     54  C   UNL A   1      46.728  25.479  25.753  1.00  0.00     0.029 A 
ATOM     55  C   UNL A   1      46.631  26.860  26.216  1.00  0.00     0.049 A 
ATOM     56  H   UNL A   1      45.005  27.773  27.146  1.00  0.00     0.167 HD
ATOM     57  C   UNL A   1      41.585  29.623  29.016  1.00  0.00     0.034 A 
ATOM     58  C   UNL A   1      47.613  27.778  26.115  1.00  0.00     0.034 A 
ATOM     59  C   UNL A   1      42.641  30.609  29.070  1.00  0.00     0.049 A 
ATOM     60  C   UNL A   1      47.410  29.158  26.669  1.00  0.00     0.074 A 
ATOM     61  C   UNL A   1      42.604  31.861  29.669  1.00  0.00     0.029 A 
ATOM     62  N   UNL A   1      43.902  30.470  28.529  1.00  0.00    -0.354 N 
ATOM     63  N   UNL A   1      46.373  29.639  27.302  1.00  0.00    -0.248 NA
ATOM     64  C   UNL A   1      48.523  30.111  26.526  1.00  0.00     0.031 C 
ATOM     65  C   UNL A   1      43.822  32.495  29.456  1.00  0.00     0.029 A 
ATOM     66  C   UNL A   1      44.638  31.617  28.772  1.00  0.00     0.049 A 
ATOM     67  H   UNL A   1      44.229  29.679  28.043  1.00  0.00     0.167 HD
ATOM     68  C   UNL A   1      46.728  30.928  27.679  1.00  0.00     0.074 A 
ATOM     69  C   UNL A   1      48.070  31.161  27.200  1.00  0.00     0.031 C 
ATOM     70  C   UNL A   1      45.994  31.832  28.362  1.00  0.00     0.034 A 
BRANCH  57  71
ATOM     71  C   UNL A   1      40.300  30.077  29.682  1.00  0.00     0.023 A 
ATOM     72  C   UNL A   1      39.183  30.204  28.832  1.00  0.00     0.012 A 
ATOM     73  C   UNL A   1      40.108  29.812  31.060  1.00  0.00     0.148 A 
ATOM     74  C   UNL A   1      37.906  29.920  29.312  1.00  0.00     0.002 A 
ATOM     75  C   UNL A   1      38.832  29.497  31.521  1.00  0.00     0.091 A 
ATOM     76  F   UNL A   1      41.190  29.707  31.844  1.00  0.00    -0.205 F 
ATOM     77  C   UNL A   1      37.742  29.518  30.638  1.00  0.00     0.022 A 
BRANCH  75  78
ATOM     78  S   UNL A   1      38.509  28.859  33.176  1.00  0.00     0.127 S 
ATOM     79  O   UNL A   1      38.776  30.024  34.021  1.00  0.00    -0.237 OA
ATOM     80  O   UNL A   1      37.098  28.496  33.096  1.00  0.00    -0.237 OA
ATOM     81  O   UNL A   1      39.442  27.756  33.364  1.00  0.00    -0.744 OA
ENDBRANCH  75  78
ENDBRANCH  57  71
BRANCH  58  82
ATOM     82  C   UNL A   1      48.923  27.399  25.529  1.00  0.00     0.023 A 
ATOM     83  C   UNL A   1      49.135  27.578  24.148  1.00  0.00     0.012 A 
ATOM     84  C   UNL A   1      49.952  26.871  26.328  1.00  0.00     0.148 A 
ATOM     85  C   UNL A   1      50.347  27.214  23.567  1.00  0.00     0.002 A 
ATOM     86  C   UNL A   1      51.172  26.545  25.748  1.00  0.00     0.091 A 
ATOM     87  F   UNL A   1      49.718  26.705  27.637  1.00  0.00    -0.205 F 
ATOM     88  C   UNL A   1      51.367  26.705  24.366  1.00  0.00     0.022 A 
BRANCH  86  89
ATOM     89  S   UNL A   1      52.570  25.957  26.708  1.00  0.00     0.127 S 
ATOM     90  O   UNL A   1      52.995  27.177  27.390  1.00  0.00    -0.237 OA
ATOM     91  O   UNL A   1      51.941  24.956  27.569  1.00  0.00    -0.237 OA
ATOM     92  O   UNL A   1      53.516  25.417  25.741  1.00  0.00    -0.744 OA
ENDBRANCH  86  89
ENDBRANCH  58  82
BRANCH  70  93
ATOM     93  C   UNL A   1      46.610  33.155  28.717  1.00  0.00     0.023 A 
ATOM     94  C   UNL A   1      47.221  33.325  29.971  1.00  0.00     0.012 A 
ATOM     95  C   UNL A   1      46.720  34.169  27.743  1.00  0.00     0.148 A 
ATOM     96  C   UNL A   1      47.928  34.492  30.256  1.00  0.00     0.002 A 
ATOM     97  C   UNL A   1      47.454  35.314  28.022  1.00  0.00     0.091 A 
ATOM     98  F   UNL A   1      46.129  33.978  26.553  1.00  0.00    -0.205 F 
ATOM     99  C   UNL A   1      48.055  35.479  29.280  1.00  0.00     0.022 A 
BRANCH  97 100
ATOM    100  S   UNL A   1      47.731  36.605  26.803  1.00  0.00     0.127 S 
ATOM    101  O   UNL A   1      46.362  37.009  26.484  1.00  0.00    -0.237 OA
ATOM    102  O   UNL A   1      48.496  37.593  27.562  1.00  0.00    -0.237 OA
ATOM    103  O   UNL A   1      48.462  35.981  25.708  1.00  0.00    -0.744 OA
ENDBRANCH  97 100
ENDBRANCH  70  93
ENDBRANCH  44  45
ENDBRANCH  37  39
ENDBRANCH  36  37
ENDBRANCH  35  36
ENDBRANCH  34  35
ENDBRANCH  33  34
ENDBRANCH  32  33
ENDBRANCH   1  32
TORSDOF 23
ENDMDL
MODEL 3
REMARK VINA RESULT:      -9.9      2.207      2.730
REMARK SMILES O=C(Cc1c(C(=O)c2cc3c(cn2)CCCC3)[nH]c2cc(Cl)ccc12)OCCOCCOCCOC(=O)c1ccc(-c2c3nc(c(-c4cccc(S(=O)(=O)[O-])c4F)c4ccc([nH]4)c(-c4cccc(S(=O)(=O)[O-])c4F)c4nc(c(-c5cccc(S(=O)(=O)[O-])c5F)c5ccc2[nH]5)C=C4)C=C3)cc1
REMARK SMILES IDX 30 1 29 2 28 3 27 4 26 5 2 6 1 7 3 8 4 9 5 10 25 11 18 12
REMARK SMILES IDX 19 13 24 14 20 16 23 17 21 18 22 19 6 20 7 21 8 22 9 23
REMARK SMILES IDX 13 24 10 25 12 26 11 27 17 28 14 29 16 30 15 31 31 32 32 33
REMARK SMILES IDX 33 34 34 35 35 36 36 37 37 38 38 39 39 40 100 41 40 42 99 43
REMARK SMILES IDX 41 44 42 45 43 46 93 47 44 48 98 49 92 50 94 51 45 52 97 53
REMARK SMILES IDX 91 54 90 55 46 57 78 58 58 59 77 60 59 61 62 62 76 63 95 64
REMARK SMILES IDX 60 65 61 66 75 68 96 69 63 70 47 71 48 72 56 73 49 74 51 75
REMARK SMILES IDX 57 76 50 77 52 78 53 79 54 80 55 81 79 82 80 83 88 84 81 85
REMARK SMILES IDX 83 86 89 87 82 88 84 89 85 90 86 91 87 92 64 93 65 94 73 95
REMARK SMILES IDX 66 96 68 97 74 98 67 99 69 100 70 101 71 102 72 103
REMARK H PARENT 18 15 94 56 62 67
REMARK Flexibility Score: inf
ROOT
ATOM      1  C   UNL A   1      36.123  23.964  26.104  1.00  0.00     0.188 C 
ENDROOT
BRANCH   1   2
ATOM      2  O   UNL A   1      35.116  23.866  25.115  1.00  0.00    -0.376 OA
BRANCH   2   3
ATOM      3  C   UNL A   1      35.425  24.128  23.757  1.00  0.00     0.202 C 
BRANCH   3   4
ATOM      4  C   UNL A   1      35.070  23.081  22.700  1.00  0.00     0.261 C 
BRANCH   4   5
ATOM      5  O   UNL A   1      33.739  23.064  22.158  1.00  0.00    -0.463 OA
BRANCH   5   6
ATOM      6  C   UNL A   1      32.918  24.135  22.074  1.00  0.00     0.310 C 
ATOM      7  O   UNL A   1      33.305  25.148  21.494  1.00  0.00    -0.252 OA
BRANCH   6   8
ATOM      8  C   UNL A   1      31.645  24.121  22.874  1.00  0.00     0.161 C 
BRANCH   8   9
ATOM      9  C   UNL A   1      31.739  24.705  24.242  1.00  0.00     0.000 A 
ATOM     10  C   UNL A   1      31.793  23.885  25.358  1.00  0.00     0.093 A 
ATOM     11  C   UNL A   1      31.663  26.045  24.747  1.00  0.00     0.004 A 
ATOM     12  N   UNL A   1      32.287  24.667  26.376  1.00  0.00    -0.351 N 
ATOM     13  C   UNL A   1      32.126  25.995  26.062  1.00  0.00     0.048 A 
ATOM     14  C   UNL A   1      31.259  27.307  24.263  1.00  0.00     0.012 A 
ATOM     15  H   UNL A   1      32.694  24.326  27.205  1.00  0.00     0.167 HD
ATOM     16  C   UNL A   1      32.339  27.138  26.846  1.00  0.00     0.047 A 
ATOM     17  C   UNL A   1      31.408  28.459  25.043  1.00  0.00     0.021 A 
ATOM     18  C   UNL A   1      31.981  28.372  26.302  1.00  0.00     0.043 A 
ATOM     19  Cl  UNL A   1      32.224  29.812  27.215  1.00  0.00    -0.084 Cl
BRANCH  10  20
ATOM     20  C   UNL A   1      31.435  22.471  25.412  1.00  0.00     0.227 C 
ATOM     21  O   UNL A   1      30.371  22.052  25.863  1.00  0.00    -0.285 OA
BRANCH  20  22
ATOM     22  C   UNL A   1      32.455  21.515  24.981  1.00  0.00     0.113 A 
ATOM     23  C   UNL A   1      32.082  20.589  24.018  1.00  0.00     0.036 A 
ATOM     24  N   UNL A   1      33.566  21.460  25.746  1.00  0.00    -0.252 NA
ATOM     25  C   UNL A   1      32.865  19.456  23.889  1.00  0.00    -0.041 A 
ATOM     26  C   UNL A   1      34.364  20.405  25.520  1.00  0.00     0.115 A 
ATOM     27  C   UNL A   1      34.025  19.355  24.667  1.00  0.00    -0.026 A 
ATOM     28  C   UNL A   1      32.385  18.332  23.017  1.00  0.00     0.036 C 
ATOM     29  C   UNL A   1      34.950  18.186  24.549  1.00  0.00     0.037 C 
ATOM     30  C   UNL A   1      33.457  17.298  22.709  1.00  0.00     0.005 C 
ATOM     31  C   UNL A   1      34.294  16.954  23.933  1.00  0.00     0.005 C 
ENDBRANCH  20  22
ENDBRANCH  10  20
ENDBRANCH   8   9
ENDBRANCH   6   8
ENDBRANCH   5   6
ENDBRANCH   4   5
ENDBRANCH   3   4
ENDBRANCH   2   3
ENDBRANCH   1   2
BRANCH   1  32
ATOM     32  C   UNL A   1      37.538  23.616  25.637  1.00  0.00     0.188 C 
BRANCH  32  33
ATOM     33  O   UNL A   1      38.197  22.519  26.251  1.00  0.00    -0.376 OA
BRANCH  33  34
ATOM     34  C   UNL A   1      38.562  21.402  25.447  1.00  0.00     0.202 C 
BRANCH  34  35
ATOM     35  C   UNL A   1      39.363  20.218  26.028  1.00  0.00     0.261 C 
BRANCH  35  36
ATOM     36  O   UNL A   1      40.641  19.936  25.422  1.00  0.00    -0.460 OA
BRANCH  36  37
ATOM     37  C   UNL A   1      41.733  19.995  26.232  1.00  0.00     0.338 C 
ATOM     38  O   UNL A   1      42.423  19.060  26.584  1.00  0.00    -0.246 OA
BRANCH  37  39
ATOM     39  C   UNL A   1      42.059  21.411  26.537  1.00  0.00     0.060 A 
ATOM     40  C   UNL A   1      42.323  21.815  27.845  1.00  0.00     0.016 A 
ATOM     41  C   UNL A   1      42.152  22.340  25.490  1.00  0.00     0.016 A 
ATOM     42  C   UNL A   1      42.675  23.150  28.103  1.00  0.00     0.010 A 
ATOM     43  C   UNL A   1      42.459  23.681  25.754  1.00  0.00     0.010 A 
ATOM     44  C   UNL A   1      42.741  24.099  27.063  1.00  0.00    -0.014 A 
BRANCH  44  45
ATOM     45  C   UNL A   1      43.305  25.455  27.316  1.00  0.00     0.031 A 
ATOM     46  C   UNL A   1      42.502  26.575  27.925  1.00  0.00     0.074 A 
ATOM     47  C   UNL A   1      44.587  25.677  26.960  1.00  0.00     0.049 A 
ATOM     48  N   UNL A   1      42.902  27.781  28.247  1.00  0.00    -0.248 NA
ATOM     49  C   UNL A   1      41.083  26.326  28.213  1.00  0.00     0.031 C 
ATOM     50  C   UNL A   1      45.461  24.694  26.315  1.00  0.00     0.029 A 
ATOM     51  N   UNL A   1      45.377  26.793  27.083  1.00  0.00    -0.354 N 
ATOM     52  C   UNL A   1      41.789  28.439  28.763  1.00  0.00     0.074 A 
ATOM     53  C   UNL A   1      40.695  27.498  28.710  1.00  0.00     0.031 C 
ATOM     54  C   UNL A   1      46.668  25.246  26.112  1.00  0.00     0.029 A 
ATOM     55  C   UNL A   1      46.652  26.622  26.597  1.00  0.00     0.049 A 
ATOM     56  H   UNL A   1      45.060  27.636  27.481  1.00  0.00     0.167 HD
ATOM     57  C   UNL A   1      41.710  29.699  29.253  1.00  0.00     0.034 A 
ATOM     58  C   UNL A   1      47.701  27.469  26.550  1.00  0.00     0.034 A 
ATOM     59  C   UNL A   1      42.832  30.604  29.367  1.00  0.00     0.049 A 
ATOM     60  C   UNL A   1      47.575  28.850  27.123  1.00  0.00     0.074 A 
ATOM     61  C   UNL A   1      42.862  31.846  29.988  1.00  0.00     0.029 A 
ATOM     62  N   UNL A   1      44.100  30.383  28.871  1.00  0.00    -0.354 N 
ATOM     63  N   UNL A   1      46.551  29.395  27.725  1.00  0.00    -0.248 NA
ATOM     64  C   UNL A   1      48.759  29.722  27.042  1.00  0.00     0.031 C 
ATOM     65  C   UNL A   1      44.129  32.394  29.833  1.00  0.00     0.029 A 
ATOM     66  C   UNL A   1      44.907  31.470  29.165  1.00  0.00     0.049 A 
ATOM     67  H   UNL A   1      44.388  29.578  28.384  1.00  0.00     0.167 HD
ATOM     68  C   UNL A   1      46.983  30.648  28.139  1.00  0.00     0.074 A 
ATOM     69  C   UNL A   1      48.357  30.791  27.717  1.00  0.00     0.031 C 
ATOM     70  C   UNL A   1      46.290  31.592  28.811  1.00  0.00     0.034 A 
BRANCH  57  71
ATOM     71  C   UNL A   1      40.436  30.234  29.878  1.00  0.00     0.023 A 
ATOM     72  C   UNL A   1      39.417  30.595  28.973  1.00  0.00     0.012 A 
ATOM     73  C   UNL A   1      40.099  29.842  31.197  1.00  0.00     0.148 A 
ATOM     74  C   UNL A   1      38.080  30.423  29.325  1.00  0.00     0.002 A 
ATOM     75  C   UNL A   1      38.760  29.642  31.526  1.00  0.00     0.091 A 
ATOM     76  F   UNL A   1      41.091  29.514  32.036  1.00  0.00    -0.205 F 
ATOM     77  C   UNL A   1      37.759  29.899  30.577  1.00  0.00     0.022 A 
BRANCH  75  78
ATOM     78  S   UNL A   1      38.226  28.868  33.064  1.00  0.00     0.127 S 
ATOM     79  O   UNL A   1      38.851  29.719  34.078  1.00  0.00    -0.237 OA
ATOM     80  O   UNL A   1      36.775  29.003  32.988  1.00  0.00    -0.237 OA
ATOM     81  O   UNL A   1      38.744  27.507  33.023  1.00  0.00    -0.744 OA
ENDBRANCH  75  78
ENDBRANCH  57  71
BRANCH  58  82
ATOM     82  C   UNL A   1      49.002  27.004  26.008  1.00  0.00     0.023 A 
ATOM     83  C   UNL A   1      49.783  26.113  26.769  1.00  0.00     0.012 A 
ATOM     84  C   UNL A   1      49.463  27.434  24.752  1.00  0.00     0.148 A 
ATOM     85  C   UNL A   1      51.017  25.674  26.295  1.00  0.00     0.002 A 
ATOM     86  C   UNL A   1      50.677  26.964  24.269  1.00  0.00     0.091 A 
ATOM     87  F   UNL A   1      48.701  28.289  24.055  1.00  0.00    -0.205 F 
ATOM     88  C   UNL A   1      51.461  26.092  25.044  1.00  0.00     0.022 A 
BRANCH  86  89
ATOM     89  S   UNL A   1      51.295  27.385  22.638  1.00  0.00     0.127 S 
ATOM     90  O   UNL A   1      52.729  27.152  22.795  1.00  0.00    -0.237 OA
ATOM     91  O   UNL A   1      50.602  26.410  21.795  1.00  0.00    -0.237 OA
ATOM     92  O   UNL A   1      50.905  28.769  22.410  1.00  0.00    -0.744 OA
ENDBRANCH  86  89
ENDBRANCH  58  82
BRANCH  70  93
ATOM     93  C   UNL A   1      46.985  32.861  29.215  1.00  0.00     0.023 A 
ATOM     94  C   UNL A   1      46.888  33.999  28.395  1.00  0.00     0.012 A 
ATOM     95  C   UNL A   1      47.594  32.962  30.483  1.00  0.00     0.148 A 
ATOM     96  C   UNL A   1      47.398  35.222  28.830  1.00  0.00     0.002 A 
ATOM     97  C   UNL A   1      48.068  34.190  30.922  1.00  0.00     0.091 A 
ATOM     98  F   UNL A   1      47.668  31.860  31.244  1.00  0.00    -0.205 F 
ATOM     99  C   UNL A   1      47.974  35.321  30.095  1.00  0.00     0.022 A 
BRANCH  97 100
ATOM    100  S   UNL A   1      48.761  34.428  32.563  1.00  0.00     0.127 S 
ATOM    101  O   UNL A   1      49.131  35.842  32.526  1.00  0.00    -0.237 OA
ATOM    102  O   UNL A   1      47.624  34.118  33.430  1.00  0.00    -0.237 OA
ATOM    103  O   UNL A   1      49.878  33.499  32.672  1.00  0.00    -0.744 OA
ENDBRANCH  97 100
ENDBRANCH  70  93
ENDBRANCH  44  45
ENDBRANCH  37  39
ENDBRANCH  36  37
ENDBRANCH  35  36
ENDBRANCH  34  35
ENDBRANCH  33  34
ENDBRANCH  32  33
ENDBRANCH   1  32
TORSDOF 23
ENDMDL
